MODEL 1
REMARK VINA RESULT:     -14.0      0.000      0.000
REMARK SMILES O=C(Cn1nc(-c2ccc(Br)cc2)ccc1=O)N[C@H](C(=O)NCCCCNC(=O)c1ccc(-c2c3nc(c(-c4c(F)c(F)c(F)c(F)c4F)c4ccc([nH]4)c(-c4c(F)c(F)c(F)c(F)c4F)c4nc(c(-c5c(F)c(F)c(F)c(F)c5F)c5ccc2[nH]5)C=C4)C=C3)cc1)c1ccccc1
REMARK SMILES IDX 23 1 22 2 20 3 21 4 19 6 18 7 1 8 2 9 3 11 4 12 5 13 16 14
REMARK SMILES IDX 6 15 15 16 17 17 14 18 7 19 8 20 13 21 9 22 12 23 10 24
REMARK SMILES IDX 11 25 93 26 94 27 98 28 95 29 97 30 96 31 24 32 25 33 26 34
REMARK SMILES IDX 27 35 28 36 29 38 30 39 31 40 92 41 32 42 91 43 33 44 34 45
REMARK SMILES IDX 35 46 85 47 36 48 90 49 84 50 86 51 37 52 89 53 83 54 82 55
REMARK SMILES IDX 38 57 70 58 50 59 69 60 51 61 54 62 68 63 87 64 52 65 53 66
REMARK SMILES IDX 67 68 88 69 55 70 39 71 40 72 48 73 41 74 42 75 46 76 49 77
REMARK SMILES IDX 43 78 44 79 47 80 45 81 71 82 72 83 80 84 73 85 74 86 78 87
REMARK SMILES IDX 81 88 75 89 76 90 79 91 77 92 56 93 57 94 65 95 58 96 59 97
REMARK SMILES IDX 63 98 66 99 60 100 61 101 64 102 62 103
REMARK H PARENT 22 5 18 10 27 37 86 56 54 67
REMARK Flexibility Score: inf
ROOT
ATOM      1  C   UNL A   1      31.588  29.736  25.572  1.00  0.00     0.116 C 
ENDROOT
BRANCH   1   2
ATOM      2  N   UNL A   1      32.581  29.689  24.518  1.00  0.00    -0.354 N 
ATOM      3  C   UNL A   1      32.555  29.020  23.317  1.00  0.00     0.247 C 
ATOM      4  O   UNL A   1      33.599  29.051  22.662  1.00  0.00    -0.272 OA
ATOM      5  H   UNL A   1      33.397  30.213  24.687  1.00  0.00     0.163 HD
BRANCH   3   6
ATOM      6  C   UNL A   1      31.299  28.168  22.952  1.00  0.00     0.202 C 
BRANCH   6   7
ATOM      7  N   UNL A   1      31.109  27.069  23.904  1.00  0.00    -0.339 N 
ATOM      8  O   UNL A   1      31.141  25.342  22.391  1.00  0.00    -0.273 OA
ATOM      9  C   UNL A   1      31.143  25.734  23.552  1.00  0.00     0.242 C 
ATOM     10  H   UNL A   1      30.948  27.297  24.848  1.00  0.00     0.164 HD
BRANCH   9  11
ATOM     11  C   UNL A   1      30.969  24.788  24.741  1.00  0.00     0.248 C 
BRANCH  11  12
ATOM     12  N   UNL A   1      32.237  24.137  25.054  1.00  0.00    -0.220 N 
ATOM     13  N   UNL A   1      32.383  22.818  24.658  1.00  0.00    -0.169 NA
ATOM     14  C   UNL A   1      33.178  24.834  25.803  1.00  0.00     0.267 A 
ATOM     15  C   UNL A   1      33.454  22.200  25.049  1.00  0.00     0.091 A 
ATOM     16  C   UNL A   1      34.392  24.084  26.181  1.00  0.00     0.075 A 
ATOM     17  O   UNL A   1      33.074  26.004  26.158  1.00  0.00    -0.268 OA
ATOM     18  C   UNL A   1      34.545  22.805  25.838  1.00  0.00     0.036 A 
BRANCH  15  19
ATOM     19  C   UNL A   1      33.616  20.770  24.717  1.00  0.00     0.002 A 
ATOM     20  C   UNL A   1      32.523  20.059  24.213  1.00  0.00     0.011 A 
ATOM     21  C   UNL A   1      34.831  20.125  24.974  1.00  0.00     0.011 A 
ATOM     22  C   UNL A   1      32.655  18.696  23.940  1.00  0.00     0.016 A 
ATOM     23  C   UNL A   1      34.954  18.759  24.713  1.00  0.00     0.016 A 
ATOM     24  C   UNL A   1      33.868  18.053  24.194  1.00  0.00     0.018 A 
ATOM     25  Br  UNL A   1      34.038  16.203  23.845  1.00  0.00    -0.051 Br
ENDBRANCH  15  19
ENDBRANCH  11  12
ENDBRANCH   9  11
ENDBRANCH   6   7
BRANCH   6  26
ATOM     26  C   UNL A   1      30.001  28.892  22.587  1.00  0.00    -0.016 A 
ATOM     27  C   UNL A   1      30.029  30.075  21.822  1.00  0.00     0.006 A 
ATOM     28  C   UNL A   1      28.762  28.512  23.130  1.00  0.00     0.006 A 
ATOM     29  C   UNL A   1      28.871  30.821  21.583  1.00  0.00     0.000 A 
ATOM     30  C   UNL A   1      27.600  29.250  22.882  1.00  0.00     0.000 A 
ATOM     31  C   UNL A   1      27.654  30.405  22.110  1.00  0.00     0.000 A 
ENDBRANCH   6  26
ENDBRANCH   3   6
ENDBRANCH   1   2
BRANCH   1  32
ATOM     32  C   UNL A   1      32.107  30.459  26.813  1.00  0.00     0.023 C 
BRANCH  32  33
ATOM     33  C   UNL A   1      31.787  31.953  26.880  1.00  0.00     0.023 C 
BRANCH  33  34
ATOM     34  C   UNL A   1      32.949  32.851  27.284  1.00  0.00     0.116 C 
BRANCH  34  35
ATOM     35  N   UNL A   1      32.535  34.204  27.631  1.00  0.00    -0.352 N 
ATOM     36  C   UNL A   1      33.045  35.039  28.599  1.00  0.00     0.251 C 
ATOM     37  H   UNL A   1      31.791  34.570  27.102  1.00  0.00     0.163 HD
ATOM     38  O   UNL A   1      32.504  36.114  28.842  1.00  0.00    -0.269 OA
BRANCH  36  39
ATOM     39  C   UNL A   1      34.222  34.608  29.384  1.00  0.00     0.039 A 
ATOM     40  C   UNL A   1      35.512  34.802  28.887  1.00  0.00     0.014 A 
ATOM     41  C   UNL A   1      34.027  33.944  30.597  1.00  0.00     0.014 A 
ATOM     42  C   UNL A   1      36.586  34.172  29.505  1.00  0.00     0.010 A 
ATOM     43  C   UNL A   1      35.120  33.381  31.262  1.00  0.00     0.010 A 
ATOM     44  C   UNL A   1      36.400  33.439  30.690  1.00  0.00    -0.014 A 
BRANCH  44  45
ATOM     45  C   UNL A   1      37.554  32.715  31.286  1.00  0.00     0.031 A 
ATOM     46  C   UNL A   1      38.020  33.031  32.683  1.00  0.00     0.074 A 
ATOM     47  C   UNL A   1      38.137  31.718  30.594  1.00  0.00     0.049 A 
ATOM     48  N   UNL A   1      38.987  32.480  33.375  1.00  0.00    -0.248 NA
ATOM     49  C   UNL A   1      37.312  34.104  33.398  1.00  0.00     0.031 C 
ATOM     50  C   UNL A   1      37.763  31.306  29.241  1.00  0.00     0.029 A 
ATOM     51  N   UNL A   1      39.139  30.849  30.943  1.00  0.00    -0.354 N 
ATOM     52  C   UNL A   1      39.014  33.148  34.593  1.00  0.00     0.074 A 
ATOM     53  C   UNL A   1      37.985  34.165  34.539  1.00  0.00     0.031 C 
ATOM     54  C   UNL A   1      38.481  30.228  28.896  1.00  0.00     0.029 A 
ATOM     55  C   UNL A   1      39.408  29.909  29.979  1.00  0.00     0.049 A 
ATOM     56  H   UNL A   1      39.619  30.895  31.800  1.00  0.00     0.167 HD
ATOM     57  C   UNL A   1      39.813  32.923  35.663  1.00  0.00     0.037 A 
ATOM     58  C   UNL A   1      40.304  28.903  29.964  1.00  0.00     0.037 A 
ATOM     59  C   UNL A   1      40.813  31.891  35.730  1.00  0.00     0.049 A 
ATOM     60  C   UNL A   1      41.202  28.702  31.150  1.00  0.00     0.074 A 
ATOM     61  C   UNL A   1      41.655  31.573  36.782  1.00  0.00     0.029 A 
ATOM     62  N   UNL A   1      41.100  31.001  34.705  1.00  0.00    -0.354 N 
ATOM     63  N   UNL A   1      41.221  29.346  32.291  1.00  0.00    -0.248 NA
ATOM     64  C   UNL A   1      42.213  27.640  31.041  1.00  0.00     0.031 C 
ATOM     65  C   UNL A   1      42.478  30.516  36.381  1.00  0.00     0.029 A 
ATOM     66  C   UNL A   1      42.121  30.148  35.094  1.00  0.00     0.049 A 
ATOM     67  H   UNL A   1      40.647  30.979  33.832  1.00  0.00     0.167 HD
ATOM     68  C   UNL A   1      42.239  28.770  33.036  1.00  0.00     0.074 A 
ATOM     69  C   UNL A   1      42.800  27.707  32.229  1.00  0.00     0.031 C 
ATOM     70  C   UNL A   1      42.674  29.100  34.277  1.00  0.00     0.037 A 
BRANCH  57  71
ATOM     71  C   UNL A   1      39.647  33.812  36.861  1.00  0.00     0.064 A 
ATOM     72  C   UNL A   1      40.236  35.082  36.920  1.00  0.00     0.173 A 
ATOM     73  C   UNL A   1      38.826  33.417  37.930  1.00  0.00     0.173 A 
ATOM     74  F   UNL A   1      41.038  35.502  35.929  1.00  0.00    -0.203 F 
ATOM     75  C   UNL A   1      40.022  35.921  38.012  1.00  0.00     0.198 A 
ATOM     76  C   UNL A   1      38.595  34.267  39.007  1.00  0.00     0.198 A 
ATOM     77  F   UNL A   1      38.234  32.214  37.917  1.00  0.00    -0.203 F 
ATOM     78  F   UNL A   1      40.619  37.120  38.060  1.00  0.00    -0.200 F 
ATOM     79  C   UNL A   1      39.195  35.517  39.050  1.00  0.00     0.200 A 
ATOM     80  F   UNL A   1      37.787  33.879  40.004  1.00  0.00    -0.200 F 
ATOM     81  F   UNL A   1      38.979  36.331  40.092  1.00  0.00    -0.200 F 
ENDBRANCH  57  71
BRANCH  58  82
ATOM     82  C   UNL A   1      40.383  28.012  28.780  1.00  0.00     0.064 A 
ATOM     83  C   UNL A   1      39.667  26.809  28.737  1.00  0.00     0.173 A 
ATOM     84  C   UNL A   1      41.146  28.361  27.655  1.00  0.00     0.173 A 
ATOM     85  F   UNL A   1      38.941  26.424  29.797  1.00  0.00    -0.203 F 
ATOM     86  C   UNL A   1      39.712  25.986  27.614  1.00  0.00     0.198 A 
ATOM     87  C   UNL A   1      41.170  27.550  26.524  1.00  0.00     0.198 A 
ATOM     88  F   UNL A   1      41.848  29.504  27.649  1.00  0.00    -0.203 F 
ATOM     89  F   UNL A   1      39.041  24.826  27.608  1.00  0.00    -0.200 F 
ATOM     90  C   UNL A   1      40.457  26.361  26.505  1.00  0.00     0.200 A 
ATOM     91  F   UNL A   1      41.878  27.925  25.450  1.00  0.00    -0.200 F 
ATOM     92  F   UNL A   1      40.488  25.577  25.420  1.00  0.00    -0.200 F 
ENDBRANCH  58  82
BRANCH  70  93
ATOM     93  C   UNL A   1      43.814  28.307  34.839  1.00  0.00     0.064 A 
ATOM     94  C   UNL A   1      45.139  28.740  34.702  1.00  0.00     0.173 A 
ATOM     95  C   UNL A   1      43.575  27.137  35.576  1.00  0.00     0.173 A 
ATOM     96  F   UNL A   1      45.418  29.847  33.995  1.00  0.00    -0.203 F 
ATOM     97  C   UNL A   1      46.188  28.024  35.272  1.00  0.00     0.198 A 
ATOM     98  C   UNL A   1      44.624  26.435  36.163  1.00  0.00     0.198 A 
ATOM     99  F   UNL A   1      42.322  26.685  35.740  1.00  0.00    -0.203 F 
ATOM    100  F   UNL A   1      47.451  28.441  35.102  1.00  0.00    -0.200 F 
ATOM    101  C   UNL A   1      45.929  26.878  36.009  1.00  0.00     0.200 A 
ATOM    102  F   UNL A   1      44.372  25.335  36.885  1.00  0.00    -0.200 F 
ATOM    103  F   UNL A   1      46.939  26.197  36.566  1.00  0.00    -0.200 F 
ENDBRANCH  70  93
ENDBRANCH  44  45
ENDBRANCH  36  39
ENDBRANCH  34  35
ENDBRANCH  33  34
ENDBRANCH  32  33
ENDBRANCH   1  32
TORSDOF 16
ENDMDL
MODEL 2
REMARK VINA RESULT:     -13.9      0.316      7.047
REMARK SMILES O=C(Cn1nc(-c2ccc(Br)cc2)ccc1=O)N[C@H](C(=O)NCCCCNC(=O)c1ccc(-c2c3nc(c(-c4c(F)c(F)c(F)c(F)c4F)c4ccc([nH]4)c(-c4c(F)c(F)c(F)c(F)c4F)c4nc(c(-c5c(F)c(F)c(F)c(F)c5F)c5ccc2[nH]5)C=C4)C=C3)cc1)c1ccccc1
REMARK SMILES IDX 23 1 22 2 20 3 21 4 19 6 18 7 1 8 2 9 3 11 4 12 5 13 16 14
REMARK SMILES IDX 6 15 15 16 17 17 14 18 7 19 8 20 13 21 9 22 12 23 10 24
REMARK SMILES IDX 11 25 93 26 94 27 98 28 95 29 97 30 96 31 24 32 25 33 26 34
REMARK SMILES IDX 27 35 28 36 29 38 30 39 31 40 92 41 32 42 91 43 33 44 34 45
REMARK SMILES IDX 35 46 85 47 36 48 90 49 84 50 86 51 37 52 89 53 83 54 82 55
REMARK SMILES IDX 38 57 70 58 50 59 69 60 51 61 54 62 68 63 87 64 52 65 53 66
REMARK SMILES IDX 67 68 88 69 55 70 39 71 40 72 48 73 41 74 42 75 46 76 49 77
REMARK SMILES IDX 43 78 44 79 47 80 45 81 71 82 72 83 80 84 73 85 74 86 78 87
REMARK SMILES IDX 81 88 75 89 76 90 79 91 77 92 56 93 57 94 65 95 58 96 59 97
REMARK SMILES IDX 63 98 66 99 60 100 61 101 64 102 62 103
REMARK H PARENT 22 5 18 10 27 37 86 56 54 67
REMARK Flexibility Score: inf
ROOT
ATOM      1  C   UNL A   1      31.501  29.825  25.437  1.00  0.00     0.116 C 
ENDROOT
BRANCH   1   2
ATOM      2  N   UNL A   1      32.530  29.681  24.427  1.00  0.00    -0.354 N 
ATOM      3  C   UNL A   1      32.517  28.955  23.259  1.00  0.00     0.247 C 
ATOM      4  O   UNL A   1      33.586  28.907  22.645  1.00  0.00    -0.272 OA
ATOM      5  H   UNL A   1      33.362  30.176  24.603  1.00  0.00     0.163 HD
BRANCH   3   6
ATOM      6  C   UNL A   1      31.238  28.143  22.886  1.00  0.00     0.202 C 
BRANCH   6   7
ATOM      7  N   UNL A   1      31.026  27.030  23.816  1.00  0.00    -0.339 N 
ATOM      8  O   UNL A   1      31.394  25.315  22.333  1.00  0.00    -0.273 OA
ATOM      9  C   UNL A   1      31.218  25.703  23.482  1.00  0.00     0.242 C 
ATOM     10  H   UNL A   1      30.730  27.240  24.731  1.00  0.00     0.164 HD
BRANCH   9  11
ATOM     11  C   UNL A   1      30.981  24.742  24.648  1.00  0.00     0.248 C 
BRANCH  11  12
ATOM     12  N   UNL A   1      32.228  24.080  25.015  1.00  0.00    -0.220 N 
ATOM     13  N   UNL A   1      32.380  22.761  24.620  1.00  0.00    -0.169 NA
ATOM     14  C   UNL A   1      33.140  24.766  25.808  1.00  0.00     0.267 A 
ATOM     15  C   UNL A   1      33.428  22.133  25.056  1.00  0.00     0.091 A 
ATOM     16  C   UNL A   1      34.330  24.004  26.237  1.00  0.00     0.075 A 
ATOM     17  O   UNL A   1      33.029  25.935  26.164  1.00  0.00    -0.268 OA
ATOM     18  C   UNL A   1      34.487  22.725  25.896  1.00  0.00     0.036 A 
BRANCH  15  19
ATOM     19  C   UNL A   1      33.593  20.703  24.726  1.00  0.00     0.002 A 
ATOM     20  C   UNL A   1      32.478  19.963  24.319  1.00  0.00     0.011 A 
ATOM     21  C   UNL A   1      34.838  20.086  24.887  1.00  0.00     0.011 A 
ATOM     22  C   UNL A   1      32.617  18.600  24.049  1.00  0.00     0.016 A 
ATOM     23  C   UNL A   1      34.970  18.720  24.630  1.00  0.00     0.016 A 
ATOM     24  C   UNL A   1      33.860  17.986  24.209  1.00  0.00     0.018 A 
ATOM     25  Br  UNL A   1      34.040  16.136  23.865  1.00  0.00    -0.051 Br
ENDBRANCH  15  19
ENDBRANCH  11  12
ENDBRANCH   9  11
ENDBRANCH   6   7
BRANCH   6  26
ATOM     26  C   UNL A   1      29.956  28.907  22.546  1.00  0.00    -0.016 A 
ATOM     27  C   UNL A   1      30.004  30.080  21.766  1.00  0.00     0.006 A 
ATOM     28  C   UNL A   1      28.720  28.576  23.124  1.00  0.00     0.006 A 
ATOM     29  C   UNL A   1      28.867  30.863  21.549  1.00  0.00     0.000 A 
ATOM     30  C   UNL A   1      27.577  29.350  22.897  1.00  0.00     0.000 A 
ATOM     31  C   UNL A   1      27.651  30.494  22.111  1.00  0.00     0.000 A 
ENDBRANCH   6  26
ENDBRANCH   3   6
ENDBRANCH   1   2
BRANCH   1  32
ATOM     32  C   UNL A   1      32.035  30.489  26.704  1.00  0.00     0.023 C 
BRANCH  32  33
ATOM     33  C   UNL A   1      31.748  31.985  26.829  1.00  0.00     0.023 C 
BRANCH  33  34
ATOM     34  C   UNL A   1      32.910  32.832  27.332  1.00  0.00     0.116 C 
BRANCH  34  35
ATOM     35  N   UNL A   1      32.532  34.207  27.628  1.00  0.00    -0.352 N 
ATOM     36  C   UNL A   1      33.017  35.043  28.608  1.00  0.00     0.251 C 
ATOM     37  H   UNL A   1      31.835  34.591  27.048  1.00  0.00     0.163 HD
ATOM     38  O   UNL A   1      32.507  36.143  28.798  1.00  0.00    -0.269 OA
BRANCH  36  39
ATOM     39  C   UNL A   1      34.128  34.583  29.470  1.00  0.00     0.039 A 
ATOM     40  C   UNL A   1      35.450  34.687  29.034  1.00  0.00     0.014 A 
ATOM     41  C   UNL A   1      33.835  33.981  30.696  1.00  0.00     0.014 A 
ATOM     42  C   UNL A   1      36.454  34.027  29.731  1.00  0.00     0.010 A 
ATOM     43  C   UNL A   1      34.860  33.389  31.439  1.00  0.00     0.010 A 
ATOM     44  C   UNL A   1      36.169  33.354  30.932  1.00  0.00    -0.014 A 
BRANCH  44  45
ATOM     45  C   UNL A   1      37.250  32.596  31.616  1.00  0.00     0.031 A 
ATOM     46  C   UNL A   1      37.974  31.483  30.906  1.00  0.00     0.074 A 
ATOM     47  C   UNL A   1      37.633  32.963  32.853  1.00  0.00     0.049 A 
ATOM     48  N   UNL A   1      38.962  30.735  31.333  1.00  0.00    -0.248 NA
ATOM     49  C   UNL A   1      37.533  31.161  29.539  1.00  0.00     0.031 C 
ATOM     50  C   UNL A   1      37.022  34.037  33.636  1.00  0.00     0.029 A 
ATOM     51  N   UNL A   1      38.644  32.498  33.655  1.00  0.00    -0.354 N 
ATOM     52  C   UNL A   1      39.247  29.850  30.301  1.00  0.00     0.074 A 
ATOM     53  C   UNL A   1      38.310  30.132  29.234  1.00  0.00     0.031 C 
ATOM     54  C   UNL A   1      37.708  34.192  34.778  1.00  0.00     0.029 A 
ATOM     55  C   UNL A   1      38.768  33.189  34.835  1.00  0.00     0.049 A 
ATOM     56  H   UNL A   1      39.225  31.743  33.409  1.00  0.00     0.167 HD
ATOM     57  C   UNL A   1      40.210  28.900  30.243  1.00  0.00     0.037 A 
ATOM     58  C   UNL A   1      39.634  33.030  35.854  1.00  0.00     0.037 A 
ATOM     59  C   UNL A   1      41.164  28.642  31.290  1.00  0.00     0.049 A 
ATOM     60  C   UNL A   1      40.668  31.945  35.779  1.00  0.00     0.074 A 
ATOM     61  C   UNL A   1      42.191  27.715  31.311  1.00  0.00     0.029 A 
ATOM     62  N   UNL A   1      41.212  29.320  32.499  1.00  0.00    -0.354 N 
ATOM     63  N   UNL A   1      40.920  31.111  34.799  1.00  0.00    -0.248 NA
ATOM     64  C   UNL A   1      41.531  31.770  36.955  1.00  0.00     0.031 C 
ATOM     65  C   UNL A   1      42.838  27.805  32.548  1.00  0.00     0.029 A 
ATOM     66  C   UNL A   1      42.239  28.816  33.281  1.00  0.00     0.049 A 
ATOM     67  H   UNL A   1      40.607  30.050  32.763  1.00  0.00     0.167 HD
ATOM     68  C   UNL A   1      41.967  30.315  35.238  1.00  0.00     0.074 A 
ATOM     69  C   UNL A   1      42.323  30.781  36.562  1.00  0.00     0.031 C 
ATOM     70  C   UNL A   1      42.575  29.285  34.600  1.00  0.00     0.037 A 
BRANCH  57  71
ATOM     71  C   UNL A   1      40.290  28.057  29.004  1.00  0.00     0.064 A 
ATOM     72  C   UNL A   1      41.059  28.448  27.899  1.00  0.00     0.173 A 
ATOM     73  C   UNL A   1      39.650  26.809  28.952  1.00  0.00     0.173 A 
ATOM     74  F   UNL A   1      41.680  29.637  27.895  1.00  0.00    -0.203 F 
ATOM     75  C   UNL A   1      41.173  27.626  26.779  1.00  0.00     0.198 A 
ATOM     76  C   UNL A   1      39.786  25.980  27.842  1.00  0.00     0.198 A 
ATOM     77  F   UNL A   1      38.909  26.386  29.987  1.00  0.00    -0.203 F 
ATOM     78  F   UNL A   1      41.890  28.033  25.722  1.00  0.00    -0.200 F 
ATOM     79  C   UNL A   1      40.544  26.390  26.756  1.00  0.00     0.200 A 
ATOM     80  F   UNL A   1      39.187  24.780  27.825  1.00  0.00    -0.200 F 
ATOM     81  F   UNL A   1      40.668  25.594  25.684  1.00  0.00    -0.200 F 
ENDBRANCH  57  71
BRANCH  58  82
ATOM     82  C   UNL A   1      39.553  33.934  37.029  1.00  0.00     0.064 A 
ATOM     83  C   UNL A   1      40.208  35.172  37.030  1.00  0.00     0.173 A 
ATOM     84  C   UNL A   1      38.793  33.594  38.159  1.00  0.00     0.173 A 
ATOM     85  F   UNL A   1      40.963  35.530  35.981  1.00  0.00    -0.203 F 
ATOM     86  C   UNL A   1      40.108  36.037  38.117  1.00  0.00     0.198 A 
ATOM     87  C   UNL A   1      38.673  34.470  39.233  1.00  0.00     0.198 A 
ATOM     88  F   UNL A   1      38.147  32.420  38.204  1.00  0.00    -0.203 F 
ATOM     89  F   UNL A   1      40.766  37.204  38.105  1.00  0.00    -0.200 F 
ATOM     90  C   UNL A   1      39.333  35.690  39.214  1.00  0.00     0.200 A 
ATOM     91  F   UNL A   1      37.912  34.136  40.284  1.00  0.00    -0.200 F 
ATOM     92  F   UNL A   1      39.224  36.528  40.253  1.00  0.00    -0.200 F 
ENDBRANCH  58  82
BRANCH  70  93
ATOM     93  C   UNL A   1      43.686  28.586  35.325  1.00  0.00     0.064 A 
ATOM     94  C   UNL A   1      43.436  27.476  36.141  1.00  0.00     0.173 A 
ATOM     95  C   UNL A   1      45.018  28.993  35.151  1.00  0.00     0.173 A 
ATOM     96  F   UNL A   1      42.177  27.059  36.347  1.00  0.00    -0.203 F 
ATOM     97  C   UNL A   1      44.479  26.802  36.771  1.00  0.00     0.198 A 
ATOM     98  C   UNL A   1      46.060  28.302  35.764  1.00  0.00     0.198 A 
ATOM     99  F   UNL A   1      45.308  30.047  34.375  1.00  0.00    -0.203 F 
ATOM    100  F   UNL A   1      44.214  25.760  37.571  1.00  0.00    -0.200 F 
ATOM    101  C   UNL A   1      45.789  27.210  36.574  1.00  0.00     0.200 A 
ATOM    102  F   UNL A   1      47.327  28.690  35.565  1.00  0.00    -0.200 F 
ATOM    103  F   UNL A   1      46.793  26.552  37.171  1.00  0.00    -0.200 F 
ENDBRANCH  70  93
ENDBRANCH  44  45
ENDBRANCH  36  39
ENDBRANCH  34  35
ENDBRANCH  33  34
ENDBRANCH  32  33
ENDBRANCH   1  32
TORSDOF 16
ENDMDL
MODEL 3
REMARK VINA RESULT:     -13.8      1.381      1.885
REMARK SMILES O=C(Cn1nc(-c2ccc(Br)cc2)ccc1=O)N[C@H](C(=O)NCCCCNC(=O)c1ccc(-c2c3nc(c(-c4c(F)c(F)c(F)c(F)c4F)c4ccc([nH]4)c(-c4c(F)c(F)c(F)c(F)c4F)c4nc(c(-c5c(F)c(F)c(F)c(F)c5F)c5ccc2[nH]5)C=C4)C=C3)cc1)c1ccccc1
REMARK SMILES IDX 23 1 22 2 20 3 21 4 19 6 18 7 1 8 2 9 3 11 4 12 5 13 16 14
REMARK SMILES IDX 6 15 15 16 17 17 14 18 7 19 8 20 13 21 9 22 12 23 10 24
REMARK SMILES IDX 11 25 93 26 94 27 98 28 95 29 97 30 96 31 24 32 25 33 26 34
REMARK SMILES IDX 27 35 28 36 29 38 30 39 31 40 92 41 32 42 91 43 33 44 34 45
REMARK SMILES IDX 35 46 85 47 36 48 90 49 84 50 86 51 37 52 89 53 83 54 82 55
REMARK SMILES IDX 38 57 70 58 50 59 69 60 51 61 54 62 68 63 87 64 52 65 53 66
REMARK SMILES IDX 67 68 88 69 55 70 39 71 40 72 48 73 41 74 42 75 46 76 49 77
REMARK SMILES IDX 43 78 44 79 47 80 45 81 71 82 72 83 80 84 73 85 74 86 78 87
REMARK SMILES IDX 81 88 75 89 76 90 79 91 77 92 56 93 57 94 65 95 58 96 59 97
REMARK SMILES IDX 63 98 66 99 60 100 61 101 64 102 62 103
REMARK H PARENT 22 5 18 10 27 37 86 56 54 67
REMARK Flexibility Score: inf
ROOT
ATOM      1  C   UNL A   1      32.065  29.567  25.856  1.00  0.00     0.116 C 
ENDROOT
BRANCH   1   2
ATOM      2  N   UNL A   1      31.476  28.273  26.137  1.00  0.00    -0.354 N 
ATOM      3  C   UNL A   1      31.028  27.306  25.267  1.00  0.00     0.247 C 
ATOM      4  O   UNL A   1      30.449  26.348  25.782  1.00  0.00    -0.272 OA
ATOM      5  H   UNL A   1      31.381  28.053  27.091  1.00  0.00     0.163 HD
BRANCH   3   6
ATOM      6  C   UNL A   1      31.145  27.557  23.731  1.00  0.00     0.202 C 
BRANCH   6   7
ATOM      7  N   UNL A   1      31.523  26.332  23.021  1.00  0.00    -0.339 N 
ATOM      8  O   UNL A   1      33.533  27.065  22.189  1.00  0.00    -0.273 OA
ATOM      9  C   UNL A   1      32.737  26.155  22.387  1.00  0.00     0.242 C 
ATOM     10  H   UNL A   1      30.874  25.592  22.995  1.00  0.00     0.164 HD
BRANCH   9  11
ATOM     11  C   UNL A   1      32.903  24.767  21.767  1.00  0.00     0.248 C 
BRANCH  11  12
ATOM     12  N   UNL A   1      33.080  23.767  22.815  1.00  0.00    -0.220 N 
ATOM     13  N   UNL A   1      34.360  23.602  23.318  1.00  0.00    -0.169 NA
ATOM     14  C   UNL A   1      31.993  22.982  23.179  1.00  0.00     0.267 A 
ATOM     15  C   UNL A   1      34.544  22.627  24.153  1.00  0.00     0.091 A 
ATOM     16  C   UNL A   1      32.262  21.916  24.164  1.00  0.00     0.075 A 
ATOM     17  O   UNL A   1      30.849  23.115  22.752  1.00  0.00    -0.268 OA
ATOM     18  C   UNL A   1      33.491  21.717  24.642  1.00  0.00     0.036 A 
BRANCH  15  19
ATOM     19  C   UNL A   1      35.907  22.364  24.656  1.00  0.00     0.002 A 
ATOM     20  C   UNL A   1      36.405  21.058  24.627  1.00  0.00     0.011 A 
ATOM     21  C   UNL A   1      36.659  23.402  25.219  1.00  0.00     0.011 A 
ATOM     22  C   UNL A   1      37.675  20.793  25.142  1.00  0.00     0.016 A 
ATOM     23  C   UNL A   1      37.922  23.130  25.746  1.00  0.00     0.016 A 
ATOM     24  C   UNL A   1      38.425  21.829  25.701  1.00  0.00     0.018 A 
ATOM     25  Br  UNL A   1      40.135  21.464  26.420  1.00  0.00    -0.051 Br
ENDBRANCH  15  19
ENDBRANCH  11  12
ENDBRANCH   9  11
ENDBRANCH   6   7
BRANCH   6  26
ATOM     26  C   UNL A   1      30.041  28.353  23.031  1.00  0.00    -0.016 A 
ATOM     27  C   UNL A   1      30.359  29.449  22.204  1.00  0.00     0.006 A 
ATOM     28  C   UNL A   1      28.681  28.138  23.309  1.00  0.00     0.006 A 
ATOM     29  C   UNL A   1      29.367  30.267  21.656  1.00  0.00     0.000 A 
ATOM     30  C   UNL A   1      27.685  28.947  22.752  1.00  0.00     0.000 A 
ATOM     31  C   UNL A   1      28.028  30.013  21.928  1.00  0.00     0.000 A 
ENDBRANCH   6  26
ENDBRANCH   3   6
ENDBRANCH   1   2
BRANCH   1  32
ATOM     32  C   UNL A   1      32.178  30.426  27.114  1.00  0.00     0.023 C 
BRANCH  32  33
ATOM     33  C   UNL A   1      31.860  31.909  26.923  1.00  0.00     0.023 C 
BRANCH  33  34
ATOM     34  C   UNL A   1      32.998  32.867  27.251  1.00  0.00     0.116 C 
BRANCH  34  35
ATOM     35  N   UNL A   1      32.538  34.195  27.634  1.00  0.00    -0.352 N 
ATOM     36  C   UNL A   1      33.010  35.016  28.633  1.00  0.00     0.251 C 
ATOM     37  H   UNL A   1      31.789  34.555  27.106  1.00  0.00     0.163 HD
ATOM     38  O   UNL A   1      32.434  36.065  28.901  1.00  0.00    -0.269 OA
BRANCH  36  39
ATOM     39  C   UNL A   1      34.191  34.597  29.419  1.00  0.00     0.039 A 
ATOM     40  C   UNL A   1      35.478  34.770  28.907  1.00  0.00     0.014 A 
ATOM     41  C   UNL A   1      34.002  33.966  30.650  1.00  0.00     0.014 A 
ATOM     42  C   UNL A   1      36.553  34.149  29.532  1.00  0.00     0.010 A 
ATOM     43  C   UNL A   1      35.097  33.413  31.320  1.00  0.00     0.010 A 
ATOM     44  C   UNL A   1      36.373  33.448  30.737  1.00  0.00    -0.014 A 
BRANCH  44  45
ATOM     45  C   UNL A   1      37.527  32.733  31.342  1.00  0.00     0.031 A 
ATOM     46  C   UNL A   1      37.985  33.057  32.739  1.00  0.00     0.074 A 
ATOM     47  C   UNL A   1      38.117  31.734  30.658  1.00  0.00     0.049 A 
ATOM     48  N   UNL A   1      38.951  32.515  33.438  1.00  0.00    -0.248 NA
ATOM     49  C   UNL A   1      37.269  34.132  33.446  1.00  0.00     0.031 C 
ATOM     50  C   UNL A   1      37.750  31.313  29.305  1.00  0.00     0.029 A 
ATOM     51  N   UNL A   1      39.121  30.871  31.016  1.00  0.00    -0.354 N 
ATOM     52  C   UNL A   1      38.970  33.189  34.653  1.00  0.00     0.074 A 
ATOM     53  C   UNL A   1      37.937  34.201  34.589  1.00  0.00     0.031 C 
ATOM     54  C   UNL A   1      38.475  30.236  28.970  1.00  0.00     0.029 A 
ATOM     55  C   UNL A   1      39.398  29.926  30.058  1.00  0.00     0.049 A 
ATOM     56  H   UNL A   1      39.597  30.924  31.875  1.00  0.00     0.167 HD
ATOM     57  C   UNL A   1      39.766  32.974  35.728  1.00  0.00     0.037 A 
ATOM     58  C   UNL A   1      40.298  28.925  30.053  1.00  0.00     0.037 A 
ATOM     59  C   UNL A   1      40.770  31.946  35.805  1.00  0.00     0.049 A 
ATOM     60  C   UNL A   1      41.192  28.733  31.244  1.00  0.00     0.074 A 
ATOM     61  C   UNL A   1      41.609  31.637  36.862  1.00  0.00     0.029 A 
ATOM     62  N   UNL A   1      41.065  31.052  34.787  1.00  0.00    -0.354 N 
ATOM     63  N   UNL A   1      41.203  29.384  32.382  1.00  0.00    -0.248 NA
ATOM     64  C   UNL A   1      42.208  27.676  31.146  1.00  0.00     0.031 C 
ATOM     65  C   UNL A   1      42.438  30.581  36.471  1.00  0.00     0.029 A 
ATOM     66  C   UNL A   1      42.087  30.206  35.185  1.00  0.00     0.049 A 
ATOM     67  H   UNL A   1      40.616  31.023  33.911  1.00  0.00     0.167 HD
ATOM     68  C   UNL A   1      42.220  28.817  33.134  1.00  0.00     0.074 A 
ATOM     69  C   UNL A   1      42.789  27.751  32.336  1.00  0.00     0.031 C 
ATOM     70  C   UNL A   1      42.648  29.155  34.375  1.00  0.00     0.037 A 
BRANCH  57  71
ATOM     71  C   UNL A   1      39.590  33.869  36.920  1.00  0.00     0.064 A 
ATOM     72  C   UNL A   1      40.166  35.145  36.970  1.00  0.00     0.173 A 
ATOM     73  C   UNL A   1      38.775  33.471  37.992  1.00  0.00     0.173 A 
ATOM     74  F   UNL A   1      40.963  35.567  35.976  1.00  0.00    -0.203 F 
ATOM     75  C   UNL A   1      39.944  35.989  38.057  1.00  0.00     0.198 A 
ATOM     76  C   UNL A   1      38.535  34.326  39.064  1.00  0.00     0.198 A 
ATOM     77  F   UNL A   1      38.195  32.262  37.988  1.00  0.00    -0.203 F 
ATOM     78  F   UNL A   1      40.527  37.195  38.097  1.00  0.00    -0.200 F 
ATOM     79  C   UNL A   1      39.122  35.582  39.098  1.00  0.00     0.200 A 
ATOM     80  F   UNL A   1      37.732  33.936  40.064  1.00  0.00    -0.200 F 
ATOM     81  F   UNL A   1      38.897  36.401  40.135  1.00  0.00    -0.200 F 
ENDBRANCH  57  71
BRANCH  58  82
ATOM     82  C   UNL A   1      40.386  28.028  28.874  1.00  0.00     0.064 A 
ATOM     83  C   UNL A   1      39.693  26.811  28.844  1.00  0.00     0.173 A 
ATOM     84  C   UNL A   1      41.135  28.383  27.743  1.00  0.00     0.173 A 
ATOM     85  F   UNL A   1      38.982  26.419  29.911  1.00  0.00    -0.203 F 
ATOM     86  C   UNL A   1      39.746  25.981  27.727  1.00  0.00     0.198 A 
ATOM     87  C   UNL A   1      41.166  27.566  26.617  1.00  0.00     0.198 A 
ATOM     88  F   UNL A   1      41.815  29.539  27.724  1.00  0.00    -0.203 F 
ATOM     89  F   UNL A   1      39.098  24.809  27.733  1.00  0.00    -0.200 F 
ATOM     90  C   UNL A   1      40.476  26.363  26.610  1.00  0.00     0.200 A 
ATOM     91  F   UNL A   1      41.861  27.946  25.535  1.00  0.00    -0.200 F 
ATOM     92  F   UNL A   1      40.515  25.572  25.529  1.00  0.00    -0.200 F 
ENDBRANCH  58  82
BRANCH  70  93
ATOM     93  C   UNL A   1      43.789  28.370  34.947  1.00  0.00     0.064 A 
ATOM     94  C   UNL A   1      45.114  28.802  34.803  1.00  0.00     0.173 A 
ATOM     95  C   UNL A   1      43.551  27.209  35.699  1.00  0.00     0.173 A 
ATOM     96  F   UNL A   1      45.392  29.899  34.082  1.00  0.00    -0.203 F 
ATOM     97  C   UNL A   1      46.164  28.093  35.381  1.00  0.00     0.198 A 
ATOM     98  C   UNL A   1      44.601  26.516  36.295  1.00  0.00     0.198 A 
ATOM     99  F   UNL A   1      42.299  26.759  35.870  1.00  0.00    -0.203 F 
ATOM    100  F   UNL A   1      47.426  28.508  35.205  1.00  0.00    -0.200 F 
ATOM    101  C   UNL A   1      45.906  26.957  36.133  1.00  0.00     0.200 A 
ATOM    102  F   UNL A   1      44.350  25.425  37.031  1.00  0.00    -0.200 F 
ATOM    103  F   UNL A   1      46.917  26.283  36.699  1.00  0.00    -0.200 F 
ENDBRANCH  70  93
ENDBRANCH  44  45
ENDBRANCH  36  39
ENDBRANCH  34  35
ENDBRANCH  33  34
ENDBRANCH  32  33
ENDBRANCH   1  32
TORSDOF 16
ENDMDL
