MODEL 1
REMARK VINA RESULT:     -11.7      0.000      0.000
REMARK SMILES C#CC[C@@H](C(=O)NCCCCNC(=O)c1ccc(-c2c3nc(c(-c4c(F)c(F)c(F)c(F)c4F)c4ccc([nH]4)c(-c4c(F)c(F)c(F)c(F)c4F)c4nc(c(-c5c(F)c(F)c(F)c(F)c5F)c5ccc2[nH]5)C=C4)C=C3)cc1)[C@H]1CCS(=O)(=O)C1
REMARK SMILES IDX 9 1 8 2 7 3 5 4 6 5 4 7 3 8 2 9 1 10 78 11 79 12 84 13 80 14
REMARK SMILES IDX 81 15 82 16 83 17 10 18 11 19 12 20 13 21 14 23 15 24 16 25
REMARK SMILES IDX 77 26 17 27 76 28 18 29 19 30 20 31 70 32 21 33 75 34 69 35
REMARK SMILES IDX 71 36 22 37 74 38 68 39 67 40 23 42 55 43 35 44 54 45 36 46
REMARK SMILES IDX 39 47 53 48 72 49 37 50 38 51 52 53 73 54 40 55 24 56 25 57
REMARK SMILES IDX 33 58 26 59 27 60 31 61 34 62 28 63 29 64 32 65 30 66 56 67
REMARK SMILES IDX 57 68 65 69 58 70 59 71 63 72 66 73 60 74 61 75 64 76 62 77
REMARK SMILES IDX 41 78 42 79 50 80 43 81 44 82 48 83 51 84 45 85 46 86 49 87
REMARK SMILES IDX 47 88
REMARK H PARENT 7 6 12 22 71 41 39 52
REMARK Flexibility Score: inf
ROOT
ATOM      1  C   UNL A   1      37.553  23.078  25.576  1.00  0.00     0.023 C 
ENDROOT
BRANCH   1   2
ATOM      2  C   UNL A   1      36.052  23.302  25.846  1.00  0.00     0.116 C 
BRANCH   2   3
ATOM      3  N   UNL A   1      35.527  22.168  26.592  1.00  0.00    -0.356 N 
ATOM      4  C   UNL A   1      34.442  21.388  26.292  1.00  0.00     0.224 C 
ATOM      5  O   UNL A   1      33.666  21.165  27.223  1.00  0.00    -0.275 OA
ATOM      6  H   UNL A   1      36.013  21.933  27.415  1.00  0.00     0.163 HD
BRANCH   4   7
ATOM      7  C   UNL A   1      34.257  20.724  24.909  1.00  0.00     0.094 C 
BRANCH   7   8
ATOM      8  C   UNL A   1      33.069  21.313  24.096  1.00  0.00     0.103 C 
BRANCH   8   9
ATOM      9  C   UNL A   1      33.483  22.585  23.375  1.00  0.00    -0.106 C 
ATOM     10  C   UNL A   1      33.840  23.676  22.755  1.00  0.00     0.004 C 
ENDBRANCH   8   9
ENDBRANCH   7   8
BRANCH   7  11
ATOM     11  C   UNL A   1      33.977  19.182  25.052  1.00  0.00     0.018 C 
ATOM     12  C   UNL A   1      32.543  18.799  24.629  1.00  0.00     0.021 C 
ATOM     13  C   UNL A   1      34.861  18.209  24.253  1.00  0.00     0.141 C 
ATOM     14  C   UNL A   1      32.426  17.278  24.753  1.00  0.00     0.137 C 
ATOM     15  S   UNL A   1      34.046  16.626  24.395  1.00  0.00     0.150 S 
ATOM     16  O   UNL A   1      34.536  15.955  25.578  1.00  0.00    -0.229 OA
ATOM     17  O   UNL A   1      34.028  15.990  23.092  1.00  0.00    -0.229 OA
ENDBRANCH   7  11
ENDBRANCH   4   7
ENDBRANCH   2   3
ENDBRANCH   1   2
BRANCH   1  18
ATOM     18  C   UNL A   1      38.032  21.657  25.412  1.00  0.00     0.023 C 
BRANCH  18  19
ATOM     19  C   UNL A   1      39.336  21.369  26.141  1.00  0.00     0.116 C 
BRANCH  19  20
ATOM     20  N   UNL A   1      39.901  20.022  25.984  1.00  0.00    -0.352 N 
ATOM     21  C   UNL A   1      41.220  19.628  26.124  1.00  0.00     0.251 C 
ATOM     22  H   UNL A   1      39.261  19.311  25.749  1.00  0.00     0.163 HD
ATOM     23  O   UNL A   1      41.566  18.466  25.958  1.00  0.00    -0.269 OA
BRANCH  21  24
ATOM     24  C   UNL A   1      42.210  20.678  26.425  1.00  0.00     0.039 A 
ATOM     25  C   UNL A   1      42.835  21.347  25.374  1.00  0.00     0.014 A 
ATOM     26  C   UNL A   1      42.294  21.151  27.732  1.00  0.00     0.014 A 
ATOM     27  C   UNL A   1      43.428  22.584  25.621  1.00  0.00     0.010 A 
ATOM     28  C   UNL A   1      42.725  22.450  27.936  1.00  0.00     0.010 A 
ATOM     29  C   UNL A   1      43.302  23.183  26.887  1.00  0.00    -0.014 A 
BRANCH  29  30
ATOM     30  C   UNL A   1      43.768  24.568  27.156  1.00  0.00     0.031 A 
ATOM     31  C   UNL A   1      42.776  25.595  27.634  1.00  0.00     0.074 A 
ATOM     32  C   UNL A   1      45.040  24.926  26.886  1.00  0.00     0.049 A 
ATOM     33  N   UNL A   1      42.939  26.879  27.825  1.00  0.00    -0.248 NA
ATOM     34  C   UNL A   1      41.400  25.127  27.877  1.00  0.00     0.031 C 
ATOM     35  C   UNL A   1      46.078  24.046  26.343  1.00  0.00     0.029 A 
ATOM     36  N   UNL A   1      45.678  26.134  27.026  1.00  0.00    -0.354 N 
ATOM     37  C   UNL A   1      41.687  27.363  28.180  1.00  0.00     0.074 A 
ATOM     38  C   UNL A   1      40.758  26.262  28.085  1.00  0.00     0.031 C 
ATOM     39  C   UNL A   1      47.230  24.729  26.242  1.00  0.00     0.029 A 
ATOM     40  C   UNL A   1      47.005  26.107  26.666  1.00  0.00     0.049 A 
ATOM     41  H   UNL A   1      45.227  26.945  27.355  1.00  0.00     0.167 HD
ATOM     42  C   UNL A   1      41.347  28.604  28.597  1.00  0.00     0.037 A 
ATOM     43  C   UNL A   1      47.931  27.085  26.677  1.00  0.00     0.037 A 
ATOM     44  C   UNL A   1      42.285  29.682  28.737  1.00  0.00     0.049 A 
ATOM     45  C   UNL A   1      47.531  28.459  27.153  1.00  0.00     0.074 A 
ATOM     46  C   UNL A   1      42.064  30.959  29.218  1.00  0.00     0.029 A 
ATOM     47  N   UNL A   1      43.627  29.606  28.394  1.00  0.00    -0.354 N 
ATOM     48  N   UNL A   1      46.362  28.884  27.570  1.00  0.00    -0.248 NA
ATOM     49  C   UNL A   1      48.581  29.487  27.167  1.00  0.00     0.031 C 
ATOM     50  C   UNL A   1      43.261  31.674  29.116  1.00  0.00     0.029 A 
ATOM     51  C   UNL A   1      44.242  30.823  28.632  1.00  0.00     0.049 A 
ATOM     52  H   UNL A   1      44.075  28.806  28.037  1.00  0.00     0.167 HD
ATOM     53  C   UNL A   1      46.544  30.213  27.927  1.00  0.00     0.074 A 
ATOM     54  C   UNL A   1      47.940  30.520  27.693  1.00  0.00     0.031 C 
ATOM     55  C   UNL A   1      45.638  31.101  28.406  1.00  0.00     0.037 A 
BRANCH  42  56
ATOM     56  C   UNL A   1      39.906  28.848  28.945  1.00  0.00     0.064 A 
ATOM     57  C   UNL A   1      39.415  28.641  30.245  1.00  0.00     0.173 A 
ATOM     58  C   UNL A   1      39.007  29.305  27.972  1.00  0.00     0.173 A 
ATOM     59  F   UNL A   1      40.227  28.185  31.211  1.00  0.00    -0.203 F 
ATOM     60  C   UNL A   1      38.072  28.846  30.545  1.00  0.00     0.198 A 
ATOM     61  C   UNL A   1      37.672  29.549  28.286  1.00  0.00     0.198 A 
ATOM     62  F   UNL A   1      39.422  29.520  26.714  1.00  0.00    -0.203 F 
ATOM     63  F   UNL A   1      37.614  28.577  31.776  1.00  0.00    -0.200 F 
ATOM     64  C   UNL A   1      37.204  29.308  29.569  1.00  0.00     0.200 A 
ATOM     65  F   UNL A   1      36.838  30.007  27.343  1.00  0.00    -0.200 F 
ATOM     66  F   UNL A   1      35.912  29.513  29.860  1.00  0.00    -0.200 F 
ENDBRANCH  42  56
BRANCH  43  67
ATOM     67  C   UNL A   1      49.331  26.802  26.257  1.00  0.00     0.064 A 
ATOM     68  C   UNL A   1      50.291  26.381  27.190  1.00  0.00     0.173 A 
ATOM     69  C   UNL A   1      49.745  26.961  24.927  1.00  0.00     0.173 A 
ATOM     70  F   UNL A   1      49.952  26.232  28.479  1.00  0.00    -0.203 F 
ATOM     71  C   UNL A   1      51.616  26.158  26.814  1.00  0.00     0.198 A 
ATOM     72  C   UNL A   1      51.062  26.706  24.546  1.00  0.00     0.198 A 
ATOM     73  F   UNL A   1      48.868  27.355  23.993  1.00  0.00    -0.203 F 
ATOM     74  F   UNL A   1      52.522  25.810  27.737  1.00  0.00    -0.200 F 
ATOM     75  C   UNL A   1      51.998  26.316  25.491  1.00  0.00     0.200 A 
ATOM     76  F   UNL A   1      51.424  26.844  23.263  1.00  0.00    -0.200 F 
ATOM     77  F   UNL A   1      53.270  26.100  25.130  1.00  0.00    -0.200 F 
ENDBRANCH  43  67
BRANCH  55  78
ATOM     78  C   UNL A   1      46.133  32.474  28.755  1.00  0.00     0.064 A 
ATOM     79  C   UNL A   1      46.694  32.763  30.008  1.00  0.00     0.173 A 
ATOM     80  C   UNL A   1      46.093  33.503  27.800  1.00  0.00     0.173 A 
ATOM     81  F   UNL A   1      46.745  31.818  30.959  1.00  0.00    -0.203 F 
ATOM     82  C   UNL A   1      47.172  34.037  30.300  1.00  0.00     0.198 A 
ATOM     83  C   UNL A   1      46.605  34.765  28.083  1.00  0.00     0.198 A 
ATOM     84  F   UNL A   1      45.575  33.276  26.584  1.00  0.00    -0.203 F 
ATOM     85  F   UNL A   1      47.657  34.304  31.520  1.00  0.00    -0.200 F 
ATOM     86  C   UNL A   1      47.135  35.034  29.336  1.00  0.00     0.200 A 
ATOM     87  F   UNL A   1      46.587  35.719  27.143  1.00  0.00    -0.200 F 
ATOM     88  F   UNL A   1      47.608  36.256  29.615  1.00  0.00    -0.200 F 
ENDBRANCH  55  78
ENDBRANCH  29  30
ENDBRANCH  21  24
ENDBRANCH  19  20
ENDBRANCH  18  19
ENDBRANCH   1  18
TORSDOF 14
ENDMDL
MODEL 2
REMARK VINA RESULT:     -11.6      7.007     11.983
REMARK SMILES C#CC[C@@H](C(=O)NCCCCNC(=O)c1ccc(-c2c3nc(c(-c4c(F)c(F)c(F)c(F)c4F)c4ccc([nH]4)c(-c4c(F)c(F)c(F)c(F)c4F)c4nc(c(-c5c(F)c(F)c(F)c(F)c5F)c5ccc2[nH]5)C=C4)C=C3)cc1)[C@H]1CCS(=O)(=O)C1
REMARK SMILES IDX 9 1 8 2 7 3 5 4 6 5 4 7 3 8 2 9 1 10 78 11 79 12 84 13 80 14
REMARK SMILES IDX 81 15 82 16 83 17 10 18 11 19 12 20 13 21 14 23 15 24 16 25
REMARK SMILES IDX 77 26 17 27 76 28 18 29 19 30 20 31 70 32 21 33 75 34 69 35
REMARK SMILES IDX 71 36 22 37 74 38 68 39 67 40 23 42 55 43 35 44 54 45 36 46
REMARK SMILES IDX 39 47 53 48 72 49 37 50 38 51 52 53 73 54 40 55 24 56 25 57
REMARK SMILES IDX 33 58 26 59 27 60 31 61 34 62 28 63 29 64 32 65 30 66 56 67
REMARK SMILES IDX 57 68 65 69 58 70 59 71 63 72 66 73 60 74 61 75 64 76 62 77
REMARK SMILES IDX 41 78 42 79 50 80 43 81 44 82 48 83 51 84 45 85 46 86 49 87
REMARK SMILES IDX 47 88
REMARK H PARENT 7 6 12 22 71 41 39 52
REMARK Flexibility Score: inf
ROOT
ATOM      1  C   UNL A   1      33.796  29.613  27.020  1.00  0.00     0.023 C 
ENDROOT
BRANCH   1   2
ATOM      2  C   UNL A   1      33.586  28.587  25.888  1.00  0.00     0.116 C 
BRANCH   2   3
ATOM      3  N   UNL A   1      33.348  29.295  24.639  1.00  0.00    -0.356 N 
ATOM      4  C   UNL A   1      32.470  28.973  23.639  1.00  0.00     0.224 C 
ATOM      5  O   UNL A   1      32.920  29.016  22.493  1.00  0.00    -0.275 OA
ATOM      6  H   UNL A   1      33.887  30.106  24.496  1.00  0.00     0.163 HD
BRANCH   4   7
ATOM      7  C   UNL A   1      30.974  28.693  23.910  1.00  0.00     0.094 C 
BRANCH   7   8
ATOM      8  C   UNL A   1      30.529  27.265  23.484  1.00  0.00     0.103 C 
BRANCH   8   9
ATOM      9  C   UNL A   1      30.203  26.414  24.700  1.00  0.00    -0.106 C 
ATOM     10  C   UNL A   1      29.923  25.684  25.744  1.00  0.00     0.004 C 
ENDBRANCH   8   9
ENDBRANCH   7   8
BRANCH   7  11
ATOM     11  C   UNL A   1      30.057  29.699  23.122  1.00  0.00     0.018 C 
ATOM     12  C   UNL A   1      28.866  29.000  22.433  1.00  0.00     0.021 C 
ATOM     13  C   UNL A   1      29.396  30.844  23.909  1.00  0.00     0.141 C 
ATOM     14  C   UNL A   1      28.026  30.091  21.764  1.00  0.00     0.137 C 
ATOM     15  S   UNL A   1      28.196  31.542  22.786  1.00  0.00     0.150 S 
ATOM     16  O   UNL A   1      28.838  32.574  22.002  1.00  0.00    -0.229 OA
ATOM     17  O   UNL A   1      26.957  31.769  23.503  1.00  0.00    -0.229 OA
ENDBRANCH   7  11
ENDBRANCH   4   7
ENDBRANCH   2   3
ENDBRANCH   1   2
BRANCH   1  18
ATOM     18  C   UNL A   1      32.981  30.882  26.975  1.00  0.00     0.023 C 
BRANCH  18  19
ATOM     19  C   UNL A   1      33.686  32.078  27.596  1.00  0.00     0.116 C 
BRANCH  19  20
ATOM     20  N   UNL A   1      32.940  33.343  27.634  1.00  0.00    -0.352 N 
ATOM     21  C   UNL A   1      33.177  34.449  28.430  1.00  0.00     0.251 C 
ATOM     22  H   UNL A   1      32.175  33.411  27.018  1.00  0.00     0.163 HD
ATOM     23  O   UNL A   1      32.471  35.448  28.372  1.00  0.00    -0.269 OA
BRANCH  21  24
ATOM     24  C   UNL A   1      34.284  34.359  29.400  1.00  0.00     0.039 A 
ATOM     25  C   UNL A   1      34.030  33.868  30.681  1.00  0.00     0.014 A 
ATOM     26  C   UNL A   1      35.586  34.513  28.933  1.00  0.00     0.014 A 
ATOM     27  C   UNL A   1      35.095  33.390  31.442  1.00  0.00     0.010 A 
ATOM     28  C   UNL A   1      36.609  33.881  29.615  1.00  0.00     0.010 A 
ATOM     29  C   UNL A   1      36.381  33.315  30.880  1.00  0.00    -0.014 A 
BRANCH  29  30
ATOM     30  C   UNL A   1      37.515  32.662  31.584  1.00  0.00     0.031 A 
ATOM     31  C   UNL A   1      38.224  31.510  30.922  1.00  0.00     0.074 A 
ATOM     32  C   UNL A   1      37.844  33.032  32.838  1.00  0.00     0.049 A 
ATOM     33  N   UNL A   1      39.160  30.729  31.397  1.00  0.00    -0.248 NA
ATOM     34  C   UNL A   1      37.783  31.152  29.563  1.00  0.00     0.031 C 
ATOM     35  C   UNL A   1      37.184  34.078  33.622  1.00  0.00     0.029 A 
ATOM     36  N   UNL A   1      38.820  32.561  33.683  1.00  0.00    -0.354 N 
ATOM     37  C   UNL A   1      39.391  29.782  30.408  1.00  0.00     0.074 A 
ATOM     38  C   UNL A   1      38.436  30.023  29.352  1.00  0.00     0.031 C 
ATOM     39  C   UNL A   1      37.801  34.201  34.808  1.00  0.00     0.029 A 
ATOM     40  C   UNL A   1      38.870  33.213  34.892  1.00  0.00     0.049 A 
ATOM     41  H   UNL A   1      39.429  31.825  33.444  1.00  0.00     0.167 HD
ATOM     42  C   UNL A   1      40.345  28.826  30.358  1.00  0.00     0.037 A 
ATOM     43  C   UNL A   1      39.688  33.030  35.947  1.00  0.00     0.037 A 
ATOM     44  C   UNL A   1      41.323  28.622  31.390  1.00  0.00     0.049 A 
ATOM     45  C   UNL A   1      40.749  31.962  35.867  1.00  0.00     0.074 A 
ATOM     46  C   UNL A   1      42.380  27.731  31.412  1.00  0.00     0.029 A 
ATOM     47  N   UNL A   1      41.363  29.326  32.586  1.00  0.00    -0.354 N 
ATOM     48  N   UNL A   1      41.015  31.130  34.890  1.00  0.00    -0.248 NA
ATOM     49  C   UNL A   1      41.631  31.815  37.035  1.00  0.00     0.031 C 
ATOM     50  C   UNL A   1      43.026  27.857  32.645  1.00  0.00     0.029 A 
ATOM     51  C   UNL A   1      42.413  28.871  33.364  1.00  0.00     0.049 A 
ATOM     52  H   UNL A   1      40.738  30.042  32.842  1.00  0.00     0.167 HD
ATOM     53  C   UNL A   1      42.111  30.386  35.308  1.00  0.00     0.074 A 
ATOM     54  C   UNL A   1      42.470  30.878  36.622  1.00  0.00     0.031 C 
ATOM     55  C   UNL A   1      42.762  29.386  34.663  1.00  0.00     0.037 A 
BRANCH  42  56
ATOM     56  C   UNL A   1      40.383  27.946  29.142  1.00  0.00     0.064 A 
ATOM     57  C   UNL A   1      41.151  28.276  28.014  1.00  0.00     0.173 A 
ATOM     58  C   UNL A   1      39.650  26.750  29.108  1.00  0.00     0.173 A 
ATOM     59  F   UNL A   1      41.856  29.417  27.986  1.00  0.00    -0.203 F 
ATOM     60  C   UNL A   1      41.154  27.462  26.885  1.00  0.00     0.198 A 
ATOM     61  C   UNL A   1      39.688  25.918  27.991  1.00  0.00     0.198 A 
ATOM     62  F   UNL A   1      38.898  26.385  30.157  1.00  0.00    -0.203 F 
ATOM     63  F   UNL A   1      41.843  27.833  25.796  1.00  0.00    -0.200 F 
ATOM     64  C   UNL A   1      40.431  26.280  26.878  1.00  0.00     0.200 A 
ATOM     65  F   UNL A   1      38.997  24.770  27.991  1.00  0.00    -0.200 F 
ATOM     66  F   UNL A   1      40.440  25.493  25.793  1.00  0.00    -0.200 F 
ENDBRANCH  42  56
BRANCH  43  67
ATOM     67  C   UNL A   1      39.562  33.890  37.156  1.00  0.00     0.064 A 
ATOM     68  C   UNL A   1      38.815  33.468  38.266  1.00  0.00     0.173 A 
ATOM     69  C   UNL A   1      40.168  35.154  37.225  1.00  0.00     0.173 A 
ATOM     70  F   UNL A   1      38.200  32.277  38.244  1.00  0.00    -0.203 F 
ATOM     71  C   UNL A   1      38.654  34.287  39.383  1.00  0.00     0.198 A 
ATOM     72  C   UNL A   1      40.033  35.958  38.356  1.00  0.00     0.198 A 
ATOM     73  F   UNL A   1      40.899  35.604  36.196  1.00  0.00    -0.203 F 
ATOM     74  F   UNL A   1      37.888  33.880  40.404  1.00  0.00    -0.200 F 
ATOM     75  C   UNL A   1      39.268  35.529  39.429  1.00  0.00     0.200 A 
ATOM     76  F   UNL A   1      40.642  37.151  38.402  1.00  0.00    -0.200 F 
ATOM     77  F   UNL A   1      39.115  36.315  40.503  1.00  0.00    -0.200 F 
ENDBRANCH  43  67
BRANCH  55  78
ATOM     78  C   UNL A   1      43.958  28.787  35.344  1.00  0.00     0.064 A 
ATOM     79  C   UNL A   1      45.252  29.293  35.150  1.00  0.00     0.173 A 
ATOM     80  C   UNL A   1      43.797  27.724  36.247  1.00  0.00     0.173 A 
ATOM     81  F   UNL A   1      45.460  30.302  34.290  1.00  0.00    -0.203 F 
ATOM     82  C   UNL A   1      46.343  28.740  35.814  1.00  0.00     0.198 A 
ATOM     83  C   UNL A   1      44.884  27.197  36.936  1.00  0.00     0.198 A 
ATOM     84  F   UNL A   1      42.579  27.210  36.476  1.00  0.00    -0.203 F 
ATOM     85  F   UNL A   1      47.575  29.206  35.575  1.00  0.00    -0.200 F 
ATOM     86  C   UNL A   1      46.157  27.699  36.713  1.00  0.00     0.200 A 
ATOM     87  F   UNL A   1      44.699  26.206  37.818  1.00  0.00    -0.200 F 
ATOM     88  F   UNL A   1      47.207  27.176  37.361  1.00  0.00    -0.200 F 
ENDBRANCH  55  78
ENDBRANCH  29  30
ENDBRANCH  21  24
ENDBRANCH  19  20
ENDBRANCH  18  19
ENDBRANCH   1  18
TORSDOF 14
ENDMDL
MODEL 3
REMARK VINA RESULT:     -11.6      5.309      8.587
REMARK SMILES C#CC[C@@H](C(=O)NCCCCNC(=O)c1ccc(-c2c3nc(c(-c4c(F)c(F)c(F)c(F)c4F)c4ccc([nH]4)c(-c4c(F)c(F)c(F)c(F)c4F)c4nc(c(-c5c(F)c(F)c(F)c(F)c5F)c5ccc2[nH]5)C=C4)C=C3)cc1)[C@H]1CCS(=O)(=O)C1
REMARK SMILES IDX 9 1 8 2 7 3 5 4 6 5 4 7 3 8 2 9 1 10 78 11 79 12 84 13 80 14
REMARK SMILES IDX 81 15 82 16 83 17 10 18 11 19 12 20 13 21 14 23 15 24 16 25
REMARK SMILES IDX 77 26 17 27 76 28 18 29 19 30 20 31 70 32 21 33 75 34 69 35
REMARK SMILES IDX 71 36 22 37 74 38 68 39 67 40 23 42 55 43 35 44 54 45 36 46
REMARK SMILES IDX 39 47 53 48 72 49 37 50 38 51 52 53 73 54 40 55 24 56 25 57
REMARK SMILES IDX 33 58 26 59 27 60 31 61 34 62 28 63 29 64 32 65 30 66 56 67
REMARK SMILES IDX 57 68 65 69 58 70 59 71 63 72 66 73 60 74 61 75 64 76 62 77
REMARK SMILES IDX 41 78 42 79 50 80 43 81 44 82 48 83 51 84 45 85 46 86 49 87
REMARK SMILES IDX 47 88
REMARK H PARENT 7 6 12 22 71 41 39 52
REMARK Flexibility Score: inf
ROOT
ATOM      1  C   UNL A   1      32.652  29.327  24.379  1.00  0.00     0.023 C 
ENDROOT
BRANCH   1   2
ATOM      2  C   UNL A   1      33.501  28.045  24.275  1.00  0.00     0.116 C 
BRANCH   2   3
ATOM      3  N   UNL A   1      33.014  27.238  23.165  1.00  0.00    -0.356 N 
ATOM      4  C   UNL A   1      33.542  26.077  22.669  1.00  0.00     0.224 C 
ATOM      5  O   UNL A   1      33.653  26.016  21.443  1.00  0.00    -0.275 OA
ATOM      6  H   UNL A   1      32.204  27.571  22.715  1.00  0.00     0.163 HD
BRANCH   4   7
ATOM      7  C   UNL A   1      33.867  24.864  23.570  1.00  0.00     0.094 C 
BRANCH   7   8
ATOM      8  C   UNL A   1      34.211  23.576  22.768  1.00  0.00     0.103 C 
BRANCH   8   9
ATOM      9  C   UNL A   1      35.578  23.041  23.163  1.00  0.00    -0.106 C 
ATOM     10  C   UNL A   1      36.751  22.582  23.501  1.00  0.00     0.004 C 
ENDBRANCH   8   9
ENDBRANCH   7   8
BRANCH   7  11
ATOM     11  C   UNL A   1      32.647  24.500  24.494  1.00  0.00     0.018 C 
ATOM     12  C   UNL A   1      32.156  23.052  24.284  1.00  0.00     0.021 C 
ATOM     13  C   UNL A   1      32.839  24.598  26.017  1.00  0.00     0.141 C 
ATOM     14  C   UNL A   1      31.021  22.810  25.281  1.00  0.00     0.137 C 
ATOM     15  S   UNL A   1      31.402  23.800  26.714  1.00  0.00     0.150 S 
ATOM     16  O   UNL A   1      30.355  24.785  26.874  1.00  0.00    -0.229 OA
ATOM     17  O   UNL A   1      31.824  22.932  27.795  1.00  0.00    -0.229 OA
ENDBRANCH   7  11
ENDBRANCH   4   7
ENDBRANCH   2   3
ENDBRANCH   1   2
BRANCH   1  18
ATOM     18  C   UNL A   1      31.794  29.502  25.608  1.00  0.00     0.023 C 
BRANCH  18  19
ATOM     19  C   UNL A   1      32.575  29.952  26.833  1.00  0.00     0.116 C 
BRANCH  19  20
ATOM     20  N   UNL A   1      32.478  31.372  27.198  1.00  0.00    -0.352 N 
ATOM     21  C   UNL A   1      33.488  32.212  27.634  1.00  0.00     0.251 C 
ATOM     22  H   UNL A   1      31.583  31.776  27.124  1.00  0.00     0.163 HD
ATOM     23  O   UNL A   1      33.275  33.383  27.916  1.00  0.00    -0.269 OA
BRANCH  21  24
ATOM     24  C   UNL A   1      34.829  31.623  27.804  1.00  0.00     0.039 A 
ATOM     25  C   UNL A   1      35.923  32.465  28.002  1.00  0.00     0.014 A 
ATOM     26  C   UNL A   1      34.925  30.252  28.027  1.00  0.00     0.014 A 
ATOM     27  C   UNL A   1      37.082  31.940  28.571  1.00  0.00     0.010 A 
ATOM     28  C   UNL A   1      36.005  29.777  28.748  1.00  0.00     0.010 A 
ATOM     29  C   UNL A   1      37.101  30.610  29.026  1.00  0.00    -0.014 A 
BRANCH  29  30
ATOM     30  C   UNL A   1      38.247  30.051  29.788  1.00  0.00     0.031 A 
ATOM     31  C   UNL A   1      38.466  30.490  31.212  1.00  0.00     0.074 A 
ATOM     32  C   UNL A   1      39.135  29.235  29.184  1.00  0.00     0.049 A 
ATOM     33  N   UNL A   1      39.456  30.217  32.021  1.00  0.00    -0.248 NA
ATOM     34  C   UNL A   1      37.463  31.405  31.785  1.00  0.00     0.031 C 
ATOM     35  C   UNL A   1      39.083  28.798  27.787  1.00  0.00     0.029 A 
ATOM     36  N   UNL A   1      40.268  28.629  29.672  1.00  0.00    -0.354 N 
ATOM     37  C   UNL A   1      39.204  30.945  33.176  1.00  0.00     0.074 A 
ATOM     38  C   UNL A   1      38.028  31.745  32.930  1.00  0.00     0.031 C 
ATOM     39  C   UNL A   1      40.104  27.961  27.545  1.00  0.00     0.029 A 
ATOM     40  C   UNL A   1      40.913  27.836  28.753  1.00  0.00     0.049 A 
ATOM     41  H   UNL A   1      40.587  28.750  30.596  1.00  0.00     0.167 HD
ATOM     42  C   UNL A   1      39.864  30.916  34.355  1.00  0.00     0.037 A 
ATOM     43  C   UNL A   1      42.032  27.094  28.875  1.00  0.00     0.037 A 
ATOM     44  C   UNL A   1      41.006  30.082  34.609  1.00  0.00     0.049 A 
ATOM     45  C   UNL A   1      42.747  27.072  30.201  1.00  0.00     0.074 A 
ATOM     46  C   UNL A   1      41.708  29.919  35.788  1.00  0.00     0.029 A 
ATOM     47  N   UNL A   1      41.610  29.267  33.663  1.00  0.00    -0.354 N 
ATOM     48  N   UNL A   1      42.450  27.698  31.314  1.00  0.00    -0.248 NA
ATOM     49  C   UNL A   1      43.950  26.231  30.291  1.00  0.00     0.031 C 
ATOM     50  C   UNL A   1      42.772  29.047  35.542  1.00  0.00     0.029 A 
ATOM     51  C   UNL A   1      42.693  28.616  34.227  1.00  0.00     0.049 A 
ATOM     52  H   UNL A   1      41.312  29.166  32.730  1.00  0.00     0.167 HD
ATOM     53  C   UNL A   1      43.404  27.304  32.242  1.00  0.00     0.074 A 
ATOM     54  C   UNL A   1      44.281  26.370  31.566  1.00  0.00     0.031 C 
ATOM     55  C   UNL A   1      43.543  27.678  33.538  1.00  0.00     0.037 A 
BRANCH  42  56
ATOM     56  C   UNL A   1      39.354  31.800  35.457  1.00  0.00     0.064 A 
ATOM     57  C   UNL A   1      38.438  31.334  36.414  1.00  0.00     0.173 A 
ATOM     58  C   UNL A   1      39.795  33.126  35.567  1.00  0.00     0.173 A 
ATOM     59  F   UNL A   1      37.968  30.079  36.346  1.00  0.00    -0.203 F 
ATOM     60  C   UNL A   1      37.955  32.173  37.414  1.00  0.00     0.198 A 
ATOM     61  C   UNL A   1      39.341  33.951  36.593  1.00  0.00     0.198 A 
ATOM     62  F   UNL A   1      40.670  33.625  34.680  1.00  0.00    -0.203 F 
ATOM     63  F   UNL A   1      37.030  31.724  38.274  1.00  0.00    -0.200 F 
ATOM     64  C   UNL A   1      38.413  33.478  37.508  1.00  0.00     0.200 A 
ATOM     65  F   UNL A   1      39.794  35.209  36.689  1.00  0.00    -0.200 F 
ATOM     66  F   UNL A   1      37.953  34.283  38.475  1.00  0.00    -0.200 F 
ENDBRANCH  42  56
BRANCH  43  67
ATOM     67  C   UNL A   1      42.530  26.288  27.726  1.00  0.00     0.064 A 
ATOM     68  C   UNL A   1      42.040  24.995  27.489  1.00  0.00     0.173 A 
ATOM     69  C   UNL A   1      43.512  26.780  26.854  1.00  0.00     0.173 A 
ATOM     70  F   UNL A   1      41.114  24.469  28.303  1.00  0.00    -0.203 F 
ATOM     71  C   UNL A   1      42.535  24.216  26.443  1.00  0.00     0.198 A 
ATOM     72  C   UNL A   1      43.982  26.013  25.789  1.00  0.00     0.198 A 
ATOM     73  F   UNL A   1      44.010  28.012  27.031  1.00  0.00    -0.203 F 
ATOM     74  F   UNL A   1      42.088  22.964  26.275  1.00  0.00    -0.200 F 
ATOM     75  C   UNL A   1      43.501  24.727  25.592  1.00  0.00     0.200 A 
ATOM     76  F   UNL A   1      44.904  26.517  24.959  1.00  0.00    -0.200 F 
ATOM     77  F   UNL A   1      43.974  23.980  24.586  1.00  0.00    -0.200 F 
ENDBRANCH  43  67
BRANCH  55  78
ATOM     78  C   UNL A   1      44.653  27.046  34.326  1.00  0.00     0.064 A 
ATOM     79  C   UNL A   1      44.486  25.822  34.991  1.00  0.00     0.173 A 
ATOM     80  C   UNL A   1      45.920  27.650  34.370  1.00  0.00     0.173 A 
ATOM     81  F   UNL A   1      43.292  25.210  34.988  1.00  0.00    -0.203 F 
ATOM     82  C   UNL A   1      45.538  25.241  35.693  1.00  0.00     0.198 A 
ATOM     83  C   UNL A   1      46.979  27.048  35.042  1.00  0.00     0.198 A 
ATOM     84  F   UNL A   1      46.135  28.816  33.742  1.00  0.00    -0.203 F 
ATOM     85  F   UNL A   1      45.341  24.098  36.363  1.00  0.00    -0.200 F 
ATOM     86  C   UNL A   1      46.785  25.849  35.710  1.00  0.00     0.200 A 
ATOM     87  F   UNL A   1      48.187  27.627  35.040  1.00  0.00    -0.200 F 
ATOM     88  F   UNL A   1      47.799  25.280  36.376  1.00  0.00    -0.200 F 
ENDBRANCH  55  78
ENDBRANCH  29  30
ENDBRANCH  21  24
ENDBRANCH  19  20
ENDBRANCH  18  19
ENDBRANCH   1  18
TORSDOF 14
ENDMDL
