MODEL 1
REMARK VINA RESULT:     -11.9      0.000      0.000
REMARK SMILES CN(CC(=O)NCCCCNC(=O)c1ccc(-c2c3nc(c(-c4c(F)c(F)c(F)c(F)c4F)c4ccc([nH]4)c(-c4c(F)c(F)c(F)c(F)c4F)c4nc(c(-c5c(F)c(F)c(F)c(F)c5F)c5ccc2[nH]5)C=C4)C=C3)cc1)C(=O)N[C@@H]1C[C@H]1c1ccccc1
REMARK SMILES IDX 7 1 6 2 4 3 5 4 3 6 2 7 1 8 77 9 78 10 79 11 80 13 81 14
REMARK SMILES IDX 82 15 83 16 84 17 88 18 85 19 87 20 86 21 8 22 9 23 10 24
REMARK SMILES IDX 11 25 12 26 13 28 14 29 15 30 76 31 16 32 75 33 17 34 18 35
REMARK SMILES IDX 19 36 69 37 20 38 74 39 68 40 70 41 21 42 73 43 67 44 66 45
REMARK SMILES IDX 22 47 54 48 34 49 53 50 35 51 38 52 52 53 71 54 36 55 37 56
REMARK SMILES IDX 51 58 72 59 39 60 23 61 24 62 32 63 25 64 26 65 30 66 33 67
REMARK SMILES IDX 27 68 28 69 31 70 29 71 55 72 56 73 64 74 57 75 58 76 62 77
REMARK SMILES IDX 65 78 59 79 60 80 63 81 61 82 40 83 41 84 49 85 42 86 43 87
REMARK SMILES IDX 47 88 50 89 44 90 45 91 48 92 46 93
REMARK H PARENT 6 5 79 12 11 27 70 46 38 57
REMARK Flexibility Score: inf
ROOT
ATOM      1  C   UNL A   1      31.839  29.675  27.160  1.00  0.00     0.116 C 
ENDROOT
BRANCH   1   2
ATOM      2  N   UNL A   1      33.236  29.555  27.511  1.00  0.00    -0.355 N 
ATOM      3  C   UNL A   1      34.147  28.648  27.057  1.00  0.00     0.239 C 
ATOM      4  O   UNL A   1      35.341  28.938  27.184  1.00  0.00    -0.273 OA
ATOM      5  H   UNL A   1      33.573  30.213  28.161  1.00  0.00     0.163 HD
BRANCH   3   6
ATOM      6  C   UNL A   1      33.710  27.410  26.261  1.00  0.00     0.220 C 
BRANCH   6   7
ATOM      7  N   UNL A   1      33.461  27.605  24.830  1.00  0.00    -0.319 N 
ATOM      8  C   UNL A   1      34.022  28.807  24.221  1.00  0.00     0.149 C 
BRANCH   7   9
ATOM      9  C   UNL A   1      32.910  26.712  23.947  1.00  0.00     0.317 C 
ATOM     10  O   UNL A   1      33.583  25.784  23.481  1.00  0.00    -0.249 OA
ATOM     11  N   UNL A   1      31.625  26.767  23.529  1.00  0.00    -0.335 N 
ATOM     12  H   UNL A   1      31.413  26.070  22.866  1.00  0.00     0.165 HD
BRANCH  11  13
ATOM     13  C   UNL A   1      30.508  27.597  23.826  1.00  0.00     0.092 C 
ATOM     14  C   UNL A   1      29.098  27.095  23.733  1.00  0.00     0.036 C 
ATOM     15  C   UNL A   1      29.592  28.064  22.699  1.00  0.00     0.044 C 
BRANCH  15  16
ATOM     16  C   UNL A   1      29.056  29.479  22.672  1.00  0.00    -0.043 A 
ATOM     17  C   UNL A   1      28.099  29.929  23.599  1.00  0.00     0.004 A 
ATOM     18  C   UNL A   1      29.460  30.386  21.679  1.00  0.00     0.004 A 
ATOM     19  C   UNL A   1      27.580  31.225  23.551  1.00  0.00     0.000 A 
ATOM     20  C   UNL A   1      28.937  31.682  21.617  1.00  0.00     0.000 A 
ATOM     21  C   UNL A   1      27.999  32.102  22.556  1.00  0.00     0.000 A 
ENDBRANCH  15  16
ENDBRANCH  11  13
ENDBRANCH   7   9
ENDBRANCH   6   7
ENDBRANCH   3   6
ENDBRANCH   1   2
BRANCH   1  22
ATOM     22  C   UNL A   1      31.583  30.729  26.089  1.00  0.00     0.023 C 
BRANCH  22  23
ATOM     23  C   UNL A   1      31.350  32.146  26.618  1.00  0.00     0.023 C 
BRANCH  23  24
ATOM     24  C   UNL A   1      32.563  32.829  27.241  1.00  0.00     0.116 C 
BRANCH  24  25
ATOM     25  N   UNL A   1      32.319  34.208  27.632  1.00  0.00    -0.352 N 
ATOM     26  C   UNL A   1      32.977  34.969  28.565  1.00  0.00     0.251 C 
ATOM     27  H   UNL A   1      31.580  34.658  27.162  1.00  0.00     0.163 HD
ATOM     28  O   UNL A   1      32.589  36.102  28.830  1.00  0.00    -0.269 OA
BRANCH  26  29
ATOM     29  C   UNL A   1      34.134  34.399  29.287  1.00  0.00     0.039 A 
ATOM     30  C   UNL A   1      33.899  33.644  30.438  1.00  0.00     0.014 A 
ATOM     31  C   UNL A   1      35.436  34.578  28.813  1.00  0.00     0.014 A 
ATOM     32  C   UNL A   1      34.965  33.009  31.077  1.00  0.00     0.010 A 
ATOM     33  C   UNL A   1      36.488  33.887  29.409  1.00  0.00     0.010 A 
ATOM     34  C   UNL A   1      36.262  33.093  30.543  1.00  0.00    -0.014 A 
BRANCH  34  35
ATOM     35  C   UNL A   1      37.392  32.349  31.154  1.00  0.00     0.031 A 
ATOM     36  C   UNL A   1      37.891  32.723  32.520  1.00  0.00     0.074 A 
ATOM     37  C   UNL A   1      38.013  31.384  30.448  1.00  0.00     0.049 A 
ATOM     38  N   UNL A   1      38.907  32.243  33.192  1.00  0.00    -0.248 NA
ATOM     39  C   UNL A   1      37.167  33.800  33.215  1.00  0.00     0.031 C 
ATOM     40  C   UNL A   1      37.654  30.965  29.092  1.00  0.00     0.029 A 
ATOM     41  N   UNL A   1      39.085  30.589  30.769  1.00  0.00    -0.354 N 
ATOM     42  C   UNL A   1      38.952  32.967  34.376  1.00  0.00     0.074 A 
ATOM     43  C   UNL A   1      37.896  33.953  34.310  1.00  0.00     0.031 C 
ATOM     44  C   UNL A   1      38.477  29.976  28.706  1.00  0.00     0.029 A 
ATOM     45  C   UNL A   1      39.443  29.718  29.769  1.00  0.00     0.049 A 
ATOM     46  H   UNL A   1      39.553  30.638  31.634  1.00  0.00     0.167 HD
ATOM     47  C   UNL A   1      39.785  32.807  35.432  1.00  0.00     0.037 A 
ATOM     48  C   UNL A   1      40.443  28.817  29.715  1.00  0.00     0.037 A 
ATOM     49  C   UNL A   1      40.818  31.807  35.505  1.00  0.00     0.049 A 
ATOM     50  C   UNL A   1      41.355  28.660  30.901  1.00  0.00     0.074 A 
ATOM     51  C   UNL A   1      41.673  31.524  36.554  1.00  0.00     0.029 A 
ATOM     52  N   UNL A   1      41.138  30.927  34.480  1.00  0.00    -0.354 N 
ATOM     53  N   UNL A   1      41.343  29.301  32.044  1.00  0.00    -0.248 NA
ATOM     54  C   UNL A   1      42.415  27.649  30.792  1.00  0.00     0.031 C 
ATOM     55  C   UNL A   1      42.539  30.501  36.150  1.00  0.00     0.029 A 
ATOM     56  C   UNL A   1      42.191  30.114  34.866  1.00  0.00     0.049 A 
ATOM     57  H   UNL A   1      40.683  30.886  33.607  1.00  0.00     0.167 HD
ATOM     58  C   UNL A   1      42.371  28.754  32.800  1.00  0.00     0.074 A 
ATOM     59  C   UNL A   1      42.978  27.717  31.990  1.00  0.00     0.031 C 
ATOM     60  C   UNL A   1      42.777  29.081  34.052  1.00  0.00     0.037 A 
BRANCH  47  61
ATOM     61  C   UNL A   1      39.609  33.733  36.600  1.00  0.00     0.064 A 
ATOM     62  C   UNL A   1      38.818  33.382  37.704  1.00  0.00     0.173 A 
ATOM     63  C   UNL A   1      40.268  34.971  36.633  1.00  0.00     0.173 A 
ATOM     64  F   UNL A   1      38.158  32.214  37.717  1.00  0.00    -0.203 F 
ATOM     65  C   UNL A   1      38.667  34.249  38.783  1.00  0.00     0.198 A 
ATOM     66  C   UNL A   1      40.140  35.823  37.727  1.00  0.00     0.198 A 
ATOM     67  F   UNL A   1      41.042  35.354  35.606  1.00  0.00    -0.203 F 
ATOM     68  F   UNL A   1      37.865  33.913  39.803  1.00  0.00    -0.200 F 
ATOM     69  C   UNL A   1      39.334  35.464  38.797  1.00  0.00     0.200 A 
ATOM     70  F   UNL A   1      40.795  36.991  37.745  1.00  0.00    -0.200 F 
ATOM     71  F   UNL A   1      39.194  36.295  39.840  1.00  0.00    -0.200 F 
ENDBRANCH  47  61
BRANCH  48  72
ATOM     72  C   UNL A   1      40.619  27.975  28.502  1.00  0.00     0.064 A 
ATOM     73  C   UNL A   1      41.385  28.430  27.419  1.00  0.00     0.173 A 
ATOM     74  C   UNL A   1      40.024  26.710  28.398  1.00  0.00     0.173 A 
ATOM     75  F   UNL A   1      41.956  29.642  27.465  1.00  0.00    -0.203 F 
ATOM     76  C   UNL A   1      41.532  27.658  26.268  1.00  0.00     0.198 A 
ATOM     77  C   UNL A   1      40.195  25.928  27.258  1.00  0.00     0.198 A 
ATOM     78  F   UNL A   1      39.286  26.229  29.407  1.00  0.00    -0.203 F 
ATOM     79  F   UNL A   1      42.230  28.135  25.229  1.00  0.00    -0.200 F 
ATOM     80  C   UNL A   1      40.941  26.405  26.190  1.00  0.00     0.200 A 
ATOM     81  F   UNL A   1      39.635  24.712  27.191  1.00  0.00    -0.200 F 
ATOM     82  F   UNL A   1      41.085  25.663  25.085  1.00  0.00    -0.200 F 
ENDBRANCH  48  72
BRANCH  60  83
ATOM     83  C   UNL A   1      43.907  28.285  34.638  1.00  0.00     0.064 A 
ATOM     84  C   UNL A   1      45.236  28.725  34.559  1.00  0.00     0.173 A 
ATOM     85  C   UNL A   1      43.649  27.088  35.323  1.00  0.00     0.173 A 
ATOM     86  F   UNL A   1      45.536  29.855  33.901  1.00  0.00    -0.203 F 
ATOM     87  C   UNL A   1      46.269  27.982  35.124  1.00  0.00     0.198 A 
ATOM     88  C   UNL A   1      44.681  26.363  35.913  1.00  0.00     0.198 A 
ATOM     89  F   UNL A   1      42.393  26.627  35.433  1.00  0.00    -0.203 F 
ATOM     90  F   UNL A   1      47.537  28.396  34.996  1.00  0.00    -0.200 F 
ATOM     91  C   UNL A   1      45.991  26.807  35.806  1.00  0.00     0.200 A 
ATOM     92  F   UNL A   1      44.408  25.236  36.584  1.00  0.00    -0.200 F 
ATOM     93  F   UNL A   1      46.986  26.098  36.357  1.00  0.00    -0.200 F 
ENDBRANCH  60  83
ENDBRANCH  34  35
ENDBRANCH  26  29
ENDBRANCH  24  25
ENDBRANCH  23  24
ENDBRANCH  22  23
ENDBRANCH   1  22
TORSDOF 15
ENDMDL
MODEL 2
REMARK VINA RESULT:     -11.9      0.899      7.518
REMARK SMILES CN(CC(=O)NCCCCNC(=O)c1ccc(-c2c3nc(c(-c4c(F)c(F)c(F)c(F)c4F)c4ccc([nH]4)c(-c4c(F)c(F)c(F)c(F)c4F)c4nc(c(-c5c(F)c(F)c(F)c(F)c5F)c5ccc2[nH]5)C=C4)C=C3)cc1)C(=O)N[C@@H]1C[C@H]1c1ccccc1
REMARK SMILES IDX 7 1 6 2 4 3 5 4 3 6 2 7 1 8 77 9 78 10 79 11 80 13 81 14
REMARK SMILES IDX 82 15 83 16 84 17 88 18 85 19 87 20 86 21 8 22 9 23 10 24
REMARK SMILES IDX 11 25 12 26 13 28 14 29 15 30 76 31 16 32 75 33 17 34 18 35
REMARK SMILES IDX 19 36 69 37 20 38 74 39 68 40 70 41 21 42 73 43 67 44 66 45
REMARK SMILES IDX 22 47 54 48 34 49 53 50 35 51 38 52 52 53 71 54 36 55 37 56
REMARK SMILES IDX 51 58 72 59 39 60 23 61 24 62 32 63 25 64 26 65 30 66 33 67
REMARK SMILES IDX 27 68 28 69 31 70 29 71 55 72 56 73 64 74 57 75 58 76 62 77
REMARK SMILES IDX 65 78 59 79 60 80 63 81 61 82 40 83 41 84 49 85 42 86 43 87
REMARK SMILES IDX 47 88 50 89 44 90 45 91 48 92 46 93
REMARK H PARENT 6 5 79 12 11 27 70 46 38 57
REMARK Flexibility Score: inf
ROOT
ATOM      1  C   UNL A   1      32.526  29.495  26.853  1.00  0.00     0.116 C 
ENDROOT
BRANCH   1   2
ATOM      2  N   UNL A   1      31.797  28.248  26.875  1.00  0.00    -0.355 N 
ATOM      3  C   UNL A   1      32.159  27.047  26.342  1.00  0.00     0.239 C 
ATOM      4  O   UNL A   1      31.591  26.041  26.781  1.00  0.00    -0.273 OA
ATOM      5  H   UNL A   1      30.926  28.269  27.333  1.00  0.00     0.163 HD
BRANCH   3   6
ATOM      6  C   UNL A   1      33.347  26.930  25.376  1.00  0.00     0.220 C 
BRANCH   6   7
ATOM      7  N   UNL A   1      33.105  26.206  24.124  1.00  0.00    -0.319 N 
ATOM      8  C   UNL A   1      32.623  24.833  24.240  1.00  0.00     0.149 C 
BRANCH   7   9
ATOM      9  C   UNL A   1      33.111  26.712  22.850  1.00  0.00     0.317 C 
ATOM     10  O   UNL A   1      33.872  26.252  21.989  1.00  0.00    -0.249 OA
ATOM     11  N   UNL A   1      32.309  27.720  22.440  1.00  0.00    -0.335 N 
ATOM     12  H   UNL A   1      32.476  27.980  21.505  1.00  0.00     0.165 HD
BRANCH  11  13
ATOM     13  C   UNL A   1      31.278  28.492  23.045  1.00  0.00     0.092 C 
ATOM     14  C   UNL A   1      30.002  27.872  23.531  1.00  0.00     0.036 C 
ATOM     15  C   UNL A   1      29.969  28.726  22.297  1.00  0.00     0.044 C 
BRANCH  15  16
ATOM     16  C   UNL A   1      29.288  30.077  22.331  1.00  0.00    -0.043 A 
ATOM     17  C   UNL A   1      28.857  30.721  21.157  1.00  0.00     0.004 A 
ATOM     18  C   UNL A   1      29.108  30.766  23.541  1.00  0.00     0.004 A 
ATOM     19  C   UNL A   1      28.260  31.984  21.187  1.00  0.00     0.000 A 
ATOM     20  C   UNL A   1      28.521  32.035  23.579  1.00  0.00     0.000 A 
ATOM     21  C   UNL A   1      28.094  32.643  22.401  1.00  0.00     0.000 A 
ENDBRANCH  15  16
ENDBRANCH  11  13
ENDBRANCH   7   9
ENDBRANCH   6   7
ENDBRANCH   3   6
ENDBRANCH   1   2
BRANCH   1  22
ATOM     22  C   UNL A   1      31.857  30.561  25.992  1.00  0.00     0.023 C 
BRANCH  22  23
ATOM     23  C   UNL A   1      31.497  31.854  26.727  1.00  0.00     0.023 C 
BRANCH  23  24
ATOM     24  C   UNL A   1      32.674  32.661  27.265  1.00  0.00     0.116 C 
BRANCH  24  25
ATOM     25  N   UNL A   1      32.335  34.036  27.594  1.00  0.00    -0.352 N 
ATOM     26  C   UNL A   1      32.933  34.878  28.499  1.00  0.00     0.251 C 
ATOM     27  H   UNL A   1      31.574  34.417  27.099  1.00  0.00     0.163 HD
ATOM     28  O   UNL A   1      32.468  35.994  28.711  1.00  0.00    -0.269 OA
BRANCH  26  29
ATOM     29  C   UNL A   1      34.115  34.417  29.254  1.00  0.00     0.039 A 
ATOM     30  C   UNL A   1      33.921  33.809  30.497  1.00  0.00     0.014 A 
ATOM     31  C   UNL A   1      35.402  34.551  28.727  1.00  0.00     0.014 A 
ATOM     32  C   UNL A   1      35.013  33.271  31.181  1.00  0.00     0.010 A 
ATOM     33  C   UNL A   1      36.479  33.952  29.376  1.00  0.00     0.010 A 
ATOM     34  C   UNL A   1      36.294  33.304  30.606  1.00  0.00    -0.014 A 
BRANCH  34  35
ATOM     35  C   UNL A   1      37.451  32.655  31.274  1.00  0.00     0.031 A 
ATOM     36  C   UNL A   1      38.170  31.521  30.602  1.00  0.00     0.074 A 
ATOM     37  C   UNL A   1      37.806  33.043  32.514  1.00  0.00     0.049 A 
ATOM     38  N   UNL A   1      39.153  30.782  31.051  1.00  0.00    -0.248 NA
ATOM     39  C   UNL A   1      37.706  31.150  29.255  1.00  0.00     0.031 C 
ATOM     40  C   UNL A   1      37.153  34.097  33.291  1.00  0.00     0.029 A 
ATOM     41  N   UNL A   1      38.799  32.585  33.344  1.00  0.00    -0.354 N 
ATOM     42  C   UNL A   1      39.413  29.854  30.051  1.00  0.00     0.074 A 
ATOM     43  C   UNL A   1      38.452  30.087  28.996  1.00  0.00     0.031 C 
ATOM     44  C   UNL A   1      37.773  34.219  34.475  1.00  0.00     0.029 A 
ATOM     45  C   UNL A   1      38.843  33.229  34.557  1.00  0.00     0.049 A 
ATOM     46  H   UNL A   1      39.420  31.863  33.096  1.00  0.00     0.167 HD
ATOM     47  C   UNL A   1      40.381  28.907  30.010  1.00  0.00     0.037 A 
ATOM     48  C   UNL A   1      39.652  33.038  35.617  1.00  0.00     0.037 A 
ATOM     49  C   UNL A   1      41.352  28.695  31.051  1.00  0.00     0.049 A 
ATOM     50  C   UNL A   1      40.718  31.979  35.544  1.00  0.00     0.074 A 
ATOM     51  C   UNL A   1      42.410  27.804  31.076  1.00  0.00     0.029 A 
ATOM     52  N   UNL A   1      41.379  29.383  32.256  1.00  0.00    -0.354 N 
ATOM     53  N   UNL A   1      41.001  31.155  34.565  1.00  0.00    -0.248 NA
ATOM     54  C   UNL A   1      41.583  31.829  36.722  1.00  0.00     0.031 C 
ATOM     55  C   UNL A   1      43.052  27.922  32.314  1.00  0.00     0.029 A 
ATOM     56  C   UNL A   1      42.424  28.921  33.040  1.00  0.00     0.049 A 
ATOM     57  H   UNL A   1      40.750  30.094  32.516  1.00  0.00     0.167 HD
ATOM     58  C   UNL A   1      42.091  30.410  34.996  1.00  0.00     0.074 A 
ATOM     59  C   UNL A   1      42.428  30.890  36.320  1.00  0.00     0.031 C 
ATOM     60  C   UNL A   1      42.752  29.416  34.352  1.00  0.00     0.037 A 
BRANCH  47  61
ATOM     61  C   UNL A   1      40.441  28.031  28.792  1.00  0.00     0.064 A 
ATOM     62  C   UNL A   1      41.198  28.388  27.666  1.00  0.00     0.173 A 
ATOM     63  C   UNL A   1      39.764  26.803  28.765  1.00  0.00     0.173 A 
ATOM     64  F   UNL A   1      41.855  29.557  27.637  1.00  0.00    -0.203 F 
ATOM     65  C   UNL A   1      41.248  27.563  26.545  1.00  0.00     0.198 A 
ATOM     66  C   UNL A   1      39.842  25.965  27.655  1.00  0.00     0.198 A 
ATOM     67  F   UNL A   1      39.031  26.409  29.817  1.00  0.00    -0.203 F 
ATOM     68  F   UNL A   1      41.936  27.949  25.462  1.00  0.00    -0.200 F 
ATOM     69  C   UNL A   1      40.577  26.350  26.543  1.00  0.00     0.200 A 
ATOM     70  F   UNL A   1      39.204  24.787  27.659  1.00  0.00    -0.200 F 
ATOM     71  F   UNL A   1      40.633  25.554  25.467  1.00  0.00    -0.200 F 
ENDBRANCH  47  61
BRANCH  48  72
ATOM     72  C   UNL A   1      39.501  33.886  36.828  1.00  0.00     0.064 A 
ATOM     73  C   UNL A   1      38.741  33.445  37.921  1.00  0.00     0.173 A 
ATOM     74  C   UNL A   1      40.103  35.148  36.918  1.00  0.00     0.173 A 
ATOM     75  F   UNL A   1      38.129  32.253  37.874  1.00  0.00    -0.203 F 
ATOM     76  C   UNL A   1      38.572  34.246  39.050  1.00  0.00     0.198 A 
ATOM     77  C   UNL A   1      39.957  35.936  38.058  1.00  0.00     0.198 A 
ATOM     78  F   UNL A   1      40.844  35.613  35.902  1.00  0.00    -0.203 F 
ATOM     79  F   UNL A   1      37.803  33.821  40.060  1.00  0.00    -0.200 F 
ATOM     80  C   UNL A   1      39.185  35.488  39.119  1.00  0.00     0.200 A 
ATOM     81  F   UNL A   1      40.562  37.130  38.128  1.00  0.00    -0.200 F 
ATOM     82  F   UNL A   1      39.025  36.256  40.205  1.00  0.00    -0.200 F 
ENDBRANCH  48  72
BRANCH  60  83
ATOM     83  C   UNL A   1      43.931  28.807  35.055  1.00  0.00     0.064 A 
ATOM     84  C   UNL A   1      45.226  29.324  34.903  1.00  0.00     0.173 A 
ATOM     85  C   UNL A   1      43.753  27.719  35.922  1.00  0.00     0.173 A 
ATOM     86  F   UNL A   1      45.450  30.353  34.073  1.00  0.00    -0.203 F 
ATOM     87  C   UNL A   1      46.305  28.756  35.576  1.00  0.00     0.198 A 
ATOM     88  C   UNL A   1      44.829  27.173  36.617  1.00  0.00     0.198 A 
ATOM     89  F   UNL A   1      42.533  27.192  36.107  1.00  0.00    -0.203 F 
ATOM     90  F   UNL A   1      47.541  29.236  35.381  1.00  0.00    -0.200 F 
ATOM     91  C   UNL A   1      46.105  27.688  36.437  1.00  0.00     0.200 A 
ATOM     92  F   UNL A   1      44.632  26.150  37.459  1.00  0.00    -0.200 F 
ATOM     93  F   UNL A   1      47.143  27.149  37.091  1.00  0.00    -0.200 F 
ENDBRANCH  60  83
ENDBRANCH  34  35
ENDBRANCH  26  29
ENDBRANCH  24  25
ENDBRANCH  23  24
ENDBRANCH  22  23
ENDBRANCH   1  22
TORSDOF 15
ENDMDL
MODEL 3
REMARK VINA RESULT:     -11.9      1.830      8.199
REMARK SMILES CN(CC(=O)NCCCCNC(=O)c1ccc(-c2c3nc(c(-c4c(F)c(F)c(F)c(F)c4F)c4ccc([nH]4)c(-c4c(F)c(F)c(F)c(F)c4F)c4nc(c(-c5c(F)c(F)c(F)c(F)c5F)c5ccc2[nH]5)C=C4)C=C3)cc1)C(=O)N[C@@H]1C[C@H]1c1ccccc1
REMARK SMILES IDX 7 1 6 2 4 3 5 4 3 6 2 7 1 8 77 9 78 10 79 11 80 13 81 14
REMARK SMILES IDX 82 15 83 16 84 17 88 18 85 19 87 20 86 21 8 22 9 23 10 24
REMARK SMILES IDX 11 25 12 26 13 28 14 29 15 30 76 31 16 32 75 33 17 34 18 35
REMARK SMILES IDX 19 36 69 37 20 38 74 39 68 40 70 41 21 42 73 43 67 44 66 45
REMARK SMILES IDX 22 47 54 48 34 49 53 50 35 51 38 52 52 53 71 54 36 55 37 56
REMARK SMILES IDX 51 58 72 59 39 60 23 61 24 62 32 63 25 64 26 65 30 66 33 67
REMARK SMILES IDX 27 68 28 69 31 70 29 71 55 72 56 73 64 74 57 75 58 76 62 77
REMARK SMILES IDX 65 78 59 79 60 80 63 81 61 82 40 83 41 84 49 85 42 86 43 87
REMARK SMILES IDX 47 88 50 89 44 90 45 91 48 92 46 93
REMARK H PARENT 6 5 79 12 11 27 70 46 38 57
REMARK Flexibility Score: inf
ROOT
ATOM      1  C   UNL A   1      33.109  29.960  26.134  1.00  0.00     0.116 C 
ENDROOT
BRANCH   1   2
ATOM      2  N   UNL A   1      33.321  29.807  24.713  1.00  0.00    -0.355 N 
ATOM      3  C   UNL A   1      33.214  28.676  23.959  1.00  0.00     0.239 C 
ATOM      4  O   UNL A   1      33.069  28.823  22.741  1.00  0.00    -0.273 OA
ATOM      5  H   UNL A   1      33.576  30.624  24.227  1.00  0.00     0.163 HD
BRANCH   3   6
ATOM      6  C   UNL A   1      33.094  27.292  24.612  1.00  0.00     0.220 C 
BRANCH   6   7
ATOM      7  N   UNL A   1      31.769  26.916  25.115  1.00  0.00    -0.319 N 
ATOM      8  C   UNL A   1      30.677  26.905  24.148  1.00  0.00     0.149 C 
BRANCH   7   9
ATOM      9  C   UNL A   1      31.456  26.407  26.349  1.00  0.00     0.317 C 
ATOM     10  O   UNL A   1      30.815  27.077  27.167  1.00  0.00    -0.249 OA
ATOM     11  N   UNL A   1      31.806  25.166  26.758  1.00  0.00    -0.335 N 
ATOM     12  H   UNL A   1      31.532  24.983  27.686  1.00  0.00     0.165 HD
BRANCH  11  13
ATOM     13  C   UNL A   1      32.478  24.064  26.159  1.00  0.00     0.092 C 
ATOM     14  C   UNL A   1      32.460  22.694  26.770  1.00  0.00     0.036 C 
ATOM     15  C   UNL A   1      33.730  23.493  26.817  1.00  0.00     0.044 C 
BRANCH  15  16
ATOM     16  C   UNL A   1      34.920  23.070  25.983  1.00  0.00    -0.043 A 
ATOM     17  C   UNL A   1      35.967  23.959  25.679  1.00  0.00     0.004 A 
ATOM     18  C   UNL A   1      34.997  21.780  25.435  1.00  0.00     0.004 A 
ATOM     19  C   UNL A   1      37.048  23.577  24.880  1.00  0.00     0.000 A 
ATOM     20  C   UNL A   1      36.070  21.393  24.625  1.00  0.00     0.000 A 
ATOM     21  C   UNL A   1      37.097  22.292  24.350  1.00  0.00     0.000 A 
ENDBRANCH  15  16
ENDBRANCH  11  13
ENDBRANCH   7   9
ENDBRANCH   6   7
ENDBRANCH   3   6
ENDBRANCH   1   2
BRANCH   1  22
ATOM     22  C   UNL A   1      31.709  30.454  26.477  1.00  0.00     0.023 C 
BRANCH  22  23
ATOM     23  C   UNL A   1      31.563  31.975  26.567  1.00  0.00     0.023 C 
BRANCH  23  24
ATOM     24  C   UNL A   1      32.676  32.705  27.312  1.00  0.00     0.116 C 
BRANCH  24  25
ATOM     25  N   UNL A   1      32.352  34.084  27.639  1.00  0.00    -0.352 N 
ATOM     26  C   UNL A   1      32.960  34.922  28.540  1.00  0.00     0.251 C 
ATOM     27  H   UNL A   1      31.592  34.470  27.145  1.00  0.00     0.163 HD
ATOM     28  O   UNL A   1      32.506  36.043  28.750  1.00  0.00    -0.269 OA
BRANCH  26  29
ATOM     29  C   UNL A   1      34.140  34.452  29.293  1.00  0.00     0.039 A 
ATOM     30  C   UNL A   1      33.947  33.884  30.554  1.00  0.00     0.014 A 
ATOM     31  C   UNL A   1      35.423  34.538  28.746  1.00  0.00     0.014 A 
ATOM     32  C   UNL A   1      35.034  33.337  31.239  1.00  0.00     0.010 A 
ATOM     33  C   UNL A   1      36.492  33.930  29.397  1.00  0.00     0.010 A 
ATOM     34  C   UNL A   1      36.308  33.321  30.648  1.00  0.00    -0.014 A 
BRANCH  34  35
ATOM     35  C   UNL A   1      37.456  32.661  31.318  1.00  0.00     0.031 A 
ATOM     36  C   UNL A   1      38.143  31.496  30.666  1.00  0.00     0.074 A 
ATOM     37  C   UNL A   1      37.834  33.069  32.545  1.00  0.00     0.049 A 
ATOM     38  N   UNL A   1      39.113  30.745  31.121  1.00  0.00    -0.248 NA
ATOM     39  C   UNL A   1      37.656  31.105  29.333  1.00  0.00     0.031 C 
ATOM     40  C   UNL A   1      37.213  34.155  33.304  1.00  0.00     0.029 A 
ATOM     41  N   UNL A   1      38.825  32.607  33.376  1.00  0.00    -0.354 N 
ATOM     42  C   UNL A   1      39.341  29.788  30.141  1.00  0.00     0.074 A 
ATOM     43  C   UNL A   1      38.375  30.019  29.090  1.00  0.00     0.031 C 
ATOM     44  C   UNL A   1      37.849  34.291  34.479  1.00  0.00     0.029 A 
ATOM     45  C   UNL A   1      38.897  33.278  34.572  1.00  0.00     0.049 A 
ATOM     46  H   UNL A   1      39.427  31.866  33.138  1.00  0.00     0.167 HD
ATOM     47  C   UNL A   1      40.287  28.819  30.112  1.00  0.00     0.037 A 
ATOM     48  C   UNL A   1      39.713  33.093  35.628  1.00  0.00     0.037 A 
ATOM     49  C   UNL A   1      41.264  28.608  31.148  1.00  0.00     0.049 A 
ATOM     50  C   UNL A   1      40.754  32.009  35.569  1.00  0.00     0.074 A 
ATOM     51  C   UNL A   1      42.302  27.694  31.183  1.00  0.00     0.029 A 
ATOM     52  N   UNL A   1      41.320  29.323  32.336  1.00  0.00    -0.354 N 
ATOM     53  N   UNL A   1      41.007  31.155  34.607  1.00  0.00    -0.248 NA
ATOM     54  C   UNL A   1      41.628  31.866  36.742  1.00  0.00     0.031 C 
ATOM     55  C   UNL A   1      42.960  27.825  32.411  1.00  0.00     0.029 A 
ATOM     56  C   UNL A   1      42.362  28.855  33.120  1.00  0.00     0.049 A 
ATOM     57  H   UNL A   1      40.709  30.054  32.585  1.00  0.00     0.167 HD
ATOM     58  C   UNL A   1      42.084  30.396  35.044  1.00  0.00     0.074 A 
ATOM     59  C   UNL A   1      42.446  30.899  36.353  1.00  0.00     0.031 C 
ATOM     60  C   UNL A   1      42.716  29.373  34.417  1.00  0.00     0.037 A 
BRANCH  47  61
ATOM     61  C   UNL A   1      40.314  27.913  28.914  1.00  0.00     0.064 A 
ATOM     62  C   UNL A   1      41.065  28.227  27.772  1.00  0.00     0.173 A 
ATOM     63  C   UNL A   1      39.610  26.700  28.923  1.00  0.00     0.173 A 
ATOM     64  F   UNL A   1      41.747  29.381  27.708  1.00  0.00    -0.203 F 
ATOM     65  C   UNL A   1      41.085  27.376  26.670  1.00  0.00     0.198 A 
ATOM     66  C   UNL A   1      39.657  25.835  27.832  1.00  0.00     0.198 A 
ATOM     67  F   UNL A   1      38.881  26.347  29.993  1.00  0.00    -0.203 F 
ATOM     68  F   UNL A   1      41.768  27.722  25.570  1.00  0.00    -0.200 F 
ATOM     69  C   UNL A   1      40.388  26.178  26.704  1.00  0.00     0.200 A 
ATOM     70  F   UNL A   1      38.994  24.672  27.871  1.00  0.00    -0.200 F 
ATOM     71  F   UNL A   1      40.413  25.356  25.646  1.00  0.00    -0.200 F 
ENDBRANCH  47  61
BRANCH  48  72
ATOM     72  C   UNL A   1      39.594  33.972  36.821  1.00  0.00     0.064 A 
ATOM     73  C   UNL A   1      40.258  35.206  36.872  1.00  0.00     0.173 A 
ATOM     74  C   UNL A   1      38.826  33.597  37.932  1.00  0.00     0.173 A 
ATOM     75  F   UNL A   1      41.022  35.598  35.841  1.00  0.00    -0.203 F 
ATOM     76  C   UNL A   1      40.174  36.023  37.998  1.00  0.00     0.198 A 
ATOM     77  C   UNL A   1      38.720  34.427  39.046  1.00  0.00     0.198 A 
ATOM     78  F   UNL A   1      38.169  32.429  37.931  1.00  0.00    -0.203 F 
ATOM     79  F   UNL A   1      40.856  37.175  38.039  1.00  0.00    -0.200 F 
ATOM     80  C   UNL A   1      39.401  35.635  39.082  1.00  0.00     0.200 A 
ATOM     81  F   UNL A   1      37.961  34.057  40.086  1.00  0.00    -0.200 F 
ATOM     82  F   UNL A   1      39.318  36.422  40.163  1.00  0.00    -0.200 F 
ENDBRANCH  48  72
BRANCH  60  83
ATOM     83  C   UNL A   1      43.887  28.753  35.121  1.00  0.00     0.064 A 
ATOM     84  C   UNL A   1      43.734  27.653  35.978  1.00  0.00     0.173 A 
ATOM     85  C   UNL A   1      45.184  29.242  34.903  1.00  0.00     0.173 A 
ATOM     86  F   UNL A   1      42.513  27.159  36.231  1.00  0.00    -0.203 F 
ATOM     87  C   UNL A   1      44.834  27.081  36.610  1.00  0.00     0.198 A 
ATOM     88  C   UNL A   1      46.286  28.648  35.513  1.00  0.00     0.198 A 
ATOM     89  F   UNL A   1      45.385  30.289  34.088  1.00  0.00    -0.203 F 
ATOM     90  F   UNL A   1      44.660  26.060  37.461  1.00  0.00    -0.200 F 
ATOM     91  C   UNL A   1      46.109  27.573  36.371  1.00  0.00     0.200 A 
ATOM     92  F   UNL A   1      47.518  29.117  35.271  1.00  0.00    -0.200 F 
ATOM     93  F   UNL A   1      47.168  27.015  36.974  1.00  0.00    -0.200 F 
ENDBRANCH  60  83
ENDBRANCH  34  35
ENDBRANCH  26  29
ENDBRANCH  24  25
ENDBRANCH  23  24
ENDBRANCH  22  23
ENDBRANCH   1  22
TORSDOF 15
ENDMDL
