MODEL 1
REMARK VINA RESULT:     -12.3      0.000      0.000
REMARK SMILES Cc1nsc(N[C@@H](C)C2CCCC2)c1C(=O)NCCCCNC(=O)c1ccc(-c2c3nc(c(-c4c(F)c(F)c(F)c(F)c4F)c4ccc([nH]4)c(-c4c(F)c(F)c(F)c(F)c4F)c4nc(c(-c5c(F)c(F)c(F)c(F)c5F)c5ccc2[nH]5)C=C4)C=C3)cc1
REMARK SMILES IDX 19 1 18 2 17 3 15 4 16 5 14 7 1 8 2 9 3 10 4 11 5 12 6 13
REMARK SMILES IDX 7 15 8 16 9 17 10 18 13 19 11 20 12 21 20 22 21 23 22 24
REMARK SMILES IDX 23 25 24 27 25 28 26 29 87 30 27 31 86 32 28 33 29 34 30 35
REMARK SMILES IDX 80 36 31 37 85 38 79 39 81 40 32 41 84 42 78 43 77 44 33 46
REMARK SMILES IDX 65 47 45 48 64 49 46 50 49 51 63 52 82 53 47 54 48 55 62 57
REMARK SMILES IDX 83 58 50 59 34 60 35 61 43 62 36 63 37 64 41 65 44 66 38 67
REMARK SMILES IDX 39 68 42 69 40 70 66 71 67 72 75 73 68 74 69 75 73 76 76 77
REMARK SMILES IDX 70 78 71 79 74 80 72 81 51 82 52 83 60 84 53 85 54 86 58 87
REMARK SMILES IDX 61 88 55 89 56 90 59 91 57 92
REMARK H PARENT 17 6 6 14 22 26 81 45 49 56
REMARK Flexibility Score: inf
ROOT
ATOM      1  C   UNL A   1      31.889  29.595  27.169  1.00  0.00     0.023 C 
ENDROOT
BRANCH   1   2
ATOM      2  C   UNL A   1      31.984  28.216  27.830  1.00  0.00     0.116 C 
BRANCH   2   3
ATOM      3  N   UNL A   1      31.138  27.239  27.195  1.00  0.00    -0.352 N 
ATOM      4  C   UNL A   1      31.076  26.600  25.987  1.00  0.00     0.256 C 
ATOM      5  O   UNL A   1      30.182  25.739  25.989  1.00  0.00    -0.269 OA
ATOM      6  H   UNL A   1      30.407  26.955  27.790  1.00  0.00     0.163 HD
BRANCH   4   7
ATOM      7  C   UNL A   1      31.911  26.823  24.782  1.00  0.00     0.097 A 
ATOM      8  C   UNL A   1      34.167  25.349  24.899  1.00  0.00     0.069 C 
ATOM      9  C   UNL A   1      33.199  26.308  24.306  1.00  0.00     0.066 A 
ATOM     10  N   UNL A   1      33.620  26.761  23.124  1.00  0.00    -0.195 NA
ATOM     11  S   UNL A   1      32.559  27.835  22.525  1.00  0.00    -0.018 S 
ATOM     12  C   UNL A   1      31.439  27.747  23.817  1.00  0.00     0.122 A 
BRANCH  12  13
ATOM     13  N   UNL A   1      30.285  28.476  23.875  1.00  0.00    -0.372 N 
ATOM     14  H   UNL A   1      30.239  29.181  24.561  1.00  0.00     0.161 HD
BRANCH  13  15
ATOM     15  C   UNL A   1      29.113  28.309  23.022  1.00  0.00     0.080 C 
ATOM     16  C   UNL A   1      28.271  27.178  23.611  1.00  0.00     0.031 C 
BRANCH  15  17
ATOM     17  C   UNL A   1      28.399  29.679  22.890  1.00  0.00     0.011 C 
ATOM     18  C   UNL A   1      29.140  30.786  23.650  1.00  0.00     0.006 C 
ATOM     19  C   UNL A   1      28.278  30.283  21.490  1.00  0.00     0.006 C 
ATOM     20  C   UNL A   1      28.505  32.072  23.142  1.00  0.00     0.000 C 
ATOM     21  C   UNL A   1      28.048  31.776  21.717  1.00  0.00     0.000 C 
ENDBRANCH  15  17
ENDBRANCH  13  15
ENDBRANCH  12  13
ENDBRANCH   4   7
ENDBRANCH   2   3
ENDBRANCH   1   2
BRANCH   1  22
ATOM     22  C   UNL A   1      33.113  30.018  26.338  1.00  0.00     0.023 C 
BRANCH  22  23
ATOM     23  C   UNL A   1      34.393  30.273  27.131  1.00  0.00     0.116 C 
BRANCH  23  24
ATOM     24  N   UNL A   1      34.396  31.547  27.862  1.00  0.00    -0.352 N 
ATOM     25  C   UNL A   1      35.060  31.852  29.039  1.00  0.00     0.251 C 
ATOM     26  H   UNL A   1      33.860  32.273  27.467  1.00  0.00     0.163 HD
ATOM     27  O   UNL A   1      34.685  32.767  29.772  1.00  0.00    -0.269 OA
BRANCH  25  28
ATOM     28  C   UNL A   1      36.263  31.082  29.377  1.00  0.00     0.039 A 
ATOM     29  C   UNL A   1      36.285  29.689  29.491  1.00  0.00     0.014 A 
ATOM     30  C   UNL A   1      37.425  31.827  29.520  1.00  0.00     0.014 A 
ATOM     31  C   UNL A   1      37.513  29.056  29.681  1.00  0.00     0.010 A 
ATOM     32  C   UNL A   1      38.631  31.200  29.450  1.00  0.00     0.010 A 
ATOM     33  C   UNL A   1      38.682  29.829  29.650  1.00  0.00    -0.014 A 
BRANCH  33  34
ATOM     34  C   UNL A   1      40.013  29.256  29.748  1.00  0.00     0.031 A 
ATOM     35  C   UNL A   1      40.511  29.076  31.133  1.00  0.00     0.074 A 
ATOM     36  C   UNL A   1      40.600  28.672  28.678  1.00  0.00     0.049 A 
ATOM     37  N   UNL A   1      41.519  29.665  31.683  1.00  0.00    -0.248 NA
ATOM     38  C   UNL A   1      39.721  28.254  32.065  1.00  0.00     0.031 C 
ATOM     39  C   UNL A   1      40.059  28.485  27.324  1.00  0.00     0.029 A 
ATOM     40  N   UNL A   1      41.772  27.990  28.619  1.00  0.00    -0.354 N 
ATOM     41  C   UNL A   1      41.620  29.134  32.965  1.00  0.00     0.074 A 
ATOM     42  C   UNL A   1      40.383  28.439  33.209  1.00  0.00     0.031 C 
ATOM     43  C   UNL A   1      40.774  27.541  26.675  1.00  0.00     0.029 A 
ATOM     44  C   UNL A   1      41.913  27.180  27.495  1.00  0.00     0.049 A 
ATOM     45  H   UNL A   1      42.466  28.061  29.314  1.00  0.00     0.167 HD
ATOM     46  C   UNL A   1      42.819  29.096  33.610  1.00  0.00     0.037 A 
ATOM     47  C   UNL A   1      42.873  26.239  27.311  1.00  0.00     0.037 A 
ATOM     48  C   UNL A   1      43.780  29.958  32.963  1.00  0.00     0.049 A 
ATOM     49  C   UNL A   1      43.985  26.576  28.246  1.00  0.00     0.074 A 
ATOM     50  C   UNL A   1      43.799  31.305  32.648  1.00  0.00     0.029 A 
ATOM     51  N   UNL A   1      44.729  29.378  32.153  1.00  0.00    -0.354 N 
ATOM     52  N   UNL A   1      44.718  27.652  28.133  1.00  0.00    -0.248 NA
ATOM     53  C   UNL A   1      43.934  25.994  29.580  1.00  0.00     0.031 C 
ATOM     54  C   UNL A   1      44.346  31.362  31.331  1.00  0.00     0.029 A 
ATOM     55  C   UNL A   1      44.723  30.069  30.967  1.00  0.00     0.049 A 
ATOM     56  H   UNL A   1      45.304  28.613  32.383  1.00  0.00     0.167 HD
ATOM     57  C   UNL A   1      44.853  28.126  29.430  1.00  0.00     0.074 A 
ATOM     58  C   UNL A   1      44.403  27.028  30.286  1.00  0.00     0.031 C 
ATOM     59  C   UNL A   1      45.011  29.458  29.690  1.00  0.00     0.037 A 
BRANCH  46  60
ATOM     60  C   UNL A   1      43.238  28.022  34.582  1.00  0.00     0.064 A 
ATOM     61  C   UNL A   1      43.630  28.393  35.884  1.00  0.00     0.173 A 
ATOM     62  C   UNL A   1      43.549  26.696  34.211  1.00  0.00     0.173 A 
ATOM     63  F   UNL A   1      43.401  29.636  36.337  1.00  0.00    -0.203 F 
ATOM     64  C   UNL A   1      44.350  27.531  36.714  1.00  0.00     0.198 A 
ATOM     65  C   UNL A   1      44.217  25.818  35.063  1.00  0.00     0.198 A 
ATOM     66  F   UNL A   1      43.331  26.228  32.977  1.00  0.00    -0.203 F 
ATOM     67  F   UNL A   1      44.816  27.973  37.889  1.00  0.00    -0.200 F 
ATOM     68  C   UNL A   1      44.648  26.245  36.300  1.00  0.00     0.200 A 
ATOM     69  F   UNL A   1      44.511  24.583  34.636  1.00  0.00    -0.200 F 
ATOM     70  F   UNL A   1      45.390  25.437  37.067  1.00  0.00    -0.200 F 
ENDBRANCH  46  60
BRANCH  47  71
ATOM     71  C   UNL A   1      42.730  24.908  26.664  1.00  0.00     0.064 A 
ATOM     72  C   UNL A   1      43.395  24.611  25.463  1.00  0.00     0.173 A 
ATOM     73  C   UNL A   1      42.160  23.810  27.342  1.00  0.00     0.173 A 
ATOM     74  F   UNL A   1      44.004  25.585  24.771  1.00  0.00    -0.203 F 
ATOM     75  C   UNL A   1      43.510  23.298  24.987  1.00  0.00     0.198 A 
ATOM     76  C   UNL A   1      42.266  22.503  26.863  1.00  0.00     0.198 A 
ATOM     77  F   UNL A   1      41.568  23.965  28.534  1.00  0.00    -0.203 F 
ATOM     78  F   UNL A   1      44.209  23.049  23.871  1.00  0.00    -0.200 F 
ATOM     79  C   UNL A   1      42.955  22.244  25.694  1.00  0.00     0.200 A 
ATOM     80  F   UNL A   1      41.754  21.491  27.577  1.00  0.00    -0.200 F 
ATOM     81  F   UNL A   1      43.118  20.982  25.274  1.00  0.00    -0.200 F 
ENDBRANCH  47  71
BRANCH  59  82
ATOM     82  C   UNL A   1      45.269  30.394  28.539  1.00  0.00     0.064 A 
ATOM     83  C   UNL A   1      44.262  31.008  27.772  1.00  0.00     0.173 A 
ATOM     84  C   UNL A   1      46.585  30.821  28.317  1.00  0.00     0.173 A 
ATOM     85  F   UNL A   1      42.969  30.745  27.991  1.00  0.00    -0.203 F 
ATOM     86  C   UNL A   1      44.564  31.966  26.804  1.00  0.00     0.198 A 
ATOM     87  C   UNL A   1      46.882  31.806  27.379  1.00  0.00     0.198 A 
ATOM     88  F   UNL A   1      47.587  30.318  29.056  1.00  0.00    -0.203 F 
ATOM     89  F   UNL A   1      43.581  32.527  26.084  1.00  0.00    -0.200 F 
ATOM     90  C   UNL A   1      45.874  32.370  26.615  1.00  0.00     0.200 A 
ATOM     91  F   UNL A   1      48.145  32.231  27.238  1.00  0.00    -0.200 F 
ATOM     92  F   UNL A   1      46.162  33.321  25.716  1.00  0.00    -0.200 F 
ENDBRANCH  59  82
ENDBRANCH  33  34
ENDBRANCH  25  28
ENDBRANCH  23  24
ENDBRANCH  22  23
ENDBRANCH   1  22
TORSDOF 14
ENDMDL
MODEL 2
REMARK VINA RESULT:     -12.3      3.880      9.043
REMARK SMILES Cc1nsc(N[C@@H](C)C2CCCC2)c1C(=O)NCCCCNC(=O)c1ccc(-c2c3nc(c(-c4c(F)c(F)c(F)c(F)c4F)c4ccc([nH]4)c(-c4c(F)c(F)c(F)c(F)c4F)c4nc(c(-c5c(F)c(F)c(F)c(F)c5F)c5ccc2[nH]5)C=C4)C=C3)cc1
REMARK SMILES IDX 19 1 18 2 17 3 15 4 16 5 14 7 1 8 2 9 3 10 4 11 5 12 6 13
REMARK SMILES IDX 7 15 8 16 9 17 10 18 13 19 11 20 12 21 20 22 21 23 22 24
REMARK SMILES IDX 23 25 24 27 25 28 26 29 87 30 27 31 86 32 28 33 29 34 30 35
REMARK SMILES IDX 80 36 31 37 85 38 79 39 81 40 32 41 84 42 78 43 77 44 33 46
REMARK SMILES IDX 65 47 45 48 64 49 46 50 49 51 63 52 82 53 47 54 48 55 62 57
REMARK SMILES IDX 83 58 50 59 34 60 35 61 43 62 36 63 37 64 41 65 44 66 38 67
REMARK SMILES IDX 39 68 42 69 40 70 66 71 67 72 75 73 68 74 69 75 73 76 76 77
REMARK SMILES IDX 70 78 71 79 74 80 72 81 51 82 52 83 60 84 53 85 54 86 58 87
REMARK SMILES IDX 61 88 55 89 56 90 59 91 57 92
REMARK H PARENT 17 6 6 14 22 26 81 45 49 56
REMARK Flexibility Score: inf
ROOT
ATOM      1  C   UNL A   1      38.134  23.868  26.310  1.00  0.00     0.023 C 
ENDROOT
BRANCH   1   2
ATOM      2  C   UNL A   1      36.626  23.809  26.052  1.00  0.00     0.116 C 
BRANCH   2   3
ATOM      3  N   UNL A   1      36.311  23.449  24.694  1.00  0.00    -0.352 N 
ATOM      4  C   UNL A   1      35.229  23.527  23.861  1.00  0.00     0.256 C 
ATOM      5  O   UNL A   1      35.527  23.161  22.713  1.00  0.00    -0.269 OA
ATOM      6  H   UNL A   1      37.082  23.035  24.243  1.00  0.00     0.163 HD
BRANCH   4   7
ATOM      7  C   UNL A   1      33.850  23.974  24.179  1.00  0.00     0.097 A 
ATOM      8  C   UNL A   1      33.715  26.666  24.252  1.00  0.00     0.069 C 
ATOM      9  C   UNL A   1      33.197  25.276  24.342  1.00  0.00     0.066 A 
ATOM     10  N   UNL A   1      31.894  25.256  24.625  1.00  0.00    -0.195 NA
ATOM     11  S   UNL A   1      31.372  23.723  24.753  1.00  0.00    -0.018 S 
ATOM     12  C   UNL A   1      32.873  22.974  24.412  1.00  0.00     0.122 A 
BRANCH  12  13
ATOM     13  N   UNL A   1      33.061  21.622  24.385  1.00  0.00    -0.372 N 
ATOM     14  H   UNL A   1      33.876  21.277  24.816  1.00  0.00     0.161 HD
BRANCH  13  15
ATOM     15  C   UNL A   1      32.171  20.638  23.777  1.00  0.00     0.080 C 
ATOM     16  C   UNL A   1      32.073  20.964  22.286  1.00  0.00     0.031 C 
BRANCH  15  17
ATOM     17  C   UNL A   1      32.695  19.220  24.120  1.00  0.00     0.011 C 
ATOM     18  C   UNL A   1      32.583  18.263  22.927  1.00  0.00     0.006 C 
ATOM     19  C   UNL A   1      34.172  19.082  24.496  1.00  0.00     0.006 C 
ATOM     20  C   UNL A   1      33.427  17.064  23.332  1.00  0.00     0.000 C 
ATOM     21  C   UNL A   1      34.511  17.612  24.256  1.00  0.00     0.000 C 
ENDBRANCH  15  17
ENDBRANCH  13  15
ENDBRANCH  12  13
ENDBRANCH   4   7
ENDBRANCH   2   3
ENDBRANCH   1   2
BRANCH   1  22
ATOM     22  C   UNL A   1      38.884  22.530  26.179  1.00  0.00     0.023 C 
BRANCH  22  23
ATOM     23  C   UNL A   1      40.049  22.330  27.146  1.00  0.00     0.116 C 
BRANCH  23  24
ATOM     24  N   UNL A   1      41.336  22.088  26.482  1.00  0.00    -0.352 N 
ATOM     25  C   UNL A   1      42.197  23.020  25.926  1.00  0.00     0.251 C 
ATOM     26  H   UNL A   1      41.623  21.148  26.425  1.00  0.00     0.163 HD
ATOM     27  O   UNL A   1      43.010  22.709  25.057  1.00  0.00    -0.269 OA
BRANCH  25  28
ATOM     28  C   UNL A   1      42.151  24.398  26.433  1.00  0.00     0.039 A 
ATOM     29  C   UNL A   1      41.409  25.420  25.833  1.00  0.00     0.014 A 
ATOM     30  C   UNL A   1      42.852  24.622  27.610  1.00  0.00     0.014 A 
ATOM     31  C   UNL A   1      41.330  26.652  26.481  1.00  0.00     0.010 A 
ATOM     32  C   UNL A   1      42.568  25.726  28.354  1.00  0.00     0.010 A 
ATOM     33  C   UNL A   1      41.911  26.786  27.749  1.00  0.00    -0.014 A 
BRANCH  33  34
ATOM     34  C   UNL A   1      41.808  27.998  28.544  1.00  0.00     0.031 A 
ATOM     35  C   UNL A   1      42.826  29.031  28.236  1.00  0.00     0.074 A 
ATOM     36  C   UNL A   1      40.700  28.258  29.276  1.00  0.00     0.049 A 
ATOM     37  N   UNL A   1      43.753  29.470  29.018  1.00  0.00    -0.248 NA
ATOM     38  C   UNL A   1      42.920  29.539  26.857  1.00  0.00     0.031 C 
ATOM     39  C   UNL A   1      39.470  27.462  29.391  1.00  0.00     0.029 A 
ATOM     40  N   UNL A   1      40.386  29.380  29.972  1.00  0.00    -0.354 N 
ATOM     41  C   UNL A   1      44.419  30.461  28.303  1.00  0.00     0.074 A 
ATOM     42  C   UNL A   1      44.004  30.315  26.932  1.00  0.00     0.031 C 
ATOM     43  C   UNL A   1      38.477  28.228  29.892  1.00  0.00     0.029 A 
ATOM     44  C   UNL A   1      39.035  29.507  30.284  1.00  0.00     0.049 A 
ATOM     45  H   UNL A   1      41.058  30.050  30.235  1.00  0.00     0.167 HD
ATOM     46  C   UNL A   1      45.053  31.479  28.950  1.00  0.00     0.037 A 
ATOM     47  C   UNL A   1      38.435  30.623  30.769  1.00  0.00     0.037 A 
ATOM     48  C   UNL A   1      45.226  31.171  30.350  1.00  0.00     0.049 A 
ATOM     49  C   UNL A   1      39.514  31.466  31.358  1.00  0.00     0.074 A 
ATOM     50  C   UNL A   1      45.830  30.132  31.035  1.00  0.00     0.029 A 
ATOM     51  N   UNL A   1      44.370  31.758  31.253  1.00  0.00    -0.354 N 
ATOM     52  N   UNL A   1      40.200  31.119  32.416  1.00  0.00    -0.248 NA
ATOM     53  C   UNL A   1      40.168  32.426  30.479  1.00  0.00     0.031 C 
ATOM     54  C   UNL A   1      44.928  29.826  32.098  1.00  0.00     0.029 A 
ATOM     55  C   UNL A   1      43.891  30.757  32.062  1.00  0.00     0.049 A 
ATOM     56  H   UNL A   1      44.145  32.714  31.308  1.00  0.00     0.167 HD
ATOM     57  C   UNL A   1      41.511  31.459  32.113  1.00  0.00     0.074 A 
ATOM     58  C   UNL A   1      41.421  32.319  30.933  1.00  0.00     0.031 C 
ATOM     59  C   UNL A   1      42.566  30.767  32.640  1.00  0.00     0.037 A 
BRANCH  46  60
ATOM     60  C   UNL A   1      45.184  32.885  28.419  1.00  0.00     0.064 A 
ATOM     61  C   UNL A   1      46.469  33.443  28.274  1.00  0.00     0.173 A 
ATOM     62  C   UNL A   1      44.112  33.798  28.327  1.00  0.00     0.173 A 
ATOM     63  F   UNL A   1      47.563  32.670  28.361  1.00  0.00    -0.203 F 
ATOM     64  C   UNL A   1      46.667  34.819  28.131  1.00  0.00     0.198 A 
ATOM     65  C   UNL A   1      44.309  35.163  28.127  1.00  0.00     0.198 A 
ATOM     66  F   UNL A   1      42.842  33.437  28.543  1.00  0.00    -0.203 F 
ATOM     67  F   UNL A   1      47.910  35.316  28.130  1.00  0.00    -0.200 F 
ATOM     68  C   UNL A   1      45.585  35.679  28.063  1.00  0.00     0.200 A 
ATOM     69  F   UNL A   1      43.248  35.981  28.081  1.00  0.00    -0.200 F 
ATOM     70  F   UNL A   1      45.771  37.002  27.988  1.00  0.00    -0.200 F 
ENDBRANCH  46  60
BRANCH  47  71
ATOM     71  C   UNL A   1      37.085  31.149  30.432  1.00  0.00     0.064 A 
ATOM     72  C   UNL A   1      36.192  31.551  31.439  1.00  0.00     0.173 A 
ATOM     73  C   UNL A   1      36.740  31.523  29.116  1.00  0.00     0.173 A 
ATOM     74  F   UNL A   1      36.459  31.278  32.725  1.00  0.00    -0.203 F 
ATOM     75  C   UNL A   1      35.047  32.305  31.153  1.00  0.00     0.198 A 
ATOM     76  C   UNL A   1      35.594  32.266  28.830  1.00  0.00     0.198 A 
ATOM     77  F   UNL A   1      37.556  31.259  28.086  1.00  0.00    -0.203 F 
ATOM     78  F   UNL A   1      34.255  32.725  32.149  1.00  0.00    -0.200 F 
ATOM     79  C   UNL A   1      34.755  32.672  29.849  1.00  0.00     0.200 A 
ATOM     80  F   UNL A   1      35.345  32.643  27.568  1.00  0.00    -0.200 F 
ATOM     81  F   UNL A   1      33.695  33.446  29.581  1.00  0.00    -0.200 F 
ENDBRANCH  47  71
BRANCH  59  82
ATOM     82  C   UNL A   1      42.303  29.772  33.738  1.00  0.00     0.064 A 
ATOM     83  C   UNL A   1      41.985  28.420  33.526  1.00  0.00     0.173 A 
ATOM     84  C   UNL A   1      42.556  30.166  35.060  1.00  0.00     0.173 A 
ATOM     85  F   UNL A   1      41.835  27.930  32.290  1.00  0.00    -0.203 F 
ATOM     86  C   UNL A   1      41.881  27.519  34.587  1.00  0.00     0.198 A 
ATOM     87  C   UNL A   1      42.492  29.258  36.114  1.00  0.00     0.198 A 
ATOM     88  F   UNL A   1      42.923  31.430  35.325  1.00  0.00    -0.203 F 
ATOM     89  F   UNL A   1      41.567  26.236  34.351  1.00  0.00    -0.200 F 
ATOM     90  C   UNL A   1      42.143  27.938  35.879  1.00  0.00     0.200 A 
ATOM     91  F   UNL A   1      42.800  29.657  37.355  1.00  0.00    -0.200 F 
ATOM     92  F   UNL A   1      42.088  27.066  36.895  1.00  0.00    -0.200 F 
ENDBRANCH  59  82
ENDBRANCH  33  34
ENDBRANCH  25  28
ENDBRANCH  23  24
ENDBRANCH  22  23
ENDBRANCH   1  22
TORSDOF 14
ENDMDL
MODEL 3
REMARK VINA RESULT:     -12.2      1.192      1.766
REMARK SMILES Cc1nsc(N[C@@H](C)C2CCCC2)c1C(=O)NCCCCNC(=O)c1ccc(-c2c3nc(c(-c4c(F)c(F)c(F)c(F)c4F)c4ccc([nH]4)c(-c4c(F)c(F)c(F)c(F)c4F)c4nc(c(-c5c(F)c(F)c(F)c(F)c5F)c5ccc2[nH]5)C=C4)C=C3)cc1
REMARK SMILES IDX 19 1 18 2 17 3 15 4 16 5 14 7 1 8 2 9 3 10 4 11 5 12 6 13
REMARK SMILES IDX 7 15 8 16 9 17 10 18 13 19 11 20 12 21 20 22 21 23 22 24
REMARK SMILES IDX 23 25 24 27 25 28 26 29 87 30 27 31 86 32 28 33 29 34 30 35
REMARK SMILES IDX 80 36 31 37 85 38 79 39 81 40 32 41 84 42 78 43 77 44 33 46
REMARK SMILES IDX 65 47 45 48 64 49 46 50 49 51 63 52 82 53 47 54 48 55 62 57
REMARK SMILES IDX 83 58 50 59 34 60 35 61 43 62 36 63 37 64 41 65 44 66 38 67
REMARK SMILES IDX 39 68 42 69 40 70 66 71 67 72 75 73 68 74 69 75 73 76 76 77
REMARK SMILES IDX 70 78 71 79 74 80 72 81 51 82 52 83 60 84 53 85 54 86 58 87
REMARK SMILES IDX 61 88 55 89 56 90 59 91 57 92
REMARK H PARENT 17 6 6 14 22 26 81 45 49 56
REMARK Flexibility Score: inf
ROOT
ATOM      1  C   UNL A   1      33.295  30.998  27.240  1.00  0.00     0.023 C 
ENDROOT
BRANCH   1   2
ATOM      2  C   UNL A   1      32.738  29.763  26.525  1.00  0.00     0.116 C 
BRANCH   2   3
ATOM      3  N   UNL A   1      33.186  29.665  25.161  1.00  0.00    -0.352 N 
ATOM      4  C   UNL A   1      33.017  28.806  24.110  1.00  0.00     0.256 C 
ATOM      5  O   UNL A   1      33.552  29.254  23.083  1.00  0.00    -0.269 OA
ATOM      6  H   UNL A   1      33.771  30.419  24.919  1.00  0.00     0.163 HD
BRANCH   4   7
ATOM      7  C   UNL A   1      32.311  27.502  24.088  1.00  0.00     0.097 A 
ATOM      8  C   UNL A   1      34.063  25.465  24.323  1.00  0.00     0.069 C 
ATOM      9  C   UNL A   1      32.727  26.099  24.181  1.00  0.00     0.066 A 
ATOM     10  N   UNL A   1      31.755  25.186  24.131  1.00  0.00    -0.195 NA
ATOM     11  S   UNL A   1      30.315  25.912  23.937  1.00  0.00    -0.018 S 
ATOM     12  C   UNL A   1      30.903  27.520  23.928  1.00  0.00     0.122 A 
BRANCH  12  13
ATOM     13  N   UNL A   1      30.109  28.621  23.780  1.00  0.00    -0.372 N 
ATOM     14  H   UNL A   1      30.184  29.319  24.470  1.00  0.00     0.161 HD
BRANCH  13  15
ATOM     15  C   UNL A   1      29.157  28.861  22.700  1.00  0.00     0.080 C 
ATOM     16  C   UNL A   1      27.787  28.377  23.176  1.00  0.00     0.031 C 
BRANCH  15  17
ATOM     17  C   UNL A   1      29.237  30.356  22.296  1.00  0.00     0.011 C 
ATOM     18  C   UNL A   1      28.215  30.710  21.209  1.00  0.00     0.006 C 
ATOM     19  C   UNL A   1      28.926  31.398  23.372  1.00  0.00     0.006 C 
ATOM     20  C   UNL A   1      28.210  32.232  21.187  1.00  0.00     0.000 C 
ATOM     21  C   UNL A   1      28.563  32.669  22.606  1.00  0.00     0.000 C 
ENDBRANCH  15  17
ENDBRANCH  13  15
ENDBRANCH  12  13
ENDBRANCH   4   7
ENDBRANCH   2   3
ENDBRANCH   1   2
BRANCH   1  22
ATOM     22  C   UNL A   1      34.806  30.973  27.530  1.00  0.00     0.023 C 
BRANCH  22  23
ATOM     23  C   UNL A   1      35.422  32.310  27.936  1.00  0.00     0.116 C 
BRANCH  23  24
ATOM     24  N   UNL A   1      34.996  32.783  29.259  1.00  0.00    -0.352 N 
ATOM     25  C   UNL A   1      35.259  32.212  30.494  1.00  0.00     0.251 C 
ATOM     26  H   UNL A   1      34.457  33.607  29.271  1.00  0.00     0.163 HD
ATOM     27  O   UNL A   1      34.541  32.427  31.470  1.00  0.00    -0.269 OA
BRANCH  25  28
ATOM     28  C   UNL A   1      36.453  31.367  30.628  1.00  0.00     0.039 A 
ATOM     29  C   UNL A   1      36.419  29.970  30.613  1.00  0.00     0.014 A 
ATOM     30  C   UNL A   1      37.658  32.051  30.709  1.00  0.00     0.014 A 
ATOM     31  C   UNL A   1      37.629  29.276  30.609  1.00  0.00     0.010 A 
ATOM     32  C   UNL A   1      38.818  31.387  30.451  1.00  0.00     0.010 A 
ATOM     33  C   UNL A   1      38.823  30.003  30.520  1.00  0.00    -0.014 A 
BRANCH  33  34
ATOM     34  C   UNL A   1      40.129  29.373  30.420  1.00  0.00     0.031 A 
ATOM     35  C   UNL A   1      40.793  29.111  31.720  1.00  0.00     0.074 A 
ATOM     36  C   UNL A   1      40.545  28.815  29.261  1.00  0.00     0.049 A 
ATOM     37  N   UNL A   1      41.889  29.634  32.155  1.00  0.00    -0.248 NA
ATOM     38  C   UNL A   1      40.094  28.281  32.715  1.00  0.00     0.031 C 
ATOM     39  C   UNL A   1      39.825  28.710  27.984  1.00  0.00     0.029 A 
ATOM     40  N   UNL A   1      41.666  28.088  29.021  1.00  0.00    -0.354 N 
ATOM     41  C   UNL A   1      42.131  29.042  33.391  1.00  0.00     0.074 A 
ATOM     42  C   UNL A   1      40.906  28.388  33.769  1.00  0.00     0.031 C 
ATOM     43  C   UNL A   1      40.406  27.768  27.209  1.00  0.00     0.029 A 
ATOM     44  C   UNL A   1      41.623  27.325  27.858  1.00  0.00     0.049 A 
ATOM     45  H   UNL A   1      42.447  28.101  29.622  1.00  0.00     0.167 HD
ATOM     46  C   UNL A   1      43.401  28.928  33.871  1.00  0.00     0.037 A 
ATOM     47  C   UNL A   1      42.508  26.355  27.513  1.00  0.00     0.037 A 
ATOM     48  C   UNL A   1      44.309  29.779  33.138  1.00  0.00     0.049 A 
ATOM     49  C   UNL A   1      43.745  26.604  28.306  1.00  0.00     0.074 A 
ATOM     50  C   UNL A   1      44.348  31.136  32.875  1.00  0.00     0.029 A 
ATOM     51  N   UNL A   1      45.117  29.197  32.188  1.00  0.00    -0.354 N 
ATOM     52  N   UNL A   1      44.506  27.655  28.140  1.00  0.00    -0.248 NA
ATOM     53  C   UNL A   1      43.842  25.966  29.612  1.00  0.00     0.031 C 
ATOM     54  C   UNL A   1      44.722  31.230  31.501  1.00  0.00     0.029 A 
ATOM     55  C   UNL A   1      44.989  29.941  31.041  1.00  0.00     0.049 A 
ATOM     56  H   UNL A   1      45.681  28.400  32.311  1.00  0.00     0.167 HD
ATOM     57  C   UNL A   1      44.830  28.064  29.426  1.00  0.00     0.074 A 
ATOM     58  C   UNL A   1      44.445  26.948  30.290  1.00  0.00     0.031 C 
ATOM     59  C   UNL A   1      45.081  29.376  29.714  1.00  0.00     0.037 A 
BRANCH  46  60
ATOM     60  C   UNL A   1      43.892  27.795  34.737  1.00  0.00     0.064 A 
ATOM     61  C   UNL A   1      43.765  26.472  34.269  1.00  0.00     0.173 A 
ATOM     62  C   UNL A   1      44.207  27.926  36.107  1.00  0.00     0.173 A 
ATOM     63  F   UNL A   1      43.450  26.230  32.987  1.00  0.00    -0.203 F 
ATOM     64  C   UNL A   1      43.863  25.372  35.124  1.00  0.00     0.198 A 
ATOM     65  C   UNL A   1      44.362  26.823  36.946  1.00  0.00     0.198 A 
ATOM     66  F   UNL A   1      44.262  29.113  36.719  1.00  0.00    -0.203 F 
ATOM     67  F   UNL A   1      43.603  24.143  34.660  1.00  0.00    -0.200 F 
ATOM     68  C   UNL A   1      44.156  25.549  36.464  1.00  0.00     0.200 A 
ATOM     69  F   UNL A   1      44.628  27.018  38.245  1.00  0.00    -0.200 F 
ATOM     70  F   UNL A   1      44.190  24.503  37.298  1.00  0.00    -0.200 F 
ENDBRANCH  46  60
BRANCH  47  71
ATOM     71  C   UNL A   1      42.221  25.061  26.839  1.00  0.00     0.064 A 
ATOM     72  C   UNL A   1      42.980  24.635  25.736  1.00  0.00     0.173 A 
ATOM     73  C   UNL A   1      41.380  24.090  27.422  1.00  0.00     0.173 A 
ATOM     74  F   UNL A   1      43.840  25.477  25.144  1.00  0.00    -0.203 F 
ATOM     75  C   UNL A   1      42.925  23.316  25.267  1.00  0.00     0.198 A 
ATOM     76  C   UNL A   1      41.319  22.778  26.949  1.00  0.00     0.198 A 
ATOM     77  F   UNL A   1      40.669  24.363  28.524  1.00  0.00    -0.203 F 
ATOM     78  F   UNL A   1      43.714  22.932  24.254  1.00  0.00    -0.200 F 
ATOM     79  C   UNL A   1      42.103  22.386  25.881  1.00  0.00     0.200 A 
ATOM     80  F   UNL A   1      40.544  21.882  27.576  1.00  0.00    -0.200 F 
ATOM     81  F   UNL A   1      42.096  21.109  25.475  1.00  0.00    -0.200 F 
ENDBRANCH  47  71
BRANCH  59  82
ATOM     82  C   UNL A   1      45.230  30.351  28.577  1.00  0.00     0.064 A 
ATOM     83  C   UNL A   1      44.183  31.134  28.058  1.00  0.00     0.173 A 
ATOM     84  C   UNL A   1      46.523  30.630  28.111  1.00  0.00     0.173 A 
ATOM     85  F   UNL A   1      42.934  31.015  28.523  1.00  0.00    -0.203 F 
ATOM     86  C   UNL A   1      44.414  32.113  27.091  1.00  0.00     0.198 A 
ATOM     87  C   UNL A   1      46.758  31.634  27.176  1.00  0.00     0.198 A 
ATOM     88  F   UNL A   1      47.574  29.959  28.609  1.00  0.00    -0.203 F 
ATOM     89  F   UNL A   1      43.392  32.837  26.611  1.00  0.00    -0.200 F 
ATOM     90  C   UNL A   1      45.703  32.367  26.658  1.00  0.00     0.200 A 
ATOM     91  F   UNL A   1      48.013  31.912  26.800  1.00  0.00    -0.200 F 
ATOM     92  F   UNL A   1      45.934  33.337  25.762  1.00  0.00    -0.200 F 
ENDBRANCH  59  82
ENDBRANCH  33  34
ENDBRANCH  25  28
ENDBRANCH  23  24
ENDBRANCH  22  23
ENDBRANCH   1  22
TORSDOF 14
ENDMDL
