MODEL 1
REMARK VINA RESULT:     -12.4      0.000      0.000
REMARK SMILES C[C@H]([C@@H](C)C(=O)NCCCCNC(=O)c1ccc(-c2c3nc(c(-c4c(F)c(F)c(F)c(F)c4F)c4ccc([nH]4)c(-c4c(F)c(F)c(F)c(F)c4F)c4nc(c(-c5c(F)c(F)c(F)c(F)c5F)c5ccc2[nH]5)C=C4)C=C3)cc1)[NH+]1CCN(c2nccs2)CC1
REMARK SMILES IDX 9 1 8 2 7 3 5 4 6 5 3 7 4 8 2 9 1 10 78 11 79 12 88 13 80 15
REMARK SMILES IDX 87 16 81 17 82 18 83 19 86 20 84 21 85 22 10 23 11 24 12 25
REMARK SMILES IDX 13 26 14 28 15 29 16 30 77 31 17 32 76 33 18 34 19 35 20 36
REMARK SMILES IDX 70 37 21 38 75 39 69 40 71 41 22 42 74 43 68 44 67 45 23 47
REMARK SMILES IDX 55 48 35 49 54 50 36 51 39 52 53 53 72 54 37 55 38 56 52 58
REMARK SMILES IDX 73 59 40 60 24 61 25 62 33 63 26 64 27 65 31 66 34 67 28 68
REMARK SMILES IDX 29 69 32 70 30 71 56 72 57 73 65 74 58 75 59 76 63 77 66 78
REMARK SMILES IDX 60 79 61 80 64 81 62 82 41 83 42 84 50 85 43 86 44 87 48 88
REMARK SMILES IDX 51 89 45 90 46 91 49 92 47 93
REMARK H PARENT 7 6 78 14 12 27 71 46 39 57
REMARK Flexibility Score: inf
ROOT
ATOM      1  C   UNL A   1      32.190  30.633  26.607  1.00  0.00     0.023 C 
ENDROOT
BRANCH   1   2
ATOM      2  C   UNL A   1      31.694  30.047  25.284  1.00  0.00     0.116 C 
BRANCH   2   3
ATOM      3  N   UNL A   1      32.796  29.687  24.422  1.00  0.00    -0.356 N 
ATOM      4  C   UNL A   1      33.514  28.539  24.307  1.00  0.00     0.228 C 
ATOM      5  O   UNL A   1      34.441  28.558  23.490  1.00  0.00    -0.275 OA
ATOM      6  H   UNL A   1      33.078  30.403  23.808  1.00  0.00     0.163 HD
BRANCH   4   7
ATOM      7  C   UNL A   1      33.195  27.254  25.082  1.00  0.00     0.133 C 
ATOM      8  C   UNL A   1      33.692  27.358  26.527  1.00  0.00     0.024 C 
BRANCH   7   9
ATOM      9  C   UNL A   1      33.498  25.930  24.298  1.00  0.00     0.193 C 
ATOM     10  C   UNL A   1      34.346  24.905  25.068  1.00  0.00     0.076 C 
BRANCH   9  11
ATOM     11  N   UNL A   1      32.251  25.382  23.712  1.00  0.00    -0.329 N 
ATOM     12  C   UNL A   1      31.028  25.612  24.498  1.00  0.00     0.284 C 
ATOM     13  C   UNL A   1      31.963  25.659  22.300  1.00  0.00     0.284 C 
ATOM     14  H   UNL A   1      32.509  24.396  23.757  1.00  0.00     0.348 HD
ATOM     15  C   UNL A   1      30.335  26.977  24.319  1.00  0.00     0.180 C 
ATOM     16  C   UNL A   1      31.304  27.013  21.973  1.00  0.00     0.180 C 
ATOM     17  N   UNL A   1      30.247  27.408  22.919  1.00  0.00    -0.337 N 
BRANCH  17  18
ATOM     18  C   UNL A   1      29.493  28.490  22.560  1.00  0.00     0.185 A 
ATOM     19  N   UNL A   1      29.966  29.484  21.834  1.00  0.00    -0.229 NA
ATOM     20  S   UNL A   1      27.840  28.724  23.047  1.00  0.00    -0.106 S 
ATOM     21  C   UNL A   1      29.005  30.450  21.620  1.00  0.00     0.125 A 
ATOM     22  C   UNL A   1      27.797  30.226  22.236  1.00  0.00     0.088 A 
ENDBRANCH  17  18
ENDBRANCH   9  11
ENDBRANCH   7   9
ENDBRANCH   4   7
ENDBRANCH   2   3
ENDBRANCH   1   2
BRANCH   1  23
ATOM     23  C   UNL A   1      31.803  32.087  26.852  1.00  0.00     0.023 C 
BRANCH  23  24
ATOM     24  C   UNL A   1      32.877  32.913  27.547  1.00  0.00     0.116 C 
BRANCH  24  25
ATOM     25  N   UNL A   1      32.499  34.301  27.794  1.00  0.00    -0.352 N 
ATOM     26  C   UNL A   1      33.056  35.162  28.713  1.00  0.00     0.251 C 
ATOM     27  H   UNL A   1      31.766  34.660  27.244  1.00  0.00     0.163 HD
ATOM     28  O   UNL A   1      32.624  36.295  28.877  1.00  0.00    -0.269 OA
BRANCH  26  29
ATOM     29  C   UNL A   1      34.164  34.651  29.539  1.00  0.00     0.039 A 
ATOM     30  C   UNL A   1      33.872  34.055  30.767  1.00  0.00     0.014 A 
ATOM     31  C   UNL A   1      35.457  34.628  29.013  1.00  0.00     0.014 A 
ATOM     32  C   UNL A   1      34.871  33.347  31.435  1.00  0.00     0.010 A 
ATOM     33  C   UNL A   1      36.427  33.861  29.640  1.00  0.00     0.010 A 
ATOM     34  C   UNL A   1      36.139  33.204  30.850  1.00  0.00    -0.014 A 
BRANCH  34  35
ATOM     35  C   UNL A   1      37.202  32.378  31.467  1.00  0.00     0.031 A 
ATOM     36  C   UNL A   1      37.696  32.731  32.839  1.00  0.00     0.074 A 
ATOM     37  C   UNL A   1      37.806  31.411  30.753  1.00  0.00     0.049 A 
ATOM     38  N   UNL A   1      38.744  32.290  33.483  1.00  0.00    -0.248 NA
ATOM     39  C   UNL A   1      36.928  33.757  33.562  1.00  0.00     0.031 C 
ATOM     40  C   UNL A   1      37.449  31.013  29.390  1.00  0.00     0.029 A 
ATOM     41  N   UNL A   1      38.873  30.606  31.066  1.00  0.00    -0.354 N 
ATOM     42  C   UNL A   1      38.791  33.020  34.663  1.00  0.00     0.074 A 
ATOM     43  C   UNL A   1      37.687  33.955  34.629  1.00  0.00     0.031 C 
ATOM     44  C   UNL A   1      38.279  30.036  28.987  1.00  0.00     0.029 A 
ATOM     45  C   UNL A   1      39.248  29.769  30.045  1.00  0.00     0.049 A 
ATOM     46  H   UNL A   1      39.327  30.628  31.939  1.00  0.00     0.167 HD
ATOM     47  C   UNL A   1      39.668  32.909  35.686  1.00  0.00     0.037 A 
ATOM     48  C   UNL A   1      40.271  28.896  29.967  1.00  0.00     0.037 A 
ATOM     49  C   UNL A   1      40.727  31.939  35.736  1.00  0.00     0.049 A 
ATOM     50  C   UNL A   1      41.198  28.747  31.142  1.00  0.00     0.074 A 
ATOM     51  C   UNL A   1      41.621  31.686  36.760  1.00  0.00     0.029 A 
ATOM     52  N   UNL A   1      41.027  31.051  34.712  1.00  0.00    -0.354 N 
ATOM     53  N   UNL A   1      41.205  29.404  32.275  1.00  0.00    -0.248 NA
ATOM     54  C   UNL A   1      42.256  27.733  31.028  1.00  0.00     0.031 C 
ATOM     55  C   UNL A   1      42.480  30.662  36.347  1.00  0.00     0.029 A 
ATOM     56  C   UNL A   1      42.097  30.252  35.079  1.00  0.00     0.049 A 
ATOM     57  H   UNL A   1      40.549  30.997  33.853  1.00  0.00     0.167 HD
ATOM     58  C   UNL A   1      42.247  28.869  33.021  1.00  0.00     0.074 A 
ATOM     59  C   UNL A   1      42.848  27.829  32.212  1.00  0.00     0.031 C 
ATOM     60  C   UNL A   1      42.666  29.210  34.263  1.00  0.00     0.037 A 
BRANCH  47  61
ATOM     61  C   UNL A   1      39.512  33.867  36.829  1.00  0.00     0.064 A 
ATOM     62  C   UNL A   1      40.108  35.137  36.815  1.00  0.00     0.173 A 
ATOM     63  C   UNL A   1      38.761  33.506  37.958  1.00  0.00     0.173 A 
ATOM     64  F   UNL A   1      40.851  35.521  35.766  1.00  0.00    -0.203 F 
ATOM     65  C   UNL A   1      39.995  35.993  37.906  1.00  0.00     0.198 A 
ATOM     66  C   UNL A   1      38.623  34.378  39.035  1.00  0.00     0.198 A 
ATOM     67  F   UNL A   1      38.168  32.304  38.021  1.00  0.00    -0.203 F 
ATOM     68  F   UNL A   1      40.627  37.174  37.897  1.00  0.00    -0.200 F 
ATOM     69  C   UNL A   1      39.249  35.616  39.013  1.00  0.00     0.200 A 
ATOM     70  F   UNL A   1      37.896  34.015  40.100  1.00  0.00    -0.200 F 
ATOM     71  F   UNL A   1      39.144  36.440  40.064  1.00  0.00    -0.200 F 
ENDBRANCH  47  61
BRANCH  48  72
ATOM     72  C   UNL A   1      40.446  28.077  28.742  1.00  0.00     0.064 A 
ATOM     73  C   UNL A   1      39.807  26.837  28.613  1.00  0.00     0.173 A 
ATOM     74  C   UNL A   1      41.228  28.525  27.667  1.00  0.00     0.173 A 
ATOM     75  F   UNL A   1      39.064  26.360  29.623  1.00  0.00    -0.203 F 
ATOM     76  C   UNL A   1      39.948  26.070  27.459  1.00  0.00     0.198 A 
ATOM     77  C   UNL A   1      41.352  27.767  26.505  1.00  0.00     0.198 A 
ATOM     78  F   UNL A   1      41.852  29.709  27.741  1.00  0.00    -0.203 F 
ATOM     79  F   UNL A   1      39.348  24.876  27.372  1.00  0.00    -0.200 F 
ATOM     80  C   UNL A   1      40.715  26.539  26.403  1.00  0.00     0.200 A 
ATOM     81  F   UNL A   1      42.083  28.229  25.481  1.00  0.00    -0.200 F 
ATOM     82  F   UNL A   1      40.844  25.806  25.288  1.00  0.00    -0.200 F 
ENDBRANCH  48  72
BRANCH  60  83
ATOM     83  C   UNL A   1      43.800  28.424  34.847  1.00  0.00     0.064 A 
ATOM     84  C   UNL A   1      45.127  28.860  34.738  1.00  0.00     0.173 A 
ATOM     85  C   UNL A   1      43.544  27.258  35.585  1.00  0.00     0.173 A 
ATOM     86  F   UNL A   1      45.420  29.961  34.031  1.00  0.00    -0.203 F 
ATOM     87  C   UNL A   1      46.162  28.149  35.341  1.00  0.00     0.198 A 
ATOM     88  C   UNL A   1      44.579  26.563  36.204  1.00  0.00     0.198 A 
ATOM     89  F   UNL A   1      42.289  26.806  35.720  1.00  0.00    -0.203 F 
ATOM     90  F   UNL A   1      47.429  28.567  35.203  1.00  0.00    -0.200 F 
ATOM     91  C   UNL A   1      45.887  27.007  36.079  1.00  0.00     0.200 A 
ATOM     92  F   UNL A   1      44.309  25.465  36.924  1.00  0.00    -0.200 F 
ATOM     93  F   UNL A   1      46.883  26.333  36.668  1.00  0.00    -0.200 F 
ENDBRANCH  60  83
ENDBRANCH  34  35
ENDBRANCH  26  29
ENDBRANCH  24  25
ENDBRANCH  23  24
ENDBRANCH   1  23
TORSDOF 14
ENDMDL
MODEL 2
REMARK VINA RESULT:     -12.3      0.436      1.678
REMARK SMILES C[C@H]([C@@H](C)C(=O)NCCCCNC(=O)c1ccc(-c2c3nc(c(-c4c(F)c(F)c(F)c(F)c4F)c4ccc([nH]4)c(-c4c(F)c(F)c(F)c(F)c4F)c4nc(c(-c5c(F)c(F)c(F)c(F)c5F)c5ccc2[nH]5)C=C4)C=C3)cc1)[NH+]1CCN(c2nccs2)CC1
REMARK SMILES IDX 9 1 8 2 7 3 5 4 6 5 3 7 4 8 2 9 1 10 78 11 79 12 88 13 80 15
REMARK SMILES IDX 87 16 81 17 82 18 83 19 86 20 84 21 85 22 10 23 11 24 12 25
REMARK SMILES IDX 13 26 14 28 15 29 16 30 77 31 17 32 76 33 18 34 19 35 20 36
REMARK SMILES IDX 70 37 21 38 75 39 69 40 71 41 22 42 74 43 68 44 67 45 23 47
REMARK SMILES IDX 55 48 35 49 54 50 36 51 39 52 53 53 72 54 37 55 38 56 52 58
REMARK SMILES IDX 73 59 40 60 24 61 25 62 33 63 26 64 27 65 31 66 34 67 28 68
REMARK SMILES IDX 29 69 32 70 30 71 56 72 57 73 65 74 58 75 59 76 63 77 66 78
REMARK SMILES IDX 60 79 61 80 64 81 62 82 41 83 42 84 50 85 43 86 44 87 48 88
REMARK SMILES IDX 51 89 45 90 46 91 49 92 47 93
REMARK H PARENT 7 6 78 14 12 27 71 46 39 57
REMARK Flexibility Score: inf
ROOT
ATOM      1  C   UNL A   1      31.995  30.635  26.717  1.00  0.00     0.023 C 
ENDROOT
BRANCH   1   2
ATOM      2  C   UNL A   1      31.529  29.923  25.446  1.00  0.00     0.116 C 
BRANCH   2   3
ATOM      3  N   UNL A   1      32.632  29.684  24.544  1.00  0.00    -0.356 N 
ATOM      4  C   UNL A   1      33.415  28.591  24.345  1.00  0.00     0.228 C 
ATOM      5  O   UNL A   1      34.319  28.715  23.513  1.00  0.00    -0.275 OA
ATOM      6  H   UNL A   1      32.856  30.450  23.969  1.00  0.00     0.163 HD
BRANCH   4   7
ATOM      7  C   UNL A   1      33.191  27.245  25.047  1.00  0.00     0.133 C 
ATOM      8  C   UNL A   1      33.675  27.305  26.498  1.00  0.00     0.024 C 
BRANCH   7   9
ATOM      9  C   UNL A   1      33.595  25.992  24.193  1.00  0.00     0.193 C 
ATOM     10  C   UNL A   1      34.543  25.010  24.899  1.00  0.00     0.076 C 
BRANCH   9  11
ATOM     11  N   UNL A   1      32.391  25.365  23.596  1.00  0.00    -0.329 N 
ATOM     12  C   UNL A   1      31.192  25.358  24.451  1.00  0.00     0.284 C 
ATOM     13  C   UNL A   1      31.998  25.760  22.238  1.00  0.00     0.284 C 
ATOM     14  H   UNL A   1      32.763  24.420  23.517  1.00  0.00     0.348 HD
ATOM     15  C   UNL A   1      30.337  26.640  24.458  1.00  0.00     0.180 C 
ATOM     16  C   UNL A   1      31.171  27.052  22.096  1.00  0.00     0.180 C 
ATOM     17  N   UNL A   1      30.127  27.210  23.122  1.00  0.00    -0.337 N 
BRANCH  17  18
ATOM     18  C   UNL A   1      29.235  28.226  22.920  1.00  0.00     0.185 A 
ATOM     19  N   UNL A   1      27.970  28.149  23.283  1.00  0.00    -0.229 NA
ATOM     20  S   UNL A   1      29.630  29.719  22.122  1.00  0.00    -0.106 S 
ATOM     21  C   UNL A   1      27.285  29.302  22.959  1.00  0.00     0.125 A 
ATOM     22  C   UNL A   1      28.016  30.253  22.288  1.00  0.00     0.088 A 
ENDBRANCH  17  18
ENDBRANCH   9  11
ENDBRANCH   7   9
ENDBRANCH   4   7
ENDBRANCH   2   3
ENDBRANCH   1   2
BRANCH   1  23
ATOM     23  C   UNL A   1      31.751  32.139  26.739  1.00  0.00     0.023 C 
BRANCH  23  24
ATOM     24  C   UNL A   1      32.808  32.937  27.491  1.00  0.00     0.116 C 
BRANCH  24  25
ATOM     25  N   UNL A   1      32.448  34.329  27.735  1.00  0.00    -0.352 N 
ATOM     26  C   UNL A   1      33.020  35.187  28.647  1.00  0.00     0.251 C 
ATOM     27  H   UNL A   1      31.715  34.695  27.190  1.00  0.00     0.163 HD
ATOM     28  O   UNL A   1      32.603  36.326  28.811  1.00  0.00    -0.269 OA
BRANCH  26  29
ATOM     29  C   UNL A   1      34.128  34.667  29.467  1.00  0.00     0.039 A 
ATOM     30  C   UNL A   1      33.837  34.066  30.693  1.00  0.00     0.014 A 
ATOM     31  C   UNL A   1      35.420  34.641  28.937  1.00  0.00     0.014 A 
ATOM     32  C   UNL A   1      34.835  33.350  31.354  1.00  0.00     0.010 A 
ATOM     33  C   UNL A   1      36.388  33.866  29.558  1.00  0.00     0.010 A 
ATOM     34  C   UNL A   1      36.101  33.204  30.765  1.00  0.00    -0.014 A 
BRANCH  34  35
ATOM     35  C   UNL A   1      37.162  32.370  31.375  1.00  0.00     0.031 A 
ATOM     36  C   UNL A   1      37.662  32.714  32.747  1.00  0.00     0.074 A 
ATOM     37  C   UNL A   1      37.759  31.403  30.653  1.00  0.00     0.049 A 
ATOM     38  N   UNL A   1      38.710  32.265  33.385  1.00  0.00    -0.248 NA
ATOM     39  C   UNL A   1      36.901  33.740  33.477  1.00  0.00     0.031 C 
ATOM     40  C   UNL A   1      37.395  31.014  29.290  1.00  0.00     0.029 A 
ATOM     41  N   UNL A   1      38.823  30.592  30.959  1.00  0.00    -0.354 N 
ATOM     42  C   UNL A   1      38.764  32.988  34.568  1.00  0.00     0.074 A 
ATOM     43  C   UNL A   1      37.664  33.929  34.543  1.00  0.00     0.031 C 
ATOM     44  C   UNL A   1      38.219  30.035  28.879  1.00  0.00     0.029 A 
ATOM     45  C   UNL A   1      39.191  29.758  29.933  1.00  0.00     0.049 A 
ATOM     46  H   UNL A   1      39.280  30.608  31.831  1.00  0.00     0.167 HD
ATOM     47  C   UNL A   1      39.644  32.869  35.588  1.00  0.00     0.037 A 
ATOM     48  C   UNL A   1      40.209  28.881  29.848  1.00  0.00     0.037 A 
ATOM     49  C   UNL A   1      40.699  31.893  35.630  1.00  0.00     0.049 A 
ATOM     50  C   UNL A   1      41.140  28.721  31.019  1.00  0.00     0.074 A 
ATOM     51  C   UNL A   1      41.595  31.631  36.650  1.00  0.00     0.029 A 
ATOM     52  N   UNL A   1      40.991  31.008  34.601  1.00  0.00    -0.354 N 
ATOM     53  N   UNL A   1      41.154  29.373  32.155  1.00  0.00    -0.248 NA
ATOM     54  C   UNL A   1      42.193  27.704  30.897  1.00  0.00     0.031 C 
ATOM     55  C   UNL A   1      42.447  30.605  36.229  1.00  0.00     0.029 A 
ATOM     56  C   UNL A   1      42.058  30.203  34.960  1.00  0.00     0.049 A 
ATOM     57  H   UNL A   1      40.510  30.961  33.743  1.00  0.00     0.167 HD
ATOM     58  C   UNL A   1      42.195  28.830  32.895  1.00  0.00     0.074 A 
ATOM     59  C   UNL A   1      42.788  27.791  32.079  1.00  0.00     0.031 C 
ATOM     60  C   UNL A   1      42.620  29.162  34.138  1.00  0.00     0.037 A 
BRANCH  47  61
ATOM     61  C   UNL A   1      39.496  33.821  36.736  1.00  0.00     0.064 A 
ATOM     62  C   UNL A   1      40.102  35.086  36.729  1.00  0.00     0.173 A 
ATOM     63  C   UNL A   1      38.743  33.460  37.864  1.00  0.00     0.173 A 
ATOM     64  F   UNL A   1      40.847  35.471  35.681  1.00  0.00    -0.203 F 
ATOM     65  C   UNL A   1      39.996  35.938  37.824  1.00  0.00     0.198 A 
ATOM     66  C   UNL A   1      38.613  34.327  38.946  1.00  0.00     0.198 A 
ATOM     67  F   UNL A   1      38.141  32.263  37.921  1.00  0.00    -0.203 F 
ATOM     68  F   UNL A   1      40.637  37.114  37.821  1.00  0.00    -0.200 F 
ATOM     69  C   UNL A   1      39.248  35.560  38.929  1.00  0.00     0.200 A 
ATOM     70  F   UNL A   1      37.884  33.964  40.009  1.00  0.00    -0.200 F 
ATOM     71  F   UNL A   1      39.151  36.380  39.986  1.00  0.00    -0.200 F 
ENDBRANCH  47  61
BRANCH  48  72
ATOM     72  C   UNL A   1      40.377  28.067  28.618  1.00  0.00     0.064 A 
ATOM     73  C   UNL A   1      41.139  28.544  27.543  1.00  0.00     0.173 A 
ATOM     74  C   UNL A   1      39.808  26.791  28.501  1.00  0.00     0.173 A 
ATOM     75  F   UNL A   1      41.688  29.767  27.604  1.00  0.00    -0.203 F 
ATOM     76  C   UNL A   1      41.320  27.780  26.393  1.00  0.00     0.198 A 
ATOM     77  C   UNL A   1      40.006  26.019  27.358  1.00  0.00     0.198 A 
ATOM     78  F   UNL A   1      39.077  26.288  29.506  1.00  0.00    -0.203 F 
ATOM     79  F   UNL A   1      42.031  28.271  25.369  1.00  0.00    -0.200 F 
ATOM     80  C   UNL A   1      40.759  26.515  26.303  1.00  0.00     0.200 A 
ATOM     81  F   UNL A   1      39.474  24.791  27.280  1.00  0.00    -0.200 F 
ATOM     82  F   UNL A   1      40.941  25.775  25.201  1.00  0.00    -0.200 F 
ENDBRANCH  48  72
BRANCH  60  83
ATOM     83  C   UNL A   1      43.752  28.368  34.714  1.00  0.00     0.064 A 
ATOM     84  C   UNL A   1      43.530  27.171  35.407  1.00  0.00     0.173 A 
ATOM     85  C   UNL A   1      45.078  28.778  34.508  1.00  0.00     0.173 A 
ATOM     86  F   UNL A   1      42.279  26.748  35.640  1.00  0.00    -0.203 F 
ATOM     87  C   UNL A   1      44.598  26.414  35.882  1.00  0.00     0.198 A 
ATOM     88  C   UNL A   1      46.143  28.008  34.965  1.00  0.00     0.198 A 
ATOM     89  F   UNL A   1      45.339  29.915  33.846  1.00  0.00    -0.203 F 
ATOM     90  F   UNL A   1      44.365  25.285  36.566  1.00  0.00    -0.200 F 
ATOM     91  C   UNL A   1      45.903  26.828  35.653  1.00  0.00     0.200 A 
ATOM     92  F   UNL A   1      47.402  28.405  34.735  1.00  0.00    -0.200 F 
ATOM     93  F   UNL A   1      46.928  26.092  36.100  1.00  0.00    -0.200 F 
ENDBRANCH  60  83
ENDBRANCH  34  35
ENDBRANCH  26  29
ENDBRANCH  24  25
ENDBRANCH  23  24
ENDBRANCH   1  23
TORSDOF 14
ENDMDL
MODEL 3
REMARK VINA RESULT:     -12.3      0.535      7.383
REMARK SMILES C[C@H]([C@@H](C)C(=O)NCCCCNC(=O)c1ccc(-c2c3nc(c(-c4c(F)c(F)c(F)c(F)c4F)c4ccc([nH]4)c(-c4c(F)c(F)c(F)c(F)c4F)c4nc(c(-c5c(F)c(F)c(F)c(F)c5F)c5ccc2[nH]5)C=C4)C=C3)cc1)[NH+]1CCN(c2nccs2)CC1
REMARK SMILES IDX 9 1 8 2 7 3 5 4 6 5 3 7 4 8 2 9 1 10 78 11 79 12 88 13 80 15
REMARK SMILES IDX 87 16 81 17 82 18 83 19 86 20 84 21 85 22 10 23 11 24 12 25
REMARK SMILES IDX 13 26 14 28 15 29 16 30 77 31 17 32 76 33 18 34 19 35 20 36
REMARK SMILES IDX 70 37 21 38 75 39 69 40 71 41 22 42 74 43 68 44 67 45 23 47
REMARK SMILES IDX 55 48 35 49 54 50 36 51 39 52 53 53 72 54 37 55 38 56 52 58
REMARK SMILES IDX 73 59 40 60 24 61 25 62 33 63 26 64 27 65 31 66 34 67 28 68
REMARK SMILES IDX 29 69 32 70 30 71 56 72 57 73 65 74 58 75 59 76 63 77 66 78
REMARK SMILES IDX 60 79 61 80 64 81 62 82 41 83 42 84 50 85 43 86 44 87 48 88
REMARK SMILES IDX 51 89 45 90 46 91 49 92 47 93
REMARK H PARENT 7 6 78 14 12 27 71 46 39 57
REMARK Flexibility Score: inf
ROOT
ATOM      1  C   UNL A   1      31.878  30.561  26.622  1.00  0.00     0.023 C 
ENDROOT
BRANCH   1   2
ATOM      2  C   UNL A   1      31.490  29.972  25.264  1.00  0.00     0.116 C 
BRANCH   2   3
ATOM      3  N   UNL A   1      32.657  29.695  24.459  1.00  0.00    -0.356 N 
ATOM      4  C   UNL A   1      33.429  28.583  24.341  1.00  0.00     0.228 C 
ATOM      5  O   UNL A   1      34.401  28.674  23.584  1.00  0.00    -0.275 OA
ATOM      6  H   UNL A   1      32.944  30.447  23.893  1.00  0.00     0.163 HD
BRANCH   4   7
ATOM      7  C   UNL A   1      33.119  27.253  25.042  1.00  0.00     0.133 C 
ATOM      8  C   UNL A   1      33.582  27.291  26.500  1.00  0.00     0.024 C 
BRANCH   7   9
ATOM      9  C   UNL A   1      33.466  25.978  24.197  1.00  0.00     0.193 C 
ATOM     10  C   UNL A   1      34.343  24.945  24.922  1.00  0.00     0.076 C 
BRANCH   9  11
ATOM     11  N   UNL A   1      32.239  25.419  23.580  1.00  0.00    -0.329 N 
ATOM     12  C   UNL A   1      31.005  25.579  24.368  1.00  0.00     0.284 C 
ATOM     13  C   UNL A   1      31.949  25.749  22.179  1.00  0.00     0.284 C 
ATOM     14  H   UNL A   1      32.525  24.441  23.584  1.00  0.00     0.348 HD
ATOM     15  C   UNL A   1      30.273  26.930  24.243  1.00  0.00     0.180 C 
ATOM     16  C   UNL A   1      31.253  27.096  21.907  1.00  0.00     0.180 C 
ATOM     17  N   UNL A   1      30.180  27.419  22.862  1.00  0.00    -0.337 N 
BRANCH  17  18
ATOM     18  C   UNL A   1      29.396  28.493  22.545  1.00  0.00     0.185 A 
ATOM     19  N   UNL A   1      29.818  29.490  21.794  1.00  0.00    -0.229 NA
ATOM     20  S   UNL A   1      27.771  28.712  23.125  1.00  0.00    -0.106 S 
ATOM     21  C   UNL A   1      28.836  30.446  21.633  1.00  0.00     0.125 A 
ATOM     22  C   UNL A   1      27.667  30.212  22.316  1.00  0.00     0.088 A 
ENDBRANCH  17  18
ENDBRANCH   9  11
ENDBRANCH   7   9
ENDBRANCH   4   7
ENDBRANCH   2   3
ENDBRANCH   1   2
BRANCH   1  23
ATOM     23  C   UNL A   1      31.404  31.989  26.864  1.00  0.00     0.023 C 
BRANCH  23  24
ATOM     24  C   UNL A   1      32.517  33.027  26.876  1.00  0.00     0.116 C 
BRANCH  24  25
ATOM     25  N   UNL A   1      32.230  34.205  27.687  1.00  0.00    -0.352 N 
ATOM     26  C   UNL A   1      32.971  34.687  28.744  1.00  0.00     0.251 C 
ATOM     27  H   UNL A   1      31.418  34.710  27.456  1.00  0.00     0.163 HD
ATOM     28  O   UNL A   1      32.608  35.656  29.395  1.00  0.00    -0.269 OA
BRANCH  26  29
ATOM     29  C   UNL A   1      34.198  33.955  29.102  1.00  0.00     0.039 A 
ATOM     30  C   UNL A   1      35.436  34.504  28.762  1.00  0.00     0.014 A 
ATOM     31  C   UNL A   1      34.108  32.817  29.906  1.00  0.00     0.014 A 
ATOM     32  C   UNL A   1      36.597  33.960  29.311  1.00  0.00     0.010 A 
ATOM     33  C   UNL A   1      35.256  32.325  30.510  1.00  0.00     0.010 A 
ATOM     34  C   UNL A   1      36.508  32.899  30.227  1.00  0.00    -0.014 A 
BRANCH  34  35
ATOM     35  C   UNL A   1      37.700  32.353  30.915  1.00  0.00     0.031 A 
ATOM     36  C   UNL A   1      38.486  31.259  30.256  1.00  0.00     0.074 A 
ATOM     37  C   UNL A   1      37.990  32.739  32.171  1.00  0.00     0.049 A 
ATOM     38  N   UNL A   1      39.423  30.495  30.751  1.00  0.00    -0.248 NA
ATOM     39  C   UNL A   1      38.132  30.955  28.860  1.00  0.00     0.031 C 
ATOM     40  C   UNL A   1      37.265  33.755  32.937  1.00  0.00     0.029 A 
ATOM     41  N   UNL A   1      38.957  32.296  33.039  1.00  0.00    -0.354 N 
ATOM     42  C   UNL A   1      39.735  29.589  29.747  1.00  0.00     0.074 A 
ATOM     43  C   UNL A   1      38.863  29.876  28.628  1.00  0.00     0.031 C 
ATOM     44  C   UNL A   1      37.816  33.861  34.157  1.00  0.00     0.029 A 
ATOM     45  C   UNL A   1      38.904  32.894  34.273  1.00  0.00     0.049 A 
ATOM     46  H   UNL A   1      39.624  31.612  32.800  1.00  0.00     0.167 HD
ATOM     47  C   UNL A   1      40.673  28.614  29.755  1.00  0.00     0.037 A 
ATOM     48  C   UNL A   1      39.641  32.675  35.379  1.00  0.00     0.037 A 
ATOM     49  C   UNL A   1      41.573  28.373  30.850  1.00  0.00     0.049 A 
ATOM     50  C   UNL A   1      40.720  31.627  35.345  1.00  0.00     0.074 A 
ATOM     51  C   UNL A   1      42.614  27.466  30.930  1.00  0.00     0.029 A 
ATOM     52  N   UNL A   1      41.541  29.056  32.057  1.00  0.00    -0.354 N 
ATOM     53  N   UNL A   1      41.043  30.808  34.374  1.00  0.00    -0.248 NA
ATOM     54  C   UNL A   1      41.537  31.474  36.557  1.00  0.00     0.031 C 
ATOM     55  C   UNL A   1      43.197  27.583  32.196  1.00  0.00     0.029 A 
ATOM     56  C   UNL A   1      42.541  28.587  32.892  1.00  0.00     0.049 A 
ATOM     57  H   UNL A   1      40.902  29.770  32.287  1.00  0.00     0.167 HD
ATOM     58  C   UNL A   1      42.115  30.062  34.844  1.00  0.00     0.074 A 
ATOM     59  C   UNL A   1      42.391  30.529  36.187  1.00  0.00     0.031 C 
ATOM     60  C   UNL A   1      42.808  29.080  34.219  1.00  0.00     0.037 A 
BRANCH  47  61
ATOM     61  C   UNL A   1      40.764  27.741  28.540  1.00  0.00     0.064 A 
ATOM     62  C   UNL A   1      41.556  28.091  27.437  1.00  0.00     0.173 A 
ATOM     63  C   UNL A   1      40.040  26.540  28.475  1.00  0.00     0.173 A 
ATOM     64  F   UNL A   1      42.252  29.238  27.443  1.00  0.00    -0.203 F 
ATOM     65  C   UNL A   1      41.589  27.293  26.297  1.00  0.00     0.198 A 
ATOM     66  C   UNL A   1      40.099  25.728  27.345  1.00  0.00     0.198 A 
ATOM     67  F   UNL A   1      39.269  26.157  29.504  1.00  0.00    -0.203 F 
ATOM     68  F   UNL A   1      42.301  27.680  25.230  1.00  0.00    -0.200 F 
ATOM     69  C   UNL A   1      40.865  26.111  26.253  1.00  0.00     0.200 A 
ATOM     70  F   UNL A   1      39.406  24.583  27.308  1.00  0.00    -0.200 F 
ATOM     71  F   UNL A   1      40.893  25.346  25.153  1.00  0.00    -0.200 F 
ENDBRANCH  47  61
BRANCH  48  72
ATOM     72  C   UNL A   1      39.400  33.488  36.596  1.00  0.00     0.064 A 
ATOM     73  C   UNL A   1      39.992  34.749  36.743  1.00  0.00     0.173 A 
ATOM     74  C   UNL A   1      38.554  33.038  37.621  1.00  0.00     0.173 A 
ATOM     75  F   UNL A   1      40.822  35.212  35.796  1.00  0.00    -0.203 F 
ATOM     76  C   UNL A   1      39.754  35.529  37.872  1.00  0.00     0.198 A 
ATOM     77  C   UNL A   1      38.302  33.828  38.741  1.00  0.00     0.198 A 
ATOM     78  F   UNL A   1      37.959  31.841  37.523  1.00  0.00    -0.203 F 
ATOM     79  F   UNL A   1      40.354  36.720  38.000  1.00  0.00    -0.200 F 
ATOM     80  C   UNL A   1      38.905  35.071  38.868  1.00  0.00     0.200 A 
ATOM     81  F   UNL A   1      37.469  33.388  39.695  1.00  0.00    -0.200 F 
ATOM     82  F   UNL A   1      38.668  35.825  39.950  1.00  0.00    -0.200 F 
ENDBRANCH  48  72
BRANCH  60  83
ATOM     83  C   UNL A   1      43.961  28.472  34.958  1.00  0.00     0.064 A 
ATOM     84  C   UNL A   1      45.267  28.956  34.806  1.00  0.00     0.173 A 
ATOM     85  C   UNL A   1      43.741  27.438  35.880  1.00  0.00     0.173 A 
ATOM     86  F   UNL A   1      45.526  29.934  33.925  1.00  0.00    -0.203 F 
ATOM     87  C   UNL A   1      46.316  28.420  35.548  1.00  0.00     0.198 A 
ATOM     88  C   UNL A   1      44.788  26.919  36.635  1.00  0.00     0.198 A 
ATOM     89  F   UNL A   1      42.507  26.946  36.062  1.00  0.00    -0.203 F 
ATOM     90  F   UNL A   1      47.563  28.878  35.370  1.00  0.00    -0.200 F 
ATOM     91  C   UNL A   1      46.075  27.409  36.467  1.00  0.00     0.200 A 
ATOM     92  F   UNL A   1      44.552  25.949  37.529  1.00  0.00    -0.200 F 
ATOM     93  F   UNL A   1      47.084  26.903  37.188  1.00  0.00    -0.200 F 
ENDBRANCH  60  83
ENDBRANCH  34  35
ENDBRANCH  26  29
ENDBRANCH  24  25
ENDBRANCH  23  24
ENDBRANCH   1  23
TORSDOF 14
ENDMDL
