MODEL 1
REMARK VINA RESULT:     -12.2      0.000      0.000
REMARK SMILES C[N@@H+](CC(=O)NCCCCNC(=O)c1ccc(-c2c3nc(c(-c4c(F)c(F)c(F)c(F)c4F)c4ccc([nH]4)c(-c4c(F)c(F)c(F)c(F)c4F)c4nc(c(-c5c(F)c(F)c(F)c(F)c5F)c5ccc2[nH]5)C=C4)C=C3)cc1)Cc1noc(-c2ccccc2Cl)n1
REMARK SMILES IDX 7 1 6 2 4 3 5 4 3 6 2 7 1 8 77 10 78 11 79 12 89 13 80 14
REMARK SMILES IDX 81 15 82 16 83 17 87 18 84 19 86 20 88 21 85 22 8 23 9 24
REMARK SMILES IDX 10 25 11 26 12 27 13 29 14 30 15 31 76 32 16 33 75 34 17 35
REMARK SMILES IDX 18 36 19 37 69 38 20 39 74 40 68 41 70 42 21 43 73 44 67 45
REMARK SMILES IDX 66 46 22 48 54 49 34 50 53 51 35 52 38 53 52 54 71 55 36 56
REMARK SMILES IDX 37 57 51 59 72 60 39 61 23 62 24 63 32 64 25 65 26 66 30 67
REMARK SMILES IDX 33 68 27 69 28 70 31 71 29 72 55 73 56 74 64 75 57 76 58 77
REMARK SMILES IDX 62 78 65 79 59 80 60 81 63 82 61 83 40 84 41 85 49 86 42 87
REMARK SMILES IDX 43 88 47 89 50 90 44 91 45 92 48 93 46 94
REMARK H PARENT 6 5 2 9 11 28 70 47 38 58
REMARK Flexibility Score: inf
ROOT
ATOM      1  C   UNL A   1      33.361  30.038  26.931  1.00  0.00     0.116 C 
ENDROOT
BRANCH   1   2
ATOM      2  N   UNL A   1      33.505  28.598  26.923  1.00  0.00    -0.351 N 
ATOM      3  C   UNL A   1      33.576  27.737  25.870  1.00  0.00     0.275 C 
ATOM      4  O   UNL A   1      33.841  26.558  26.122  1.00  0.00    -0.269 OA
ATOM      5  H   UNL A   1      33.558  28.179  27.812  1.00  0.00     0.163 HD
BRANCH   3   6
ATOM      6  C   UNL A   1      33.403  28.217  24.430  1.00  0.00     0.363 C 
BRANCH   6   7
ATOM      7  N   UNL A   1      32.141  27.870  23.779  1.00  0.00    -0.323 N 
ATOM      8  C   UNL A   1      30.947  27.762  24.580  1.00  0.00     0.333 C 
ATOM      9  H   UNL A   1      32.010  28.807  23.399  1.00  0.00     0.348 HD
BRANCH   7  10
ATOM     10  C   UNL A   1      32.160  27.124  22.518  1.00  0.00     0.345 C 
BRANCH  10  11
ATOM     11  C   UNL A   1      32.782  25.760  22.568  1.00  0.00     0.226 A 
ATOM     12  N   UNL A   1      33.651  25.352  21.629  1.00  0.00    -0.056 NA
ATOM     13  N   UNL A   1      32.473  24.802  23.509  1.00  0.00    -0.186 NA
ATOM     14  O   UNL A   1      33.980  24.059  22.028  1.00  0.00    -0.334 OA
ATOM     15  C   UNL A   1      33.233  23.792  23.139  1.00  0.00     0.259 A 
BRANCH  15  16
ATOM     16  C   UNL A   1      33.417  22.471  23.721  1.00  0.00     0.058 A 
ATOM     17  C   UNL A   1      32.520  21.438  23.385  1.00  0.00     0.015 A 
ATOM     18  C   UNL A   1      34.472  22.178  24.595  1.00  0.00     0.053 A 
ATOM     19  C   UNL A   1      32.695  20.141  23.876  1.00  0.00     0.001 A 
ATOM     20  C   UNL A   1      34.634  20.881  25.102  1.00  0.00     0.021 A 
ATOM     21  Cl  UNL A   1      35.592  23.382  25.134  1.00  0.00    -0.083 Cl
ATOM     22  C   UNL A   1      33.754  19.863  24.735  1.00  0.00     0.002 A 
ENDBRANCH  15  16
ENDBRANCH  10  11
ENDBRANCH   7  10
ENDBRANCH   6   7
ENDBRANCH   3   6
ENDBRANCH   1   2
BRANCH   1  23
ATOM     23  C   UNL A   1      31.903  30.486  26.872  1.00  0.00     0.023 C 
BRANCH  23  24
ATOM     24  C   UNL A   1      31.688  31.993  26.837  1.00  0.00     0.023 C 
BRANCH  24  25
ATOM     25  C   UNL A   1      32.880  32.831  27.260  1.00  0.00     0.116 C 
BRANCH  25  26
ATOM     26  N   UNL A   1      32.520  34.191  27.625  1.00  0.00    -0.352 N 
ATOM     27  C   UNL A   1      33.040  34.999  28.610  1.00  0.00     0.251 C 
ATOM     28  H   UNL A   1      31.798  34.593  27.089  1.00  0.00     0.163 HD
ATOM     29  O   UNL A   1      32.524  36.080  28.859  1.00  0.00    -0.269 OA
BRANCH  27  30
ATOM     30  C   UNL A   1      34.203  34.534  29.395  1.00  0.00     0.039 A 
ATOM     31  C   UNL A   1      33.986  34.005  30.669  1.00  0.00     0.014 A 
ATOM     32  C   UNL A   1      35.495  34.586  28.865  1.00  0.00     0.014 A 
ATOM     33  C   UNL A   1      35.054  33.450  31.376  1.00  0.00     0.010 A 
ATOM     34  C   UNL A   1      36.538  33.949  29.528  1.00  0.00     0.010 A 
ATOM     35  C   UNL A   1      36.328  33.373  30.789  1.00  0.00    -0.014 A 
BRANCH  35  36
ATOM     36  C   UNL A   1      37.454  32.691  31.474  1.00  0.00     0.031 A 
ATOM     37  C   UNL A   1      38.141  31.528  30.816  1.00  0.00     0.074 A 
ATOM     38  C   UNL A   1      37.803  33.072  32.718  1.00  0.00     0.049 A 
ATOM     39  N   UNL A   1      39.089  30.754  31.282  1.00  0.00    -0.248 NA
ATOM     40  C   UNL A   1      37.681  31.164  29.467  1.00  0.00     0.031 C 
ATOM     41  C   UNL A   1      37.172  34.149  33.483  1.00  0.00     0.029 A 
ATOM     42  N   UNL A   1      38.771  32.589  33.564  1.00  0.00    -0.354 N 
ATOM     43  C   UNL A   1      39.323  29.808  30.294  1.00  0.00     0.074 A 
ATOM     44  C   UNL A   1      38.380  30.065  29.228  1.00  0.00     0.031 C 
ATOM     45  C   UNL A   1      37.787  34.265  34.670  1.00  0.00     0.029 A 
ATOM     46  C   UNL A   1      38.826  33.245  34.770  1.00  0.00     0.049 A 
ATOM     47  H   UNL A   1      39.368  31.843  33.328  1.00  0.00     0.167 HD
ATOM     48  C   UNL A   1      40.259  28.830  30.265  1.00  0.00     0.037 A 
ATOM     49  C   UNL A   1      39.622  33.040  35.837  1.00  0.00     0.037 A 
ATOM     50  C   UNL A   1      41.217  28.600  31.314  1.00  0.00     0.049 A 
ATOM     51  C   UNL A   1      40.653  31.944  35.780  1.00  0.00     0.074 A 
ATOM     52  C   UNL A   1      42.256  27.688  31.350  1.00  0.00     0.029 A 
ATOM     53  N   UNL A   1      41.249  29.291  32.517  1.00  0.00    -0.354 N 
ATOM     54  N   UNL A   1      40.917  31.106  34.807  1.00  0.00    -0.248 NA
ATOM     55  C   UNL A   1      41.495  31.767  36.972  1.00  0.00     0.031 C 
ATOM     56  C   UNL A   1      42.886  27.792  32.594  1.00  0.00     0.029 A 
ATOM     57  C   UNL A   1      42.272  28.803  33.315  1.00  0.00     0.049 A 
ATOM     58  H   UNL A   1      40.636  30.020  32.767  1.00  0.00     0.167 HD
ATOM     59  C   UNL A   1      41.965  30.316  35.259  1.00  0.00     0.074 A 
ATOM     60  C   UNL A   1      42.304  30.790  36.585  1.00  0.00     0.031 C 
ATOM     61  C   UNL A   1      42.590  29.287  34.635  1.00  0.00     0.037 A 
BRANCH  48  62
ATOM     62  C   UNL A   1      40.299  27.939  29.058  1.00  0.00     0.064 A 
ATOM     63  C   UNL A   1      41.031  28.286  27.912  1.00  0.00     0.173 A 
ATOM     64  C   UNL A   1      39.623  26.711  29.056  1.00  0.00     0.173 A 
ATOM     65  F   UNL A   1      41.685  29.456  27.856  1.00  0.00    -0.203 F 
ATOM     66  C   UNL A   1      41.062  27.449  26.799  1.00  0.00     0.198 A 
ATOM     67  C   UNL A   1      39.680  25.862  27.953  1.00  0.00     0.198 A 
ATOM     68  F   UNL A   1      38.910  26.328  30.127  1.00  0.00    -0.203 F 
ATOM     69  F   UNL A   1      41.725  27.826  25.697  1.00  0.00    -0.200 F 
ATOM     70  C   UNL A   1      40.392  26.235  26.823  1.00  0.00     0.200 A 
ATOM     71  F   UNL A   1      39.043  24.683  27.983  1.00  0.00    -0.200 F 
ATOM     72  F   UNL A   1      40.427  25.428  25.754  1.00  0.00    -0.200 F 
ENDBRANCH  48  62
BRANCH  49  73
ATOM     73  C   UNL A   1      39.489  33.903  37.040  1.00  0.00     0.064 A 
ATOM     74  C   UNL A   1      40.138  35.143  37.110  1.00  0.00     0.173 A 
ATOM     75  C   UNL A   1      38.717  33.507  38.142  1.00  0.00     0.173 A 
ATOM     76  F   UNL A   1      40.902  35.558  36.090  1.00  0.00    -0.203 F 
ATOM     77  C   UNL A   1      40.035  35.947  38.244  1.00  0.00     0.198 A 
ATOM     78  C   UNL A   1      38.591  34.324  39.264  1.00  0.00     0.198 A 
ATOM     79  F   UNL A   1      38.066  32.334  38.121  1.00  0.00    -0.203 F 
ATOM     80  F   UNL A   1      40.700  37.109  38.302  1.00  0.00    -0.200 F 
ATOM     81  C   UNL A   1      39.257  35.540  39.318  1.00  0.00     0.200 A 
ATOM     82  F   UNL A   1      37.823  33.935  40.290  1.00  0.00    -0.200 F 
ATOM     83  F   UNL A   1      39.153  36.315  40.405  1.00  0.00    -0.200 F 
ENDBRANCH  49  73
BRANCH  61  84
ATOM     84  C   UNL A   1      43.707  28.612  35.374  1.00  0.00     0.064 A 
ATOM     85  C   UNL A   1      43.469  27.518  36.219  1.00  0.00     0.173 A 
ATOM     86  C   UNL A   1      45.033  29.038  35.206  1.00  0.00     0.173 A 
ATOM     87  F   UNL A   1      42.217  27.085  36.425  1.00  0.00    -0.203 F 
ATOM     88  C   UNL A   1      44.517  26.890  36.887  1.00  0.00     0.198 A 
ATOM     89  C   UNL A   1      46.081  28.389  35.852  1.00  0.00     0.198 A 
ATOM     90  F   UNL A   1      45.314  30.076  34.404  1.00  0.00    -0.203 F 
ATOM     91  F   UNL A   1      44.261  25.876  37.726  1.00  0.00    -0.200 F 
ATOM     92  C   UNL A   1      45.821  27.320  36.697  1.00  0.00     0.200 A 
ATOM     93  F   UNL A   1      47.342  28.796  35.656  1.00  0.00    -0.200 F 
ATOM     94  F   UNL A   1      46.829  26.708  37.335  1.00  0.00    -0.200 F 
ENDBRANCH  61  84
ENDBRANCH  35  36
ENDBRANCH  27  30
ENDBRANCH  25  26
ENDBRANCH  24  25
ENDBRANCH  23  24
ENDBRANCH   1  23
TORSDOF 15
ENDMDL
MODEL 2
REMARK VINA RESULT:     -12.1      0.668      1.749
REMARK SMILES C[N@@H+](CC(=O)NCCCCNC(=O)c1ccc(-c2c3nc(c(-c4c(F)c(F)c(F)c(F)c4F)c4ccc([nH]4)c(-c4c(F)c(F)c(F)c(F)c4F)c4nc(c(-c5c(F)c(F)c(F)c(F)c5F)c5ccc2[nH]5)C=C4)C=C3)cc1)Cc1noc(-c2ccccc2Cl)n1
REMARK SMILES IDX 7 1 6 2 4 3 5 4 3 6 2 7 1 8 77 10 78 11 79 12 89 13 80 14
REMARK SMILES IDX 81 15 82 16 83 17 87 18 84 19 86 20 88 21 85 22 8 23 9 24
REMARK SMILES IDX 10 25 11 26 12 27 13 29 14 30 15 31 76 32 16 33 75 34 17 35
REMARK SMILES IDX 18 36 19 37 69 38 20 39 74 40 68 41 70 42 21 43 73 44 67 45
REMARK SMILES IDX 66 46 22 48 54 49 34 50 53 51 35 52 38 53 52 54 71 55 36 56
REMARK SMILES IDX 37 57 51 59 72 60 39 61 23 62 24 63 32 64 25 65 26 66 30 67
REMARK SMILES IDX 33 68 27 69 28 70 31 71 29 72 55 73 56 74 64 75 57 76 58 77
REMARK SMILES IDX 62 78 65 79 59 80 60 81 63 82 61 83 40 84 41 85 49 86 42 87
REMARK SMILES IDX 43 88 47 89 50 90 44 91 45 92 48 93 46 94
REMARK H PARENT 6 5 2 9 11 28 70 47 38 58
REMARK Flexibility Score: inf
ROOT
ATOM      1  C   UNL A   1      31.611  29.994  25.341  1.00  0.00     0.116 C 
ENDROOT
BRANCH   1   2
ATOM      2  N   UNL A   1      32.834  29.712  24.621  1.00  0.00    -0.351 N 
ATOM      3  C   UNL A   1      33.179  28.618  23.887  1.00  0.00     0.275 C 
ATOM      4  O   UNL A   1      34.233  28.677  23.248  1.00  0.00    -0.269 OA
ATOM      5  H   UNL A   1      33.519  30.418  24.669  1.00  0.00     0.163 HD
BRANCH   3   6
ATOM      6  C   UNL A   1      32.271  27.393  23.801  1.00  0.00     0.363 C 
BRANCH   6   7
ATOM      7  N   UNL A   1      31.368  27.336  22.652  1.00  0.00    -0.323 N 
ATOM      8  C   UNL A   1      30.051  27.908  22.770  1.00  0.00     0.333 C 
ATOM      9  H   UNL A   1      31.844  28.094  22.164  1.00  0.00     0.348 HD
BRANCH   7  10
ATOM     10  C   UNL A   1      31.545  26.285  21.647  1.00  0.00     0.345 C 
BRANCH  10  11
ATOM     11  C   UNL A   1      32.389  25.115  22.056  1.00  0.00     0.226 A 
ATOM     12  N   UNL A   1      33.661  24.991  21.645  1.00  0.00    -0.056 NA
ATOM     13  N   UNL A   1      31.930  24.054  22.807  1.00  0.00    -0.186 NA
ATOM     14  O   UNL A   1      34.077  23.796  22.226  1.00  0.00    -0.334 OA
ATOM     15  C   UNL A   1      32.997  23.286  22.885  1.00  0.00     0.259 A 
BRANCH  15  16
ATOM     16  C   UNL A   1      33.212  22.017  23.564  1.00  0.00     0.058 A 
ATOM     17  C   UNL A   1      32.362  20.930  23.280  1.00  0.00     0.015 A 
ATOM     18  C   UNL A   1      34.253  21.825  24.482  1.00  0.00     0.053 A 
ATOM     19  C   UNL A   1      32.570  19.678  23.866  1.00  0.00     0.001 A 
ATOM     20  C   UNL A   1      34.448  20.574  25.083  1.00  0.00     0.021 A 
ATOM     21  Cl  UNL A   1      35.313  23.105  24.962  1.00  0.00    -0.083 Cl
ATOM     22  C   UNL A   1      33.615  19.500  24.768  1.00  0.00     0.002 A 
ENDBRANCH  15  16
ENDBRANCH  10  11
ENDBRANCH   7  10
ENDBRANCH   6   7
ENDBRANCH   3   6
ENDBRANCH   1   2
BRANCH   1  23
ATOM     23  C   UNL A   1      31.865  30.549  26.741  1.00  0.00     0.023 C 
BRANCH  23  24
ATOM     24  C   UNL A   1      31.611  32.040  26.904  1.00  0.00     0.023 C 
BRANCH  24  25
ATOM     25  C   UNL A   1      32.809  32.861  27.342  1.00  0.00     0.116 C 
BRANCH  25  26
ATOM     26  N   UNL A   1      32.469  34.234  27.675  1.00  0.00    -0.352 N 
ATOM     27  C   UNL A   1      33.011  35.062  28.631  1.00  0.00     0.251 C 
ATOM     28  H   UNL A   1      31.745  34.630  27.139  1.00  0.00     0.163 HD
ATOM     29  O   UNL A   1      32.511  36.155  28.858  1.00  0.00    -0.269 OA
BRANCH  27  30
ATOM     30  C   UNL A   1      34.180  34.605  29.414  1.00  0.00     0.039 A 
ATOM     31  C   UNL A   1      33.970  34.080  30.692  1.00  0.00     0.014 A 
ATOM     32  C   UNL A   1      35.469  34.659  28.878  1.00  0.00     0.014 A 
ATOM     33  C   UNL A   1      35.043  33.533  31.396  1.00  0.00     0.010 A 
ATOM     34  C   UNL A   1      36.516  34.027  29.539  1.00  0.00     0.010 A 
ATOM     35  C   UNL A   1      36.314  33.458  30.804  1.00  0.00    -0.014 A 
BRANCH  35  36
ATOM     36  C   UNL A   1      37.445  32.782  31.487  1.00  0.00     0.031 A 
ATOM     37  C   UNL A   1      38.131  31.616  30.834  1.00  0.00     0.074 A 
ATOM     38  C   UNL A   1      37.802  33.173  32.726  1.00  0.00     0.049 A 
ATOM     39  N   UNL A   1      39.083  30.847  31.300  1.00  0.00    -0.248 NA
ATOM     40  C   UNL A   1      37.663  31.241  29.490  1.00  0.00     0.031 C 
ATOM     41  C   UNL A   1      37.173  34.255  33.486  1.00  0.00     0.029 A 
ATOM     42  N   UNL A   1      38.775  32.698  33.570  1.00  0.00    -0.354 N 
ATOM     43  C   UNL A   1      39.313  29.894  30.317  1.00  0.00     0.074 A 
ATOM     44  C   UNL A   1      38.362  30.141  29.255  1.00  0.00     0.031 C 
ATOM     45  C   UNL A   1      37.795  34.380  34.669  1.00  0.00     0.029 A 
ATOM     46  C   UNL A   1      38.837  33.363  34.770  1.00  0.00     0.049 A 
ATOM     47  H   UNL A   1      39.373  31.951  33.336  1.00  0.00     0.167 HD
ATOM     48  C   UNL A   1      40.250  28.917  30.290  1.00  0.00     0.037 A 
ATOM     49  C   UNL A   1      39.639  33.167  35.834  1.00  0.00     0.037 A 
ATOM     50  C   UNL A   1      41.215  28.697  31.335  1.00  0.00     0.049 A 
ATOM     51  C   UNL A   1      40.672  32.073  35.779  1.00  0.00     0.074 A 
ATOM     52  C   UNL A   1      42.255  27.786  31.371  1.00  0.00     0.029 A 
ATOM     53  N   UNL A   1      41.253  29.397  32.533  1.00  0.00    -0.354 N 
ATOM     54  N   UNL A   1      40.932  31.228  34.810  1.00  0.00    -0.248 NA
ATOM     55  C   UNL A   1      41.522  31.905  36.967  1.00  0.00     0.031 C 
ATOM     56  C   UNL A   1      42.893  27.901  32.610  1.00  0.00     0.029 A 
ATOM     57  C   UNL A   1      42.281  28.917  33.328  1.00  0.00     0.049 A 
ATOM     58  H   UNL A   1      40.640  30.126  32.781  1.00  0.00     0.167 HD
ATOM     59  C   UNL A   1      41.984  30.443  35.262  1.00  0.00     0.074 A 
ATOM     60  C   UNL A   1      42.329  30.927  36.582  1.00  0.00     0.031 C 
ATOM     61  C   UNL A   1      42.606  29.410  34.642  1.00  0.00     0.037 A 
BRANCH  48  62
ATOM     62  C   UNL A   1      40.284  28.017  29.089  1.00  0.00     0.064 A 
ATOM     63  C   UNL A   1      39.571  26.808  29.056  1.00  0.00     0.173 A 
ATOM     64  C   UNL A   1      41.011  28.381  27.946  1.00  0.00     0.173 A 
ATOM     65  F   UNL A   1      38.871  26.408  30.127  1.00  0.00    -0.203 F 
ATOM     66  C   UNL A   1      39.610  25.984  27.934  1.00  0.00     0.198 A 
ATOM     67  C   UNL A   1      41.023  27.569  26.815  1.00  0.00     0.198 A 
ATOM     68  F   UNL A   1      41.707  29.528  27.923  1.00  0.00    -0.203 F 
ATOM     69  F   UNL A   1      38.964  24.810  27.945  1.00  0.00    -0.200 F 
ATOM     70  C   UNL A   1      40.330  26.368  26.812  1.00  0.00     0.200 A 
ATOM     71  F   UNL A   1      41.707  27.947  25.727  1.00  0.00    -0.200 F 
ATOM     72  F   UNL A   1      40.360  25.576  25.731  1.00  0.00    -0.200 F 
ENDBRANCH  48  62
BRANCH  49  73
ATOM     73  C   UNL A   1      39.512  34.038  37.031  1.00  0.00     0.064 A 
ATOM     74  C   UNL A   1      40.150  35.286  37.084  1.00  0.00     0.173 A 
ATOM     75  C   UNL A   1      38.757  33.645  38.146  1.00  0.00     0.173 A 
ATOM     76  F   UNL A   1      40.898  35.699  36.051  1.00  0.00    -0.203 F 
ATOM     77  C   UNL A   1      40.052  36.098  38.212  1.00  0.00     0.198 A 
ATOM     78  C   UNL A   1      38.636  34.470  39.262  1.00  0.00     0.198 A 
ATOM     79  F   UNL A   1      38.117  32.465  38.142  1.00  0.00    -0.203 F 
ATOM     80  F   UNL A   1      40.706  37.267  38.252  1.00  0.00    -0.200 F 
ATOM     81  C   UNL A   1      39.291  35.692  39.299  1.00  0.00     0.200 A 
ATOM     82  F   UNL A   1      37.884  34.082  40.300  1.00  0.00    -0.200 F 
ATOM     83  F   UNL A   1      39.193  36.475  40.381  1.00  0.00    -0.200 F 
ENDBRANCH  49  73
BRANCH  61  84
ATOM     84  C   UNL A   1      43.730  28.743  35.379  1.00  0.00     0.064 A 
ATOM     85  C   UNL A   1      45.059  29.161  35.220  1.00  0.00     0.173 A 
ATOM     86  C   UNL A   1      43.470  27.702  36.284  1.00  0.00     0.173 A 
ATOM     87  F   UNL A   1      45.359  30.141  34.355  1.00  0.00    -0.203 F 
ATOM     88  C   UNL A   1      46.091  28.545  35.923  1.00  0.00     0.198 A 
ATOM     89  C   UNL A   1      44.501  27.109  37.007  1.00  0.00     0.198 A 
ATOM     90  F   UNL A   1      42.215  27.270  36.476  1.00  0.00    -0.203 F 
ATOM     91  F   UNL A   1      47.358  28.930  35.721  1.00  0.00    -0.200 F 
ATOM     92  C   UNL A   1      45.811  27.527  36.820  1.00  0.00     0.200 A 
ATOM     93  F   UNL A   1      44.227  26.135  37.884  1.00  0.00    -0.200 F 
ATOM     94  F   UNL A   1      46.805  26.941  37.502  1.00  0.00    -0.200 F 
ENDBRANCH  61  84
ENDBRANCH  35  36
ENDBRANCH  27  30
ENDBRANCH  25  26
ENDBRANCH  24  25
ENDBRANCH  23  24
ENDBRANCH   1  23
TORSDOF 15
ENDMDL
MODEL 3
REMARK VINA RESULT:     -12.1      1.223      2.256
REMARK SMILES C[N@@H+](CC(=O)NCCCCNC(=O)c1ccc(-c2c3nc(c(-c4c(F)c(F)c(F)c(F)c4F)c4ccc([nH]4)c(-c4c(F)c(F)c(F)c(F)c4F)c4nc(c(-c5c(F)c(F)c(F)c(F)c5F)c5ccc2[nH]5)C=C4)C=C3)cc1)Cc1noc(-c2ccccc2Cl)n1
REMARK SMILES IDX 7 1 6 2 4 3 5 4 3 6 2 7 1 8 77 10 78 11 79 12 89 13 80 14
REMARK SMILES IDX 81 15 82 16 83 17 87 18 84 19 86 20 88 21 85 22 8 23 9 24
REMARK SMILES IDX 10 25 11 26 12 27 13 29 14 30 15 31 76 32 16 33 75 34 17 35
REMARK SMILES IDX 18 36 19 37 69 38 20 39 74 40 68 41 70 42 21 43 73 44 67 45
REMARK SMILES IDX 66 46 22 48 54 49 34 50 53 51 35 52 38 53 52 54 71 55 36 56
REMARK SMILES IDX 37 57 51 59 72 60 39 61 23 62 24 63 32 64 25 65 26 66 30 67
REMARK SMILES IDX 33 68 27 69 28 70 31 71 29 72 55 73 56 74 64 75 57 76 58 77
REMARK SMILES IDX 62 78 65 79 59 80 60 81 63 82 61 83 40 84 41 85 49 86 42 87
REMARK SMILES IDX 43 88 47 89 50 90 44 91 45 92 48 93 46 94
REMARK H PARENT 6 5 2 9 11 28 70 47 38 58
REMARK Flexibility Score: inf
ROOT
ATOM      1  C   UNL A   1      32.073  29.778  25.517  1.00  0.00     0.116 C 
ENDROOT
BRANCH   1   2
ATOM      2  N   UNL A   1      30.997  30.048  24.589  1.00  0.00    -0.351 N 
ATOM      3  C   UNL A   1      30.399  29.222  23.686  1.00  0.00     0.275 C 
ATOM      4  O   UNL A   1      29.400  29.653  23.103  1.00  0.00    -0.269 OA
ATOM      5  H   UNL A   1      30.645  30.968  24.613  1.00  0.00     0.163 HD
BRANCH   3   6
ATOM      6  C   UNL A   1      30.897  27.797  23.452  1.00  0.00     0.363 C 
BRANCH   6   7
ATOM      7  N   UNL A   1      30.231  26.744  24.216  1.00  0.00    -0.323 N 
ATOM      8  C   UNL A   1      28.835  26.482  23.974  1.00  0.00     0.333 C 
ATOM      9  H   UNL A   1      30.647  25.996  23.662  1.00  0.00     0.348 HD
BRANCH   7  10
ATOM     10  C   UNL A   1      30.757  26.362  25.528  1.00  0.00     0.345 C 
BRANCH  10  11
ATOM     11  C   UNL A   1      32.160  25.831  25.548  1.00  0.00     0.226 A 
ATOM     12  N   UNL A   1      33.176  26.555  26.042  1.00  0.00    -0.056 NA
ATOM     13  N   UNL A   1      32.536  24.619  25.009  1.00  0.00    -0.186 NA
ATOM     14  O   UNL A   1      34.282  25.726  25.872  1.00  0.00    -0.334 OA
ATOM     15  C   UNL A   1      33.833  24.603  25.239  1.00  0.00     0.259 A 
BRANCH  15  16
ATOM     16  C   UNL A   1      34.842  23.594  24.952  1.00  0.00     0.058 A 
ATOM     17  C   UNL A   1      35.532  23.639  23.724  1.00  0.00     0.015 A 
ATOM     18  C   UNL A   1      35.172  22.583  25.863  1.00  0.00     0.053 A 
ATOM     19  C   UNL A   1      36.548  22.724  23.432  1.00  0.00     0.001 A 
ATOM     20  C   UNL A   1      36.178  21.656  25.561  1.00  0.00     0.021 A 
ATOM     21  Cl  UNL A   1      34.345  22.387  27.370  1.00  0.00    -0.083 Cl
ATOM     22  C   UNL A   1      36.872  21.733  24.353  1.00  0.00     0.002 A 
ENDBRANCH  15  16
ENDBRANCH  10  11
ENDBRANCH   7  10
ENDBRANCH   6   7
ENDBRANCH   3   6
ENDBRANCH   1   2
BRANCH   1  23
ATOM     23  C   UNL A   1      31.871  30.457  26.870  1.00  0.00     0.023 C 
BRANCH  23  24
ATOM     24  C   UNL A   1      31.663  31.964  26.816  1.00  0.00     0.023 C 
BRANCH  24  25
ATOM     25  C   UNL A   1      32.844  32.801  27.272  1.00  0.00     0.116 C 
BRANCH  25  26
ATOM     26  N   UNL A   1      32.477  34.161  27.626  1.00  0.00    -0.352 N 
ATOM     27  C   UNL A   1      32.998  34.982  28.599  1.00  0.00     0.251 C 
ATOM     28  H   UNL A   1      31.748  34.552  27.092  1.00  0.00     0.163 HD
ATOM     29  O   UNL A   1      32.476  36.062  28.841  1.00  0.00    -0.269 OA
BRANCH  27  30
ATOM     30  C   UNL A   1      34.171  34.534  29.380  1.00  0.00     0.039 A 
ATOM     31  C   UNL A   1      33.966  33.992  30.651  1.00  0.00     0.014 A 
ATOM     32  C   UNL A   1      35.461  34.614  28.848  1.00  0.00     0.014 A 
ATOM     33  C   UNL A   1      35.045  33.453  31.352  1.00  0.00     0.010 A 
ATOM     34  C   UNL A   1      36.516  33.992  29.505  1.00  0.00     0.010 A 
ATOM     35  C   UNL A   1      36.319  33.404  30.763  1.00  0.00    -0.014 A 
BRANCH  35  36
ATOM     36  C   UNL A   1      37.459  32.739  31.442  1.00  0.00     0.031 A 
ATOM     37  C   UNL A   1      38.154  31.581  30.784  1.00  0.00     0.074 A 
ATOM     38  C   UNL A   1      37.814  33.130  32.681  1.00  0.00     0.049 A 
ATOM     39  N   UNL A   1      39.115  30.820  31.246  1.00  0.00    -0.248 NA
ATOM     40  C   UNL A   1      37.687  31.204  29.440  1.00  0.00     0.031 C 
ATOM     41  C   UNL A   1      37.176  34.204  33.445  1.00  0.00     0.029 A 
ATOM     42  N   UNL A   1      38.794  32.663  33.521  1.00  0.00    -0.354 N 
ATOM     43  C   UNL A   1      39.352  29.872  30.260  1.00  0.00     0.074 A 
ATOM     44  C   UNL A   1      38.397  30.112  29.201  1.00  0.00     0.031 C 
ATOM     45  C   UNL A   1      37.800  34.332  34.627  1.00  0.00     0.029 A 
ATOM     46  C   UNL A   1      38.852  33.325  34.723  1.00  0.00     0.049 A 
ATOM     47  H   UNL A   1      39.398  31.922  33.284  1.00  0.00     0.167 HD
ATOM     48  C   UNL A   1      40.299  28.905  30.229  1.00  0.00     0.037 A 
ATOM     49  C   UNL A   1      39.659  33.135  35.784  1.00  0.00     0.037 A 
ATOM     50  C   UNL A   1      41.268  28.692  31.271  1.00  0.00     0.049 A 
ATOM     51  C   UNL A   1      40.702  32.051  35.725  1.00  0.00     0.074 A 
ATOM     52  C   UNL A   1      42.318  27.791  31.302  1.00  0.00     0.029 A 
ATOM     53  N   UNL A   1      41.303  29.389  32.470  1.00  0.00    -0.354 N 
ATOM     54  N   UNL A   1      40.968  31.212  34.753  1.00  0.00    -0.248 NA
ATOM     55  C   UNL A   1      41.556  31.889  36.910  1.00  0.00     0.031 C 
ATOM     56  C   UNL A   1      42.958  27.910  32.541  1.00  0.00     0.029 A 
ATOM     57  C   UNL A   1      42.337  28.917  33.262  1.00  0.00     0.049 A 
ATOM     58  H   UNL A   1      40.682  30.112  32.722  1.00  0.00     0.167 HD
ATOM     59  C   UNL A   1      42.029  30.436  35.201  1.00  0.00     0.074 A 
ATOM     60  C   UNL A   1      42.373  30.920  36.521  1.00  0.00     0.031 C 
ATOM     61  C   UNL A   1      42.660  29.411  34.576  1.00  0.00     0.037 A 
BRANCH  48  62
ATOM     62  C   UNL A   1      40.339  28.008  29.025  1.00  0.00     0.064 A 
ATOM     63  C   UNL A   1      39.623  26.802  28.983  1.00  0.00     0.173 A 
ATOM     64  C   UNL A   1      41.076  28.372  27.889  1.00  0.00     0.173 A 
ATOM     65  F   UNL A   1      38.913  26.400  30.048  1.00  0.00    -0.203 F 
ATOM     66  C   UNL A   1      39.667  25.980  27.860  1.00  0.00     0.198 A 
ATOM     67  C   UNL A   1      41.094  27.564  26.756  1.00  0.00     0.198 A 
ATOM     68  F   UNL A   1      41.776  29.517  27.875  1.00  0.00    -0.203 F 
ATOM     69  F   UNL A   1      39.018  24.809  27.862  1.00  0.00    -0.200 F 
ATOM     70  C   UNL A   1      40.397  26.365  26.745  1.00  0.00     0.200 A 
ATOM     71  F   UNL A   1      41.788  27.943  25.674  1.00  0.00    -0.200 F 
ATOM     72  F   UNL A   1      40.433  25.576  25.661  1.00  0.00    -0.200 F 
ENDBRANCH  48  62
BRANCH  49  73
ATOM     73  C   UNL A   1      39.526  34.002  36.984  1.00  0.00     0.064 A 
ATOM     74  C   UNL A   1      38.781  33.583  38.096  1.00  0.00     0.173 A 
ATOM     75  C   UNL A   1      40.135  35.264  37.046  1.00  0.00     0.173 A 
ATOM     76  F   UNL A   1      38.165  32.393  38.078  1.00  0.00    -0.203 F 
ATOM     77  C   UNL A   1      38.635  34.401  39.215  1.00  0.00     0.198 A 
ATOM     78  C   UNL A   1      40.012  36.069  38.177  1.00  0.00     0.198 A 
ATOM     79  F   UNL A   1      40.868  35.707  36.013  1.00  0.00    -0.203 F 
ATOM     80  F   UNL A   1      37.882  33.993  40.246  1.00  0.00    -0.200 F 
ATOM     81  C   UNL A   1      39.255  35.641  39.257  1.00  0.00     0.200 A 
ATOM     82  F   UNL A   1      40.629  37.257  38.220  1.00  0.00    -0.200 F 
ATOM     83  F   UNL A   1      39.119  36.424  40.335  1.00  0.00    -0.200 F 
ENDBRANCH  49  73
BRANCH  61  84
ATOM     84  C   UNL A   1      43.792  28.753  35.310  1.00  0.00     0.064 A 
ATOM     85  C   UNL A   1      43.569  27.688  36.194  1.00  0.00     0.173 A 
ATOM     86  C   UNL A   1      45.116  29.166  35.097  1.00  0.00     0.173 A 
ATOM     87  F   UNL A   1      42.319  27.268  36.444  1.00  0.00    -0.203 F 
ATOM     88  C   UNL A   1      44.629  27.074  36.856  1.00  0.00     0.198 A 
ATOM     89  C   UNL A   1      46.175  28.530  35.737  1.00  0.00     0.198 A 
ATOM     90  F   UNL A   1      45.382  30.176  34.256  1.00  0.00    -0.203 F 
ATOM     91  F   UNL A   1      44.388  26.089  37.732  1.00  0.00    -0.200 F 
ATOM     92  C   UNL A   1      45.930  27.490  36.622  1.00  0.00     0.200 A 
ATOM     93  F   UNL A   1      47.433  28.924  35.498  1.00  0.00    -0.200 F 
ATOM     94  F   UNL A   1      46.950  26.893  37.254  1.00  0.00    -0.200 F 
ENDBRANCH  61  84
ENDBRANCH  35  36
ENDBRANCH  27  30
ENDBRANCH  25  26
ENDBRANCH  24  25
ENDBRANCH  23  24
ENDBRANCH   1  23
TORSDOF 15
ENDMDL
