MODEL 1
REMARK VINA RESULT:     -15.2      0.000      0.000
REMARK SMILES COc1ccc(/C=C2/C(=O)N(c3ccccc3)C(=O)[NH+]=C2NCCCCNC(=O)c2ccc(-c3c4nc(c(-c5c(F)c(F)c(F)c(F)c5F)c5ccc([nH]5)c(-c5c(F)c(F)c(F)c(F)c5F)c5nc(c(-c6c(F)c(F)c(F)c(F)c6F)c6ccc3[nH]6)C=C5)C=C4)cc2)cc1C(=O)[O-]
REMARK SMILES IDX 25 1 24 2 23 3 22 4 7 5 8 6 9 7 21 8 10 9 11 10 20 11 18 12
REMARK SMILES IDX 19 15 6 16 3 17 4 18 94 19 5 20 93 21 2 22 1 23 95 24 96 25
REMARK SMILES IDX 97 26 12 27 13 28 17 29 14 30 16 31 15 32 26 33 27 34 28 35
REMARK SMILES IDX 29 37 30 38 31 39 92 40 32 41 91 42 33 43 34 44 35 45 85 46
REMARK SMILES IDX 36 47 90 48 84 49 86 50 37 51 89 52 83 53 82 54 38 56 70 57
REMARK SMILES IDX 50 58 69 59 51 60 54 61 68 62 87 63 52 64 53 65 67 67 88 68
REMARK SMILES IDX 55 69 39 70 40 71 48 72 41 73 42 74 46 75 49 76 43 77 44 78
REMARK SMILES IDX 47 79 45 80 71 81 72 82 80 83 73 84 74 85 78 86 81 87 75 88
REMARK SMILES IDX 76 89 79 90 77 91 56 92 57 93 65 94 58 95 59 96 63 97 66 98
REMARK SMILES IDX 60 99 61 100 64 101 62 102
REMARK H PARENT 20 13 22 14 27 36 86 55 54 66
REMARK Flexibility Score: inf
ROOT
ATOM      1  C   UNL A   1      34.133  28.967  23.601  1.00  0.00     0.024 C 
ENDROOT
BRANCH   1   2
ATOM      2  C   UNL A   1      34.182  27.518  22.522  1.00  0.00     0.039 C 
BRANCH   2   3
ATOM      3  C   UNL A   1      33.799  25.377  22.774  1.00  0.00     0.194 C 
BRANCH   3   4
ATOM      4  N   UNL A   1      34.548  24.295  23.751  1.00  0.00    -0.305 N 
ATOM      5  C   UNL A   1      31.731  23.206  23.510  1.00  0.00     0.030 C 
ATOM      6  C   UNL A   1      32.820  22.456  23.721  1.00  0.00     0.129 C 
ATOM      7  C   UNL A   1      32.820  20.987  23.626  1.00  0.00     0.328 C 
ATOM      8  C   UNL A   1      34.090  23.064  24.181  1.00  0.00     0.236 C 
ATOM      9  O   UNL A   1      32.127  20.408  22.794  1.00  0.00    -0.249 OA
ATOM     10  N   UNL A   1      33.644  20.413  24.575  1.00  0.00    -0.155 N 
ATOM     11  N   UNL A   1      34.773  22.418  25.084  1.00  0.00    -0.209 N 
ATOM     12  C   UNL A   1      34.259  21.213  25.536  1.00  0.00     0.448 C 
ATOM     13  H   UNL A   1      35.622  22.774  25.433  1.00  0.00     0.270 HD
ATOM     14  H   UNL A   1      35.441  24.557  24.074  1.00  0.00     0.256 HD
ATOM     15  O   UNL A   1      34.327  20.900  26.721  1.00  0.00    -0.212 OA
BRANCH   5  16
ATOM     16  C   UNL A   1      31.946  24.649  23.437  1.00  0.00    -0.024 A 
ATOM     17  C   UNL A   1      30.783  28.017  23.938  1.00  0.00     0.127 A 
ATOM     18  C   UNL A   1      30.772  27.301  22.259  1.00  0.00     0.048 A 
ATOM     19  C   UNL A   1      31.269  27.022  25.334  1.00  0.00     0.040 A 
ATOM     20  C   UNL A   1      31.471  25.636  21.986  1.00  0.00     0.012 A 
ATOM     21  C   UNL A   1      31.906  25.385  25.074  1.00  0.00     0.022 A 
BRANCH  17  22
ATOM     22  O   UNL A   1      30.618  29.371  24.080  1.00  0.00    -0.496 OA
ATOM     23  C   UNL A   1      29.417  29.852  23.417  1.00  0.00     0.278 C 
ENDBRANCH  17  22
BRANCH  19  24
ATOM     24  C   UNL A   1      31.124  27.467  26.730  1.00  0.00     0.075 C 
ATOM     25  O   UNL A   1      31.630  28.470  27.191  1.00  0.00    -0.545 OA
ATOM     26  O   UNL A   1      30.375  26.633  27.461  1.00  0.00    -0.545 OA
ENDBRANCH  19  24
ENDBRANCH   5  16
BRANCH  10  27
ATOM     27  C   UNL A   1      33.619  19.009  24.725  1.00  0.00     0.111 A 
ATOM     28  C   UNL A   1      34.685  18.210  24.301  1.00  0.00     0.044 A 
ATOM     29  C   UNL A   1      32.512  18.428  25.354  1.00  0.00     0.044 A 
ATOM     30  C   UNL A   1      34.641  16.831  24.517  1.00  0.00     0.004 A 
ATOM     31  C   UNL A   1      32.463  17.048  25.548  1.00  0.00     0.004 A 
ATOM     32  C   UNL A   1      33.530  16.252  25.134  1.00  0.00     0.000 A 
ENDBRANCH  10  27
ENDBRANCH   3   4
ENDBRANCH   2   3
ENDBRANCH   1   2
BRANCH   1  33
ATOM     33  C   UNL A   1      34.175  29.128  25.164  1.00  0.00     0.116 C 
BRANCH  33  34
ATOM     34  N   UNL A   1      33.454  30.267  25.715  1.00  0.00    -0.352 N 
ATOM     35  C   UNL A   1      33.516  30.935  26.892  1.00  0.00     0.251 C 
ATOM     36  H   UNL A   1      32.776  30.628  25.100  1.00  0.00     0.163 HD
ATOM     37  O   UNL A   1      32.643  31.711  27.261  1.00  0.00    -0.269 OA
BRANCH  35  38
ATOM     38  C   UNL A   1      34.719  30.803  27.669  1.00  0.00     0.039 A 
ATOM     39  C   UNL A   1      35.637  31.847  27.694  1.00  0.00     0.014 A 
ATOM     40  C   UNL A   1      34.922  29.569  28.289  1.00  0.00     0.014 A 
ATOM     41  C   UNL A   1      36.807  31.655  28.397  1.00  0.00     0.010 A 
ATOM     42  C   UNL A   1      36.068  29.394  29.017  1.00  0.00     0.010 A 
ATOM     43  C   UNL A   1      37.008  30.433  29.055  1.00  0.00    -0.014 A 
BRANCH  43  44
ATOM     44  C   UNL A   1      38.241  30.179  29.792  1.00  0.00     0.031 A 
ATOM     45  C   UNL A   1      39.223  29.222  29.205  1.00  0.00     0.074 A 
ATOM     46  C   UNL A   1      38.339  30.715  31.017  1.00  0.00     0.049 A 
ATOM     47  N   UNL A   1      40.289  28.707  29.746  1.00  0.00    -0.248 NA
ATOM     48  C   UNL A   1      38.937  28.734  27.841  1.00  0.00     0.031 C 
ATOM     49  C   UNL A   1      37.340  31.593  31.637  1.00  0.00     0.029 A 
ATOM     50  N   UNL A   1      39.301  30.574  31.970  1.00  0.00    -0.354 N 
ATOM     51  C   UNL A   1      40.784  27.815  28.807  1.00  0.00     0.074 A 
ATOM     52  C   UNL A   1      39.881  27.818  27.680  1.00  0.00     0.031 C 
ATOM     53  C   UNL A   1      37.748  31.914  32.874  1.00  0.00     0.029 A 
ATOM     54  C   UNL A   1      39.013  31.240  33.133  1.00  0.00     0.049 A 
ATOM     55  H   UNL A   1      40.122  30.047  31.837  1.00  0.00     0.167 HD
ATOM     56  C   UNL A   1      41.914  27.079  28.896  1.00  0.00     0.037 A 
ATOM     57  C   UNL A   1      39.711  31.275  34.279  1.00  0.00     0.037 A 
ATOM     58  C   UNL A   1      42.788  27.151  30.034  1.00  0.00     0.049 A 
ATOM     59  C   UNL A   1      41.003  30.507  34.312  1.00  0.00     0.074 A 
ATOM     60  C   UNL A   1      44.004  26.530  30.237  1.00  0.00     0.029 A 
ATOM     61  N   UNL A   1      42.526  27.914  31.169  1.00  0.00    -0.354 N 
ATOM     62  N   UNL A   1      41.519  29.722  33.394  1.00  0.00    -0.248 NA
ATOM     63  C   UNL A   1      41.819  30.641  35.521  1.00  0.00     0.031 C 
ATOM     64  C   UNL A   1      44.463  26.894  31.508  1.00  0.00     0.029 A 
ATOM     65  C   UNL A   1      43.557  27.777  32.078  1.00  0.00     0.049 A 
ATOM     66  H   UNL A   1      41.725  28.470  31.303  1.00  0.00     0.167 HD
ATOM     67  C   UNL A   1      42.732  29.286  33.899  1.00  0.00     0.074 A 
ATOM     68  C   UNL A   1      42.881  29.916  35.199  1.00  0.00     0.031 C 
ATOM     69  C   UNL A   1      43.644  28.443  33.354  1.00  0.00     0.037 A 
BRANCH  56  70
ATOM     70  C   UNL A   1      42.255  26.171  27.753  1.00  0.00     0.064 A 
ATOM     71  C   UNL A   1      43.185  26.540  26.768  1.00  0.00     0.173 A 
ATOM     72  C   UNL A   1      41.666  24.902  27.650  1.00  0.00     0.173 A 
ATOM     73  F   UNL A   1      43.764  27.749  26.806  1.00  0.00    -0.203 F 
ATOM     74  C   UNL A   1      43.497  25.683  25.714  1.00  0.00     0.198 A 
ATOM     75  C   UNL A   1      42.002  24.035  26.611  1.00  0.00     0.198 A 
ATOM     76  F   UNL A   1      40.765  24.498  28.558  1.00  0.00    -0.203 F 
ATOM     77  F   UNL A   1      44.353  26.078  24.762  1.00  0.00    -0.200 F 
ATOM     78  C   UNL A   1      42.911  24.429  25.642  1.00  0.00     0.200 A 
ATOM     79  F   UNL A   1      41.440  22.820  26.547  1.00  0.00    -0.200 F 
ATOM     80  F   UNL A   1      43.221  23.600  24.634  1.00  0.00    -0.200 F 
ENDBRANCH  56  70
BRANCH  57  81
ATOM     81  C   UNL A   1      39.232  32.087  35.424  1.00  0.00     0.064 A 
ATOM     82  C   UNL A   1      38.457  31.509  36.438  1.00  0.00     0.173 A 
ATOM     83  C   UNL A   1      39.561  33.445  35.552  1.00  0.00     0.173 A 
ATOM     84  F   UNL A   1      38.119  30.213  36.365  1.00  0.00    -0.203 F 
ATOM     85  C   UNL A   1      37.998  32.263  37.516  1.00  0.00     0.198 A 
ATOM     86  C   UNL A   1      39.128  34.192  36.645  1.00  0.00     0.198 A 
ATOM     87  F   UNL A   1      40.326  34.041  34.625  1.00  0.00    -0.203 F 
ATOM     88  F   UNL A   1      37.221  31.694  38.447  1.00  0.00    -0.200 F 
ATOM     89  C   UNL A   1      38.336  33.604  37.621  1.00  0.00     0.200 A 
ATOM     90  F   UNL A   1      39.478  35.481  36.756  1.00  0.00    -0.200 F 
ATOM     91  F   UNL A   1      37.899  34.328  38.660  1.00  0.00    -0.200 F 
ENDBRANCH  57  81
BRANCH  69  92
ATOM     92  C   UNL A   1      44.880  28.193  34.160  1.00  0.00     0.064 A 
ATOM     93  C   UNL A   1      44.958  27.124  35.062  1.00  0.00     0.173 A 
ATOM     94  C   UNL A   1      46.008  29.008  33.991  1.00  0.00     0.173 A 
ATOM     95  F   UNL A   1      43.895  26.331  35.265  1.00  0.00    -0.203 F 
ATOM     96  C   UNL A   1      46.120  26.896  35.790  1.00  0.00     0.198 A 
ATOM     97  C   UNL A   1      47.178  28.756  34.695  1.00  0.00     0.198 A 
ATOM     98  F   UNL A   1      45.976  30.037  33.129  1.00  0.00    -0.203 F 
ATOM     99  F   UNL A   1      46.160  25.900  36.686  1.00  0.00    -0.200 F 
ATOM    100  C   UNL A   1      47.230  27.705  35.600  1.00  0.00     0.200 A 
ATOM    101  F   UNL A   1      48.255  29.528  34.499  1.00  0.00    -0.200 F 
ATOM    102  F   UNL A   1      48.351  27.477  36.296  1.00  0.00    -0.200 F 
ENDBRANCH  69  92
ENDBRANCH  43  44
ENDBRANCH  35  38
ENDBRANCH  33  34
ENDBRANCH   1  33
TORSDOF 14
ENDMDL
MODEL 2
REMARK VINA RESULT:     -15.0      2.179      3.339
REMARK SMILES COc1ccc(/C=C2/C(=O)N(c3ccccc3)C(=O)[NH+]=C2NCCCCNC(=O)c2ccc(-c3c4nc(c(-c5c(F)c(F)c(F)c(F)c5F)c5ccc([nH]5)c(-c5c(F)c(F)c(F)c(F)c5F)c5nc(c(-c6c(F)c(F)c(F)c(F)c6F)c6ccc3[nH]6)C=C5)C=C4)cc2)cc1C(=O)[O-]
REMARK SMILES IDX 25 1 24 2 23 3 22 4 7 5 8 6 9 7 21 8 10 9 11 10 20 11 18 12
REMARK SMILES IDX 19 15 6 16 3 17 4 18 94 19 5 20 93 21 2 22 1 23 95 24 96 25
REMARK SMILES IDX 97 26 12 27 13 28 17 29 14 30 16 31 15 32 26 33 27 34 28 35
REMARK SMILES IDX 29 37 30 38 31 39 92 40 32 41 91 42 33 43 34 44 35 45 85 46
REMARK SMILES IDX 36 47 90 48 84 49 86 50 37 51 89 52 83 53 82 54 38 56 70 57
REMARK SMILES IDX 50 58 69 59 51 60 54 61 68 62 87 63 52 64 53 65 67 67 88 68
REMARK SMILES IDX 55 69 39 70 40 71 48 72 41 73 42 74 46 75 49 76 43 77 44 78
REMARK SMILES IDX 47 79 45 80 71 81 72 82 80 83 73 84 74 85 78 86 81 87 75 88
REMARK SMILES IDX 76 89 79 90 77 91 56 92 57 93 65 94 58 95 59 96 63 97 66 98
REMARK SMILES IDX 60 99 61 100 64 101 62 102
REMARK H PARENT 20 13 22 14 27 36 86 55 54 66
REMARK Flexibility Score: inf
ROOT
ATOM      1  C   UNL A   1      31.404  31.914  26.607  1.00  0.00     0.024 C 
ENDROOT
BRANCH   1   2
ATOM      2  C   UNL A   1      31.208  30.722  25.261  1.00  0.00     0.039 C 
BRANCH   2   3
ATOM      3  C   UNL A   1      31.980  28.718  24.833  1.00  0.00     0.194 C 
BRANCH   3   4
ATOM      4  N   UNL A   1      32.154  27.435  25.838  1.00  0.00    -0.305 N 
ATOM      5  C   UNL A   1      32.139  26.183  23.078  1.00  0.00     0.030 C 
ATOM      6  C   UNL A   1      32.773  25.672  24.141  1.00  0.00     0.129 C 
ATOM      7  C   UNL A   1      33.740  24.565  24.049  1.00  0.00     0.328 C 
ATOM      8  C   UNL A   1      32.452  26.124  25.514  1.00  0.00     0.236 C 
ATOM      9  O   UNL A   1      34.491  24.461  23.084  1.00  0.00    -0.249 OA
ATOM     10  N   UNL A   1      33.646  23.715  25.135  1.00  0.00    -0.155 N 
ATOM     11  N   UNL A   1      32.393  25.217  26.447  1.00  0.00    -0.209 N 
ATOM     12  C   UNL A   1      32.642  23.904  26.081  1.00  0.00     0.448 C 
ATOM     13  H   UNL A   1      32.178  25.455  27.379  1.00  0.00     0.270 HD
ATOM     14  H   UNL A   1      32.028  27.622  26.797  1.00  0.00     0.256 HD
ATOM     15  O   UNL A   1      31.987  22.979  26.553  1.00  0.00    -0.212 OA
BRANCH   5  16
ATOM     16  C   UNL A   1      31.377  27.408  23.310  1.00  0.00    -0.024 A 
ATOM     17  C   UNL A   1      28.628  29.584  22.500  1.00  0.00     0.127 A 
ATOM     18  C   UNL A   1      30.306  29.994  21.910  1.00  0.00     0.048 A 
ATOM     19  C   UNL A   1      28.334  28.064  23.383  1.00  0.00     0.040 A 
ATOM     20  C   UNL A   1      31.718  28.955  22.419  1.00  0.00     0.012 A 
ATOM     21  C   UNL A   1      29.704  27.028  23.838  1.00  0.00     0.022 A 
BRANCH  17  22
ATOM     22  O   UNL A   1      27.652  30.546  22.441  1.00  0.00    -0.496 OA
ATOM     23  C   UNL A   1      27.704  31.453  23.576  1.00  0.00     0.278 C 
ENDBRANCH  17  22
BRANCH  19  24
ATOM     24  C   UNL A   1      26.988  27.577  23.723  1.00  0.00     0.075 C 
ATOM     25  O   UNL A   1      25.962  28.203  23.548  1.00  0.00    -0.545 OA
ATOM     26  O   UNL A   1      27.005  26.355  24.269  1.00  0.00    -0.545 OA
ENDBRANCH  19  24
ENDBRANCH   5  16
BRANCH  10  27
ATOM     27  C   UNL A   1      34.386  22.512  25.110  1.00  0.00     0.111 A 
ATOM     28  C   UNL A   1      33.811  21.309  24.692  1.00  0.00     0.044 A 
ATOM     29  C   UNL A   1      35.737  22.556  25.475  1.00  0.00     0.044 A 
ATOM     30  C   UNL A   1      34.594  20.154  24.633  1.00  0.00     0.004 A 
ATOM     31  C   UNL A   1      36.509  21.395  25.435  1.00  0.00     0.004 A 
ATOM     32  C   UNL A   1      35.939  20.197  25.009  1.00  0.00     0.000 A 
ENDBRANCH  10  27
ENDBRANCH   3   4
ENDBRANCH   2   3
ENDBRANCH   1   2
BRANCH   1  33
ATOM     33  C   UNL A   1      32.669  32.588  27.250  1.00  0.00     0.116 C 
BRANCH  33  34
ATOM     34  N   UNL A   1      32.528  33.984  27.640  1.00  0.00    -0.352 N 
ATOM     35  C   UNL A   1      33.047  34.735  28.642  1.00  0.00     0.251 C 
ATOM     36  H   UNL A   1      31.927  34.490  27.048  1.00  0.00     0.163 HD
ATOM     37  O   UNL A   1      32.601  35.834  28.945  1.00  0.00    -0.269 OA
BRANCH  35  38
ATOM     38  C   UNL A   1      34.240  34.254  29.284  1.00  0.00     0.039 A 
ATOM     39  C   UNL A   1      35.483  34.582  28.753  1.00  0.00     0.014 A 
ATOM     40  C   UNL A   1      34.055  33.398  30.371  1.00  0.00     0.014 A 
ATOM     41  C   UNL A   1      36.600  34.048  29.359  1.00  0.00     0.010 A 
ATOM     42  C   UNL A   1      35.168  32.898  30.993  1.00  0.00     0.010 A 
ATOM     43  C   UNL A   1      36.431  33.215  30.475  1.00  0.00    -0.014 A 
BRANCH  43  44
ATOM     44  C   UNL A   1      37.584  32.611  31.133  1.00  0.00     0.031 A 
ATOM     45  C   UNL A   1      38.255  31.465  30.455  1.00  0.00     0.074 A 
ATOM     46  C   UNL A   1      37.870  33.036  32.372  1.00  0.00     0.049 A 
ATOM     47  N   UNL A   1      39.171  30.663  30.915  1.00  0.00    -0.248 NA
ATOM     48  C   UNL A   1      37.796  31.143  29.089  1.00  0.00     0.031 C 
ATOM     49  C   UNL A   1      37.162  34.108  33.082  1.00  0.00     0.029 A 
ATOM     50  N   UNL A   1      38.800  32.599  33.265  1.00  0.00    -0.354 N 
ATOM     51  C   UNL A   1      39.376  29.724  29.915  1.00  0.00     0.074 A 
ATOM     52  C   UNL A   1      38.459  30.023  28.840  1.00  0.00     0.031 C 
ATOM     53  C   UNL A   1      37.692  34.245  34.306  1.00  0.00     0.029 A 
ATOM     54  C   UNL A   1      38.745  33.253  34.469  1.00  0.00     0.049 A 
ATOM     55  H   UNL A   1      39.448  31.885  33.066  1.00  0.00     0.167 HD
ATOM     56  C   UNL A   1      40.276  28.717  29.911  1.00  0.00     0.037 A 
ATOM     57  C   UNL A   1      39.476  33.043  35.576  1.00  0.00     0.037 A 
ATOM     58  C   UNL A   1      41.185  28.498  31.003  1.00  0.00     0.049 A 
ATOM     59  C   UNL A   1      40.521  31.965  35.507  1.00  0.00     0.074 A 
ATOM     60  C   UNL A   1      42.203  27.572  31.113  1.00  0.00     0.029 A 
ATOM     61  N   UNL A   1      41.179  29.240  32.180  1.00  0.00    -0.354 N 
ATOM     62  N   UNL A   1      40.775  31.124  34.530  1.00  0.00    -0.248 NA
ATOM     63  C   UNL A   1      41.393  31.817  36.674  1.00  0.00     0.031 C 
ATOM     64  C   UNL A   1      42.794  27.735  32.371  1.00  0.00     0.029 A 
ATOM     65  C   UNL A   1      42.175  28.791  33.026  1.00  0.00     0.049 A 
ATOM     66  H   UNL A   1      40.558  29.977  32.381  1.00  0.00     0.167 HD
ATOM     67  C   UNL A   1      41.851  30.361  34.950  1.00  0.00     0.074 A 
ATOM     68  C   UNL A   1      42.214  30.860  36.265  1.00  0.00     0.031 C 
ATOM     69  C   UNL A   1      42.487  29.342  34.322  1.00  0.00     0.037 A 
BRANCH  56  70
ATOM     70  C   UNL A   1      40.320  27.814  28.715  1.00  0.00     0.064 A 
ATOM     71  C   UNL A   1      41.059  28.143  27.567  1.00  0.00     0.173 A 
ATOM     72  C   UNL A   1      39.635  26.590  28.720  1.00  0.00     0.173 A 
ATOM     73  F   UNL A   1      41.716  29.311  27.500  1.00  0.00    -0.203 F 
ATOM     74  C   UNL A   1      41.095  27.292  26.465  1.00  0.00     0.198 A 
ATOM     75  C   UNL A   1      39.697  25.727  27.628  1.00  0.00     0.198 A 
ATOM     76  F   UNL A   1      38.906  26.226  29.786  1.00  0.00    -0.203 F 
ATOM     77  F   UNL A   1      41.770  27.651  25.365  1.00  0.00    -0.200 F 
ATOM     78  C   UNL A   1      40.420  26.081  26.500  1.00  0.00     0.200 A 
ATOM     79  F   UNL A   1      39.050  24.553  27.666  1.00  0.00    -0.200 F 
ATOM     80  F   UNL A   1      40.465  25.257  25.443  1.00  0.00    -0.200 F 
ENDBRANCH  56  70
BRANCH  57  81
ATOM     81  C   UNL A   1      39.273  33.888  36.778  1.00  0.00     0.064 A 
ATOM     82  C   UNL A   1      38.535  33.416  37.870  1.00  0.00     0.173 A 
ATOM     83  C   UNL A   1      39.837  35.169  36.879  1.00  0.00     0.173 A 
ATOM     84  F   UNL A   1      37.980  32.195  37.824  1.00  0.00    -0.203 F 
ATOM     85  C   UNL A   1      38.336  34.203  39.002  1.00  0.00     0.198 A 
ATOM     86  C   UNL A   1      39.663  35.945  38.023  1.00  0.00     0.198 A 
ATOM     87  F   UNL A   1      40.578  35.659  35.874  1.00  0.00    -0.203 F 
ATOM     88  F   UNL A   1      37.587  33.742  40.013  1.00  0.00    -0.200 F 
ATOM     89  C   UNL A   1      38.903  35.466  39.080  1.00  0.00     0.200 A 
ATOM     90  F   UNL A   1      40.234  37.154  38.105  1.00  0.00    -0.200 F 
ATOM     91  F   UNL A   1      38.716  36.221  40.171  1.00  0.00    -0.200 F 
ENDBRANCH  57  81
BRANCH  69  92
ATOM     92  C   UNL A   1      43.647  28.736  35.048  1.00  0.00     0.064 A 
ATOM     93  C   UNL A   1      44.942  29.253  34.914  1.00  0.00     0.173 A 
ATOM     94  C   UNL A   1      43.445  27.656  35.919  1.00  0.00     0.173 A 
ATOM     95  F   UNL A   1      45.179  30.275  34.078  1.00  0.00    -0.203 F 
ATOM     96  C   UNL A   1      46.005  28.689  35.609  1.00  0.00     0.198 A 
ATOM     97  C   UNL A   1      44.505  27.117  36.638  1.00  0.00     0.198 A 
ATOM     98  F   UNL A   1      42.218  27.138  36.083  1.00  0.00    -0.203 F 
ATOM     99  F   UNL A   1      47.245  29.163  35.430  1.00  0.00    -0.200 F 
ATOM    100  C   UNL A   1      45.784  27.629  36.477  1.00  0.00     0.200 A 
ATOM    101  F   UNL A   1      44.288  26.104  37.488  1.00  0.00    -0.200 F 
ATOM    102  F   UNL A   1      46.809  27.093  37.152  1.00  0.00    -0.200 F 
ENDBRANCH  69  92
ENDBRANCH  43  44
ENDBRANCH  35  38
ENDBRANCH  33  34
ENDBRANCH   1  33
TORSDOF 14
ENDMDL
MODEL 3
REMARK VINA RESULT:     -14.7      2.045      7.618
REMARK SMILES COc1ccc(/C=C2/C(=O)N(c3ccccc3)C(=O)[NH+]=C2NCCCCNC(=O)c2ccc(-c3c4nc(c(-c5c(F)c(F)c(F)c(F)c5F)c5ccc([nH]5)c(-c5c(F)c(F)c(F)c(F)c5F)c5nc(c(-c6c(F)c(F)c(F)c(F)c6F)c6ccc3[nH]6)C=C5)C=C4)cc2)cc1C(=O)[O-]
REMARK SMILES IDX 25 1 24 2 23 3 22 4 7 5 8 6 9 7 21 8 10 9 11 10 20 11 18 12
REMARK SMILES IDX 19 15 6 16 3 17 4 18 94 19 5 20 93 21 2 22 1 23 95 24 96 25
REMARK SMILES IDX 97 26 12 27 13 28 17 29 14 30 16 31 15 32 26 33 27 34 28 35
REMARK SMILES IDX 29 37 30 38 31 39 92 40 32 41 91 42 33 43 34 44 35 45 85 46
REMARK SMILES IDX 36 47 90 48 84 49 86 50 37 51 89 52 83 53 82 54 38 56 70 57
REMARK SMILES IDX 50 58 69 59 51 60 54 61 68 62 87 63 52 64 53 65 67 67 88 68
REMARK SMILES IDX 55 69 39 70 40 71 48 72 41 73 42 74 46 75 49 76 43 77 44 78
REMARK SMILES IDX 47 79 45 80 71 81 72 82 80 83 73 84 74 85 78 86 81 87 75 88
REMARK SMILES IDX 76 89 79 90 77 91 56 92 57 93 65 94 58 95 59 96 63 97 66 98
REMARK SMILES IDX 60 99 61 100 64 101 62 102
REMARK H PARENT 20 13 22 14 27 36 86 55 54 66
REMARK Flexibility Score: inf
ROOT
ATOM      1  C   UNL A   1      31.367  32.026  26.429  1.00  0.00     0.024 C 
ENDROOT
BRANCH   1   2
ATOM      2  C   UNL A   1      31.099  30.706  25.223  1.00  0.00     0.039 C 
BRANCH   2   3
ATOM      3  C   UNL A   1      32.019  28.761  24.815  1.00  0.00     0.194 C 
BRANCH   3   4
ATOM      4  N   UNL A   1      32.177  27.459  25.798  1.00  0.00    -0.305 N 
ATOM      5  C   UNL A   1      32.207  26.259  23.016  1.00  0.00     0.030 C 
ATOM      6  C   UNL A   1      32.824  25.729  24.079  1.00  0.00     0.129 C 
ATOM      7  C   UNL A   1      33.793  24.623  23.983  1.00  0.00     0.328 C 
ATOM      8  C   UNL A   1      32.480  26.155  25.455  1.00  0.00     0.236 C 
ATOM      9  O   UNL A   1      34.559  24.537  23.028  1.00  0.00    -0.249 OA
ATOM     10  N   UNL A   1      33.681  23.752  25.050  1.00  0.00    -0.155 N 
ATOM     11  N   UNL A   1      32.406  25.230  26.370  1.00  0.00    -0.209 N 
ATOM     12  C   UNL A   1      32.661  23.924  25.983  1.00  0.00     0.448 C 
ATOM     13  H   UNL A   1      32.177  25.451  27.302  1.00  0.00     0.270 HD
ATOM     14  H   UNL A   1      32.036  27.628  26.758  1.00  0.00     0.256 HD
ATOM     15  O   UNL A   1      31.999  22.991  26.428  1.00  0.00    -0.212 OA
BRANCH   5  16
ATOM     16  C   UNL A   1      31.441  27.479  23.258  1.00  0.00    -0.024 A 
ATOM     17  C   UNL A   1      28.673  29.643  22.481  1.00  0.00     0.127 A 
ATOM     18  C   UNL A   1      30.343  30.063  21.875  1.00  0.00     0.048 A 
ATOM     19  C   UNL A   1      28.396  28.120  23.364  1.00  0.00     0.040 A 
ATOM     20  C   UNL A   1      31.766  29.031  22.367  1.00  0.00     0.012 A 
ATOM     21  C   UNL A   1      29.775  27.090  23.803  1.00  0.00     0.022 A 
BRANCH  17  22
ATOM     22  O   UNL A   1      27.692  30.601  22.434  1.00  0.00    -0.496 OA
ATOM     23  C   UNL A   1      27.789  31.543  23.537  1.00  0.00     0.278 C 
ENDBRANCH  17  22
BRANCH  19  24
ATOM     24  C   UNL A   1      27.056  27.625  23.716  1.00  0.00     0.075 C 
ATOM     25  O   UNL A   1      26.024  28.244  23.548  1.00  0.00    -0.545 OA
ATOM     26  O   UNL A   1      27.085  26.405  24.266  1.00  0.00    -0.545 OA
ENDBRANCH  19  24
ENDBRANCH   5  16
BRANCH  10  27
ATOM     27  C   UNL A   1      34.422  22.550  25.015  1.00  0.00     0.111 A 
ATOM     28  C   UNL A   1      35.754  22.500  25.435  1.00  0.00     0.044 A 
ATOM     29  C   UNL A   1      33.776  21.385  24.586  1.00  0.00     0.044 A 
ATOM     30  C   UNL A   1      36.432  21.280  25.432  1.00  0.00     0.004 A 
ATOM     31  C   UNL A   1      34.465  20.172  24.564  1.00  0.00     0.004 A 
ATOM     32  C   UNL A   1      35.790  20.120  24.993  1.00  0.00     0.000 A 
ENDBRANCH  10  27
ENDBRANCH   3   4
ENDBRANCH   2   3
ENDBRANCH   1   2
BRANCH   1  33
ATOM     33  C   UNL A   1      32.650  32.526  27.186  1.00  0.00     0.116 C 
BRANCH  33  34
ATOM     34  N   UNL A   1      32.646  33.919  27.610  1.00  0.00    -0.352 N 
ATOM     35  C   UNL A   1      33.223  34.588  28.638  1.00  0.00     0.251 C 
ATOM     36  H   UNL A   1      32.109  34.499  27.024  1.00  0.00     0.163 HD
ATOM     37  O   UNL A   1      32.887  35.720  28.964  1.00  0.00    -0.269 OA
BRANCH  35  38
ATOM     38  C   UNL A   1      34.351  33.972  29.282  1.00  0.00     0.039 A 
ATOM     39  C   UNL A   1      35.639  34.314  28.883  1.00  0.00     0.014 A 
ATOM     40  C   UNL A   1      34.062  32.985  30.225  1.00  0.00     0.014 A 
ATOM     41  C   UNL A   1      36.692  33.654  29.479  1.00  0.00     0.010 A 
ATOM     42  C   UNL A   1      35.110  32.356  30.842  1.00  0.00     0.010 A 
ATOM     43  C   UNL A   1      36.416  32.685  30.456  1.00  0.00    -0.014 A 
BRANCH  43  44
ATOM     44  C   UNL A   1      37.499  31.946  31.096  1.00  0.00     0.031 A 
ATOM     45  C   UNL A   1      37.932  32.378  32.456  1.00  0.00     0.074 A 
ATOM     46  C   UNL A   1      38.127  31.022  30.355  1.00  0.00     0.049 A 
ATOM     47  N   UNL A   1      38.970  32.001  33.144  1.00  0.00    -0.248 NA
ATOM     48  C   UNL A   1      37.114  33.418  33.111  1.00  0.00     0.031 C 
ATOM     49  C   UNL A   1      37.760  30.646  28.984  1.00  0.00     0.029 A 
ATOM     50  N   UNL A   1      39.220  30.258  30.632  1.00  0.00    -0.354 N 
ATOM     51  C   UNL A   1      38.951  32.775  34.295  1.00  0.00     0.074 A 
ATOM     52  C   UNL A   1      37.828  33.677  34.197  1.00  0.00     0.031 C 
ATOM     53  C   UNL A   1      38.619  29.716  28.542  1.00  0.00     0.029 A 
ATOM     54  C   UNL A   1      39.604  29.462  29.584  1.00  0.00     0.049 A 
ATOM     55  H   UNL A   1      39.687  30.276  31.498  1.00  0.00     0.167 HD
ATOM     56  C   UNL A   1      39.803  32.704  35.341  1.00  0.00     0.037 A 
ATOM     57  C   UNL A   1      40.655  28.631  29.499  1.00  0.00     0.037 A 
ATOM     58  C   UNL A   1      40.881  31.754  35.389  1.00  0.00     0.049 A 
ATOM     59  C   UNL A   1      41.535  28.521  30.712  1.00  0.00     0.074 A 
ATOM     60  C   UNL A   1      41.777  31.508  36.409  1.00  0.00     0.029 A 
ATOM     61  N   UNL A   1      41.195  30.882  34.351  1.00  0.00    -0.354 N 
ATOM     62  N   UNL A   1      41.474  29.194  31.839  1.00  0.00    -0.248 NA
ATOM     63  C   UNL A   1      42.611  27.529  30.658  1.00  0.00     0.031 C 
ATOM     64  C   UNL A   1      42.653  30.505  35.976  1.00  0.00     0.029 A 
ATOM     65  C   UNL A   1      42.275  30.096  34.705  1.00  0.00     0.049 A 
ATOM     66  H   UNL A   1      40.718  30.831  33.491  1.00  0.00     0.167 HD
ATOM     67  C   UNL A   1      42.486  28.692  32.641  1.00  0.00     0.074 A 
ATOM     68  C   UNL A   1      43.129  27.641  31.873  1.00  0.00     0.031 C 
ATOM     69  C   UNL A   1      42.860  29.059  33.892  1.00  0.00     0.037 A 
BRANCH  56  70
ATOM     70  C   UNL A   1      39.593  33.648  36.486  1.00  0.00     0.064 A 
ATOM     71  C   UNL A   1      40.170  34.928  36.505  1.00  0.00     0.173 A 
ATOM     72  C   UNL A   1      38.785  33.282  37.573  1.00  0.00     0.173 A 
ATOM     73  F   UNL A   1      40.969  35.323  35.502  1.00  0.00    -0.203 F 
ATOM     74  C   UNL A   1      39.963  35.797  37.574  1.00  0.00     0.198 A 
ATOM     75  C   UNL A   1      38.554  34.164  38.627  1.00  0.00     0.198 A 
ATOM     76  F   UNL A   1      38.214  32.069  37.614  1.00  0.00    -0.203 F 
ATOM     77  F   UNL A   1      40.562  36.995  37.588  1.00  0.00    -0.200 F 
ATOM     78  C   UNL A   1      39.148  35.417  38.630  1.00  0.00     0.200 A 
ATOM     79  F   UNL A   1      37.761  33.798  39.643  1.00  0.00    -0.200 F 
ATOM     80  F   UNL A   1      38.939  36.258  39.653  1.00  0.00    -0.200 F 
ENDBRANCH  56  70
BRANCH  57  81
ATOM     81  C   UNL A   1      40.881  27.833  28.270  1.00  0.00     0.064 A 
ATOM     82  C   UNL A   1      40.322  26.556  28.131  1.00  0.00     0.173 A 
ATOM     83  C   UNL A   1      41.629  28.335  27.194  1.00  0.00     0.173 A 
ATOM     84  F   UNL A   1      39.594  26.033  29.130  1.00  0.00    -0.203 F 
ATOM     85  C   UNL A   1      40.530  25.796  26.982  1.00  0.00     0.198 A 
ATOM     86  C   UNL A   1      41.813  27.588  26.032  1.00  0.00     0.198 A 
ATOM     87  F   UNL A   1      42.162  29.564  27.262  1.00  0.00    -0.203 F 
ATOM     88  F   UNL A   1      40.021  24.560  26.897  1.00  0.00    -0.200 F 
ATOM     89  C   UNL A   1      41.274  26.313  25.932  1.00  0.00     0.200 A 
ATOM     90  F   UNL A   1      42.510  28.101  25.010  1.00  0.00    -0.200 F 
ATOM     91  F   UNL A   1      41.471  25.585  24.825  1.00  0.00    -0.200 F 
ENDBRANCH  57  81
BRANCH  69  92
ATOM     92  C   UNL A   1      43.993  28.290  34.496  1.00  0.00     0.064 A 
ATOM     93  C   UNL A   1      45.317  28.730  34.377  1.00  0.00     0.173 A 
ATOM     94  C   UNL A   1      43.739  27.127  35.236  1.00  0.00     0.173 A 
ATOM     95  F   UNL A   1      45.604  29.829  33.662  1.00  0.00    -0.203 F 
ATOM     96  C   UNL A   1      46.357  28.013  34.959  1.00  0.00     0.198 A 
ATOM     97  C   UNL A   1      44.777  26.433  35.845  1.00  0.00     0.198 A 
ATOM     98  F   UNL A   1      42.483  26.678  35.382  1.00  0.00    -0.203 F 
ATOM     99  F   UNL A   1      47.623  28.420  34.791  1.00  0.00    -0.200 F 
ATOM    100  C   UNL A   1      46.085  26.871  35.699  1.00  0.00     0.200 A 
ATOM    101  F   UNL A   1      44.512  25.340  36.573  1.00  0.00    -0.200 F 
ATOM    102  F   UNL A   1      47.087  26.188  36.266  1.00  0.00    -0.200 F 
ENDBRANCH  69  92
ENDBRANCH  43  44
ENDBRANCH  35  38
ENDBRANCH  33  34
ENDBRANCH   1  33
TORSDOF 14
ENDMDL
