MODEL 1
REMARK VINA RESULT:     -12.0      0.000      0.000
REMARK SMILES CC[C@H](NC(=O)c1ccc(C)nc1)C(=O)NCCCCNC(=O)c1ccc(-c2c3nc(c(-c4c(F)c(F)c(F)c(F)c4F)c4ccc([nH]4)c(-c4c(F)c(F)c(F)c(F)c4F)c4nc(c(-c5c(F)c(F)c(F)c(F)c5F)c5ccc2[nH]5)C=C4)C=C3)cc1
REMARK SMILES IDX 18 1 17 2 16 3 14 4 15 5 3 7 2 8 1 9 4 10 5 11 6 13 7 14
REMARK SMILES IDX 8 15 13 16 9 17 12 18 10 19 11 20 19 21 20 22 21 23 22 24
REMARK SMILES IDX 23 26 24 27 25 28 86 29 26 30 85 31 27 32 28 33 29 34 79 35
REMARK SMILES IDX 30 36 84 37 78 38 80 39 31 40 83 41 77 42 76 43 32 45 64 46
REMARK SMILES IDX 44 47 63 48 45 49 48 50 62 51 81 52 46 53 47 54 61 56 82 57
REMARK SMILES IDX 49 58 33 59 34 60 42 61 35 62 36 63 40 64 43 65 37 66 38 67
REMARK SMILES IDX 41 68 39 69 65 70 66 71 74 72 67 73 68 74 72 75 75 76 69 77
REMARK SMILES IDX 70 78 73 79 71 80 50 81 51 82 59 83 52 84 53 85 57 86 60 87
REMARK SMILES IDX 54 88 55 89 58 90 56 91
REMARK H PARENT 16 6 4 12 21 25 80 44 48 55
REMARK Flexibility Score: inf
ROOT
ATOM      1  C   UNL A   1      32.123  30.390  26.831  1.00  0.00     0.023 C 
ENDROOT
BRANCH   1   2
ATOM      2  C   UNL A   1      31.801  29.764  25.478  1.00  0.00     0.116 C 
BRANCH   2   3
ATOM      3  N   UNL A   1      32.974  29.631  24.634  1.00  0.00    -0.354 N 
ATOM      4  C   UNL A   1      33.531  28.535  24.041  1.00  0.00     0.242 C 
ATOM      5  O   UNL A   1      34.475  28.732  23.269  1.00  0.00    -0.273 OA
ATOM      6  H   UNL A   1      33.449  30.475  24.459  1.00  0.00     0.163 HD
BRANCH   4   7
ATOM      7  C   UNL A   1      32.950  27.115  24.220  1.00  0.00     0.171 C 
BRANCH   7   8
ATOM      8  C   UNL A   1      33.945  26.235  24.993  1.00  0.00     0.032 C 
ATOM      9  C   UNL A   1      34.168  24.879  24.342  1.00  0.00     0.006 C 
ENDBRANCH   7   8
BRANCH   7  10
ATOM     10  N   UNL A   1      32.568  26.545  22.928  1.00  0.00    -0.340 N 
ATOM     11  C   UNL A   1      31.517  26.823  22.096  1.00  0.00     0.253 C 
ATOM     12  H   UNL A   1      33.170  25.837  22.601  1.00  0.00     0.164 HD
ATOM     13  O   UNL A   1      31.432  26.200  21.038  1.00  0.00    -0.269 OA
BRANCH  11  14
ATOM     14  C   UNL A   1      30.450  27.776  22.450  1.00  0.00     0.058 A 
ATOM     15  C   UNL A   1      29.323  27.469  23.206  1.00  0.00     0.017 A 
ATOM     16  C   UNL A   1      30.615  29.096  22.049  1.00  0.00     0.125 A 
ATOM     17  C   UNL A   1      28.386  28.470  23.477  1.00  0.00     0.024 A 
ATOM     18  N   UNL A   1      29.720  30.086  22.296  1.00  0.00    -0.261 NA
ATOM     19  C   UNL A   1      28.610  29.758  22.998  1.00  0.00     0.037 A 
ATOM     20  C   UNL A   1      27.641  30.868  23.273  1.00  0.00     0.066 C 
ENDBRANCH  11  14
ENDBRANCH   7  10
ENDBRANCH   4   7
ENDBRANCH   2   3
ENDBRANCH   1   2
BRANCH   1  21
ATOM     21  C   UNL A   1      31.770  31.873  26.954  1.00  0.00     0.023 C 
BRANCH  21  22
ATOM     22  C   UNL A   1      32.918  32.790  27.360  1.00  0.00     0.116 C 
BRANCH  22  23
ATOM     23  N   UNL A   1      32.497  34.146  27.678  1.00  0.00    -0.352 N 
ATOM     24  C   UNL A   1      33.018  35.004  28.618  1.00  0.00     0.251 C 
ATOM     25  H   UNL A   1      31.741  34.495  27.152  1.00  0.00     0.163 HD
ATOM     26  O   UNL A   1      32.496  36.091  28.835  1.00  0.00    -0.269 OA
BRANCH  24  27
ATOM     27  C   UNL A   1      34.200  34.581  29.397  1.00  0.00     0.039 A 
ATOM     28  C   UNL A   1      34.012  33.996  30.652  1.00  0.00     0.014 A 
ATOM     29  C   UNL A   1      35.481  34.713  28.858  1.00  0.00     0.014 A 
ATOM     30  C   UNL A   1      35.109  33.470  31.339  1.00  0.00     0.010 A 
ATOM     31  C   UNL A   1      36.561  34.131  29.512  1.00  0.00     0.010 A 
ATOM     32  C   UNL A   1      36.384  33.499  30.754  1.00  0.00    -0.014 A 
BRANCH  32  33
ATOM     33  C   UNL A   1      37.565  32.887  31.413  1.00  0.00     0.031 A 
ATOM     34  C   UNL A   1      38.262  31.733  30.753  1.00  0.00     0.074 A 
ATOM     35  C   UNL A   1      37.933  33.288  32.643  1.00  0.00     0.049 A 
ATOM     36  N   UNL A   1      39.184  30.936  31.230  1.00  0.00    -0.248 NA
ATOM     37  C   UNL A   1      37.836  31.408  29.383  1.00  0.00     0.031 C 
ATOM     38  C   UNL A   1      37.312  34.373  33.404  1.00  0.00     0.029 A 
ATOM     39  N   UNL A   1      38.906  32.806  33.486  1.00  0.00    -0.354 N 
ATOM     40  C   UNL A   1      39.420  29.997  30.236  1.00  0.00     0.074 A 
ATOM     41  C   UNL A   1      38.519  30.300  29.145  1.00  0.00     0.031 C 
ATOM     42  C   UNL A   1      37.919  34.476  34.597  1.00  0.00     0.029 A 
ATOM     43  C   UNL A   1      38.942  33.439  34.703  1.00  0.00     0.049 A 
ATOM     44  H   UNL A   1      39.518  32.076  33.239  1.00  0.00     0.167 HD
ATOM     45  C   UNL A   1      40.317  28.983  30.229  1.00  0.00     0.037 A 
ATOM     46  C   UNL A   1      39.700  33.198  35.789  1.00  0.00     0.037 A 
ATOM     47  C   UNL A   1      41.238  28.713  31.300  1.00  0.00     0.049 A 
ATOM     48  C   UNL A   1      40.705  32.078  35.752  1.00  0.00     0.074 A 
ATOM     49  C   UNL A   1      42.230  27.751  31.364  1.00  0.00     0.029 A 
ATOM     50  N   UNL A   1      41.281  29.412  32.498  1.00  0.00    -0.354 N 
ATOM     51  N   UNL A   1      40.955  31.223  34.789  1.00  0.00    -0.248 NA
ATOM     52  C   UNL A   1      41.536  31.891  36.949  1.00  0.00     0.031 C 
ATOM     53  C   UNL A   1      42.851  27.845  32.614  1.00  0.00     0.029 A 
ATOM     54  C   UNL A   1      42.275  28.895  33.312  1.00  0.00     0.049 A 
ATOM     55  H   UNL A   1      40.692  30.165  32.733  1.00  0.00     0.167 HD
ATOM     56  C   UNL A   1      41.988  30.420  35.249  1.00  0.00     0.074 A 
ATOM     57  C   UNL A   1      42.323  30.890  36.578  1.00  0.00     0.031 C 
ATOM     58  C   UNL A   1      42.606  29.388  34.625  1.00  0.00     0.037 A 
BRANCH  45  59
ATOM     59  C   UNL A   1      40.337  28.090  29.023  1.00  0.00     0.064 A 
ATOM     60  C   UNL A   1      41.080  28.412  27.878  1.00  0.00     0.173 A 
ATOM     61  C   UNL A   1      39.607  26.891  29.017  1.00  0.00     0.173 A 
ATOM     62  F   UNL A   1      41.783  29.554  27.829  1.00  0.00    -0.203 F 
ATOM     63  C   UNL A   1      41.061  27.587  26.756  1.00  0.00     0.198 A 
ATOM     64  C   UNL A   1      39.617  26.053  27.905  1.00  0.00     0.198 A 
ATOM     65  F   UNL A   1      38.884  26.533  30.088  1.00  0.00    -0.203 F 
ATOM     66  F   UNL A   1      41.729  27.947  25.652  1.00  0.00    -0.200 F 
ATOM     67  C   UNL A   1      40.334  26.406  26.772  1.00  0.00     0.200 A 
ATOM     68  F   UNL A   1      38.922  24.906  27.926  1.00  0.00    -0.200 F 
ATOM     69  F   UNL A   1      40.316  25.614  25.691  1.00  0.00    -0.200 F 
ENDBRANCH  45  59
BRANCH  46  70
ATOM     70  C   UNL A   1      39.552  34.052  36.994  1.00  0.00     0.064 A 
ATOM     71  C   UNL A   1      38.778  33.627  38.083  1.00  0.00     0.173 A 
ATOM     72  C   UNL A   1      40.193  35.295  37.094  1.00  0.00     0.173 A 
ATOM     73  F   UNL A   1      38.130  32.454  38.025  1.00  0.00    -0.203 F 
ATOM     74  C   UNL A   1      38.643  34.418  39.222  1.00  0.00     0.198 A 
ATOM     75  C   UNL A   1      40.076  36.074  38.244  1.00  0.00     0.198 A 
ATOM     76  F   UNL A   1      40.950  35.744  36.081  1.00  0.00    -0.203 F 
ATOM     77  F   UNL A   1      37.871  34.002  40.234  1.00  0.00    -0.200 F 
ATOM     78  C   UNL A   1      39.297  35.638  39.304  1.00  0.00     0.200 A 
ATOM     79  F   UNL A   1      40.721  37.246  38.324  1.00  0.00    -0.200 F 
ATOM     80  F   UNL A   1      39.174  36.394  40.404  1.00  0.00    -0.200 F 
ENDBRANCH  46  70
BRANCH  58  81
ATOM     81  C   UNL A   1      43.742  28.725  35.345  1.00  0.00     0.064 A 
ATOM     82  C   UNL A   1      43.541  27.615  36.177  1.00  0.00     0.173 A 
ATOM     83  C   UNL A   1      45.058  29.170  35.145  1.00  0.00     0.173 A 
ATOM     84  F   UNL A   1      42.300  27.163  36.410  1.00  0.00    -0.203 F 
ATOM     85  C   UNL A   1      44.616  26.981  36.793  1.00  0.00     0.198 A 
ATOM     86  C   UNL A   1      46.133  28.518  35.743  1.00  0.00     0.198 A 
ATOM     87  F   UNL A   1      45.303  30.224  34.353  1.00  0.00    -0.203 F 
ATOM     88  F   UNL A   1      44.399  25.941  37.610  1.00  0.00    -0.200 F 
ATOM     89  C   UNL A   1      45.911  27.427  36.569  1.00  0.00     0.200 A 
ATOM     90  F   UNL A   1      47.383  28.943  35.515  1.00  0.00    -0.200 F 
ATOM     91  F   UNL A   1      46.945  26.806  37.154  1.00  0.00    -0.200 F 
ENDBRANCH  58  81
ENDBRANCH  32  33
ENDBRANCH  24  27
ENDBRANCH  22  23
ENDBRANCH  21  22
ENDBRANCH   1  21
TORSDOF 14
ENDMDL
MODEL 2
REMARK VINA RESULT:     -12.0      0.336      1.654
REMARK SMILES CC[C@H](NC(=O)c1ccc(C)nc1)C(=O)NCCCCNC(=O)c1ccc(-c2c3nc(c(-c4c(F)c(F)c(F)c(F)c4F)c4ccc([nH]4)c(-c4c(F)c(F)c(F)c(F)c4F)c4nc(c(-c5c(F)c(F)c(F)c(F)c5F)c5ccc2[nH]5)C=C4)C=C3)cc1
REMARK SMILES IDX 18 1 17 2 16 3 14 4 15 5 3 7 2 8 1 9 4 10 5 11 6 13 7 14
REMARK SMILES IDX 8 15 13 16 9 17 12 18 10 19 11 20 19 21 20 22 21 23 22 24
REMARK SMILES IDX 23 26 24 27 25 28 86 29 26 30 85 31 27 32 28 33 29 34 79 35
REMARK SMILES IDX 30 36 84 37 78 38 80 39 31 40 83 41 77 42 76 43 32 45 64 46
REMARK SMILES IDX 44 47 63 48 45 49 48 50 62 51 81 52 46 53 47 54 61 56 82 57
REMARK SMILES IDX 49 58 33 59 34 60 42 61 35 62 36 63 40 64 43 65 37 66 38 67
REMARK SMILES IDX 41 68 39 69 65 70 66 71 74 72 67 73 68 74 72 75 75 76 69 77
REMARK SMILES IDX 70 78 73 79 71 80 50 81 51 82 59 83 52 84 53 85 57 86 60 87
REMARK SMILES IDX 54 88 55 89 58 90 56 91
REMARK H PARENT 16 6 4 12 21 25 80 44 48 55
REMARK Flexibility Score: inf
ROOT
ATOM      1  C   UNL A   1      32.010  30.419  26.704  1.00  0.00     0.023 C 
ENDROOT
BRANCH   1   2
ATOM      2  C   UNL A   1      31.739  29.906  25.293  1.00  0.00     0.116 C 
BRANCH   2   3
ATOM      3  N   UNL A   1      32.959  29.645  24.553  1.00  0.00    -0.354 N 
ATOM      4  C   UNL A   1      33.580  28.473  24.231  1.00  0.00     0.242 C 
ATOM      5  O   UNL A   1      34.559  28.541  23.481  1.00  0.00    -0.273 OA
ATOM      6  H   UNL A   1      33.418  30.452  24.225  1.00  0.00     0.163 HD
BRANCH   4   7
ATOM      7  C   UNL A   1      33.032  27.100  24.680  1.00  0.00     0.171 C 
BRANCH   7   8
ATOM      8  C   UNL A   1      33.998  26.453  25.685  1.00  0.00     0.032 C 
ATOM      9  C   UNL A   1      33.836  24.944  25.778  1.00  0.00     0.006 C 
ENDBRANCH   7   8
BRANCH   7  10
ATOM     10  N   UNL A   1      32.758  26.248  23.522  1.00  0.00    -0.340 N 
ATOM     11  C   UNL A   1      31.729  26.258  22.620  1.00  0.00     0.253 C 
ATOM     12  H   UNL A   1      33.431  25.546  23.365  1.00  0.00     0.164 HD
ATOM     13  O   UNL A   1      31.744  25.429  21.711  1.00  0.00    -0.269 OA
BRANCH  11  14
ATOM     14  C   UNL A   1      30.572  27.164  22.739  1.00  0.00     0.058 A 
ATOM     15  C   UNL A   1      29.449  26.926  23.526  1.00  0.00     0.017 A 
ATOM     16  C   UNL A   1      30.639  28.376  22.063  1.00  0.00     0.125 A 
ATOM     17  C   UNL A   1      28.421  27.873  23.555  1.00  0.00     0.024 A 
ATOM     18  N   UNL A   1      29.655  29.310  22.073  1.00  0.00    -0.261 NA
ATOM     19  C   UNL A   1      28.553  29.042  22.811  1.00  0.00     0.037 A 
ATOM     20  C   UNL A   1      27.483  30.092  22.821  1.00  0.00     0.066 C 
ENDBRANCH  11  14
ENDBRANCH   7  10
ENDBRANCH   4   7
ENDBRANCH   2   3
ENDBRANCH   1   2
BRANCH   1  21
ATOM     21  C   UNL A   1      31.675  31.895  26.926  1.00  0.00     0.023 C 
BRANCH  21  22
ATOM     22  C   UNL A   1      32.827  32.762  27.422  1.00  0.00     0.116 C 
BRANCH  22  23
ATOM     23  N   UNL A   1      32.442  34.136  27.706  1.00  0.00    -0.352 N 
ATOM     24  C   UNL A   1      33.003  35.010  28.607  1.00  0.00     0.251 C 
ATOM     25  H   UNL A   1      31.682  34.485  27.186  1.00  0.00     0.163 HD
ATOM     26  O   UNL A   1      32.509  36.115  28.801  1.00  0.00    -0.269 OA
BRANCH  24  27
ATOM     27  C   UNL A   1      34.192  34.586  29.373  1.00  0.00     0.039 A 
ATOM     28  C   UNL A   1      34.022  34.058  30.655  1.00  0.00     0.014 A 
ATOM     29  C   UNL A   1      35.462  34.658  28.797  1.00  0.00     0.014 A 
ATOM     30  C   UNL A   1      35.121  33.530  31.336  1.00  0.00     0.010 A 
ATOM     31  C   UNL A   1      36.543  34.072  29.447  1.00  0.00     0.010 A 
ATOM     32  C   UNL A   1      36.381  33.498  30.719  1.00  0.00    -0.014 A 
BRANCH  32  33
ATOM     33  C   UNL A   1      37.560  32.879  31.372  1.00  0.00     0.031 A 
ATOM     34  C   UNL A   1      38.250  31.722  30.708  1.00  0.00     0.074 A 
ATOM     35  C   UNL A   1      37.936  33.276  32.602  1.00  0.00     0.049 A 
ATOM     36  N   UNL A   1      39.170  30.920  31.181  1.00  0.00    -0.248 NA
ATOM     37  C   UNL A   1      37.818  31.402  29.340  1.00  0.00     0.031 C 
ATOM     38  C   UNL A   1      37.322  34.363  33.366  1.00  0.00     0.029 A 
ATOM     39  N   UNL A   1      38.909  32.789  33.440  1.00  0.00    -0.354 N 
ATOM     40  C   UNL A   1      39.398  29.982  30.184  1.00  0.00     0.074 A 
ATOM     41  C   UNL A   1      38.495  30.290  29.098  1.00  0.00     0.031 C 
ATOM     42  C   UNL A   1      37.934  34.462  34.557  1.00  0.00     0.029 A 
ATOM     43  C   UNL A   1      38.952  33.420  34.658  1.00  0.00     0.049 A 
ATOM     44  H   UNL A   1      39.517  32.056  33.191  1.00  0.00     0.167 HD
ATOM     45  C   UNL A   1      40.291  28.964  30.173  1.00  0.00     0.037 A 
ATOM     46  C   UNL A   1      39.713  33.174  35.741  1.00  0.00     0.037 A 
ATOM     47  C   UNL A   1      41.214  28.687  31.241  1.00  0.00     0.049 A 
ATOM     48  C   UNL A   1      40.713  32.050  35.698  1.00  0.00     0.074 A 
ATOM     49  C   UNL A   1      42.202  27.721  31.300  1.00  0.00     0.029 A 
ATOM     50  N   UNL A   1      41.264  29.385  32.440  1.00  0.00    -0.354 N 
ATOM     51  N   UNL A   1      40.955  31.195  34.734  1.00  0.00    -0.248 NA
ATOM     52  C   UNL A   1      41.547  31.857  36.893  1.00  0.00     0.031 C 
ATOM     53  C   UNL A   1      42.827  27.810  32.548  1.00  0.00     0.029 A 
ATOM     54  C   UNL A   1      42.259  28.862  33.249  1.00  0.00     0.049 A 
ATOM     55  H   UNL A   1      40.679  30.141  32.678  1.00  0.00     0.167 HD
ATOM     56  C   UNL A   1      41.986  30.386  35.190  1.00  0.00     0.074 A 
ATOM     57  C   UNL A   1      42.328  30.852  36.517  1.00  0.00     0.031 C 
ATOM     58  C   UNL A   1      42.597  29.352  34.562  1.00  0.00     0.037 A 
BRANCH  45  59
ATOM     59  C   UNL A   1      40.302  28.072  28.966  1.00  0.00     0.064 A 
ATOM     60  C   UNL A   1      39.582  26.868  28.932  1.00  0.00     0.173 A 
ATOM     61  C   UNL A   1      41.039  28.429  27.827  1.00  0.00     0.173 A 
ATOM     62  F   UNL A   1      38.874  26.475  30.001  1.00  0.00    -0.203 F 
ATOM     63  C   UNL A   1      39.630  26.037  27.816  1.00  0.00     0.198 A 
ATOM     64  C   UNL A   1      41.058  27.610  26.701  1.00  0.00     0.198 A 
ATOM     65  F   UNL A   1      41.741  29.572  27.806  1.00  0.00    -0.203 F 
ATOM     66  F   UNL A   1      38.984  24.863  27.830  1.00  0.00    -0.200 F 
ATOM     67  C   UNL A   1      40.363  26.411  26.700  1.00  0.00     0.200 A 
ATOM     68  F   UNL A   1      41.759  27.978  25.619  1.00  0.00    -0.200 F 
ATOM     69  F   UNL A   1      40.410  25.609  25.627  1.00  0.00    -0.200 F 
ENDBRANCH  45  59
BRANCH  46  70
ATOM     70  C   UNL A   1      39.574  34.027  36.948  1.00  0.00     0.064 A 
ATOM     71  C   UNL A   1      40.214  35.272  37.024  1.00  0.00     0.173 A 
ATOM     72  C   UNL A   1      38.786  33.630  38.038  1.00  0.00     0.173 A 
ATOM     73  F   UNL A   1      40.994  35.685  36.014  1.00  0.00    -0.203 F 
ATOM     74  C   UNL A   1      40.079  36.083  38.149  1.00  0.00     0.198 A 
ATOM     75  C   UNL A   1      38.633  34.452  39.152  1.00  0.00     0.198 A 
ATOM     76  F   UNL A   1      38.149  32.449  38.011  1.00  0.00    -0.203 F 
ATOM     77  F   UNL A   1      40.728  37.253  38.209  1.00  0.00    -0.200 F 
ATOM     78  C   UNL A   1      39.284  35.675  39.209  1.00  0.00     0.200 A 
ATOM     79  F   UNL A   1      37.853  34.061  40.169  1.00  0.00    -0.200 F 
ATOM     80  F   UNL A   1      39.147  36.460  40.287  1.00  0.00    -0.200 F 
ENDBRANCH  46  70
BRANCH  58  81
ATOM     81  C   UNL A   1      43.733  28.682  35.277  1.00  0.00     0.064 A 
ATOM     82  C   UNL A   1      43.521  27.615  36.161  1.00  0.00     0.173 A 
ATOM     83  C   UNL A   1      45.055  29.075  35.020  1.00  0.00     0.173 A 
ATOM     84  F   UNL A   1      42.274  27.215  36.448  1.00  0.00    -0.203 F 
ATOM     85  C   UNL A   1      44.593  26.973  36.773  1.00  0.00     0.198 A 
ATOM     86  C   UNL A   1      46.127  28.414  35.615  1.00  0.00     0.198 A 
ATOM     87  F   UNL A   1      45.309  30.087  34.177  1.00  0.00    -0.203 F 
ATOM     88  F   UNL A   1      44.368  25.976  37.640  1.00  0.00    -0.200 F 
ATOM     89  C   UNL A   1      45.895  27.366  36.493  1.00  0.00     0.200 A 
ATOM     90  F   UNL A   1      47.382  28.787  35.333  1.00  0.00    -0.200 F 
ATOM     91  F   UNL A   1      46.925  26.737  37.074  1.00  0.00    -0.200 F 
ENDBRANCH  58  81
ENDBRANCH  32  33
ENDBRANCH  24  27
ENDBRANCH  22  23
ENDBRANCH  21  22
ENDBRANCH   1  21
TORSDOF 14
ENDMDL
MODEL 3
REMARK VINA RESULT:     -11.9      6.173     11.599
REMARK SMILES CC[C@H](NC(=O)c1ccc(C)nc1)C(=O)NCCCCNC(=O)c1ccc(-c2c3nc(c(-c4c(F)c(F)c(F)c(F)c4F)c4ccc([nH]4)c(-c4c(F)c(F)c(F)c(F)c4F)c4nc(c(-c5c(F)c(F)c(F)c(F)c5F)c5ccc2[nH]5)C=C4)C=C3)cc1
REMARK SMILES IDX 18 1 17 2 16 3 14 4 15 5 3 7 2 8 1 9 4 10 5 11 6 13 7 14
REMARK SMILES IDX 8 15 13 16 9 17 12 18 10 19 11 20 19 21 20 22 21 23 22 24
REMARK SMILES IDX 23 26 24 27 25 28 86 29 26 30 85 31 27 32 28 33 29 34 79 35
REMARK SMILES IDX 30 36 84 37 78 38 80 39 31 40 83 41 77 42 76 43 32 45 64 46
REMARK SMILES IDX 44 47 63 48 45 49 48 50 62 51 81 52 46 53 47 54 61 56 82 57
REMARK SMILES IDX 49 58 33 59 34 60 42 61 35 62 36 63 40 64 43 65 37 66 38 67
REMARK SMILES IDX 41 68 39 69 65 70 66 71 74 72 67 73 68 74 72 75 75 76 69 77
REMARK SMILES IDX 70 78 73 79 71 80 50 81 51 82 59 83 52 84 53 85 57 86 60 87
REMARK SMILES IDX 54 88 55 89 58 90 56 91
REMARK H PARENT 16 6 4 12 21 25 80 44 48 55
REMARK Flexibility Score: inf
ROOT
ATOM      1  C   UNL A   1      36.763  20.328  24.914  1.00  0.00     0.023 C 
ENDROOT
BRANCH   1   2
ATOM      2  C   UNL A   1      37.013  21.772  25.338  1.00  0.00     0.116 C 
BRANCH   2   3
ATOM      3  N   UNL A   1      36.204  22.164  26.477  1.00  0.00    -0.354 N 
ATOM      4  C   UNL A   1      34.944  22.685  26.544  1.00  0.00     0.242 C 
ATOM      5  O   UNL A   1      34.448  22.817  27.667  1.00  0.00    -0.273 OA
ATOM      6  H   UNL A   1      36.637  22.032  27.350  1.00  0.00     0.163 HD
BRANCH   4   7
ATOM      7  C   UNL A   1      34.111  22.995  25.280  1.00  0.00     0.171 C 
BRANCH   7   8
ATOM      8  C   UNL A   1      34.456  24.397  24.756  1.00  0.00     0.032 C 
ATOM      9  C   UNL A   1      33.569  25.485  25.341  1.00  0.00     0.006 C 
ENDBRANCH   7   8
BRANCH   7  10
ATOM     10  N   UNL A   1      32.683  22.820  25.545  1.00  0.00    -0.340 N 
ATOM     11  C   UNL A   1      31.859  21.741  25.370  1.00  0.00     0.253 C 
ATOM     12  H   UNL A   1      32.237  23.617  25.913  1.00  0.00     0.164 HD
ATOM     13  O   UNL A   1      30.678  21.851  25.694  1.00  0.00    -0.269 OA
BRANCH  11  14
ATOM     14  C   UNL A   1      32.311  20.487  24.740  1.00  0.00     0.058 A 
ATOM     15  C   UNL A   1      32.205  20.191  23.384  1.00  0.00     0.017 A 
ATOM     16  C   UNL A   1      32.947  19.558  25.553  1.00  0.00     0.125 A 
ATOM     17  C   UNL A   1      32.679  18.964  22.912  1.00  0.00     0.024 A 
ATOM     18  N   UNL A   1      33.414  18.359  25.121  1.00  0.00    -0.261 NA
ATOM     19  C   UNL A   1      33.265  18.072  23.807  1.00  0.00     0.037 A 
ATOM     20  C   UNL A   1      33.800  16.750  23.346  1.00  0.00     0.066 C 
ENDBRANCH  11  14
ENDBRANCH   7  10
ENDBRANCH   4   7
ENDBRANCH   2   3
ENDBRANCH   1   2
BRANCH   1  21
ATOM     21  C   UNL A   1      38.007  19.439  24.897  1.00  0.00     0.023 C 
BRANCH  21  22
ATOM     22  C   UNL A   1      39.104  19.825  25.883  1.00  0.00     0.116 C 
BRANCH  22  23
ATOM     23  N   UNL A   1      40.283  18.976  25.805  1.00  0.00    -0.352 N 
ATOM     24  C   UNL A   1      41.599  19.322  26.008  1.00  0.00     0.251 C 
ATOM     25  H   UNL A   1      40.118  18.033  25.579  1.00  0.00     0.163 HD
ATOM     26  O   UNL A   1      42.498  18.512  25.818  1.00  0.00    -0.269 OA
BRANCH  24  27
ATOM     27  C   UNL A   1      41.921  20.703  26.423  1.00  0.00     0.039 A 
ATOM     28  C   UNL A   1      42.177  20.964  27.772  1.00  0.00     0.014 A 
ATOM     29  C   UNL A   1      42.023  21.718  25.470  1.00  0.00     0.014 A 
ATOM     30  C   UNL A   1      42.613  22.234  28.157  1.00  0.00     0.010 A 
ATOM     31  C   UNL A   1      42.520  22.961  25.846  1.00  0.00     0.010 A 
ATOM     32  C   UNL A   1      42.826  23.228  27.191  1.00  0.00    -0.014 A 
BRANCH  32  33
ATOM     33  C   UNL A   1      43.359  24.567  27.544  1.00  0.00     0.031 A 
ATOM     34  C   UNL A   1      42.431  25.609  28.098  1.00  0.00     0.074 A 
ATOM     35  C   UNL A   1      44.638  24.879  27.263  1.00  0.00     0.049 A 
ATOM     36  N   UNL A   1      42.639  26.885  28.299  1.00  0.00    -0.248 NA
ATOM     37  C   UNL A   1      41.072  25.159  28.437  1.00  0.00     0.031 C 
ATOM     38  C   UNL A   1      45.627  23.965  26.691  1.00  0.00     0.029 A 
ATOM     39  N   UNL A   1      45.317  26.066  27.394  1.00  0.00    -0.354 N 
ATOM     40  C   UNL A   1      41.430  27.396  28.750  1.00  0.00     0.074 A 
ATOM     41  C   UNL A   1      40.484  26.302  28.758  1.00  0.00     0.031 C 
ATOM     42  C   UNL A   1      46.786  24.623  26.523  1.00  0.00     0.029 A 
ATOM     43  C   UNL A   1      46.609  26.013  26.935  1.00  0.00     0.049 A 
ATOM     44  H   UNL A   1      44.915  26.877  27.781  1.00  0.00     0.167 HD
ATOM     45  C   UNL A   1      41.140  28.661  29.135  1.00  0.00     0.037 A 
ATOM     46  C   UNL A   1      47.540  26.981  26.839  1.00  0.00     0.037 A 
ATOM     47  C   UNL A   1      42.096  29.736  29.163  1.00  0.00     0.049 A 
ATOM     48  C   UNL A   1      47.202  28.376  27.292  1.00  0.00     0.074 A 
ATOM     49  C   UNL A   1      41.920  31.037  29.598  1.00  0.00     0.029 A 
ATOM     50  N   UNL A   1      43.414  29.629  28.740  1.00  0.00    -0.354 N 
ATOM     51  N   UNL A   1      46.069  28.840  27.761  1.00  0.00    -0.248 NA
ATOM     52  C   UNL A   1      48.272  29.379  27.206  1.00  0.00     0.031 C 
ATOM     53  C   UNL A   1      43.121  31.729  29.405  1.00  0.00     0.029 A 
ATOM     54  C   UNL A   1      44.058  30.846  28.892  1.00  0.00     0.049 A 
ATOM     55  H   UNL A   1      43.828  28.810  28.385  1.00  0.00     0.167 HD
ATOM     56  C   UNL A   1      46.297  30.177  28.054  1.00  0.00     0.074 A 
ATOM     57  C   UNL A   1      47.677  30.451  27.713  1.00  0.00     0.031 C 
ATOM     58  C   UNL A   1      45.439  31.094  28.564  1.00  0.00     0.037 A 
BRANCH  45  59
ATOM     59  C   UNL A   1      39.727  28.947  29.551  1.00  0.00     0.064 A 
ATOM     60  C   UNL A   1      39.292  28.752  30.871  1.00  0.00     0.173 A 
ATOM     61  C   UNL A   1      38.797  29.429  28.618  1.00  0.00     0.173 A 
ATOM     62  F   UNL A   1      40.140  28.279  31.798  1.00  0.00    -0.203 F 
ATOM     63  C   UNL A   1      37.969  28.993  31.233  1.00  0.00     0.198 A 
ATOM     64  C   UNL A   1      37.482  29.699  28.991  1.00  0.00     0.198 A 
ATOM     65  F   UNL A   1      39.161  29.638  27.344  1.00  0.00    -0.203 F 
ATOM     66  F   UNL A   1      37.563  28.740  32.484  1.00  0.00    -0.200 F 
ATOM     67  C   UNL A   1      37.067  29.471  30.294  1.00  0.00     0.200 A 
ATOM     68  F   UNL A   1      36.614  30.171  28.085  1.00  0.00    -0.200 F 
ATOM     69  F   UNL A   1      35.794  29.699  30.643  1.00  0.00    -0.200 F 
ENDBRANCH  45  59
BRANCH  46  70
ATOM     70  C   UNL A   1      48.889  26.654  26.312  1.00  0.00     0.064 A 
ATOM     71  C   UNL A   1      49.216  26.909  24.972  1.00  0.00     0.173 A 
ATOM     72  C   UNL A   1      49.883  26.103  27.133  1.00  0.00     0.173 A 
ATOM     73  F   UNL A   1      48.292  27.416  24.143  1.00  0.00    -0.203 F 
ATOM     74  C   UNL A   1      50.483  26.615  24.473  1.00  0.00     0.198 A 
ATOM     75  C   UNL A   1      51.157  25.832  26.638  1.00  0.00     0.198 A 
ATOM     76  F   UNL A   1      49.621  25.846  28.424  1.00  0.00    -0.203 F 
ATOM     77  F   UNL A   1      50.759  26.838  23.181  1.00  0.00    -0.200 F 
ATOM     78  C   UNL A   1      51.454  26.083  25.307  1.00  0.00     0.200 A 
ATOM     79  F   UNL A   1      52.097  25.331  27.451  1.00  0.00    -0.200 F 
ATOM     80  F   UNL A   1      52.676  25.810  24.828  1.00  0.00    -0.200 F 
ENDBRANCH  46  70
BRANCH  58  81
ATOM     81  C   UNL A   1      45.976  32.468  28.835  1.00  0.00     0.064 A 
ATOM     82  C   UNL A   1      46.623  32.784  30.038  1.00  0.00     0.173 A 
ATOM     83  C   UNL A   1      45.897  33.462  27.847  1.00  0.00     0.173 A 
ATOM     84  F   UNL A   1      46.710  31.872  31.016  1.00  0.00    -0.203 F 
ATOM     85  C   UNL A   1      47.161  34.050  30.247  1.00  0.00     0.198 A 
ATOM     86  C   UNL A   1      46.458  34.720  28.050  1.00  0.00     0.198 A 
ATOM     87  F   UNL A   1      45.293  33.207  26.677  1.00  0.00    -0.203 F 
ATOM     88  F   UNL A   1      47.747  34.342  31.416  1.00  0.00    -0.200 F 
ATOM     89  C   UNL A   1      47.086  35.015  29.251  1.00  0.00     0.200 A 
ATOM     90  F   UNL A   1      46.395  35.644  27.082  1.00  0.00    -0.200 F 
ATOM     91  F   UNL A   1      47.616  36.229  29.451  1.00  0.00    -0.200 F 
ENDBRANCH  58  81
ENDBRANCH  32  33
ENDBRANCH  24  27
ENDBRANCH  22  23
ENDBRANCH  21  22
ENDBRANCH   1  21
TORSDOF 14
ENDMDL
