MODEL 1
REMARK VINA RESULT:     -14.3      0.000      0.000
REMARK SMILES O=C(NCCCCNC(=O)[C@H](CO)NC(=O)[C@H](Cc1c[nH]c2ccccc12)NC(=O)c1ccc(F)cc1)c1ccc(-c2c3nc(c(-c4c(F)c(F)c(F)c(F)c4F)c4ccc([nH]4)c(-c4c(F)c(F)c(F)c(F)c4F)c4nc(c(-c5c(F)c(F)c(F)c(F)c5F)c5ccc2[nH]5)C=C4)C=C3)cc1
REMARK SMILES IDX 6 1 5 2 4 3 3 4 1 5 2 6 38 8 39 9 100 10 40 11 99 12 41 13
REMARK SMILES IDX 42 14 43 15 93 16 44 17 98 18 92 19 94 20 45 21 97 22 91 23
REMARK SMILES IDX 90 24 46 26 78 27 58 28 77 29 59 30 62 31 76 32 95 33 60 34
REMARK SMILES IDX 61 35 75 37 96 38 63 39 47 40 48 41 56 42 49 43 50 44 54 45
REMARK SMILES IDX 57 46 51 47 52 48 55 49 53 50 79 51 80 52 88 53 81 54 82 55
REMARK SMILES IDX 86 56 89 57 83 58 84 59 87 60 85 61 64 62 65 63 73 64 66 65
REMARK SMILES IDX 67 66 71 67 74 68 68 69 69 70 72 71 70 72 7 73 8 74 9 75
REMARK SMILES IDX 10 77 11 78 14 79 15 80 16 82 17 83 28 84 29 85 30 87 31 88
REMARK SMILES IDX 32 89 37 90 33 91 36 92 34 93 35 94 18 95 19 96 20 97 27 98
REMARK SMILES IDX 21 99 22 100 26 101 23 103 25 104 24 105 12 106 13 107
REMARK H PARENT 3 7 94 25 62 36 8 76 14 81 28 86 21 102 13 108
REMARK Flexibility Score: inf
ROOT
ATOM      1  C   UNL A   1      30.679  31.079  25.001  1.00  0.00     0.023 C 
ENDROOT
BRANCH   1   2
ATOM      2  C   UNL A   1      31.195  31.154  26.422  1.00  0.00     0.023 C 
BRANCH   2   3
ATOM      3  C   UNL A   1      32.466  31.958  26.544  1.00  0.00     0.116 C 
BRANCH   3   4
ATOM      4  N   UNL A   1      32.270  33.281  27.142  1.00  0.00    -0.352 N 
ATOM      5  O   UNL A   1      32.804  34.993  28.541  1.00  0.00    -0.269 OA
ATOM      6  C   UNL A   1      33.096  33.921  28.034  1.00  0.00     0.251 C 
ATOM      7  H   UNL A   1      31.455  33.765  26.877  1.00  0.00     0.163 HD
BRANCH   6   8
ATOM      8  C   UNL A   1      34.335  33.215  28.377  1.00  0.00     0.039 A 
ATOM      9  C   UNL A   1      34.220  31.961  28.977  1.00  0.00     0.014 A 
ATOM     10  C   UNL A   1      35.540  33.914  28.357  1.00  0.00     0.014 A 
ATOM     11  C   UNL A   1      35.261  31.511  29.761  1.00  0.00     0.010 A 
ATOM     12  C   UNL A   1      36.642  33.364  29.007  1.00  0.00     0.010 A 
ATOM     13  C   UNL A   1      36.497  32.182  29.750  1.00  0.00    -0.014 A 
BRANCH  13  14
ATOM     14  C   UNL A   1      37.636  31.564  30.463  1.00  0.00     0.031 A 
ATOM     15  C   UNL A   1      37.947  31.889  31.894  1.00  0.00     0.074 A 
ATOM     16  C   UNL A   1      38.372  30.663  29.783  1.00  0.00     0.049 A 
ATOM     17  N   UNL A   1      38.924  31.439  32.640  1.00  0.00    -0.248 NA
ATOM     18  C   UNL A   1      37.065  32.847  32.578  1.00  0.00     0.031 C 
ATOM     19  C   UNL A   1      38.148  30.283  28.384  1.00  0.00     0.029 A 
ATOM     20  N   UNL A   1      39.427  29.883  30.170  1.00  0.00    -0.354 N 
ATOM     21  C   UNL A   1      38.792  32.076  33.867  1.00  0.00     0.074 A 
ATOM     22  C   UNL A   1      37.659  32.969  33.758  1.00  0.00     0.031 C 
ATOM     23  C   UNL A   1      38.978  29.288  28.058  1.00  0.00     0.029 A 
ATOM     24  C   UNL A   1      39.871  29.043  29.180  1.00  0.00     0.049 A 
ATOM     25  H   UNL A   1      39.828  29.921  31.069  1.00  0.00     0.167 HD
ATOM     26  C   UNL A   1      39.549  31.914  34.978  1.00  0.00     0.037 A 
ATOM     27  C   UNL A   1      40.906  28.189  29.158  1.00  0.00     0.037 A 
ATOM     28  C   UNL A   1      40.669  31.008  35.061  1.00  0.00     0.049 A 
ATOM     29  C   UNL A   1      41.752  28.066  30.387  1.00  0.00     0.074 A 
ATOM     30  C   UNL A   1      41.494  30.756  36.144  1.00  0.00     0.029 A 
ATOM     31  N   UNL A   1      41.121  30.207  34.020  1.00  0.00    -0.354 N 
ATOM     32  N   UNL A   1      41.619  28.672  31.541  1.00  0.00    -0.248 NA
ATOM     33  C   UNL A   1      42.891  27.147  30.311  1.00  0.00     0.031 C 
ATOM     34  C   UNL A   1      42.482  29.855  35.738  1.00  0.00     0.029 A 
ATOM     35  C   UNL A   1      42.230  29.480  34.428  1.00  0.00     0.049 A 
ATOM     36  H   UNL A   1      40.714  30.161  33.125  1.00  0.00     0.167 HD
ATOM     37  C   UNL A   1      42.645  28.195  32.340  1.00  0.00     0.074 A 
ATOM     38  C   UNL A   1      43.380  27.235  31.540  1.00  0.00     0.031 C 
ATOM     39  C   UNL A   1      42.949  28.526  33.619  1.00  0.00     0.037 A 
BRANCH  26  40
ATOM     40  C   UNL A   1      39.214  32.740  36.189  1.00  0.00     0.064 A 
ATOM     41  C   UNL A   1      39.797  34.005  36.371  1.00  0.00     0.173 A 
ATOM     42  C   UNL A   1      38.373  32.260  37.205  1.00  0.00     0.173 A 
ATOM     43  F   UNL A   1      40.615  34.514  35.438  1.00  0.00    -0.203 F 
ATOM     44  C   UNL A   1      39.563  34.748  37.526  1.00  0.00     0.198 A 
ATOM     45  C   UNL A   1      38.112  33.021  38.343  1.00  0.00     0.198 A 
ATOM     46  F   UNL A   1      37.778  31.063  37.081  1.00  0.00    -0.203 F 
ATOM     47  F   UNL A   1      40.162  35.936  37.691  1.00  0.00    -0.200 F 
ATOM     48  C   UNL A   1      38.715  34.258  38.508  1.00  0.00     0.200 A 
ATOM     49  F   UNL A   1      37.269  32.558  39.277  1.00  0.00    -0.200 F 
ATOM     50  F   UNL A   1      38.476  34.981  39.611  1.00  0.00    -0.200 F 
ENDBRANCH  26  40
BRANCH  27  51
ATOM     51  C   UNL A   1      41.170  27.407  27.925  1.00  0.00     0.064 A 
ATOM     52  C   UNL A   1      40.638  26.120  27.752  1.00  0.00     0.173 A 
ATOM     53  C   UNL A   1      42.034  27.896  26.937  1.00  0.00     0.173 A 
ATOM     54  F   UNL A   1      39.822  25.599  28.680  1.00  0.00    -0.203 F 
ATOM     55  C   UNL A   1      40.988  25.338  26.655  1.00  0.00     0.198 A 
ATOM     56  C   UNL A   1      42.354  27.126  25.821  1.00  0.00     0.198 A 
ATOM     57  F   UNL A   1      42.562  29.123  27.056  1.00  0.00    -0.203 F 
ATOM     58  F   UNL A   1      40.517  24.088  26.547  1.00  0.00    -0.200 F 
ATOM     59  C   UNL A   1      41.843  25.844  25.688  1.00  0.00     0.200 A 
ATOM     60  F   UNL A   1      43.165  27.625  24.879  1.00  0.00    -0.200 F 
ATOM     61  F   UNL A   1      42.176  25.094  24.629  1.00  0.00    -0.200 F 
ENDBRANCH  27  51
BRANCH  39  62
ATOM     62  C   UNL A   1      44.110  27.815  34.254  1.00  0.00     0.064 A 
ATOM     63  C   UNL A   1      45.401  28.360  34.171  1.00  0.00     0.173 A 
ATOM     64  C   UNL A   1      43.960  26.574  34.888  1.00  0.00     0.173 A 
ATOM     65  F   UNL A   1      45.600  29.543  33.568  1.00  0.00    -0.203 F 
ATOM     66  C   UNL A   1      46.501  27.679  34.683  1.00  0.00     0.198 A 
ATOM     67  C   UNL A   1      45.057  25.914  35.435  1.00  0.00     0.198 A 
ATOM     68  F   UNL A   1      42.745  26.019  35.009  1.00  0.00    -0.203 F 
ATOM     69  F   UNL A   1      47.729  28.199  34.554  1.00  0.00    -0.200 F 
ATOM     70  C   UNL A   1      46.327  26.460  35.320  1.00  0.00     0.200 A 
ATOM     71  F   UNL A   1      44.884  24.752  36.079  1.00  0.00    -0.200 F 
ATOM     72  F   UNL A   1      47.384  25.814  35.830  1.00  0.00    -0.200 F 
ENDBRANCH  39  62
ENDBRANCH  13  14
ENDBRANCH   6   8
ENDBRANCH   3   4
ENDBRANCH   2   3
ENDBRANCH   1   2
BRANCH   1  73
ATOM     73  C   UNL A   1      30.866  29.708  24.334  1.00  0.00     0.116 C 
BRANCH  73  74
ATOM     74  N   UNL A   1      32.237  29.478  23.856  1.00  0.00    -0.354 N 
ATOM     75  C   UNL A   1      32.935  28.507  23.007  1.00  0.00     0.244 C 
ATOM     76  H   UNL A   1      32.856  30.162  24.202  1.00  0.00     0.163 HD
ATOM     77  O   UNL A   1      33.941  29.276  22.750  1.00  0.00    -0.273 OA
BRANCH  75  78
ATOM     78  C   UNL A   1      32.435  26.416  22.261  1.00  0.00     0.197 C 
BRANCH  78  79
ATOM     79  N   UNL A   1      31.005  25.548  22.404  1.00  0.00    -0.340 N 
ATOM     80  C   UNL A   1      30.703  24.431  23.128  1.00  0.00     0.243 C 
ATOM     81  H   UNL A   1      30.255  25.906  21.876  1.00  0.00     0.164 HD
ATOM     82  O   UNL A   1      29.537  24.031  23.125  1.00  0.00    -0.273 OA
BRANCH  80  83
ATOM     83  C   UNL A   1      31.826  23.663  23.842  1.00  0.00     0.176 C 
BRANCH  83  84
ATOM     84  N   UNL A   1      31.296  23.351  25.178  1.00  0.00    -0.340 N 
ATOM     85  C   UNL A   1      31.157  24.181  26.260  1.00  0.00     0.251 C 
ATOM     86  H   UNL A   1      31.003  22.421  25.312  1.00  0.00     0.164 HD
ATOM     87  O   UNL A   1      30.537  23.812  27.251  1.00  0.00    -0.269 OA
BRANCH  85  88
ATOM     88  C   UNL A   1      31.880  25.467  26.273  1.00  0.00     0.040 A 
ATOM     89  C   UNL A   1      33.212  25.576  25.856  1.00  0.00     0.017 A 
ATOM     90  C   UNL A   1      31.216  26.566  26.825  1.00  0.00     0.017 A 
ATOM     91  C   UNL A   1      33.921  26.747  26.123  1.00  0.00     0.040 A 
ATOM     92  C   UNL A   1      31.918  27.748  27.054  1.00  0.00     0.040 A 
ATOM     93  C   UNL A   1      33.271  27.816  26.730  1.00  0.00     0.123 A 
ATOM     94  F   UNL A   1      33.961  28.926  27.019  1.00  0.00    -0.207 F 
ENDBRANCH  85  88
ENDBRANCH  83  84
BRANCH  83  95
ATOM     95  C   UNL A   1      32.353  22.461  23.058  1.00  0.00     0.072 C 
BRANCH  95  96
ATOM     96  C   UNL A   1      33.226  21.635  23.917  1.00  0.00    -0.020 A 
ATOM     97  C   UNL A   1      33.053  19.887  24.231  1.00  0.00     0.087 A 
ATOM     98  C   UNL A   1      35.046  22.167  24.448  1.00  0.00     0.003 A 
ATOM     99  N   UNL A   1      34.710  19.286  24.832  1.00  0.00    -0.361 N 
ATOM    100  C   UNL A   1      35.882  20.705  25.003  1.00  0.00     0.046 A 
ATOM    101  C   UNL A   1      35.798  23.348  24.395  1.00  0.00     0.010 A 
ATOM    102  H   UNL A   1      34.930  18.347  25.030  1.00  0.00     0.166 HD
ATOM    103  C   UNL A   1      37.217  20.796  25.367  1.00  0.00     0.026 A 
ATOM    104  C   UNL A   1      37.153  23.253  24.759  1.00  0.00     0.001 A 
ATOM    105  C   UNL A   1      37.807  22.070  25.217  1.00  0.00     0.002 A 
ENDBRANCH  95  96
ENDBRANCH  83  95
ENDBRANCH  80  83
ENDBRANCH  78  79
BRANCH  78 106
ATOM    106  C   UNL A   1      32.786  25.674  20.654  1.00  0.00     0.191 C 
BRANCH 106 107
ATOM    107  O   UNL A   1      31.776  25.685  19.633  1.00  0.00    -0.394 OA
ATOM    108  H   UNL A   1      31.018  25.153  19.921  1.00  0.00     0.210 HD
ENDBRANCH 106 107
ENDBRANCH  78 106
ENDBRANCH  75  78
ENDBRANCH  73  74
ENDBRANCH   1  73
TORSDOF 19
ENDMDL
MODEL 2
REMARK VINA RESULT:     -14.2      4.893     10.225
REMARK SMILES O=C(NCCCCNC(=O)[C@H](CO)NC(=O)[C@H](Cc1c[nH]c2ccccc12)NC(=O)c1ccc(F)cc1)c1ccc(-c2c3nc(c(-c4c(F)c(F)c(F)c(F)c4F)c4ccc([nH]4)c(-c4c(F)c(F)c(F)c(F)c4F)c4nc(c(-c5c(F)c(F)c(F)c(F)c5F)c5ccc2[nH]5)C=C4)C=C3)cc1
REMARK SMILES IDX 6 1 5 2 4 3 3 4 1 5 2 6 38 8 39 9 100 10 40 11 99 12 41 13
REMARK SMILES IDX 42 14 43 15 93 16 44 17 98 18 92 19 94 20 45 21 97 22 91 23
REMARK SMILES IDX 90 24 46 26 78 27 58 28 77 29 59 30 62 31 76 32 95 33 60 34
REMARK SMILES IDX 61 35 75 37 96 38 63 39 47 40 48 41 56 42 49 43 50 44 54 45
REMARK SMILES IDX 57 46 51 47 52 48 55 49 53 50 79 51 80 52 88 53 81 54 82 55
REMARK SMILES IDX 86 56 89 57 83 58 84 59 87 60 85 61 64 62 65 63 73 64 66 65
REMARK SMILES IDX 67 66 71 67 74 68 68 69 69 70 72 71 70 72 7 73 8 74 9 75
REMARK SMILES IDX 10 77 11 78 14 79 15 80 16 82 17 83 28 84 29 85 30 87 31 88
REMARK SMILES IDX 32 89 37 90 33 91 36 92 34 93 35 94 18 95 19 96 20 97 27 98
REMARK SMILES IDX 21 99 22 100 26 101 23 103 25 104 24 105 12 106 13 107
REMARK H PARENT 3 7 94 25 62 36 8 76 14 81 28 86 21 102 13 108
REMARK Flexibility Score: inf
ROOT
ATOM      1  C   UNL A   1      39.361  23.012  26.609  1.00  0.00     0.023 C 
ENDROOT
BRANCH   1   2
ATOM      2  C   UNL A   1      39.513  21.602  26.080  1.00  0.00     0.023 C 
BRANCH   2   3
ATOM      3  C   UNL A   1      40.271  20.700  27.024  1.00  0.00     0.116 C 
BRANCH   3   4
ATOM      4  N   UNL A   1      41.012  19.632  26.348  1.00  0.00    -0.352 N 
ATOM      5  O   UNL A   1      42.804  18.765  25.249  1.00  0.00    -0.269 OA
ATOM      6  C   UNL A   1      42.300  19.685  25.873  1.00  0.00     0.251 C 
ATOM      7  H   UNL A   1      40.533  18.782  26.218  1.00  0.00     0.163 HD
BRANCH   6   8
ATOM      8  C   UNL A   1      43.022  20.938  26.124  1.00  0.00     0.039 A 
ATOM      9  C   UNL A   1      43.288  21.276  27.450  1.00  0.00     0.014 A 
ATOM     10  C   UNL A   1      43.162  21.858  25.087  1.00  0.00     0.014 A 
ATOM     11  C   UNL A   1      43.472  22.606  27.764  1.00  0.00     0.010 A 
ATOM     12  C   UNL A   1      43.522  23.165  25.399  1.00  0.00     0.010 A 
ATOM     13  C   UNL A   1      43.636  23.558  26.741  1.00  0.00    -0.014 A 
BRANCH  13  14
ATOM     14  C   UNL A   1      44.009  24.938  27.123  1.00  0.00     0.031 A 
ATOM     15  C   UNL A   1      45.419  25.438  27.011  1.00  0.00     0.074 A 
ATOM     16  C   UNL A   1      43.020  25.747  27.549  1.00  0.00     0.049 A 
ATOM     17  N   UNL A   1      45.896  26.615  27.327  1.00  0.00    -0.248 NA
ATOM     18  C   UNL A   1      46.429  24.503  26.492  1.00  0.00     0.031 C 
ATOM     19  C   UNL A   1      41.616  25.349  27.695  1.00  0.00     0.029 A 
ATOM     20  N   UNL A   1      43.026  27.068  27.906  1.00  0.00    -0.354 N 
ATOM     21  C   UNL A   1      47.259  26.556  27.072  1.00  0.00     0.074 A 
ATOM     22  C   UNL A   1      47.543  25.216  26.605  1.00  0.00     0.031 C 
ATOM     23  C   UNL A   1      40.886  26.418  28.026  1.00  0.00     0.029 A 
ATOM     24  C   UNL A   1      41.782  27.545  28.234  1.00  0.00     0.049 A 
ATOM     25  H   UNL A   1      43.841  27.621  27.925  1.00  0.00     0.167 HD
ATOM     26  C   UNL A   1      48.179  27.541  27.212  1.00  0.00     0.037 A 
ATOM     27  C   UNL A   1      41.400  28.750  28.687  1.00  0.00     0.037 A 
ATOM     28  C   UNL A   1      47.866  28.872  27.672  1.00  0.00     0.049 A 
ATOM     29  C   UNL A   1      42.446  29.804  28.874  1.00  0.00     0.074 A 
ATOM     30  C   UNL A   1      48.719  29.949  27.836  1.00  0.00     0.029 A 
ATOM     31  N   UNL A   1      46.599  29.306  28.044  1.00  0.00    -0.354 N 
ATOM     32  N   UNL A   1      43.733  29.738  28.631  1.00  0.00    -0.248 NA
ATOM     33  C   UNL A   1      41.993  31.093  29.401  1.00  0.00     0.031 C 
ATOM     34  C   UNL A   1      47.983  31.012  28.367  1.00  0.00     0.029 A 
ATOM     35  C   UNL A   1      46.655  30.628  28.460  1.00  0.00     0.049 A 
ATOM     36  H   UNL A   1      45.783  28.757  28.015  1.00  0.00     0.167 HD
ATOM     37  C   UNL A   1      44.244  30.983  28.956  1.00  0.00     0.074 A 
ATOM     38  C   UNL A   1      43.122  31.789  29.396  1.00  0.00     0.031 C 
ATOM     39  C   UNL A   1      45.527  31.417  28.894  1.00  0.00     0.037 A 
BRANCH  26  40
ATOM     40  C   UNL A   1      49.612  27.222  26.886  1.00  0.00     0.064 A 
ATOM     41  C   UNL A   1      50.079  27.323  25.565  1.00  0.00     0.173 A 
ATOM     42  C   UNL A   1      50.508  26.752  27.858  1.00  0.00     0.173 A 
ATOM     43  F   UNL A   1      49.268  27.762  24.591  1.00  0.00    -0.203 F 
ATOM     44  C   UNL A   1      51.380  26.954  25.230  1.00  0.00     0.198 A 
ATOM     45  C   UNL A   1      51.819  26.416  27.526  1.00  0.00     0.198 A 
ATOM     46  F   UNL A   1      50.120  26.644  29.138  1.00  0.00    -0.203 F 
ATOM     47  F   UNL A   1      51.789  27.025  23.955  1.00  0.00    -0.200 F 
ATOM     48  C   UNL A   1      52.251  26.506  26.212  1.00  0.00     0.200 A 
ATOM     49  F   UNL A   1      52.667  26.011  28.482  1.00  0.00    -0.200 F 
ATOM     50  F   UNL A   1      53.507  26.166  25.892  1.00  0.00    -0.200 F 
ENDBRANCH  26  40
BRANCH  27  51
ATOM     51  C   UNL A   1      39.966  28.987  28.984  1.00  0.00     0.064 A 
ATOM     52  C   UNL A   1      39.445  28.779  30.271  1.00  0.00     0.173 A 
ATOM     53  C   UNL A   1      39.072  29.340  27.965  1.00  0.00     0.173 A 
ATOM     54  F   UNL A   1      40.258  28.420  31.275  1.00  0.00    -0.203 F 
ATOM     55  C   UNL A   1      38.079  28.879  30.519  1.00  0.00     0.198 A 
ATOM     56  C   UNL A   1      37.710  29.476  28.224  1.00  0.00     0.198 A 
ATOM     57  F   UNL A   1      39.524  29.556  26.722  1.00  0.00    -0.203 F 
ATOM     58  F   UNL A   1      37.600  28.612  31.742  1.00  0.00    -0.200 F 
ATOM     59  C   UNL A   1      37.213  29.232  29.496  1.00  0.00     0.200 A 
ATOM     60  F   UNL A   1      36.878  29.836  27.238  1.00  0.00    -0.200 F 
ATOM     61  F   UNL A   1      35.899  29.335  29.735  1.00  0.00    -0.200 F 
ENDBRANCH  27  51
BRANCH  39  62
ATOM     62  C   UNL A   1      45.788  32.845  29.279  1.00  0.00     0.064 A 
ATOM     63  C   UNL A   1      46.071  33.175  30.615  1.00  0.00     0.173 A 
ATOM     64  C   UNL A   1      45.700  33.889  28.349  1.00  0.00     0.173 A 
ATOM     65  F   UNL A   1      46.159  32.212  31.546  1.00  0.00    -0.203 F 
ATOM     66  C   UNL A   1      46.236  34.500  31.005  1.00  0.00     0.198 A 
ATOM     67  C   UNL A   1      45.906  35.210  28.736  1.00  0.00     0.198 A 
ATOM     68  F   UNL A   1      45.449  33.625  27.058  1.00  0.00    -0.203 F 
ATOM     69  F   UNL A   1      46.463  34.793  32.293  1.00  0.00    -0.200 F 
ATOM     70  C   UNL A   1      46.161  35.516  30.065  1.00  0.00     0.200 A 
ATOM     71  F   UNL A   1      45.865  36.189  27.821  1.00  0.00    -0.200 F 
ATOM     72  F   UNL A   1      46.339  36.789  30.440  1.00  0.00    -0.200 F 
ENDBRANCH  39  62
ENDBRANCH  13  14
ENDBRANCH   6   8
ENDBRANCH   3   4
ENDBRANCH   2   3
ENDBRANCH   1   2
BRANCH   1  73
ATOM     73  C   UNL A   1      38.075  23.719  26.156  1.00  0.00     0.116 C 
BRANCH  73  74
ATOM     74  N   UNL A   1      37.712  23.426  24.762  1.00  0.00    -0.354 N 
ATOM     75  C   UNL A   1      36.494  23.121  24.006  1.00  0.00     0.244 C 
ATOM     76  H   UNL A   1      38.504  23.436  24.177  1.00  0.00     0.163 HD
ATOM     77  O   UNL A   1      36.978  23.460  22.858  1.00  0.00    -0.273 OA
BRANCH  75  78
ATOM     78  C   UNL A   1      34.411  22.411  24.588  1.00  0.00     0.197 C 
BRANCH  78  79
ATOM     79  N   UNL A   1      33.242  21.655  23.649  1.00  0.00    -0.340 N 
ATOM     80  C   UNL A   1      32.198  22.167  22.934  1.00  0.00     0.243 C 
ATOM     81  H   UNL A   1      33.324  20.675  23.607  1.00  0.00     0.164 HD
ATOM     82  O   UNL A   1      31.523  21.393  22.252  1.00  0.00    -0.273 OA
BRANCH  80  83
ATOM     83  C   UNL A   1      31.844  23.656  23.069  1.00  0.00     0.176 C 
BRANCH  83  84
ATOM     84  N   UNL A   1      32.064  24.231  21.734  1.00  0.00    -0.340 N 
ATOM     85  C   UNL A   1      32.924  25.232  21.362  1.00  0.00     0.251 C 
ATOM     86  H   UNL A   1      31.520  23.844  21.009  1.00  0.00     0.164 HD
ATOM     87  O   UNL A   1      33.115  25.481  20.177  1.00  0.00    -0.269 OA
BRANCH  85  88
ATOM     88  C   UNL A   1      33.506  26.098  22.406  1.00  0.00     0.040 A 
ATOM     89  C   UNL A   1      33.876  25.604  23.662  1.00  0.00     0.017 A 
ATOM     90  C   UNL A   1      33.575  27.468  22.132  1.00  0.00     0.017 A 
ATOM     91  C   UNL A   1      34.181  26.497  24.688  1.00  0.00     0.040 A 
ATOM     92  C   UNL A   1      33.919  28.354  23.151  1.00  0.00     0.040 A 
ATOM     93  C   UNL A   1      34.187  27.863  24.426  1.00  0.00     0.123 A 
ATOM     94  F   UNL A   1      34.443  28.721  25.421  1.00  0.00    -0.207 F 
ENDBRANCH  85  88
ENDBRANCH  83  84
BRANCH  83  95
ATOM     95  C   UNL A   1      30.459  23.913  23.664  1.00  0.00     0.072 C 
BRANCH  95  96
ATOM     96  C   UNL A   1      30.534  24.974  24.690  1.00  0.00    -0.020 A 
ATOM     97  C   UNL A   1      31.193  24.804  26.340  1.00  0.00     0.087 A 
ATOM     98  C   UNL A   1      30.428  26.896  24.276  1.00  0.00     0.003 A 
ATOM     99  N   UNL A   1      31.601  26.522  26.930  1.00  0.00    -0.361 N 
ATOM    100  C   UNL A   1      31.074  27.773  25.675  1.00  0.00     0.046 A 
ATOM    101  C   UNL A   1      30.067  27.660  23.158  1.00  0.00     0.010 A 
ATOM    102  H   UNL A   1      32.034  26.735  27.788  1.00  0.00     0.166 HD
ATOM    103  C   UNL A   1      31.180  29.155  25.607  1.00  0.00     0.026 A 
ATOM    104  C   UNL A   1      30.281  29.047  23.243  1.00  0.00     0.001 A 
ATOM    105  C   UNL A   1      30.790  29.739  24.383  1.00  0.00     0.002 A 
ENDBRANCH  95  96
ENDBRANCH  83  95
ENDBRANCH  80  83
ENDBRANCH  78  79
BRANCH  78 106
ATOM    106  C   UNL A   1      33.897  21.498  26.057  1.00  0.00     0.191 C 
BRANCH 106 107
ATOM    107  O   UNL A   1      33.872  20.063  26.026  1.00  0.00    -0.394 OA
ATOM    108  H   UNL A   1      33.005  19.761  25.711  1.00  0.00     0.210 HD
ENDBRANCH 106 107
ENDBRANCH  78 106
ENDBRANCH  75  78
ENDBRANCH  73  74
ENDBRANCH   1  73
TORSDOF 19
ENDMDL
MODEL 3
REMARK VINA RESULT:     -14.2      4.753     10.360
REMARK SMILES O=C(NCCCCNC(=O)[C@H](CO)NC(=O)[C@H](Cc1c[nH]c2ccccc12)NC(=O)c1ccc(F)cc1)c1ccc(-c2c3nc(c(-c4c(F)c(F)c(F)c(F)c4F)c4ccc([nH]4)c(-c4c(F)c(F)c(F)c(F)c4F)c4nc(c(-c5c(F)c(F)c(F)c(F)c5F)c5ccc2[nH]5)C=C4)C=C3)cc1
REMARK SMILES IDX 6 1 5 2 4 3 3 4 1 5 2 6 38 8 39 9 100 10 40 11 99 12 41 13
REMARK SMILES IDX 42 14 43 15 93 16 44 17 98 18 92 19 94 20 45 21 97 22 91 23
REMARK SMILES IDX 90 24 46 26 78 27 58 28 77 29 59 30 62 31 76 32 95 33 60 34
REMARK SMILES IDX 61 35 75 37 96 38 63 39 47 40 48 41 56 42 49 43 50 44 54 45
REMARK SMILES IDX 57 46 51 47 52 48 55 49 53 50 79 51 80 52 88 53 81 54 82 55
REMARK SMILES IDX 86 56 89 57 83 58 84 59 87 60 85 61 64 62 65 63 73 64 66 65
REMARK SMILES IDX 67 66 71 67 74 68 68 69 69 70 72 71 70 72 7 73 8 74 9 75
REMARK SMILES IDX 10 77 11 78 14 79 15 80 16 82 17 83 28 84 29 85 30 87 31 88
REMARK SMILES IDX 32 89 37 90 33 91 36 92 34 93 35 94 18 95 19 96 20 97 27 98
REMARK SMILES IDX 21 99 22 100 26 101 23 103 25 104 24 105 12 106 13 107
REMARK H PARENT 3 7 94 25 62 36 8 76 14 81 28 86 21 102 13 108
REMARK Flexibility Score: inf
ROOT
ATOM      1  C   UNL A   1      37.083  21.678  25.717  1.00  0.00     0.023 C 
ENDROOT
BRANCH   1   2
ATOM      2  C   UNL A   1      38.318  21.023  25.135  1.00  0.00     0.023 C 
BRANCH   2   3
ATOM      3  C   UNL A   1      39.450  20.918  26.127  1.00  0.00     0.116 C 
BRANCH   3   4
ATOM      4  N   UNL A   1      40.181  19.651  26.052  1.00  0.00    -0.352 N 
ATOM      5  O   UNL A   1      42.064  18.378  25.961  1.00  0.00    -0.269 OA
ATOM      6  C   UNL A   1      41.542  19.471  26.115  1.00  0.00     0.251 C 
ATOM      7  H   UNL A   1      39.638  18.838  25.944  1.00  0.00     0.163 HD
BRANCH   6   8
ATOM      8  C   UNL A   1      42.338  20.685  26.334  1.00  0.00     0.039 A 
ATOM      9  C   UNL A   1      42.547  21.091  27.652  1.00  0.00     0.014 A 
ATOM     10  C   UNL A   1      42.608  21.522  25.254  1.00  0.00     0.014 A 
ATOM     11  C   UNL A   1      42.809  22.422  27.895  1.00  0.00     0.010 A 
ATOM     12  C   UNL A   1      43.044  22.819  25.508  1.00  0.00     0.010 A 
ATOM     13  C   UNL A   1      43.104  23.291  26.828  1.00  0.00    -0.014 A 
BRANCH  13  14
ATOM     14  C   UNL A   1      43.554  24.664  27.148  1.00  0.00     0.031 A 
ATOM     15  C   UNL A   1      44.962  25.116  26.897  1.00  0.00     0.074 A 
ATOM     16  C   UNL A   1      42.635  25.512  27.648  1.00  0.00     0.049 A 
ATOM     17  N   UNL A   1      45.502  26.281  27.146  1.00  0.00    -0.248 NA
ATOM     18  C   UNL A   1      45.891  24.140  26.305  1.00  0.00     0.031 C 
ATOM     19  C   UNL A   1      41.238  25.162  27.930  1.00  0.00     0.029 A 
ATOM     20  N   UNL A   1      42.714  26.837  27.978  1.00  0.00    -0.354 N 
ATOM     21  C   UNL A   1      46.834  26.173  26.768  1.00  0.00     0.074 A 
ATOM     22  C   UNL A   1      47.031  24.818  26.302  1.00  0.00     0.031 C 
ATOM     23  C   UNL A   1      40.575  26.260  28.307  1.00  0.00     0.029 A 
ATOM     24  C   UNL A   1      41.521  27.359  28.410  1.00  0.00     0.049 A 
ATOM     25  H   UNL A   1      43.545  27.363  27.912  1.00  0.00     0.167 HD
ATOM     26  C   UNL A   1      47.793  27.130  26.804  1.00  0.00     0.037 A 
ATOM     27  C   UNL A   1      41.221  28.583  28.874  1.00  0.00     0.037 A 
ATOM     28  C   UNL A   1      47.565  28.477  27.266  1.00  0.00     0.049 A 
ATOM     29  C   UNL A   1      42.312  29.605  28.944  1.00  0.00     0.074 A 
ATOM     30  C   UNL A   1      48.463  29.529  27.329  1.00  0.00     0.029 A 
ATOM     31  N   UNL A   1      46.353  28.959  27.744  1.00  0.00    -0.354 N 
ATOM     32  N   UNL A   1      43.568  29.493  28.585  1.00  0.00    -0.248 NA
ATOM     33  C   UNL A   1      41.951  30.917  29.486  1.00  0.00     0.031 C 
ATOM     34  C   UNL A   1      47.813  30.623  27.906  1.00  0.00     0.029 A 
ATOM     35  C   UNL A   1      46.488  30.285  28.129  1.00  0.00     0.049 A 
ATOM     36  H   UNL A   1      45.521  28.437  27.801  1.00  0.00     0.167 HD
ATOM     37  C   UNL A   1      44.146  30.726  28.837  1.00  0.00     0.074 A 
ATOM     38  C   UNL A   1      43.095  31.575  29.364  1.00  0.00     0.031 C 
ATOM     39  C   UNL A   1      45.430  31.116  28.650  1.00  0.00     0.037 A 
BRANCH  26  40
ATOM     40  C   UNL A   1      49.179  26.759  26.352  1.00  0.00     0.064 A 
ATOM     41  C   UNL A   1      50.118  26.266  27.273  1.00  0.00     0.173 A 
ATOM     42  C   UNL A   1      49.605  26.953  25.030  1.00  0.00     0.173 A 
ATOM     43  F   UNL A   1      49.771  26.066  28.553  1.00  0.00    -0.203 F 
ATOM     44  C   UNL A   1      51.431  25.996  26.890  1.00  0.00     0.198 A 
ATOM     45  C   UNL A   1      50.908  26.648  24.641  1.00  0.00     0.198 A 
ATOM     46  F   UNL A   1      48.748  27.411  24.104  1.00  0.00    -0.203 F 
ATOM     47  F   UNL A   1      52.317  25.562  27.797  1.00  0.00    -0.200 F 
ATOM     48  C   UNL A   1      51.822  26.181  25.573  1.00  0.00     0.200 A 
ATOM     49  F   UNL A   1      51.277  26.800  23.361  1.00  0.00    -0.200 F 
ATOM     50  F   UNL A   1      53.080  25.905  25.201  1.00  0.00    -0.200 F 
ENDBRANCH  26  40
BRANCH  27  51
ATOM     51  C   UNL A   1      39.829  28.872  29.298  1.00  0.00     0.064 A 
ATOM     52  C   UNL A   1      39.408  28.646  30.618  1.00  0.00     0.173 A 
ATOM     53  C   UNL A   1      38.870  29.293  28.368  1.00  0.00     0.173 A 
ATOM     54  F   UNL A   1      40.284  28.223  31.540  1.00  0.00    -0.203 F 
ATOM     55  C   UNL A   1      38.073  28.797  30.983  1.00  0.00     0.198 A 
ATOM     56  C   UNL A   1      37.541  29.480  28.745  1.00  0.00     0.198 A 
ATOM     57  F   UNL A   1      39.226  29.528  27.098  1.00  0.00    -0.203 F 
ATOM     58  F   UNL A   1      37.686  28.512  32.234  1.00  0.00    -0.200 F 
ATOM     59  C   UNL A   1      37.142  29.218  30.047  1.00  0.00     0.200 A 
ATOM     60  F   UNL A   1      36.647  29.905  27.842  1.00  0.00    -0.200 F 
ATOM     61  F   UNL A   1      35.858  29.369  30.399  1.00  0.00    -0.200 F 
ENDBRANCH  27  51
BRANCH  39  62
ATOM     62  C   UNL A   1      45.770  32.541  28.983  1.00  0.00     0.064 A 
ATOM     63  C   UNL A   1      46.210  32.879  30.273  1.00  0.00     0.173 A 
ATOM     64  C   UNL A   1      45.605  33.577  28.053  1.00  0.00     0.173 A 
ATOM     65  F   UNL A   1      46.378  31.925  31.202  1.00  0.00    -0.203 F 
ATOM     66  C   UNL A   1      46.453  34.203  30.623  1.00  0.00     0.198 A 
ATOM     67  C   UNL A   1      45.888  34.896  28.395  1.00  0.00     0.198 A 
ATOM     68  F   UNL A   1      45.203  33.305  26.802  1.00  0.00    -0.203 F 
ATOM     69  F   UNL A   1      46.831  34.504  31.873  1.00  0.00    -0.200 F 
ATOM     70  C   UNL A   1      46.299  35.210  29.683  1.00  0.00     0.200 A 
ATOM     71  F   UNL A   1      45.769  35.865  27.477  1.00  0.00    -0.200 F 
ATOM     72  F   UNL A   1      46.551  36.482  30.016  1.00  0.00    -0.200 F 
ENDBRANCH  39  62
ENDBRANCH  13  14
ENDBRANCH   6   8
ENDBRANCH   3   4
ENDBRANCH   2   3
ENDBRANCH   1   2
BRANCH   1  73
ATOM     73  C   UNL A   1      35.769  20.962  25.373  1.00  0.00     0.116 C 
BRANCH  73  74
ATOM     74  N   UNL A   1      34.576  21.689  25.830  1.00  0.00    -0.354 N 
ATOM     75  C   UNL A   1      33.238  21.998  25.315  1.00  0.00     0.244 C 
ATOM     76  H   UNL A   1      34.713  22.075  26.725  1.00  0.00     0.163 HD
ATOM     77  O   UNL A   1      32.719  22.242  26.472  1.00  0.00    -0.273 OA
BRANCH  75  78
ATOM     78  C   UNL A   1      32.299  21.968  23.242  1.00  0.00     0.197 C 
BRANCH  78  79
ATOM     79  N   UNL A   1      32.568  22.988  21.936  1.00  0.00    -0.340 N 
ATOM     80  C   UNL A   1      32.861  24.320  21.884  1.00  0.00     0.243 C 
ATOM     81  H   UNL A   1      32.504  22.550  21.056  1.00  0.00     0.164 HD
ATOM     82  O   UNL A   1      33.097  24.824  20.784  1.00  0.00    -0.273 OA
BRANCH  80  83
ATOM     83  C   UNL A   1      32.801  25.160  23.169  1.00  0.00     0.176 C 
BRANCH  83  84
ATOM     84  N   UNL A   1      34.119  25.000  23.801  1.00  0.00    -0.340 N 
ATOM     85  C   UNL A   1      34.490  25.272  25.092  1.00  0.00     0.251 C 
ATOM     86  H   UNL A   1      34.831  24.649  23.217  1.00  0.00     0.164 HD
ATOM     87  O   UNL A   1      35.587  24.921  25.512  1.00  0.00    -0.269 OA
BRANCH  85  88
ATOM     88  C   UNL A   1      33.611  26.115  25.926  1.00  0.00     0.040 A 
ATOM     89  C   UNL A   1      32.351  25.681  26.353  1.00  0.00     0.017 A 
ATOM     90  C   UNL A   1      34.040  27.419  26.188  1.00  0.00     0.017 A 
ATOM     91  C   UNL A   1      31.464  26.597  26.917  1.00  0.00     0.040 A 
ATOM     92  C   UNL A   1      33.164  28.321  26.788  1.00  0.00     0.040 A 
ATOM     93  C   UNL A   1      31.875  27.911  27.117  1.00  0.00     0.123 A 
ATOM     94  F   UNL A   1      31.011  28.799  27.625  1.00  0.00    -0.207 F 
ENDBRANCH  85  88
ENDBRANCH  83  84
BRANCH  83  95
ATOM     95  C   UNL A   1      32.363  26.608  22.944  1.00  0.00     0.072 C 
BRANCH  95  96
ATOM     96  C   UNL A   1      30.889  26.698  22.933  1.00  0.00    -0.020 A 
ATOM     97  C   UNL A   1      29.754  25.553  23.698  1.00  0.00     0.087 A 
ATOM     98  C   UNL A   1      29.904  28.360  22.549  1.00  0.00     0.003 A 
ATOM     99  N   UNL A   1      28.140  26.458  23.904  1.00  0.00    -0.361 N 
ATOM    100  C   UNL A   1      28.249  28.141  23.147  1.00  0.00     0.046 A 
ATOM    101  C   UNL A   1      30.231  29.619  22.029  1.00  0.00     0.010 A 
ATOM    102  H   UNL A   1      27.342  26.093  24.351  1.00  0.00     0.166 HD
ATOM    103  C   UNL A   1      27.363  29.205  23.064  1.00  0.00     0.026 A 
ATOM    104  C   UNL A   1      29.223  30.599  22.061  1.00  0.00     0.001 A 
ATOM    105  C   UNL A   1      27.891  30.402  22.534  1.00  0.00     0.002 A 
ENDBRANCH  95  96
ENDBRANCH  83  95
ENDBRANCH  80  83
ENDBRANCH  78  79
BRANCH  78 106
ATOM    106  C   UNL A   1      32.012  20.560  22.150  1.00  0.00     0.191 C 
BRANCH 106 107
ATOM    107  O   UNL A   1      31.421  20.774  20.859  1.00  0.00    -0.394 OA
ATOM    108  H   UNL A   1      31.516  21.707  20.611  1.00  0.00     0.210 HD
ENDBRANCH 106 107
ENDBRANCH  78 106
ENDBRANCH  75  78
ENDBRANCH  73  74
ENDBRANCH   1  73
TORSDOF 19
ENDMDL
