MODEL 1
REMARK VINA RESULT:     -12.8      0.000      0.000
REMARK SMILES O=C(NCCCCNC(=O)c1ccccc1NC(=O)c1ccncc1)c1ccc(-c2c3nc(c(-c4c(F)c(F)c(F)c(F)c4F)c4ccc([nH]4)c(-c4c(F)c(F)c(F)c(F)c4F)c4nc(c(-c5c(F)c(F)c(F)c(F)c5F)c5ccc2[nH]5)C=C4)C=C3)cc1
REMARK SMILES IDX 5 1 4 2 3 3 1 4 2 5 26 7 27 8 88 9 28 10 87 11 29 12 30 13
REMARK SMILES IDX 31 14 81 15 32 16 86 17 80 18 82 19 33 20 85 21 79 22 78 23
REMARK SMILES IDX 34 25 66 26 46 27 65 28 47 29 50 30 64 31 83 32 48 33 49 34
REMARK SMILES IDX 63 36 84 37 51 38 35 39 36 40 44 41 37 42 38 43 42 44 45 45
REMARK SMILES IDX 39 46 40 47 43 48 41 49 67 50 68 51 76 52 69 53 70 54 74 55
REMARK SMILES IDX 77 56 71 57 72 58 75 59 73 60 52 61 53 62 61 63 54 64 55 65
REMARK SMILES IDX 59 66 62 67 56 68 57 69 60 70 58 71 6 72 7 73 8 74 9 75
REMARK SMILES IDX 10 77 11 78 12 79 16 80 13 81 15 82 14 83 17 84 18 85 19 87
REMARK SMILES IDX 20 88 21 89 25 90 22 91 24 92 23 93
REMARK H PARENT 3 6 82 24 50 35 8 76 17 86
REMARK Flexibility Score: inf
ROOT
ATOM      1  C   UNL A   1      31.426  32.054  26.830  1.00  0.00     0.023 C 
ENDROOT
BRANCH   1   2
ATOM      2  C   UNL A   1      32.658  32.827  27.284  1.00  0.00     0.116 C 
BRANCH   2   3
ATOM      3  N   UNL A   1      32.363  34.198  27.673  1.00  0.00    -0.352 N 
ATOM      4  O   UNL A   1      32.473  36.088  28.902  1.00  0.00    -0.269 OA
ATOM      5  C   UNL A   1      32.959  34.995  28.623  1.00  0.00     0.251 C 
ATOM      6  H   UNL A   1      31.623  34.621  27.180  1.00  0.00     0.163 HD
BRANCH   5   7
ATOM      7  C   UNL A   1      34.160  34.520  29.344  1.00  0.00     0.039 A 
ATOM      8  C   UNL A   1      35.434  34.683  28.800  1.00  0.00     0.014 A 
ATOM      9  C   UNL A   1      34.005  33.881  30.578  1.00  0.00     0.014 A 
ATOM     10  C   UNL A   1      36.520  34.040  29.385  1.00  0.00     0.010 A 
ATOM     11  C   UNL A   1      35.115  33.320  31.217  1.00  0.00     0.010 A 
ATOM     12  C   UNL A   1      36.374  33.343  30.596  1.00  0.00    -0.014 A 
BRANCH  12  13
ATOM     13  C   UNL A   1      37.554  32.656  31.185  1.00  0.00     0.031 A 
ATOM     14  C   UNL A   1      38.027  32.980  32.577  1.00  0.00     0.074 A 
ATOM     15  C   UNL A   1      38.168  31.689  30.477  1.00  0.00     0.049 A 
ATOM     16  N   UNL A   1      38.998  32.435  33.268  1.00  0.00    -0.248 NA
ATOM     17  C   UNL A   1      37.329  34.063  33.288  1.00  0.00     0.031 C 
ATOM     18  C   UNL A   1      37.813  31.292  29.113  1.00  0.00     0.029 A 
ATOM     19  N   UNL A   1      39.195  30.844  30.812  1.00  0.00    -0.354 N 
ATOM     20  C   UNL A   1      39.046  33.123  34.474  1.00  0.00     0.074 A 
ATOM     21  C   UNL A   1      38.020  34.142  34.416  1.00  0.00     0.031 C 
ATOM     22  C   UNL A   1      38.565  30.242  28.751  1.00  0.00     0.029 A 
ATOM     23  C   UNL A   1      39.492  29.928  29.833  1.00  0.00     0.049 A 
ATOM     24  H   UNL A   1      39.674  30.890  31.671  1.00  0.00     0.167 HD
ATOM     25  C   UNL A   1      39.863  32.917  35.536  1.00  0.00     0.037 A 
ATOM     26  C   UNL A   1      40.408  28.943  29.807  1.00  0.00     0.037 A 
ATOM     27  C   UNL A   1      40.859  31.878  35.608  1.00  0.00     0.049 A 
ATOM     28  C   UNL A   1      41.291  28.730  31.003  1.00  0.00     0.074 A 
ATOM     29  C   UNL A   1      41.703  31.563  36.658  1.00  0.00     0.029 A 
ATOM     30  N   UNL A   1      41.142  30.984  34.587  1.00  0.00    -0.354 N 
ATOM     31  N   UNL A   1      41.299  29.366  32.148  1.00  0.00    -0.248 NA
ATOM     32  C   UNL A   1      42.292  27.660  30.900  1.00  0.00     0.031 C 
ATOM     33  C   UNL A   1      42.524  30.502  36.260  1.00  0.00     0.029 A 
ATOM     34  C   UNL A   1      42.161  30.127  34.977  1.00  0.00     0.049 A 
ATOM     35  H   UNL A   1      40.687  30.960  33.714  1.00  0.00     0.167 HD
ATOM     36  C   UNL A   1      42.289  28.762  32.911  1.00  0.00     0.074 A 
ATOM     37  C   UNL A   1      42.846  27.697  32.103  1.00  0.00     0.031 C 
ATOM     38  C   UNL A   1      42.700  29.067  34.166  1.00  0.00     0.037 A 
BRANCH  25  39
ATOM     39  C   UNL A   1      39.729  33.844  36.709  1.00  0.00     0.064 A 
ATOM     40  C   UNL A   1      40.368  35.092  36.743  1.00  0.00     0.173 A 
ATOM     41  C   UNL A   1      38.910  33.498  37.795  1.00  0.00     0.173 A 
ATOM     42  F   UNL A   1      41.172  35.466  35.737  1.00  0.00    -0.203 F 
ATOM     43  C   UNL A   1      40.209  35.950  37.830  1.00  0.00     0.198 A 
ATOM     44  C   UNL A   1      38.731  34.368  38.866  1.00  0.00     0.198 A 
ATOM     45  F   UNL A   1      38.269  32.318  37.810  1.00  0.00    -0.203 F 
ATOM     46  F   UNL A   1      40.861  37.120  37.859  1.00  0.00    -0.200 F 
ATOM     47  C   UNL A   1      39.386  35.591  38.887  1.00  0.00     0.200 A 
ATOM     48  F   UNL A   1      37.926  34.025  39.882  1.00  0.00    -0.200 F 
ATOM     49  F   UNL A   1      39.228  36.420  39.927  1.00  0.00    -0.200 F 
ENDBRANCH  25  39
BRANCH  26  50
ATOM     50  C   UNL A   1      40.518  28.073  28.609  1.00  0.00     0.064 A 
ATOM     51  C   UNL A   1      41.298  28.457  27.510  1.00  0.00     0.173 A 
ATOM     52  C   UNL A   1      39.859  26.837  28.544  1.00  0.00     0.173 A 
ATOM     53  F   UNL A   1      41.931  29.639  27.519  1.00  0.00    -0.203 F 
ATOM     54  C   UNL A   1      41.405  27.642  26.385  1.00  0.00     0.198 A 
ATOM     55  C   UNL A   1      39.989  26.010  27.430  1.00  0.00     0.198 A 
ATOM     56  F   UNL A   1      39.104  26.423  29.573  1.00  0.00    -0.203 F 
ATOM     57  F   UNL A   1      42.126  28.049  25.332  1.00  0.00    -0.200 F 
ATOM     58  C   UNL A   1      40.755  26.417  26.349  1.00  0.00     0.200 A 
ATOM     59  F   UNL A   1      39.373  24.821  27.407  1.00  0.00    -0.200 F 
ATOM     60  F   UNL A   1      40.865  25.630  25.270  1.00  0.00    -0.200 F 
ENDBRANCH  26  50
BRANCH  38  61
ATOM     61  C   UNL A   1      43.783  28.212  34.753  1.00  0.00     0.064 A 
ATOM     62  C   UNL A   1      45.137  28.557  34.638  1.00  0.00     0.173 A 
ATOM     63  C   UNL A   1      43.460  27.041  35.455  1.00  0.00     0.173 A 
ATOM     64  F   UNL A   1      45.497  29.658  33.961  1.00  0.00    -0.203 F 
ATOM     65  C   UNL A   1      46.130  27.745  35.178  1.00  0.00     0.198 A 
ATOM     66  C   UNL A   1      44.453  26.246  36.018  1.00  0.00     0.198 A 
ATOM     67  F   UNL A   1      42.178  26.670  35.598  1.00  0.00    -0.203 F 
ATOM     68  F   UNL A   1      47.421  28.067  35.011  1.00  0.00    -0.200 F 
ATOM     69  C   UNL A   1      45.788  26.593  35.871  1.00  0.00     0.200 A 
ATOM     70  F   UNL A   1      44.121  25.139  36.696  1.00  0.00    -0.200 F 
ATOM     71  F   UNL A   1      46.745  25.813  36.390  1.00  0.00    -0.200 F 
ENDBRANCH  38  61
ENDBRANCH  12  13
ENDBRANCH   5   7
ENDBRANCH   2   3
ENDBRANCH   1   2
BRANCH   1  72
ATOM     72  C   UNL A   1      31.700  30.726  26.127  1.00  0.00     0.023 C 
BRANCH  72  73
ATOM     73  C   UNL A   1      31.887  29.524  27.047  1.00  0.00     0.116 C 
BRANCH  73  74
ATOM     74  N   UNL A   1      32.910  28.606  26.573  1.00  0.00    -0.352 N 
ATOM     75  C   UNL A   1      32.800  27.575  25.678  1.00  0.00     0.253 C 
ATOM     76  H   UNL A   1      33.809  28.747  26.948  1.00  0.00     0.163 HD
ATOM     77  O   UNL A   1      33.760  26.840  25.469  1.00  0.00    -0.269 OA
BRANCH  75  78
ATOM     78  C   UNL A   1      31.530  27.334  24.963  1.00  0.00     0.063 A 
ATOM     79  C   UNL A   1      31.259  28.193  23.888  1.00  0.00     0.016 A 
ATOM     80  C   UNL A   1      30.616  26.328  25.341  1.00  0.00     0.054 A 
ATOM     81  C   UNL A   1      30.078  28.055  23.167  1.00  0.00     0.001 A 
ATOM     82  C   UNL A   1      29.408  26.250  24.639  1.00  0.00     0.027 A 
ATOM     83  C   UNL A   1      29.151  27.091  23.550  1.00  0.00     0.002 A 
BRANCH  80  84
ATOM     84  N   UNL A   1      30.935  25.474  26.421  1.00  0.00    -0.321 N 
ATOM     85  C   UNL A   1      31.516  24.232  26.508  1.00  0.00     0.255 C 
ATOM     86  H   UNL A   1      30.690  25.850  27.297  1.00  0.00     0.170 HD
ATOM     87  O   UNL A   1      31.564  23.664  27.599  1.00  0.00    -0.269 OA
BRANCH  85  88
ATOM     88  C   UNL A   1      32.157  23.571  25.359  1.00  0.00     0.043 A 
ATOM     89  C   UNL A   1      33.542  23.441  25.264  1.00  0.00     0.034 A 
ATOM     90  C   UNL A   1      31.332  23.025  24.377  1.00  0.00     0.034 A 
ATOM     91  C   UNL A   1      34.050  22.834  24.130  1.00  0.00     0.112 A 
ATOM     92  C   UNL A   1      31.939  22.428  23.290  1.00  0.00     0.112 A 
ATOM     93  N   UNL A   1      33.278  22.339  23.138  1.00  0.00    -0.265 NA
ENDBRANCH  85  88
ENDBRANCH  80  84
ENDBRANCH  75  78
ENDBRANCH  73  74
ENDBRANCH  72  73
ENDBRANCH   1  72
TORSDOF 13
ENDMDL
MODEL 2
REMARK VINA RESULT:     -12.8      0.105      1.681
REMARK SMILES O=C(NCCCCNC(=O)c1ccccc1NC(=O)c1ccncc1)c1ccc(-c2c3nc(c(-c4c(F)c(F)c(F)c(F)c4F)c4ccc([nH]4)c(-c4c(F)c(F)c(F)c(F)c4F)c4nc(c(-c5c(F)c(F)c(F)c(F)c5F)c5ccc2[nH]5)C=C4)C=C3)cc1
REMARK SMILES IDX 5 1 4 2 3 3 1 4 2 5 26 7 27 8 88 9 28 10 87 11 29 12 30 13
REMARK SMILES IDX 31 14 81 15 32 16 86 17 80 18 82 19 33 20 85 21 79 22 78 23
REMARK SMILES IDX 34 25 66 26 46 27 65 28 47 29 50 30 64 31 83 32 48 33 49 34
REMARK SMILES IDX 63 36 84 37 51 38 35 39 36 40 44 41 37 42 38 43 42 44 45 45
REMARK SMILES IDX 39 46 40 47 43 48 41 49 67 50 68 51 76 52 69 53 70 54 74 55
REMARK SMILES IDX 77 56 71 57 72 58 75 59 73 60 52 61 53 62 61 63 54 64 55 65
REMARK SMILES IDX 59 66 62 67 56 68 57 69 60 70 58 71 6 72 7 73 8 74 9 75
REMARK SMILES IDX 10 77 11 78 12 79 16 80 13 81 15 82 14 83 17 84 18 85 19 87
REMARK SMILES IDX 20 88 21 89 25 90 22 91 24 92 23 93
REMARK H PARENT 3 6 82 24 50 35 8 76 17 86
REMARK Flexibility Score: inf
ROOT
ATOM      1  C   UNL A   1      31.426  32.056  26.823  1.00  0.00     0.023 C 
ENDROOT
BRANCH   1   2
ATOM      2  C   UNL A   1      32.654  32.825  27.294  1.00  0.00     0.116 C 
BRANCH   2   3
ATOM      3  N   UNL A   1      32.361  34.201  27.665  1.00  0.00    -0.352 N 
ATOM      4  O   UNL A   1      32.472  36.105  28.872  1.00  0.00    -0.269 OA
ATOM      5  C   UNL A   1      32.955  35.008  28.608  1.00  0.00     0.251 C 
ATOM      6  H   UNL A   1      31.624  34.620  27.164  1.00  0.00     0.163 HD
BRANCH   5   7
ATOM      7  C   UNL A   1      34.152  34.539  29.339  1.00  0.00     0.039 A 
ATOM      8  C   UNL A   1      35.431  34.707  28.806  1.00  0.00     0.014 A 
ATOM      9  C   UNL A   1      33.990  33.901  30.573  1.00  0.00     0.014 A 
ATOM     10  C   UNL A   1      36.514  34.069  29.400  1.00  0.00     0.010 A 
ATOM     11  C   UNL A   1      35.098  33.345  31.221  1.00  0.00     0.010 A 
ATOM     12  C   UNL A   1      36.361  33.373  30.611  1.00  0.00    -0.014 A 
BRANCH  12  13
ATOM     13  C   UNL A   1      37.539  32.692  31.210  1.00  0.00     0.031 A 
ATOM     14  C   UNL A   1      38.002  33.022  32.604  1.00  0.00     0.074 A 
ATOM     15  C   UNL A   1      38.161  31.724  30.510  1.00  0.00     0.049 A 
ATOM     16  N   UNL A   1      38.970  32.482  33.304  1.00  0.00    -0.248 NA
ATOM     17  C   UNL A   1      37.295  34.105  33.306  1.00  0.00     0.031 C 
ATOM     18  C   UNL A   1      37.817  31.321  29.145  1.00  0.00     0.029 A 
ATOM     19  N   UNL A   1      39.189  30.884  30.855  1.00  0.00    -0.354 N 
ATOM     20  C   UNL A   1      39.007  33.174  34.508  1.00  0.00     0.074 A 
ATOM     21  C   UNL A   1      37.978  34.190  34.439  1.00  0.00     0.031 C 
ATOM     22  C   UNL A   1      38.575  30.273  28.791  1.00  0.00     0.029 A 
ATOM     23  C   UNL A   1      39.496  29.966  29.880  1.00  0.00     0.049 A 
ATOM     24  H   UNL A   1      39.661  30.935  31.717  1.00  0.00     0.167 HD
ATOM     25  C   UNL A   1      39.817  32.974  35.576  1.00  0.00     0.037 A 
ATOM     26  C   UNL A   1      40.415  28.984  29.864  1.00  0.00     0.037 A 
ATOM     27  C   UNL A   1      40.815  31.939  35.659  1.00  0.00     0.049 A 
ATOM     28  C   UNL A   1      41.290  28.777  31.067  1.00  0.00     0.074 A 
ATOM     29  C   UNL A   1      41.653  31.630  36.716  1.00  0.00     0.029 A 
ATOM     30  N   UNL A   1      41.108  31.042  34.642  1.00  0.00    -0.354 N 
ATOM     31  N   UNL A   1      41.288  29.417  32.210  1.00  0.00    -0.248 NA
ATOM     32  C   UNL A   1      42.296  27.711  30.975  1.00  0.00     0.031 C 
ATOM     33  C   UNL A   1      42.480  30.571  36.327  1.00  0.00     0.029 A 
ATOM     34  C   UNL A   1      42.128  30.190  35.043  1.00  0.00     0.049 A 
ATOM     35  H   UNL A   1      40.660  31.014  33.767  1.00  0.00     0.167 HD
ATOM     36  C   UNL A   1      42.274  28.819  32.982  1.00  0.00     0.074 A 
ATOM     37  C   UNL A   1      42.841  27.753  32.182  1.00  0.00     0.031 C 
ATOM     38  C   UNL A   1      42.676  29.129  34.239  1.00  0.00     0.037 A 
BRANCH  25  39
ATOM     39  C   UNL A   1      39.672  33.904  36.745  1.00  0.00     0.064 A 
ATOM     40  C   UNL A   1      38.887  33.576  37.861  1.00  0.00     0.173 A 
ATOM     41  C   UNL A   1      40.369  35.123  36.772  1.00  0.00     0.173 A 
ATOM     42  F   UNL A   1      38.192  32.430  37.881  1.00  0.00    -0.203 F 
ATOM     43  C   UNL A   1      38.788  34.442  38.948  1.00  0.00     0.198 A 
ATOM     44  C   UNL A   1      40.289  35.973  37.871  1.00  0.00     0.198 A 
ATOM     45  F   UNL A   1      41.140  35.483  35.734  1.00  0.00    -0.203 F 
ATOM     46  F   UNL A   1      37.999  34.125  39.984  1.00  0.00    -0.200 F 
ATOM     47  C   UNL A   1      39.493  35.636  38.955  1.00  0.00     0.200 A 
ATOM     48  F   UNL A   1      40.981  37.121  37.882  1.00  0.00    -0.200 F 
ATOM     49  F   UNL A   1      39.402  36.463  40.005  1.00  0.00    -0.200 F 
ENDBRANCH  25  39
BRANCH  26  50
ATOM     50  C   UNL A   1      40.536  28.110  28.670  1.00  0.00     0.064 A 
ATOM     51  C   UNL A   1      39.851  26.889  28.600  1.00  0.00     0.173 A 
ATOM     52  C   UNL A   1      41.327  28.481  27.574  1.00  0.00     0.173 A 
ATOM     53  F   UNL A   1      39.098  26.483  29.633  1.00  0.00    -0.203 F 
ATOM     54  C   UNL A   1      39.962  26.066  27.480  1.00  0.00     0.198 A 
ATOM     55  C   UNL A   1      41.415  27.671  26.444  1.00  0.00     0.198 A 
ATOM     56  F   UNL A   1      41.998  29.642  27.592  1.00  0.00    -0.203 F 
ATOM     57  F   UNL A   1      39.328  24.887  27.454  1.00  0.00    -0.200 F 
ATOM     58  C   UNL A   1      40.739  26.462  26.401  1.00  0.00     0.200 A 
ATOM     59  F   UNL A   1      42.153  28.064  25.397  1.00  0.00    -0.200 F 
ATOM     60  F   UNL A   1      40.838  25.674  25.322  1.00  0.00    -0.200 F 
ENDBRANCH  26  50
BRANCH  38  61
ATOM     61  C   UNL A   1      43.757  28.279  34.836  1.00  0.00     0.064 A 
ATOM     62  C   UNL A   1      45.112  28.627  34.726  1.00  0.00     0.173 A 
ATOM     63  C   UNL A   1      43.433  27.112  35.544  1.00  0.00     0.173 A 
ATOM     64  F   UNL A   1      45.473  29.724  34.044  1.00  0.00    -0.203 F 
ATOM     65  C   UNL A   1      46.103  27.820  35.275  1.00  0.00     0.198 A 
ATOM     66  C   UNL A   1      44.425  26.322  36.116  1.00  0.00     0.198 A 
ATOM     67  F   UNL A   1      42.151  26.740  35.683  1.00  0.00    -0.203 F 
ATOM     68  F   UNL A   1      47.394  28.143  35.113  1.00  0.00    -0.200 F 
ATOM     69  C   UNL A   1      45.760  26.671  35.974  1.00  0.00     0.200 A 
ATOM     70  F   UNL A   1      44.092  25.218  36.799  1.00  0.00    -0.200 F 
ATOM     71  F   UNL A   1      46.716  25.896  36.502  1.00  0.00    -0.200 F 
ENDBRANCH  38  61
ENDBRANCH  12  13
ENDBRANCH   5   7
ENDBRANCH   2   3
ENDBRANCH   1   2
BRANCH   1  72
ATOM     72  C   UNL A   1      31.707  30.756  26.072  1.00  0.00     0.023 C 
BRANCH  72  73
ATOM     73  C   UNL A   1      31.856  29.513  26.945  1.00  0.00     0.116 C 
BRANCH  73  74
ATOM     74  N   UNL A   1      32.858  28.589  26.440  1.00  0.00    -0.352 N 
ATOM     75  C   UNL A   1      32.714  27.554  25.554  1.00  0.00     0.253 C 
ATOM     76  H   UNL A   1      33.771  28.727  26.784  1.00  0.00     0.163 HD
ATOM     77  O   UNL A   1      33.663  26.814  25.316  1.00  0.00    -0.269 OA
BRANCH  75  78
ATOM     78  C   UNL A   1      31.419  27.316  24.883  1.00  0.00     0.063 A 
ATOM     79  C   UNL A   1      31.121  28.164  23.807  1.00  0.00     0.016 A 
ATOM     80  C   UNL A   1      30.509  26.324  25.305  1.00  0.00     0.054 A 
ATOM     81  C   UNL A   1      29.916  28.026  23.126  1.00  0.00     0.001 A 
ATOM     82  C   UNL A   1      29.278  26.248  24.644  1.00  0.00     0.027 A 
ATOM     83  C   UNL A   1      28.993  27.077  23.552  1.00  0.00     0.002 A 
BRANCH  80  84
ATOM     84  N   UNL A   1      30.855  25.482  26.386  1.00  0.00    -0.321 N 
ATOM     85  C   UNL A   1      31.433  24.238  26.471  1.00  0.00     0.255 C 
ATOM     86  H   UNL A   1      30.636  25.869  27.264  1.00  0.00     0.170 HD
ATOM     87  O   UNL A   1      31.509  23.683  27.568  1.00  0.00    -0.269 OA
BRANCH  85  88
ATOM     88  C   UNL A   1      32.039  23.561  25.313  1.00  0.00     0.043 A 
ATOM     89  C   UNL A   1      31.283  23.178  24.206  1.00  0.00     0.034 A 
ATOM     90  C   UNL A   1      33.417  23.353  25.327  1.00  0.00     0.034 A 
ATOM     91  C   UNL A   1      31.938  22.517  23.184  1.00  0.00     0.112 A 
ATOM     92  C   UNL A   1      33.977  22.695  24.250  1.00  0.00     0.112 A 
ATOM     93  N   UNL A   1      33.264  22.256  23.190  1.00  0.00    -0.265 NA
ENDBRANCH  85  88
ENDBRANCH  80  84
ENDBRANCH  75  78
ENDBRANCH  73  74
ENDBRANCH  72  73
ENDBRANCH   1  72
TORSDOF 13
ENDMDL
MODEL 3
REMARK VINA RESULT:     -12.8      2.292      3.761
REMARK SMILES O=C(NCCCCNC(=O)c1ccccc1NC(=O)c1ccncc1)c1ccc(-c2c3nc(c(-c4c(F)c(F)c(F)c(F)c4F)c4ccc([nH]4)c(-c4c(F)c(F)c(F)c(F)c4F)c4nc(c(-c5c(F)c(F)c(F)c(F)c5F)c5ccc2[nH]5)C=C4)C=C3)cc1
REMARK SMILES IDX 5 1 4 2 3 3 1 4 2 5 26 7 27 8 88 9 28 10 87 11 29 12 30 13
REMARK SMILES IDX 31 14 81 15 32 16 86 17 80 18 82 19 33 20 85 21 79 22 78 23
REMARK SMILES IDX 34 25 66 26 46 27 65 28 47 29 50 30 64 31 83 32 48 33 49 34
REMARK SMILES IDX 63 36 84 37 51 38 35 39 36 40 44 41 37 42 38 43 42 44 45 45
REMARK SMILES IDX 39 46 40 47 43 48 41 49 67 50 68 51 76 52 69 53 70 54 74 55
REMARK SMILES IDX 77 56 71 57 72 58 75 59 73 60 52 61 53 62 61 63 54 64 55 65
REMARK SMILES IDX 59 66 62 67 56 68 57 69 60 70 58 71 6 72 7 73 8 74 9 75
REMARK SMILES IDX 10 77 11 78 12 79 16 80 13 81 15 82 14 83 17 84 18 85 19 87
REMARK SMILES IDX 20 88 21 89 25 90 22 91 24 92 23 93
REMARK H PARENT 3 6 82 24 50 35 8 76 17 86
REMARK Flexibility Score: inf
ROOT
ATOM      1  C   UNL A   1      31.403  29.523  26.974  1.00  0.00     0.023 C 
ENDROOT
BRANCH   1   2
ATOM      2  C   UNL A   1      32.659  30.282  26.562  1.00  0.00     0.116 C 
BRANCH   2   3
ATOM      3  N   UNL A   1      32.589  31.706  26.854  1.00  0.00    -0.352 N 
ATOM      4  O   UNL A   1      33.145  33.666  27.825  1.00  0.00    -0.269 OA
ATOM      5  C   UNL A   1      33.450  32.504  27.571  1.00  0.00     0.251 C 
ATOM      6  H   UNL A   1      31.804  32.170  26.482  1.00  0.00     0.163 HD
BRANCH   5   7
ATOM      7  C   UNL A   1      34.727  31.953  28.075  1.00  0.00     0.039 A 
ATOM      8  C   UNL A   1      34.823  30.622  28.482  1.00  0.00     0.014 A 
ATOM      9  C   UNL A   1      35.844  32.790  28.161  1.00  0.00     0.014 A 
ATOM     10  C   UNL A   1      35.962  30.188  29.152  1.00  0.00     0.010 A 
ATOM     11  C   UNL A   1      37.024  32.321  28.745  1.00  0.00     0.010 A 
ATOM     12  C   UNL A   1      37.074  31.032  29.300  1.00  0.00    -0.014 A 
BRANCH  12  13
ATOM     13  C   UNL A   1      38.268  30.538  30.034  1.00  0.00     0.031 A 
ATOM     14  C   UNL A   1      38.500  30.904  31.476  1.00  0.00     0.074 A 
ATOM     15  C   UNL A   1      39.120  29.702  29.410  1.00  0.00     0.049 A 
ATOM     16  N   UNL A   1      39.454  30.512  32.286  1.00  0.00    -0.248 NA
ATOM     17  C   UNL A   1      37.546  31.839  32.092  1.00  0.00     0.031 C 
ATOM     18  C   UNL A   1      39.012  29.282  28.012  1.00  0.00     0.029 A 
ATOM     19  N   UNL A   1      40.224  29.032  29.873  1.00  0.00    -0.354 N 
ATOM     20  C   UNL A   1      39.233  31.170  33.489  1.00  0.00     0.074 A 
ATOM     21  C   UNL A   1      38.066  32.006  33.300  1.00  0.00     0.031 C 
ATOM     22  C   UNL A   1      39.969  28.381  27.748  1.00  0.00     0.029 A 
ATOM     23  C   UNL A   1      40.791  28.201  28.939  1.00  0.00     0.049 A 
ATOM     24  H   UNL A   1      40.575  29.138  30.787  1.00  0.00     0.167 HD
ATOM     25  C   UNL A   1      39.931  31.079  34.647  1.00  0.00     0.037 A 
ATOM     26  C   UNL A   1      41.855  27.382  29.030  1.00  0.00     0.037 A 
ATOM     27  C   UNL A   1      41.070  30.218  34.845  1.00  0.00     0.049 A 
ATOM     28  C   UNL A   1      42.603  27.291  30.330  1.00  0.00     0.074 A 
ATOM     29  C   UNL A   1      41.815  30.024  35.995  1.00  0.00     0.029 A 
ATOM     30  N   UNL A   1      41.626  29.407  33.867  1.00  0.00    -0.354 N 
ATOM     31  N   UNL A   1      42.359  27.894  31.467  1.00  0.00    -0.248 NA
ATOM     32  C   UNL A   1      43.774  26.406  30.355  1.00  0.00     0.031 C 
ATOM     33  C   UNL A   1      42.846  29.124  35.703  1.00  0.00     0.029 A 
ATOM     34  C   UNL A   1      42.716  28.723  34.384  1.00  0.00     0.049 A 
ATOM     35  H   UNL A   1      41.296  29.328  32.943  1.00  0.00     0.167 HD
ATOM     36  C   UNL A   1      43.331  27.445  32.350  1.00  0.00     0.074 A 
ATOM     37  C   UNL A   1      44.158  26.506  31.620  1.00  0.00     0.031 C 
ATOM     38  C   UNL A   1      43.524  27.786  33.648  1.00  0.00     0.037 A 
BRANCH  25  39
ATOM     39  C   UNL A   1      39.497  31.943  35.794  1.00  0.00     0.064 A 
ATOM     40  C   UNL A   1      40.052  33.212  36.017  1.00  0.00     0.173 A 
ATOM     41  C   UNL A   1      38.474  31.516  36.655  1.00  0.00     0.173 A 
ATOM     42  F   UNL A   1      41.040  33.663  35.231  1.00  0.00    -0.203 F 
ATOM     43  C   UNL A   1      39.615  34.011  37.072  1.00  0.00     0.198 A 
ATOM     44  C   UNL A   1      38.021  32.327  37.691  1.00  0.00     0.198 A 
ATOM     45  F   UNL A   1      37.903  30.313  36.482  1.00  0.00    -0.203 F 
ATOM     46  F   UNL A   1      40.188  35.203  37.290  1.00  0.00    -0.200 F 
ATOM     47  C   UNL A   1      38.596  33.571  37.904  1.00  0.00     0.200 A 
ATOM     48  F   UNL A   1      37.028  31.906  38.487  1.00  0.00    -0.200 F 
ATOM     49  F   UNL A   1      38.172  34.344  38.913  1.00  0.00    -0.200 F 
ENDBRANCH  25  39
BRANCH  26  50
ATOM     50  C   UNL A   1      42.260  26.570  27.856  1.00  0.00     0.064 A 
ATOM     51  C   UNL A   1      43.237  27.033  26.963  1.00  0.00     0.173 A 
ATOM     52  C   UNL A   1      41.691  25.312  27.609  1.00  0.00     0.173 A 
ATOM     53  F   UNL A   1      43.795  28.238  27.148  1.00  0.00    -0.203 F 
ATOM     54  C   UNL A   1      43.621  26.272  25.860  1.00  0.00     0.198 A 
ATOM     55  C   UNL A   1      42.096  24.541  26.522  1.00  0.00     0.198 A 
ATOM     56  F   UNL A   1      40.756  24.824  28.437  1.00  0.00    -0.203 F 
ATOM     57  F   UNL A   1      44.529  26.754  25.001  1.00  0.00    -0.200 F 
ATOM     58  C   UNL A   1      43.054  25.024  25.645  1.00  0.00     0.200 A 
ATOM     59  F   UNL A   1      41.558  23.330  26.326  1.00  0.00    -0.200 F 
ATOM     60  F   UNL A   1      43.430  24.291  24.589  1.00  0.00    -0.200 F 
ENDBRANCH  26  50
BRANCH  38  61
ATOM     61  C   UNL A   1      44.651  27.109  34.368  1.00  0.00     0.064 A 
ATOM     62  C   UNL A   1      45.939  27.664  34.406  1.00  0.00     0.173 A 
ATOM     63  C   UNL A   1      44.436  25.899  35.044  1.00  0.00     0.173 A 
ATOM     64  F   UNL A   1      46.198  28.811  33.761  1.00  0.00    -0.203 F 
ATOM     65  C   UNL A   1      46.977  27.016  35.069  1.00  0.00     0.198 A 
ATOM     66  C   UNL A   1      45.470  25.267  35.729  1.00  0.00     0.198 A 
ATOM     67  F   UNL A   1      43.221  25.330  35.042  1.00  0.00    -0.203 F 
ATOM     68  F   UNL A   1      48.212  27.538  35.048  1.00  0.00    -0.200 F 
ATOM     69  C   UNL A   1      46.742  25.821  35.734  1.00  0.00     0.200 A 
ATOM     70  F   UNL A   1      45.239  24.118  36.379  1.00  0.00    -0.200 F 
ATOM     71  F   UNL A   1      47.742  25.199  36.371  1.00  0.00    -0.200 F 
ENDBRANCH  38  61
ENDBRANCH  12  13
ENDBRANCH   5   7
ENDBRANCH   2   3
ENDBRANCH   1   2
BRANCH   1  72
ATOM     72  C   UNL A   1      31.638  28.212  27.723  1.00  0.00     0.023 C 
BRANCH  72  73
ATOM     73  C   UNL A   1      32.021  27.019  26.853  1.00  0.00     0.116 C 
BRANCH  73  74
ATOM     74  N   UNL A   1      30.865  26.342  26.288  1.00  0.00    -0.352 N 
ATOM     75  C   UNL A   1      30.278  26.506  25.062  1.00  0.00     0.253 C 
ATOM     76  H   UNL A   1      30.445  25.669  26.872  1.00  0.00     0.163 HD
ATOM     77  O   UNL A   1      29.241  25.909  24.793  1.00  0.00    -0.269 OA
BRANCH  75  78
ATOM     78  C   UNL A   1      30.882  27.404  24.056  1.00  0.00     0.063 A 
ATOM     79  C   UNL A   1      32.284  27.443  24.032  1.00  0.00     0.016 A 
ATOM     80  C   UNL A   1      30.114  28.207  23.186  1.00  0.00     0.054 A 
ATOM     81  C   UNL A   1      32.941  28.274  23.130  1.00  0.00     0.001 A 
ATOM     82  C   UNL A   1      30.799  29.080  22.333  1.00  0.00     0.027 A 
ATOM     83  C   UNL A   1      32.198  29.098  22.291  1.00  0.00     0.002 A 
BRANCH  80  84
ATOM     84  N   UNL A   1      28.704  28.127  23.235  1.00  0.00    -0.321 N 
ATOM     85  C   UNL A   1      27.698  29.056  23.126  1.00  0.00     0.255 C 
ATOM     86  H   UNL A   1      28.373  27.211  23.375  1.00  0.00     0.170 HD
ATOM     87  O   UNL A   1      26.534  28.710  23.330  1.00  0.00    -0.269 OA
BRANCH  85  88
ATOM     88  C   UNL A   1      27.939  30.445  22.701  1.00  0.00     0.043 A 
ATOM     89  C   UNL A   1      28.230  31.454  23.618  1.00  0.00     0.034 A 
ATOM     90  C   UNL A   1      27.918  30.722  21.336  1.00  0.00     0.034 A 
ATOM     91  C   UNL A   1      28.407  32.733  23.123  1.00  0.00     0.112 A 
ATOM     92  C   UNL A   1      28.119  32.030  20.944  1.00  0.00     0.112 A 
ATOM     93  N   UNL A   1      28.343  33.043  21.810  1.00  0.00    -0.265 NA
ENDBRANCH  85  88
ENDBRANCH  80  84
ENDBRANCH  75  78
ENDBRANCH  73  74
ENDBRANCH  72  73
ENDBRANCH   1  72
TORSDOF 13
ENDMDL
