MODEL 1
REMARK VINA RESULT:     -13.5      0.000      0.000
REMARK SMILES Nc1ccc2[nH]cc(C(=O)NCCCCNC(=O)c3ccc(-c4c5nc(c(-c6c(F)c(F)c(F)c(F)c6F)c6ccc([nH]6)c(-c6c(F)c(F)c(F)c(F)c6F)c6nc(c(-c7c(F)c(F)c(F)c(F)c7F)c7ccc4[nH]7)C=C6)C=C5)cc3)c2c1
REMARK SMILES IDX 14 1 13 2 12 3 11 4 9 5 10 6 8 8 2 9 3 10 83 11 4 12 82 13
REMARK SMILES IDX 5 14 6 15 7 16 1 18 15 21 16 22 17 23 18 25 19 26 20 27
REMARK SMILES IDX 81 28 21 29 80 30 22 31 23 32 24 33 74 34 25 35 79 36 73 37
REMARK SMILES IDX 75 38 26 39 78 40 72 41 71 42 27 44 59 45 39 46 58 47 40 48
REMARK SMILES IDX 43 49 57 50 76 51 41 52 42 53 56 55 77 56 44 57 28 58 29 59
REMARK SMILES IDX 37 60 30 61 31 62 35 63 38 64 32 65 33 66 36 67 34 68 60 69
REMARK SMILES IDX 61 70 69 71 62 72 63 73 67 74 70 75 64 76 65 77 68 78 66 79
REMARK SMILES IDX 45 80 46 81 54 82 47 83 48 84 52 85 55 86 49 87 50 88 53 89
REMARK SMILES IDX 51 90
REMARK H PARENT 11 7 6 17 1 19 1 20 16 24 75 43 43 54
REMARK Flexibility Score: inf
ROOT
ATOM      1  C   UNL A   1      32.014  29.630  26.943  1.00  0.00     0.023 C 
ENDROOT
BRANCH   1   2
ATOM      2  C   UNL A   1      32.163  28.207  27.465  1.00  0.00     0.023 C 
BRANCH   2   3
ATOM      3  C   UNL A   1      31.497  27.085  26.690  1.00  0.00     0.116 C 
BRANCH   3   4
ATOM      4  N   UNL A   1      32.152  26.616  25.500  1.00  0.00    -0.352 N 
ATOM      5  C   UNL A   1      31.694  26.583  24.193  1.00  0.00     0.253 C 
ATOM      6  O   UNL A   1      32.491  26.183  23.358  1.00  0.00    -0.269 OA
ATOM      7  H   UNL A   1      33.062  26.265  25.634  1.00  0.00     0.163 HD
BRANCH   5   8
ATOM      8  C   UNL A   1      30.298  26.905  23.817  1.00  0.00     0.065 A 
ATOM      9  C   UNL A   1      29.079  30.308  22.472  1.00  0.00     0.032 A 
ATOM     10  C   UNL A   1      27.726  30.042  22.636  1.00  0.00     0.027 A 
ATOM     11  C   UNL A   1      29.995  29.260  22.614  1.00  0.00     0.036 A 
ATOM     12  C   UNL A   1      27.276  28.777  23.026  1.00  0.00     0.029 A 
ATOM     13  C   UNL A   1      29.617  28.034  23.216  1.00  0.00     0.014 A 
ATOM     14  C   UNL A   1      28.241  27.812  23.340  1.00  0.00     0.046 A 
ATOM     15  N   UNL A   1      28.077  26.525  23.783  1.00  0.00    -0.360 N 
ATOM     16  C   UNL A   1      29.291  25.981  24.083  1.00  0.00     0.097 A 
ATOM     17  H   UNL A   1      27.212  26.064  23.872  1.00  0.00     0.166 HD
BRANCH   9  18
ATOM     18  N   UNL A   1      29.512  31.564  22.065  1.00  0.00    -0.399 N 
ATOM     19  H   UNL A   1      29.577  31.775  21.105  1.00  0.00     0.156 HD
ATOM     20  H   UNL A   1      29.753  32.242  22.735  1.00  0.00     0.156 HD
ENDBRANCH   9  18
ENDBRANCH   5   8
ENDBRANCH   3   4
ENDBRANCH   2   3
ENDBRANCH   1   2
BRANCH   1  21
ATOM     21  C   UNL A   1      33.293  30.461  26.793  1.00  0.00     0.116 C 
BRANCH  21  22
ATOM     22  N   UNL A   1      33.607  31.348  27.898  1.00  0.00    -0.352 N 
ATOM     23  C   UNL A   1      34.758  31.716  28.545  1.00  0.00     0.251 C 
ATOM     24  H   UNL A   1      32.809  31.788  28.268  1.00  0.00     0.163 HD
ATOM     25  O   UNL A   1      34.684  32.733  29.241  1.00  0.00    -0.269 OA
BRANCH  23  26
ATOM     26  C   UNL A   1      36.038  30.957  28.541  1.00  0.00     0.039 A 
ATOM     27  C   UNL A   1      36.160  29.596  28.278  1.00  0.00     0.014 A 
ATOM     28  C   UNL A   1      37.191  31.665  28.939  1.00  0.00     0.014 A 
ATOM     29  C   UNL A   1      37.360  28.938  28.527  1.00  0.00     0.010 A 
ATOM     30  C   UNL A   1      38.406  31.017  29.162  1.00  0.00     0.010 A 
ATOM     31  C   UNL A   1      38.476  29.640  29.006  1.00  0.00    -0.014 A 
BRANCH  31  32
ATOM     32  C   UNL A   1      39.714  28.883  29.195  1.00  0.00     0.031 A 
ATOM     33  C   UNL A   1      40.126  28.745  30.620  1.00  0.00     0.074 A 
ATOM     34  C   UNL A   1      40.430  28.297  28.212  1.00  0.00     0.049 A 
ATOM     35  N   UNL A   1      41.170  29.248  31.193  1.00  0.00    -0.248 NA
ATOM     36  C   UNL A   1      39.199  28.075  31.544  1.00  0.00     0.031 C 
ATOM     37  C   UNL A   1      40.064  28.107  26.809  1.00  0.00     0.029 A 
ATOM     38  N   UNL A   1      41.645  27.676  28.297  1.00  0.00    -0.354 N 
ATOM     39  C   UNL A   1      41.125  28.823  32.519  1.00  0.00     0.074 A 
ATOM     40  C   UNL A   1      39.832  28.219  32.708  1.00  0.00     0.031 C 
ATOM     41  C   UNL A   1      40.931  27.242  26.230  1.00  0.00     0.029 A 
ATOM     42  C   UNL A   1      41.992  26.934  27.174  1.00  0.00     0.049 A 
ATOM     43  H   UNL A   1      42.227  27.748  29.088  1.00  0.00     0.167 HD
ATOM     44  C   UNL A   1      42.245  28.811  33.292  1.00  0.00     0.037 A 
ATOM     45  C   UNL A   1      43.056  26.102  27.044  1.00  0.00     0.037 A 
ATOM     46  C   UNL A   1      43.259  29.681  32.757  1.00  0.00     0.049 A 
ATOM     47  C   UNL A   1      44.053  26.490  28.068  1.00  0.00     0.074 A 
ATOM     48  C   UNL A   1      43.356  31.037  32.511  1.00  0.00     0.029 A 
ATOM     49  N   UNL A   1      44.298  29.104  32.076  1.00  0.00    -0.354 N 
ATOM     50  N   UNL A   1      44.743  27.594  28.035  1.00  0.00    -0.248 NA
ATOM     51  C   UNL A   1      44.005  25.816  29.356  1.00  0.00     0.031 C 
ATOM     52  C   UNL A   1      44.148  31.143  31.331  1.00  0.00     0.029 A 
ATOM     53  C   UNL A   1      44.526  29.854  30.957  1.00  0.00     0.049 A 
ATOM     54  H   UNL A   1      44.791  28.295  32.345  1.00  0.00     0.167 HD
ATOM     55  C   UNL A   1      44.845  27.977  29.361  1.00  0.00     0.074 A 
ATOM     56  C   UNL A   1      44.474  26.795  30.133  1.00  0.00     0.031 C 
ATOM     57  C   UNL A   1      44.948  29.294  29.697  1.00  0.00     0.037 A 
BRANCH  44  58
ATOM     58  C   UNL A   1      42.584  27.715  34.278  1.00  0.00     0.064 A 
ATOM     59  C   UNL A   1      43.140  26.510  33.795  1.00  0.00     0.173 A 
ATOM     60  C   UNL A   1      42.073  27.663  35.593  1.00  0.00     0.173 A 
ATOM     61  F   UNL A   1      43.648  26.440  32.555  1.00  0.00    -0.203 F 
ATOM     62  C   UNL A   1      43.079  25.323  34.529  1.00  0.00     0.198 A 
ATOM     63  C   UNL A   1      42.062  26.487  36.341  1.00  0.00     0.198 A 
ATOM     64  F   UNL A   1      41.459  28.705  36.164  1.00  0.00    -0.203 F 
ATOM     65  F   UNL A   1      43.482  24.175  33.969  1.00  0.00    -0.200 F 
ATOM     66  C   UNL A   1      42.529  25.311  35.797  1.00  0.00     0.200 A 
ATOM     67  F   UNL A   1      41.509  26.492  37.562  1.00  0.00    -0.200 F 
ATOM     68  F   UNL A   1      42.399  24.162  36.471  1.00  0.00    -0.200 F 
ENDBRANCH  44  58
BRANCH  45  69
ATOM     69  C   UNL A   1      43.184  24.834  26.284  1.00  0.00     0.064 A 
ATOM     70  C   UNL A   1      44.151  24.686  25.272  1.00  0.00     0.173 A 
ATOM     71  C   UNL A   1      42.576  23.651  26.741  1.00  0.00     0.173 A 
ATOM     72  F   UNL A   1      44.812  25.757  24.806  1.00  0.00    -0.203 F 
ATOM     73  C   UNL A   1      44.514  23.428  24.778  1.00  0.00     0.198 A 
ATOM     74  C   UNL A   1      42.934  22.396  26.244  1.00  0.00     0.198 A 
ATOM     75  F   UNL A   1      41.696  23.681  27.753  1.00  0.00    -0.203 F 
ATOM     76  F   UNL A   1      45.491  23.322  23.867  1.00  0.00    -0.200 F 
ATOM     77  C   UNL A   1      43.914  22.283  25.275  1.00  0.00     0.200 A 
ATOM     78  F   UNL A   1      42.374  21.293  26.759  1.00  0.00    -0.200 F 
ATOM     79  F   UNL A   1      44.310  21.073  24.855  1.00  0.00    -0.200 F 
ENDBRANCH  45  69
BRANCH  57  80
ATOM     80  C   UNL A   1      45.281  30.278  28.617  1.00  0.00     0.064 A 
ATOM     81  C   UNL A   1      44.331  30.846  27.752  1.00  0.00     0.173 A 
ATOM     82  C   UNL A   1      46.581  30.800  28.593  1.00  0.00     0.173 A 
ATOM     83  F   UNL A   1      43.051  30.452  27.776  1.00  0.00    -0.203 F 
ATOM     84  C   UNL A   1      44.679  31.889  26.894  1.00  0.00     0.198 A 
ATOM     85  C   UNL A   1      46.914  31.865  27.764  1.00  0.00     0.198 A 
ATOM     86  F   UNL A   1      47.512  30.320  29.433  1.00  0.00    -0.203 F 
ATOM     87  F   UNL A   1      43.757  32.429  26.084  1.00  0.00    -0.200 F 
ATOM     88  C   UNL A   1      45.965  32.406  26.913  1.00  0.00     0.200 A 
ATOM     89  F   UNL A   1      48.145  32.392  27.820  1.00  0.00    -0.200 F 
ATOM     90  F   UNL A   1      46.281  33.452  26.135  1.00  0.00    -0.200 F 
ENDBRANCH  57  80
ENDBRANCH  31  32
ENDBRANCH  23  26
ENDBRANCH  21  22
ENDBRANCH   1  21
TORSDOF 12
ENDMDL
MODEL 2
REMARK VINA RESULT:     -13.3      4.360      9.437
REMARK SMILES Nc1ccc2[nH]cc(C(=O)NCCCCNC(=O)c3ccc(-c4c5nc(c(-c6c(F)c(F)c(F)c(F)c6F)c6ccc([nH]6)c(-c6c(F)c(F)c(F)c(F)c6F)c6nc(c(-c7c(F)c(F)c(F)c(F)c7F)c7ccc4[nH]7)C=C6)C=C5)cc3)c2c1
REMARK SMILES IDX 14 1 13 2 12 3 11 4 9 5 10 6 8 8 2 9 3 10 83 11 4 12 82 13
REMARK SMILES IDX 5 14 6 15 7 16 1 18 15 21 16 22 17 23 18 25 19 26 20 27
REMARK SMILES IDX 81 28 21 29 80 30 22 31 23 32 24 33 74 34 25 35 79 36 73 37
REMARK SMILES IDX 75 38 26 39 78 40 72 41 71 42 27 44 59 45 39 46 58 47 40 48
REMARK SMILES IDX 43 49 57 50 76 51 41 52 42 53 56 55 77 56 44 57 28 58 29 59
REMARK SMILES IDX 37 60 30 61 31 62 35 63 38 64 32 65 33 66 36 67 34 68 60 69
REMARK SMILES IDX 61 70 69 71 62 72 63 73 67 74 70 75 64 76 65 77 68 78 66 79
REMARK SMILES IDX 45 80 46 81 54 82 47 83 48 84 52 85 55 86 49 87 50 88 53 89
REMARK SMILES IDX 51 90
REMARK H PARENT 11 7 6 17 1 19 1 20 16 24 75 43 43 54
REMARK Flexibility Score: inf
ROOT
ATOM      1  C   UNL A   1      39.217  21.848  26.150  1.00  0.00     0.023 C 
ENDROOT
BRANCH   1   2
ATOM      2  C   UNL A   1      38.610  23.176  26.588  1.00  0.00     0.023 C 
BRANCH   2   3
ATOM      3  C   UNL A   1      37.434  23.722  25.800  1.00  0.00     0.116 C 
BRANCH   3   4
ATOM      4  N   UNL A   1      37.409  23.479  24.385  1.00  0.00    -0.352 N 
ATOM      5  C   UNL A   1      36.358  23.082  23.573  1.00  0.00     0.253 C 
ATOM      6  O   UNL A   1      36.604  23.008  22.379  1.00  0.00    -0.269 OA
ATOM      7  H   UNL A   1      38.267  23.615  23.921  1.00  0.00     0.163 HD
BRANCH   5   8
ATOM      8  C   UNL A   1      35.040  22.665  24.105  1.00  0.00     0.065 A 
ATOM      9  C   UNL A   1      33.985  19.031  24.849  1.00  0.00     0.032 A 
ATOM     10  C   UNL A   1      32.631  19.307  24.986  1.00  0.00     0.027 A 
ATOM     11  C   UNL A   1      34.890  20.097  24.786  1.00  0.00     0.036 A 
ATOM     12  C   UNL A   1      32.154  20.621  24.972  1.00  0.00     0.029 A 
ATOM     13  C   UNL A   1      34.444  21.421  24.548  1.00  0.00     0.014 A 
ATOM     14  C   UNL A   1      33.074  21.645  24.718  1.00  0.00     0.046 A 
ATOM     15  N   UNL A   1      32.868  22.996  24.608  1.00  0.00    -0.360 N 
ATOM     16  C   UNL A   1      34.026  23.611  24.230  1.00  0.00     0.097 A 
ATOM     17  H   UNL A   1      32.013  23.453  24.775  1.00  0.00     0.166 HD
BRANCH   9  18
ATOM     18  N   UNL A   1      34.449  17.722  24.884  1.00  0.00    -0.399 N 
ATOM     19  H   UNL A   1      34.567  17.219  24.046  1.00  0.00     0.156 HD
ATOM     20  H   UNL A   1      34.660  17.297  25.746  1.00  0.00     0.156 HD
ENDBRANCH   9  18
ENDBRANCH   5   8
ENDBRANCH   3   4
ENDBRANCH   2   3
ENDBRANCH   1   2
BRANCH   1  21
ATOM     21  C   UNL A   1      40.665  21.566  26.565  1.00  0.00     0.116 C 
BRANCH  21  22
ATOM     22  N   UNL A   1      41.692  22.148  25.721  1.00  0.00    -0.352 N 
ATOM     23  C   UNL A   1      42.385  23.330  25.717  1.00  0.00     0.251 C 
ATOM     24  H   UNL A   1      41.951  21.555  24.980  1.00  0.00     0.163 HD
ATOM     25  O   UNL A   1      43.408  23.354  25.026  1.00  0.00    -0.269 OA
BRANCH  23  26
ATOM     26  C   UNL A   1      41.966  24.585  26.399  1.00  0.00     0.039 A 
ATOM     27  C   UNL A   1      41.221  25.604  25.813  1.00  0.00     0.014 A 
ATOM     28  C   UNL A   1      42.461  24.788  27.704  1.00  0.00     0.014 A 
ATOM     29  C   UNL A   1      41.081  26.830  26.455  1.00  0.00     0.010 A 
ATOM     30  C   UNL A   1      42.300  26.004  28.366  1.00  0.00     0.010 A 
ATOM     31  C   UNL A   1      41.653  27.047  27.717  1.00  0.00    -0.014 A 
BRANCH  31  32
ATOM     32  C   UNL A   1      41.419  28.348  28.345  1.00  0.00     0.031 A 
ATOM     33  C   UNL A   1      42.512  29.334  28.118  1.00  0.00     0.074 A 
ATOM     34  C   UNL A   1      40.311  28.695  29.033  1.00  0.00     0.049 A 
ATOM     35  N   UNL A   1      43.315  29.840  28.995  1.00  0.00    -0.248 NA
ATOM     36  C   UNL A   1      42.830  29.703  26.730  1.00  0.00     0.031 C 
ATOM     37  C   UNL A   1      39.046  27.970  29.148  1.00  0.00     0.029 A 
ATOM     38  N   UNL A   1      40.070  29.842  29.738  1.00  0.00    -0.354 N 
ATOM     39  C   UNL A   1      44.141  30.720  28.300  1.00  0.00     0.074 A 
ATOM     40  C   UNL A   1      43.886  30.498  26.901  1.00  0.00     0.031 C 
ATOM     41  C   UNL A   1      38.110  28.782  29.696  1.00  0.00     0.029 A 
ATOM     42  C   UNL A   1      38.742  30.025  30.103  1.00  0.00     0.049 A 
ATOM     43  H   UNL A   1      40.779  30.485  29.968  1.00  0.00     0.167 HD
ATOM     44  C   UNL A   1      44.810  31.715  28.946  1.00  0.00     0.037 A 
ATOM     45  C   UNL A   1      38.197  31.132  30.668  1.00  0.00     0.037 A 
ATOM     46  C   UNL A   1      44.928  31.437  30.353  1.00  0.00     0.049 A 
ATOM     47  C   UNL A   1      39.297  31.899  31.296  1.00  0.00     0.074 A 
ATOM     48  C   UNL A   1      45.523  30.447  31.110  1.00  0.00     0.029 A 
ATOM     49  N   UNL A   1      44.084  32.100  31.205  1.00  0.00    -0.354 N 
ATOM     50  N   UNL A   1      39.945  31.512  32.359  1.00  0.00    -0.248 NA
ATOM     51  C   UNL A   1      39.946  32.931  30.505  1.00  0.00     0.031 C 
ATOM     52  C   UNL A   1      44.663  30.271  32.232  1.00  0.00     0.029 A 
ATOM     53  C   UNL A   1      43.624  31.194  32.118  1.00  0.00     0.049 A 
ATOM     54  H   UNL A   1      43.851  33.056  31.165  1.00  0.00     0.167 HD
ATOM     55  C   UNL A   1      41.248  31.921  32.136  1.00  0.00     0.074 A 
ATOM     56  C   UNL A   1      41.168  32.882  31.041  1.00  0.00     0.031 C 
ATOM     57  C   UNL A   1      42.293  31.231  32.674  1.00  0.00     0.037 A 
BRANCH  44  58
ATOM     58  C   UNL A   1      44.985  33.114  28.399  1.00  0.00     0.064 A 
ATOM     59  C   UNL A   1      46.290  33.640  28.277  1.00  0.00     0.173 A 
ATOM     60  C   UNL A   1      43.940  34.060  28.323  1.00  0.00     0.173 A 
ATOM     61  F   UNL A   1      47.361  32.834  28.341  1.00  0.00    -0.203 F 
ATOM     62  C   UNL A   1      46.528  35.015  28.206  1.00  0.00     0.198 A 
ATOM     63  C   UNL A   1      44.182  35.427  28.200  1.00  0.00     0.198 A 
ATOM     64  F   UNL A   1      42.656  33.722  28.485  1.00  0.00    -0.203 F 
ATOM     65  F   UNL A   1      47.785  35.474  28.246  1.00  0.00    -0.200 F 
ATOM     66  C   UNL A   1      45.473  35.907  28.180  1.00  0.00     0.200 A 
ATOM     67  F   UNL A   1      43.147  36.278  28.194  1.00  0.00    -0.200 F 
ATOM     68  F   UNL A   1      45.698  37.227  28.189  1.00  0.00    -0.200 F 
ENDBRANCH  44  58
BRANCH  45  69
ATOM     69  C   UNL A   1      36.847  31.721  30.495  1.00  0.00     0.064 A 
ATOM     70  C   UNL A   1      35.960  31.842  31.580  1.00  0.00     0.173 A 
ATOM     71  C   UNL A   1      36.520  32.455  29.340  1.00  0.00     0.173 A 
ATOM     72  F   UNL A   1      36.216  31.211  32.736  1.00  0.00    -0.203 F 
ATOM     73  C   UNL A   1      34.837  32.676  31.526  1.00  0.00     0.198 A 
ATOM     74  C   UNL A   1      35.397  33.283  29.283  1.00  0.00     0.198 A 
ATOM     75  F   UNL A   1      37.340  32.463  28.279  1.00  0.00    -0.203 F 
ATOM     76  F   UNL A   1      34.057  32.821  32.606  1.00  0.00    -0.200 F 
ATOM     77  C   UNL A   1      34.564  33.406  30.381  1.00  0.00     0.200 A 
ATOM     78  F   UNL A   1      35.164  34.014  28.184  1.00  0.00    -0.200 F 
ATOM     79  F   UNL A   1      33.531  34.260  30.351  1.00  0.00    -0.200 F 
ENDBRANCH  45  69
BRANCH  57  80
ATOM     80  C   UNL A   1      42.005  30.241  33.761  1.00  0.00     0.064 A 
ATOM     81  C   UNL A   1      41.614  28.912  33.531  1.00  0.00     0.173 A 
ATOM     82  C   UNL A   1      42.327  30.609  35.075  1.00  0.00     0.173 A 
ATOM     83  F   UNL A   1      41.370  28.468  32.290  1.00  0.00    -0.203 F 
ATOM     84  C   UNL A   1      41.542  27.996  34.580  1.00  0.00     0.198 A 
ATOM     85  C   UNL A   1      42.288  29.683  36.111  1.00  0.00     0.198 A 
ATOM     86  F   UNL A   1      42.748  31.856  35.338  1.00  0.00    -0.203 F 
ATOM     87  F   UNL A   1      41.179  26.727  34.340  1.00  0.00    -0.200 F 
ATOM     88  C   UNL A   1      41.894  28.379  35.865  1.00  0.00     0.200 A 
ATOM     89  F   UNL A   1      42.675  30.047  37.342  1.00  0.00    -0.200 F 
ATOM     90  F   UNL A   1      41.886  27.481  36.860  1.00  0.00    -0.200 F 
ENDBRANCH  57  80
ENDBRANCH  31  32
ENDBRANCH  23  26
ENDBRANCH  21  22
ENDBRANCH   1  21
TORSDOF 12
ENDMDL
MODEL 3
REMARK VINA RESULT:     -13.2      1.294      1.524
REMARK SMILES Nc1ccc2[nH]cc(C(=O)NCCCCNC(=O)c3ccc(-c4c5nc(c(-c6c(F)c(F)c(F)c(F)c6F)c6ccc([nH]6)c(-c6c(F)c(F)c(F)c(F)c6F)c6nc(c(-c7c(F)c(F)c(F)c(F)c7F)c7ccc4[nH]7)C=C6)C=C5)cc3)c2c1
REMARK SMILES IDX 14 1 13 2 12 3 11 4 9 5 10 6 8 8 2 9 3 10 83 11 4 12 82 13
REMARK SMILES IDX 5 14 6 15 7 16 1 18 15 21 16 22 17 23 18 25 19 26 20 27
REMARK SMILES IDX 81 28 21 29 80 30 22 31 23 32 24 33 74 34 25 35 79 36 73 37
REMARK SMILES IDX 75 38 26 39 78 40 72 41 71 42 27 44 59 45 39 46 58 47 40 48
REMARK SMILES IDX 43 49 57 50 76 51 41 52 42 53 56 55 77 56 44 57 28 58 29 59
REMARK SMILES IDX 37 60 30 61 31 62 35 63 38 64 32 65 33 66 36 67 34 68 60 69
REMARK SMILES IDX 61 70 69 71 62 72 63 73 67 74 70 75 64 76 65 77 68 78 66 79
REMARK SMILES IDX 45 80 46 81 54 82 47 83 48 84 52 85 55 86 49 87 50 88 53 89
REMARK SMILES IDX 51 90
REMARK H PARENT 11 7 6 17 1 19 1 20 16 24 75 43 43 54
REMARK Flexibility Score: inf
ROOT
ATOM      1  C   UNL A   1      34.704  30.057  27.493  1.00  0.00     0.023 C 
ENDROOT
BRANCH   1   2
ATOM      2  C   UNL A   1      33.466  29.352  26.953  1.00  0.00     0.023 C 
BRANCH   2   3
ATOM      3  C   UNL A   1      32.912  29.800  25.614  1.00  0.00     0.116 C 
BRANCH   3   4
ATOM      4  N   UNL A   1      33.520  29.267  24.428  1.00  0.00    -0.352 N 
ATOM      5  C   UNL A   1      32.929  28.706  23.306  1.00  0.00     0.253 C 
ATOM      6  O   UNL A   1      33.691  28.384  22.407  1.00  0.00    -0.269 OA
ATOM      7  H   UNL A   1      34.504  29.305  24.408  1.00  0.00     0.163 HD
BRANCH   5   8
ATOM      8  C   UNL A   1      31.482  28.405  23.220  1.00  0.00     0.065 A 
ATOM      9  C   UNL A   1      28.814  30.714  21.664  1.00  0.00     0.032 A 
ATOM     10  C   UNL A   1      27.722  30.028  22.180  1.00  0.00     0.027 A 
ATOM     11  C   UNL A   1      30.083  30.132  21.756  1.00  0.00     0.036 A 
ATOM     12  C   UNL A   1      27.882  28.820  22.864  1.00  0.00     0.029 A 
ATOM     13  C   UNL A   1      30.323  29.035  22.620  1.00  0.00     0.014 A 
ATOM     14  C   UNL A   1      29.187  28.371  23.096  1.00  0.00     0.046 A 
ATOM     15  N   UNL A   1      29.621  27.258  23.768  1.00  0.00    -0.360 N 
ATOM     16  C   UNL A   1      30.982  27.274  23.861  1.00  0.00     0.097 A 
ATOM     17  H   UNL A   1      29.038  26.553  24.131  1.00  0.00     0.166 HD
BRANCH   9  18
ATOM     18  N   UNL A   1      28.640  31.904  20.969  1.00  0.00    -0.399 N 
ATOM     19  H   UNL A   1      27.883  32.495  21.186  1.00  0.00     0.156 HD
ATOM     20  H   UNL A   1      29.273  32.157  20.260  1.00  0.00     0.156 HD
ENDBRANCH   9  18
ENDBRANCH   5   8
ENDBRANCH   3   4
ENDBRANCH   2   3
ENDBRANCH   1   2
BRANCH   1  21
ATOM     21  C   UNL A   1      34.591  31.560  27.773  1.00  0.00     0.116 C 
BRANCH  21  22
ATOM     22  N   UNL A   1      34.458  31.937  29.169  1.00  0.00    -0.352 N 
ATOM     23  C   UNL A   1      35.310  31.992  30.240  1.00  0.00     0.251 C 
ATOM     24  H   UNL A   1      33.544  32.220  29.398  1.00  0.00     0.163 HD
ATOM     25  O   UNL A   1      34.923  32.659  31.204  1.00  0.00    -0.269 OA
BRANCH  23  26
ATOM     26  C   UNL A   1      36.600  31.259  30.364  1.00  0.00     0.039 A 
ATOM     27  C   UNL A   1      37.846  31.768  30.015  1.00  0.00     0.014 A 
ATOM     28  C   UNL A   1      36.520  29.909  30.767  1.00  0.00     0.014 A 
ATOM     29  C   UNL A   1      38.954  30.929  29.947  1.00  0.00     0.010 A 
ATOM     30  C   UNL A   1      37.633  29.069  30.731  1.00  0.00     0.010 A 
ATOM     31  C   UNL A   1      38.843  29.569  30.269  1.00  0.00    -0.014 A 
BRANCH  31  32
ATOM     32  C   UNL A   1      40.064  28.765  30.220  1.00  0.00     0.031 A 
ATOM     33  C   UNL A   1      40.770  28.658  31.526  1.00  0.00     0.074 A 
ATOM     34  C   UNL A   1      40.528  28.114  29.132  1.00  0.00     0.049 A 
ATOM     35  N   UNL A   1      41.931  29.133  31.839  1.00  0.00    -0.248 NA
ATOM     36  C   UNL A   1      40.042  28.062  32.656  1.00  0.00     0.031 C 
ATOM     37  C   UNL A   1      39.860  27.892  27.850  1.00  0.00     0.029 A 
ATOM     38  N   UNL A   1      41.710  27.443  28.980  1.00  0.00    -0.354 N 
ATOM     39  C   UNL A   1      42.159  28.756  33.161  1.00  0.00     0.074 A 
ATOM     40  C   UNL A   1      40.917  28.217  33.650  1.00  0.00     0.031 C 
ATOM     41  C   UNL A   1      40.549  26.970  27.136  1.00  0.00     0.029 A 
ATOM     42  C   UNL A   1      41.778  26.648  27.842  1.00  0.00     0.049 A 
ATOM     43  H   UNL A   1      42.451  27.516  29.623  1.00  0.00     0.167 HD
ATOM     44  C   UNL A   1      43.419  28.721  33.674  1.00  0.00     0.037 A 
ATOM     45  C   UNL A   1      42.758  25.765  27.521  1.00  0.00     0.037 A 
ATOM     46  C   UNL A   1      44.323  29.527  32.897  1.00  0.00     0.049 A 
ATOM     47  C   UNL A   1      43.966  26.144  28.289  1.00  0.00     0.074 A 
ATOM     48  C   UNL A   1      44.414  30.867  32.577  1.00  0.00     0.029 A 
ATOM     49  N   UNL A   1      45.169  28.881  32.034  1.00  0.00    -0.354 N 
ATOM     50  N   UNL A   1      44.672  27.214  28.060  1.00  0.00    -0.248 NA
ATOM     51  C   UNL A   1      44.174  25.517  29.585  1.00  0.00     0.031 C 
ATOM     52  C   UNL A   1      44.934  30.898  31.251  1.00  0.00     0.029 A 
ATOM     53  C   UNL A   1      45.176  29.581  30.861  1.00  0.00     0.049 A 
ATOM     54  H   UNL A   1      45.679  28.060  32.224  1.00  0.00     0.167 HD
ATOM     55  C   UNL A   1      45.073  27.638  29.316  1.00  0.00     0.074 A 
ATOM     56  C   UNL A   1      44.836  26.501  30.199  1.00  0.00     0.031 C 
ATOM     57  C   UNL A   1      45.294  28.959  29.564  1.00  0.00     0.037 A 
BRANCH  44  58
ATOM     58  C   UNL A   1      43.924  27.646  34.611  1.00  0.00     0.064 A 
ATOM     59  C   UNL A   1      43.833  26.295  34.211  1.00  0.00     0.173 A 
ATOM     60  C   UNL A   1      44.160  27.857  35.987  1.00  0.00     0.173 A 
ATOM     61  F   UNL A   1      43.604  25.976  32.928  1.00  0.00    -0.203 F 
ATOM     62  C   UNL A   1      43.858  25.248  35.136  1.00  0.00     0.198 A 
ATOM     63  C   UNL A   1      44.235  26.805  36.898  1.00  0.00     0.198 A 
ATOM     64  F   UNL A   1      44.206  29.080  36.525  1.00  0.00    -0.203 F 
ATOM     65  F   UNL A   1      43.615  23.996  34.728  1.00  0.00    -0.200 F 
ATOM     66  C   UNL A   1      44.047  25.506  36.480  1.00  0.00     0.200 A 
ATOM     67  F   UNL A   1      44.402  27.077  38.200  1.00  0.00    -0.200 F 
ATOM     68  F   UNL A   1      43.994  24.514  37.377  1.00  0.00    -0.200 F 
ENDBRANCH  44  58
BRANCH  45  69
ATOM     69  C   UNL A   1      42.672  24.468  26.807  1.00  0.00     0.064 A 
ATOM     70  C   UNL A   1      43.265  24.292  25.543  1.00  0.00     0.173 A 
ATOM     71  C   UNL A   1      42.280  23.296  27.479  1.00  0.00     0.173 A 
ATOM     72  F   UNL A   1      43.708  25.352  24.850  1.00  0.00    -0.203 F 
ATOM     73  C   UNL A   1      43.487  23.020  25.004  1.00  0.00     0.198 A 
ATOM     74  C   UNL A   1      42.496  22.027  26.939  1.00  0.00     0.198 A 
ATOM     75  F   UNL A   1      41.772  23.355  28.719  1.00  0.00    -0.203 F 
ATOM     76  F   UNL A   1      44.121  22.891  23.830  1.00  0.00    -0.200 F 
ATOM     77  C   UNL A   1      43.114  21.888  25.709  1.00  0.00     0.200 A 
ATOM     78  F   UNL A   1      42.166  20.938  27.646  1.00  0.00    -0.200 F 
ATOM     79  F   UNL A   1      43.390  20.667  25.227  1.00  0.00    -0.200 F 
ENDBRANCH  45  69
BRANCH  57  80
ATOM     80  C   UNL A   1      45.419  29.890  28.396  1.00  0.00     0.064 A 
ATOM     81  C   UNL A   1      44.327  30.492  27.750  1.00  0.00     0.173 A 
ATOM     82  C   UNL A   1      46.705  30.329  28.052  1.00  0.00     0.173 A 
ATOM     83  F   UNL A   1      43.068  30.181  28.086  1.00  0.00    -0.203 F 
ATOM     84  C   UNL A   1      44.523  31.487  26.793  1.00  0.00     0.198 A 
ATOM     85  C   UNL A   1      46.894  31.346  27.124  1.00  0.00     0.198 A 
ATOM     86  F   UNL A   1      47.778  29.815  28.674  1.00  0.00    -0.203 F 
ATOM     87  F   UNL A   1      43.468  32.061  26.196  1.00  0.00    -0.200 F 
ATOM     88  C   UNL A   1      45.804  31.923  26.493  1.00  0.00     0.200 A 
ATOM     89  F   UNL A   1      48.131  31.796  26.873  1.00  0.00    -0.200 F 
ATOM     90  F   UNL A   1      45.987  32.924  25.620  1.00  0.00    -0.200 F 
ENDBRANCH  57  80
ENDBRANCH  31  32
ENDBRANCH  23  26
ENDBRANCH  21  22
ENDBRANCH   1  21
TORSDOF 12
ENDMDL
