MODEL 1
REMARK VINA RESULT:     -12.9      0.000      0.000
REMARK SMILES O=C1CC[C@H](CNC(=O)N[C@@H]2C=C[C@@H](C(=O)NCCCCNC(=O)c3ccc(-c4c5nc(c(-c6c(F)c(F)c(F)c(F)c6F)c6ccc([nH]6)c(-c6c(F)c(F)c(F)c(F)c6F)c6nc(c(-c7c(F)c(F)c(F)c(F)c7F)c7ccc4[nH]7)C=C6)C=C5)cc3)C2)N1
REMARK SMILES IDX 19 1 18 2 17 3 15 4 16 5 14 7 11 8 12 9 88 10 13 11 10 12
REMARK SMILES IDX 7 13 8 14 9 16 6 18 5 19 1 20 2 21 3 22 89 23 4 24 20 26
REMARK SMILES IDX 21 27 22 28 23 29 24 31 25 32 26 33 87 34 27 35 86 36 28 37
REMARK SMILES IDX 29 38 30 39 80 40 31 41 85 42 79 43 81 44 32 45 84 46 78 47
REMARK SMILES IDX 77 48 33 50 65 51 45 52 64 53 46 54 49 55 63 56 82 57 47 58
REMARK SMILES IDX 48 59 62 61 83 62 50 63 34 64 35 65 43 66 36 67 37 68 41 69
REMARK SMILES IDX 44 70 38 71 39 72 42 73 40 74 66 75 67 76 75 77 68 78 69 79
REMARK SMILES IDX 73 80 76 81 70 82 71 83 74 84 72 85 51 86 52 87 60 88 53 89
REMARK SMILES IDX 54 90 58 91 61 92 55 93 56 94 59 95 57 96
REMARK H PARENT 17 6 7 15 10 17 89 25 22 30 81 49 49 60
REMARK Flexibility Score: inf
ROOT
ATOM      1  C   UNL A   1      31.205  27.703  25.146  1.00  0.00     0.023 C 
ENDROOT
BRANCH   1   2
ATOM      2  C   UNL A   1      31.632  27.214  26.529  1.00  0.00     0.116 C 
BRANCH   2   3
ATOM      3  N   UNL A   1      31.067  25.926  26.870  1.00  0.00    -0.356 N 
ATOM      4  C   UNL A   1      31.552  24.662  26.730  1.00  0.00     0.227 C 
ATOM      5  O   UNL A   1      30.888  23.752  27.239  1.00  0.00    -0.274 OA
ATOM      6  H   UNL A   1      30.172  25.972  27.279  1.00  0.00     0.163 HD
BRANCH   4   7
ATOM      7  C   UNL A   1      32.806  24.321  25.910  1.00  0.00     0.103 C 
ATOM      8  C   UNL A   1      33.617  22.062  25.332  1.00  0.00     0.107 C 
ATOM      9  C   UNL A   1      33.155  22.826  24.131  1.00  0.00    -0.006 C 
ATOM     10  C   UNL A   1      33.533  23.097  26.460  1.00  0.00     0.047 C 
ATOM     11  C   UNL A   1      32.653  24.025  24.454  1.00  0.00    -0.016 C 
BRANCH   8  12
ATOM     12  N   UNL A   1      34.951  21.549  25.130  1.00  0.00    -0.332 N 
ATOM     13  N   UNL A   1      34.681  19.197  24.957  1.00  0.00    -0.336 N 
ATOM     14  C   UNL A   1      35.441  20.308  24.965  1.00  0.00     0.315 C 
ATOM     15  H   UNL A   1      35.183  18.367  24.792  1.00  0.00     0.165 HD
ATOM     16  O   UNL A   1      36.657  20.174  24.823  1.00  0.00    -0.249 OA
ATOM     17  H   UNL A   1      35.642  22.250  25.109  1.00  0.00     0.165 HD
BRANCH  13  18
ATOM     18  C   UNL A   1      33.262  19.004  25.148  1.00  0.00     0.142 C 
BRANCH  18  19
ATOM     19  C   UNL A   1      32.559  18.078  24.141  1.00  0.00     0.101 C 
ATOM     20  O   UNL A   1      33.080  14.800  25.295  1.00  0.00    -0.275 OA
ATOM     21  C   UNL A   1      33.096  15.855  24.677  1.00  0.00     0.220 C 
ATOM     22  C   UNL A   1      34.157  16.326  23.719  1.00  0.00     0.102 C 
ATOM     23  N   UNL A   1      32.161  16.858  24.806  1.00  0.00    -0.352 N 
ATOM     24  C   UNL A   1      33.501  17.546  23.066  1.00  0.00     0.036 C 
ATOM     25  H   UNL A   1      31.314  16.755  25.298  1.00  0.00     0.163 HD
ENDBRANCH  18  19
ENDBRANCH  13  18
ENDBRANCH   8  12
ENDBRANCH   4   7
ENDBRANCH   2   3
ENDBRANCH   1   2
BRANCH   1  26
ATOM     26  C   UNL A   1      32.254  28.507  24.376  1.00  0.00     0.023 C 
BRANCH  26  27
ATOM     27  C   UNL A   1      33.269  29.256  25.230  1.00  0.00     0.116 C 
BRANCH  27  28
ATOM     28  N   UNL A   1      32.749  30.489  25.798  1.00  0.00    -0.352 N 
ATOM     29  C   UNL A   1      33.212  31.216  26.868  1.00  0.00     0.251 C 
ATOM     30  H   UNL A   1      31.951  30.855  25.353  1.00  0.00     0.163 HD
ATOM     31  O   UNL A   1      32.569  32.181  27.271  1.00  0.00    -0.269 OA
BRANCH  29  32
ATOM     32  C   UNL A   1      34.463  30.826  27.558  1.00  0.00     0.039 A 
ATOM     33  C   UNL A   1      35.464  31.789  27.721  1.00  0.00     0.014 A 
ATOM     34  C   UNL A   1      34.666  29.527  28.029  1.00  0.00     0.014 A 
ATOM     35  C   UNL A   1      36.642  31.460  28.395  1.00  0.00     0.010 A 
ATOM     36  C   UNL A   1      35.800  29.226  28.778  1.00  0.00     0.010 A 
ATOM     37  C   UNL A   1      36.810  30.182  28.953  1.00  0.00    -0.014 A 
BRANCH  37  38
ATOM     38  C   UNL A   1      38.045  29.833  29.699  1.00  0.00     0.031 A 
ATOM     39  C   UNL A   1      38.273  30.366  31.087  1.00  0.00     0.074 A 
ATOM     40  C   UNL A   1      38.989  29.078  29.108  1.00  0.00     0.049 A 
ATOM     41  N   UNL A   1      39.284  30.168  31.896  1.00  0.00    -0.248 NA
ATOM     42  C   UNL A   1      37.245  31.269  31.626  1.00  0.00     0.031 C 
ATOM     43  C   UNL A   1      38.926  28.570  27.735  1.00  0.00     0.029 A 
ATOM     44  N   UNL A   1      40.189  28.610  29.581  1.00  0.00    -0.354 N 
ATOM     45  C   UNL A   1      39.022  30.935  33.024  1.00  0.00     0.074 A 
ATOM     46  C   UNL A   1      37.791  31.651  32.770  1.00  0.00     0.031 C 
ATOM     47  C   UNL A   1      40.025  27.841  27.487  1.00  0.00     0.029 A 
ATOM     48  C   UNL A   1      40.881  27.851  28.670  1.00  0.00     0.049 A 
ATOM     49  H   UNL A   1      40.521  28.799  30.488  1.00  0.00     0.167 HD
ATOM     50  C   UNL A   1      39.727  31.014  34.178  1.00  0.00     0.037 A 
ATOM     51  C   UNL A   1      42.070  27.229  28.777  1.00  0.00     0.037 A 
ATOM     52  C   UNL A   1      40.939  30.280  34.434  1.00  0.00     0.049 A 
ATOM     53  C   UNL A   1      42.813  27.288  30.084  1.00  0.00     0.074 A 
ATOM     54  C   UNL A   1      41.685  30.221  35.598  1.00  0.00     0.029 A 
ATOM     55  N   UNL A   1      41.589  29.480  33.504  1.00  0.00    -0.354 N 
ATOM     56  N   UNL A   1      42.504  27.931  31.184  1.00  0.00    -0.248 NA
ATOM     57  C   UNL A   1      44.059  26.515  30.170  1.00  0.00     0.031 C 
ATOM     58  C   UNL A   1      42.815  29.432  35.354  1.00  0.00     0.029 A 
ATOM     59  C   UNL A   1      42.741  28.946  34.059  1.00  0.00     0.049 A 
ATOM     60  H   UNL A   1      41.276  29.318  32.585  1.00  0.00     0.167 HD
ATOM     61  C   UNL A   1      43.501  27.625  32.100  1.00  0.00     0.074 A 
ATOM     62  C   UNL A   1      44.414  26.720  31.431  1.00  0.00     0.031 C 
ATOM     63  C   UNL A   1      43.647  28.054  33.379  1.00  0.00     0.037 A 
BRANCH  50  64
ATOM     64  C   UNL A   1      39.204  31.937  35.245  1.00  0.00     0.064 A 
ATOM     65  C   UNL A   1      39.466  33.316  35.228  1.00  0.00     0.173 A 
ATOM     66  C   UNL A   1      38.427  31.435  36.299  1.00  0.00     0.173 A 
ATOM     67  F   UNL A   1      40.213  33.850  34.249  1.00  0.00    -0.203 F 
ATOM     68  C   UNL A   1      39.015  34.147  36.252  1.00  0.00     0.198 A 
ATOM     69  C   UNL A   1      37.945  32.273  37.301  1.00  0.00     0.198 A 
ATOM     70  F   UNL A   1      38.136  30.126  36.364  1.00  0.00    -0.203 F 
ATOM     71  F   UNL A   1      39.342  35.446  36.250  1.00  0.00    -0.200 F 
ATOM     72  C   UNL A   1      38.251  33.626  37.284  1.00  0.00     0.200 A 
ATOM     73  F   UNL A   1      37.194  31.771  38.291  1.00  0.00    -0.200 F 
ATOM     74  F   UNL A   1      37.820  34.426  38.269  1.00  0.00    -0.200 F 
ENDBRANCH  50  64
BRANCH  51  75
ATOM     75  C   UNL A   1      42.602  26.464  27.621  1.00  0.00     0.064 A 
ATOM     76  C   UNL A   1      43.536  27.032  26.744  1.00  0.00     0.173 A 
ATOM     77  C   UNL A   1      42.211  25.137  27.388  1.00  0.00     0.173 A 
ATOM     78  F   UNL A   1      43.927  28.303  26.914  1.00  0.00    -0.203 F 
ATOM     79  C   UNL A   1      44.049  26.307  25.669  1.00  0.00     0.198 A 
ATOM     80  C   UNL A   1      42.746  24.403  26.331  1.00  0.00     0.198 A 
ATOM     81  F   UNL A   1      41.326  24.545  28.204  1.00  0.00    -0.203 F 
ATOM     82  F   UNL A   1      44.913  26.886  24.825  1.00  0.00    -0.200 F 
ATOM     83  C   UNL A   1      43.660  24.991  25.469  1.00  0.00     0.200 A 
ATOM     84  F   UNL A   1      42.381  23.127  26.151  1.00  0.00    -0.200 F 
ATOM     85  F   UNL A   1      44.164  24.290  24.444  1.00  0.00    -0.200 F 
ENDBRANCH  51  75
BRANCH  63  86
ATOM     86  C   UNL A   1      44.825  27.525  34.148  1.00  0.00     0.064 A 
ATOM     87  C   UNL A   1      46.070  28.173  34.132  1.00  0.00     0.173 A 
ATOM     88  C   UNL A   1      44.702  26.362  34.924  1.00  0.00     0.173 A 
ATOM     89  F   UNL A   1      46.245  29.282  33.397  1.00  0.00    -0.203 F 
ATOM     90  C   UNL A   1      47.156  27.655  34.833  1.00  0.00     0.198 A 
ATOM     91  C   UNL A   1      45.780  25.866  35.650  1.00  0.00     0.198 A 
ATOM     92  F   UNL A   1      43.532  25.708  34.981  1.00  0.00    -0.203 F 
ATOM     93  F   UNL A   1      48.351  28.257  34.752  1.00  0.00    -0.200 F 
ATOM     94  C   UNL A   1      47.010  26.506  35.595  1.00  0.00     0.200 A 
ATOM     95  F   UNL A   1      45.632  24.765  36.399  1.00  0.00    -0.200 F 
ATOM     96  F   UNL A   1      48.056  26.009  36.269  1.00  0.00    -0.200 F 
ENDBRANCH  63  86
ENDBRANCH  37  38
ENDBRANCH  29  32
ENDBRANCH  27  28
ENDBRANCH  26  27
ENDBRANCH   1  26
TORSDOF 14
ENDMDL
MODEL 2
REMARK VINA RESULT:     -12.8      0.533      2.024
REMARK SMILES O=C1CC[C@H](CNC(=O)N[C@@H]2C=C[C@@H](C(=O)NCCCCNC(=O)c3ccc(-c4c5nc(c(-c6c(F)c(F)c(F)c(F)c6F)c6ccc([nH]6)c(-c6c(F)c(F)c(F)c(F)c6F)c6nc(c(-c7c(F)c(F)c(F)c(F)c7F)c7ccc4[nH]7)C=C6)C=C5)cc3)C2)N1
REMARK SMILES IDX 19 1 18 2 17 3 15 4 16 5 14 7 11 8 12 9 88 10 13 11 10 12
REMARK SMILES IDX 7 13 8 14 9 16 6 18 5 19 1 20 2 21 3 22 89 23 4 24 20 26
REMARK SMILES IDX 21 27 22 28 23 29 24 31 25 32 26 33 87 34 27 35 86 36 28 37
REMARK SMILES IDX 29 38 30 39 80 40 31 41 85 42 79 43 81 44 32 45 84 46 78 47
REMARK SMILES IDX 77 48 33 50 65 51 45 52 64 53 46 54 49 55 63 56 82 57 47 58
REMARK SMILES IDX 48 59 62 61 83 62 50 63 34 64 35 65 43 66 36 67 37 68 41 69
REMARK SMILES IDX 44 70 38 71 39 72 42 73 40 74 66 75 67 76 75 77 68 78 69 79
REMARK SMILES IDX 73 80 76 81 70 82 71 83 74 84 72 85 51 86 52 87 60 88 53 89
REMARK SMILES IDX 54 90 58 91 61 92 55 93 56 94 59 95 57 96
REMARK H PARENT 17 6 7 15 10 17 89 25 22 30 81 49 49 60
REMARK Flexibility Score: inf
ROOT
ATOM      1  C   UNL A   1      31.509  27.606  26.325  1.00  0.00     0.023 C 
ENDROOT
BRANCH   1   2
ATOM      2  C   UNL A   1      30.653  26.562  25.611  1.00  0.00     0.116 C 
BRANCH   2   3
ATOM      3  N   UNL A   1      30.474  25.353  26.387  1.00  0.00    -0.356 N 
ATOM      4  C   UNL A   1      31.304  24.301  26.624  1.00  0.00     0.227 C 
ATOM      5  O   UNL A   1      30.916  23.462  27.444  1.00  0.00    -0.274 OA
ATOM      6  H   UNL A   1      29.593  25.279  26.823  1.00  0.00     0.163 HD
BRANCH   4   7
ATOM      7  C   UNL A   1      32.622  24.075  25.869  1.00  0.00     0.103 C 
ATOM      8  C   UNL A   1      33.696  21.901  25.404  1.00  0.00     0.107 C 
ATOM      9  C   UNL A   1      33.209  22.573  24.159  1.00  0.00    -0.006 C 
ATOM     10  C   UNL A   1      33.451  22.954  26.491  1.00  0.00     0.047 C 
ATOM     11  C   UNL A   1      32.567  23.719  24.419  1.00  0.00    -0.016 C 
BRANCH   8  12
ATOM     12  N   UNL A   1      35.085  21.530  25.275  1.00  0.00    -0.332 N 
ATOM     13  N   UNL A   1      35.056  19.198  24.831  1.00  0.00    -0.336 N 
ATOM     14  C   UNL A   1      35.703  20.362  25.027  1.00  0.00     0.315 C 
ATOM     15  H   UNL A   1      35.647  18.438  24.626  1.00  0.00     0.165 HD
ATOM     16  O   UNL A   1      36.934  20.350  24.986  1.00  0.00    -0.249 OA
ATOM     17  H   UNL A   1      35.705  22.286  25.393  1.00  0.00     0.165 HD
BRANCH  13  18
ATOM     18  C   UNL A   1      33.651  18.864  24.866  1.00  0.00     0.142 C 
BRANCH  18  19
ATOM     19  C   UNL A   1      33.203  17.707  23.958  1.00  0.00     0.101 C 
ATOM     20  O   UNL A   1      32.183  15.118  26.104  1.00  0.00    -0.275 OA
ATOM     21  C   UNL A   1      32.773  15.831  25.306  1.00  0.00     0.220 C 
ATOM     22  C   UNL A   1      34.228  15.753  24.926  1.00  0.00     0.102 C 
ATOM     23  N   UNL A   1      32.217  16.907  24.650  1.00  0.00    -0.352 N 
ATOM     24  C   UNL A   1      34.306  16.683  23.712  1.00  0.00     0.036 C 
ATOM     25  H   UNL A   1      31.253  17.109  24.652  1.00  0.00     0.163 HD
ENDBRANCH  18  19
ENDBRANCH  13  18
ENDBRANCH   8  12
ENDBRANCH   4   7
ENDBRANCH   2   3
ENDBRANCH   1   2
BRANCH   1  26
ATOM     26  C   UNL A   1      31.855  28.851  25.506  1.00  0.00     0.023 C 
BRANCH  26  27
ATOM     27  C   UNL A   1      33.101  29.607  25.950  1.00  0.00     0.116 C 
BRANCH  27  28
ATOM     28  N   UNL A   1      32.835  30.982  26.340  1.00  0.00    -0.352 N 
ATOM     29  C   UNL A   1      33.499  31.773  27.246  1.00  0.00     0.251 C 
ATOM     30  H   UNL A   1      32.070  31.408  25.889  1.00  0.00     0.163 HD
ATOM     31  O   UNL A   1      33.055  32.884  27.524  1.00  0.00    -0.269 OA
BRANCH  29  32
ATOM     32  C   UNL A   1      34.727  31.284  27.913  1.00  0.00     0.039 A 
ATOM     33  C   UNL A   1      35.811  32.159  28.042  1.00  0.00     0.014 A 
ATOM     34  C   UNL A   1      34.828  29.978  28.396  1.00  0.00     0.014 A 
ATOM     35  C   UNL A   1      36.971  31.736  28.696  1.00  0.00     0.010 A 
ATOM     36  C   UNL A   1      35.948  29.587  29.124  1.00  0.00     0.010 A 
ATOM     37  C   UNL A   1      37.040  30.454  29.265  1.00  0.00    -0.014 A 
BRANCH  37  38
ATOM     38  C   UNL A   1      38.258  30.008  29.989  1.00  0.00     0.031 A 
ATOM     39  C   UNL A   1      38.531  30.487  31.388  1.00  0.00     0.074 A 
ATOM     40  C   UNL A   1      39.147  29.211  29.368  1.00  0.00     0.049 A 
ATOM     41  N   UNL A   1      39.535  30.204  32.181  1.00  0.00    -0.248 NA
ATOM     42  C   UNL A   1      37.567  31.438  31.963  1.00  0.00     0.031 C 
ATOM     43  C   UNL A   1      39.040  28.747  27.983  1.00  0.00     0.029 A 
ATOM     44  N   UNL A   1      40.319  28.656  29.816  1.00  0.00    -0.354 N 
ATOM     45  C   UNL A   1      39.331  30.955  33.332  1.00  0.00     0.074 A 
ATOM     46  C   UNL A   1      38.146  31.753  33.110  1.00  0.00     0.031 C 
ATOM     47  C   UNL A   1      40.088  27.957  27.703  1.00  0.00     0.029 A 
ATOM     48  C   UNL A   1      40.954  27.880  28.878  1.00  0.00     0.049 A 
ATOM     49  H   UNL A   1      40.670  28.799  30.724  1.00  0.00     0.167 HD
ATOM     50  C   UNL A   1      40.051  30.958  34.481  1.00  0.00     0.037 A 
ATOM     51  C   UNL A   1      42.102  27.182  28.956  1.00  0.00     0.037 A 
ATOM     52  C   UNL A   1      41.216  30.141  34.704  1.00  0.00     0.049 A 
ATOM     53  C   UNL A   1      42.859  27.158  30.256  1.00  0.00     0.074 A 
ATOM     54  C   UNL A   1      41.967  30.004  35.858  1.00  0.00     0.029 A 
ATOM     55  N   UNL A   1      41.805  29.329  33.746  1.00  0.00    -0.354 N 
ATOM     56  N   UNL A   1      42.600  27.789  31.376  1.00  0.00    -0.248 NA
ATOM     57  C   UNL A   1      44.054  26.306  30.308  1.00  0.00     0.031 C 
ATOM     58  C   UNL A   1      43.042  29.153  35.581  1.00  0.00     0.029 A 
ATOM     59  C   UNL A   1      42.926  28.708  34.274  1.00  0.00     0.049 A 
ATOM     60  H   UNL A   1      41.475  29.211  32.826  1.00  0.00     0.167 HD
ATOM     61  C   UNL A   1      43.584  27.396  32.273  1.00  0.00     0.074 A 
ATOM     62  C   UNL A   1      44.432  26.453  31.571  1.00  0.00     0.031 C 
ATOM     63  C   UNL A   1      43.768  27.779  33.561  1.00  0.00     0.037 A 
BRANCH  50  64
ATOM     64  C   UNL A   1      39.596  31.881  35.577  1.00  0.00     0.064 A 
ATOM     65  C   UNL A   1      38.630  31.496  36.520  1.00  0.00     0.173 A 
ATOM     66  C   UNL A   1      40.133  33.173  35.686  1.00  0.00     0.173 A 
ATOM     67  F   UNL A   1      38.073  30.276  36.458  1.00  0.00    -0.203 F 
ATOM     68  C   UNL A   1      38.184  32.383  37.498  1.00  0.00     0.198 A 
ATOM     69  C   UNL A   1      39.713  34.045  36.688  1.00  0.00     0.198 A 
ATOM     70  F   UNL A   1      41.066  33.595  34.819  1.00  0.00    -0.203 F 
ATOM     71  F   UNL A   1      37.209  32.014  38.339  1.00  0.00    -0.200 F 
ATOM     72  C   UNL A   1      38.730  33.654  37.584  1.00  0.00     0.200 A 
ATOM     73  F   UNL A   1      40.252  35.268  36.780  1.00  0.00    -0.200 F 
ATOM     74  F   UNL A   1      38.298  34.506  38.524  1.00  0.00    -0.200 F 
ENDBRANCH  50  64
BRANCH  51  75
ATOM     75  C   UNL A   1      42.574  26.417  27.774  1.00  0.00     0.064 A 
ATOM     76  C   UNL A   1      42.081  25.135  27.496  1.00  0.00     0.173 A 
ATOM     77  C   UNL A   1      43.506  26.966  26.880  1.00  0.00     0.173 A 
ATOM     78  F   UNL A   1      41.202  24.561  28.330  1.00  0.00    -0.203 F 
ATOM     79  C   UNL A   1      42.511  24.425  26.376  1.00  0.00     0.198 A 
ATOM     80  C   UNL A   1      43.913  26.267  25.745  1.00  0.00     0.198 A 
ATOM     81  F   UNL A   1      44.001  28.193  27.097  1.00  0.00    -0.203 F 
ATOM     82  F   UNL A   1      42.050  23.186  26.153  1.00  0.00    -0.200 F 
ATOM     83  C   UNL A   1      43.420  24.994  25.497  1.00  0.00     0.200 A 
ATOM     84  F   UNL A   1      44.778  26.828  24.890  1.00  0.00    -0.200 F 
ATOM     85  F   UNL A   1      43.822  24.317  24.414  1.00  0.00    -0.200 F 
ENDBRANCH  51  75
BRANCH  63  86
ATOM     86  C   UNL A   1      44.917  27.156  34.303  1.00  0.00     0.064 A 
ATOM     87  C   UNL A   1      44.777  25.948  35.003  1.00  0.00     0.173 A 
ATOM     88  C   UNL A   1      46.179  27.769  34.301  1.00  0.00     0.173 A 
ATOM     89  F   UNL A   1      43.589  25.327  35.047  1.00  0.00    -0.203 F 
ATOM     90  C   UNL A   1      45.848  25.399  35.705  1.00  0.00     0.198 A 
ATOM     91  C   UNL A   1      47.255  27.200  34.974  1.00  0.00     0.198 A 
ATOM     92  F   UNL A   1      46.371  28.922  33.640  1.00  0.00    -0.203 F 
ATOM     93  F   UNL A   1      45.673  24.277  36.418  1.00  0.00    -0.200 F 
ATOM     94  C   UNL A   1      47.086  26.021  35.685  1.00  0.00     0.200 A 
ATOM     95  F   UNL A   1      48.456  27.795  34.941  1.00  0.00    -0.200 F 
ATOM     96  F   UNL A   1      48.115  25.491  36.361  1.00  0.00    -0.200 F 
ENDBRANCH  63  86
ENDBRANCH  37  38
ENDBRANCH  29  32
ENDBRANCH  27  28
ENDBRANCH  26  27
ENDBRANCH   1  26
TORSDOF 14
ENDMDL
MODEL 3
REMARK VINA RESULT:     -12.8      4.699      8.635
REMARK SMILES O=C1CC[C@H](CNC(=O)N[C@@H]2C=C[C@@H](C(=O)NCCCCNC(=O)c3ccc(-c4c5nc(c(-c6c(F)c(F)c(F)c(F)c6F)c6ccc([nH]6)c(-c6c(F)c(F)c(F)c(F)c6F)c6nc(c(-c7c(F)c(F)c(F)c(F)c7F)c7ccc4[nH]7)C=C6)C=C5)cc3)C2)N1
REMARK SMILES IDX 19 1 18 2 17 3 15 4 16 5 14 7 11 8 12 9 88 10 13 11 10 12
REMARK SMILES IDX 7 13 8 14 9 16 6 18 5 19 1 20 2 21 3 22 89 23 4 24 20 26
REMARK SMILES IDX 21 27 22 28 23 29 24 31 25 32 26 33 87 34 27 35 86 36 28 37
REMARK SMILES IDX 29 38 30 39 80 40 31 41 85 42 79 43 81 44 32 45 84 46 78 47
REMARK SMILES IDX 77 48 33 50 65 51 45 52 64 53 46 54 49 55 63 56 82 57 47 58
REMARK SMILES IDX 48 59 62 61 83 62 50 63 34 64 35 65 43 66 36 67 37 68 41 69
REMARK SMILES IDX 44 70 38 71 39 72 42 73 40 74 66 75 67 76 75 77 68 78 69 79
REMARK SMILES IDX 73 80 76 81 70 82 71 83 74 84 72 85 51 86 52 87 60 88 53 89
REMARK SMILES IDX 54 90 58 91 61 92 55 93 56 94 59 95 57 96
REMARK H PARENT 17 6 7 15 10 17 89 25 22 30 81 49 49 60
REMARK Flexibility Score: inf
ROOT
ATOM      1  C   UNL A   1      37.120  20.254  24.914  1.00  0.00     0.023 C 
ENDROOT
BRANCH   1   2
ATOM      2  C   UNL A   1      37.484  21.728  24.753  1.00  0.00     0.116 C 
BRANCH   2   3
ATOM      3  N   UNL A   1      36.628  22.420  23.811  1.00  0.00    -0.356 N 
ATOM      4  C   UNL A   1      35.286  22.644  23.808  1.00  0.00     0.227 C 
ATOM      5  O   UNL A   1      34.849  23.389  22.924  1.00  0.00    -0.274 OA
ATOM      6  H   UNL A   1      37.103  22.797  23.034  1.00  0.00     0.163 HD
BRANCH   4   7
ATOM      7  C   UNL A   1      34.309  21.957  24.775  1.00  0.00     0.103 C 
ATOM      8  C   UNL A   1      31.926  22.516  25.101  1.00  0.00     0.107 C 
ATOM      9  C   UNL A   1      32.115  21.166  24.483  1.00  0.00    -0.006 C 
ATOM     10  C   UNL A   1      33.358  22.955  25.430  1.00  0.00     0.047 C 
ATOM     11  C   UNL A   1      33.405  20.893  24.245  1.00  0.00    -0.016 C 
BRANCH   8  12
ATOM     12  N   UNL A   1      31.076  22.432  26.264  1.00  0.00    -0.332 N 
ATOM     13  N   UNL A   1      29.881  24.482  26.298  1.00  0.00    -0.336 N 
ATOM     14  C   UNL A   1      30.179  23.272  26.808  1.00  0.00     0.315 C 
ATOM     15  H   UNL A   1      29.179  24.965  26.791  1.00  0.00     0.165 HD
ATOM     16  O   UNL A   1      29.600  22.924  27.837  1.00  0.00    -0.249 OA
ATOM     17  H   UNL A   1      31.174  21.586  26.760  1.00  0.00     0.165 HD
BRANCH  13  18
ATOM     18  C   UNL A   1      30.407  25.199  25.159  1.00  0.00     0.142 C 
BRANCH  18  19
ATOM     19  C   UNL A   1      30.766  26.676  25.391  1.00  0.00     0.101 C 
ATOM     20  O   UNL A   1      33.940  27.147  23.957  1.00  0.00    -0.275 OA
ATOM     21  C   UNL A   1      32.992  27.011  24.717  1.00  0.00     0.220 C 
ATOM     22  C   UNL A   1      33.046  26.624  26.171  1.00  0.00     0.102 C 
ATOM     23  N   UNL A   1      31.669  27.120  24.352  1.00  0.00    -0.352 N 
ATOM     24  C   UNL A   1      31.613  26.892  26.641  1.00  0.00     0.036 C 
ATOM     25  H   UNL A   1      31.369  27.462  23.478  1.00  0.00     0.163 HD
ENDBRANCH  18  19
ENDBRANCH  13  18
ENDBRANCH   8  12
ENDBRANCH   4   7
ENDBRANCH   2   3
ENDBRANCH   1   2
BRANCH   1  26
ATOM     26  C   UNL A   1      38.302  19.290  25.036  1.00  0.00     0.023 C 
BRANCH  26  27
ATOM     27  C   UNL A   1      39.502  19.813  25.816  1.00  0.00     0.116 C 
BRANCH  27  28
ATOM     28  N   UNL A   1      40.601  18.864  25.891  1.00  0.00    -0.352 N 
ATOM     29  C   UNL A   1      41.939  19.098  26.094  1.00  0.00     0.251 C 
ATOM     30  H   UNL A   1      40.350  17.919  25.782  1.00  0.00     0.163 HD
ATOM     31  O   UNL A   1      42.737  18.168  26.016  1.00  0.00    -0.269 OA
BRANCH  29  32
ATOM     32  C   UNL A   1      42.429  20.467  26.375  1.00  0.00     0.039 A 
ATOM     33  C   UNL A   1      42.880  21.247  25.306  1.00  0.00     0.014 A 
ATOM     34  C   UNL A   1      42.463  20.981  27.673  1.00  0.00     0.014 A 
ATOM     35  C   UNL A   1      43.319  22.554  25.535  1.00  0.00     0.010 A 
ATOM     36  C   UNL A   1      42.814  22.311  27.888  1.00  0.00     0.010 A 
ATOM     37  C   UNL A   1      43.265  23.106  26.825  1.00  0.00    -0.014 A 
BRANCH  37  38
ATOM     38  C   UNL A   1      43.699  24.504  27.072  1.00  0.00     0.031 A 
ATOM     39  C   UNL A   1      42.715  25.533  27.559  1.00  0.00     0.074 A 
ATOM     40  C   UNL A   1      44.969  24.864  26.810  1.00  0.00     0.049 A 
ATOM     41  N   UNL A   1      42.906  26.799  27.835  1.00  0.00    -0.248 NA
ATOM     42  C   UNL A   1      41.322  25.090  27.724  1.00  0.00     0.031 C 
ATOM     43  C   UNL A   1      45.998  23.982  26.254  1.00  0.00     0.029 A 
ATOM     44  N   UNL A   1      45.611  26.066  26.967  1.00  0.00    -0.354 N 
ATOM     45  C   UNL A   1      41.661  27.303  28.185  1.00  0.00     0.074 A 
ATOM     46  C   UNL A   1      40.710  26.224  28.024  1.00  0.00     0.031 C 
ATOM     47  C   UNL A   1      47.147  24.665  26.142  1.00  0.00     0.029 A 
ATOM     48  C   UNL A   1      46.931  26.038  26.592  1.00  0.00     0.049 A 
ATOM     49  H   UNL A   1      45.168  26.872  27.317  1.00  0.00     0.167 HD
ATOM     50  C   UNL A   1      41.341  28.543  28.628  1.00  0.00     0.037 A 
ATOM     51  C   UNL A   1      47.865  27.008  26.611  1.00  0.00     0.037 A 
ATOM     52  C   UNL A   1      42.297  29.605  28.810  1.00  0.00     0.049 A 
ATOM     53  C   UNL A   1      47.503  28.363  27.153  1.00  0.00     0.074 A 
ATOM     54  C   UNL A   1      42.094  30.870  29.332  1.00  0.00     0.029 A 
ATOM     55  N   UNL A   1      43.638  29.526  28.464  1.00  0.00    -0.354 N 
ATOM     56  N   UNL A   1      46.343  28.800  27.582  1.00  0.00    -0.248 NA
ATOM     57  C   UNL A   1      48.585  29.352  27.234  1.00  0.00     0.031 C 
ATOM     58  C   UNL A   1      43.300  31.576  29.250  1.00  0.00     0.029 A 
ATOM     59  C   UNL A   1      44.270  30.730  28.736  1.00  0.00     0.049 A 
ATOM     60  H   UNL A   1      44.076  28.733  28.081  1.00  0.00     0.167 HD
ATOM     61  C   UNL A   1      46.558  30.105  28.005  1.00  0.00     0.074 A 
ATOM     62  C   UNL A   1      47.967  30.380  27.800  1.00  0.00     0.031 C 
ATOM     63  C   UNL A   1      45.671  30.994  28.517  1.00  0.00     0.037 A 
BRANCH  50  64
ATOM     64  C   UNL A   1      39.894  28.814  28.937  1.00  0.00     0.064 A 
ATOM     65  C   UNL A   1      39.363  28.631  30.223  1.00  0.00     0.173 A 
ATOM     66  C   UNL A   1      39.025  29.263  27.931  1.00  0.00     0.173 A 
ATOM     67  F   UNL A   1      40.145  28.194  31.222  1.00  0.00    -0.203 F 
ATOM     68  C   UNL A   1      38.009  28.839  30.479  1.00  0.00     0.198 A 
ATOM     69  C   UNL A   1      37.680  29.506  28.197  1.00  0.00     0.198 A 
ATOM     70  F   UNL A   1      39.478  29.463  26.684  1.00  0.00    -0.203 F 
ATOM     71  F   UNL A   1      37.513  28.587  31.698  1.00  0.00    -0.200 F 
ATOM     72  C   UNL A   1      37.170  29.281  29.467  1.00  0.00     0.200 A 
ATOM     73  F   UNL A   1      36.874  29.947  27.223  1.00  0.00    -0.200 F 
ATOM     74  F   UNL A   1      35.868  29.477  29.714  1.00  0.00    -0.200 F 
ENDBRANCH  50  64
BRANCH  51  75
ATOM     75  C   UNL A   1      49.241  26.708  26.138  1.00  0.00     0.064 A 
ATOM     76  C   UNL A   1      50.190  26.131  26.991  1.00  0.00     0.173 A 
ATOM     77  C   UNL A   1      49.624  26.964  24.813  1.00  0.00     0.173 A 
ATOM     78  F   UNL A   1      49.877  25.883  28.271  1.00  0.00    -0.203 F 
ATOM     79  C   UNL A   1      51.476  25.832  26.541  1.00  0.00     0.198 A 
ATOM     80  C   UNL A   1      50.899  26.639  24.356  1.00  0.00     0.198 A 
ATOM     81  F   UNL A   1      48.748  27.508  23.954  1.00  0.00    -0.203 F 
ATOM     82  F   UNL A   1      52.376  25.314  27.388  1.00  0.00    -0.200 F 
ATOM     83  C   UNL A   1      51.827  26.079  25.223  1.00  0.00     0.200 A 
ATOM     84  F   UNL A   1      51.229  26.864  23.077  1.00  0.00    -0.200 F 
ATOM     85  F   UNL A   1      53.058  25.780  24.787  1.00  0.00    -0.200 F 
ENDBRANCH  51  75
BRANCH  63  86
ATOM     86  C   UNL A   1      46.205  32.341  28.918  1.00  0.00     0.064 A 
ATOM     87  C   UNL A   1      46.727  32.578  30.199  1.00  0.00     0.173 A 
ATOM     88  C   UNL A   1      46.209  33.404  28.002  1.00  0.00     0.173 A 
ATOM     89  F   UNL A   1      46.737  31.599  31.117  1.00  0.00    -0.203 F 
ATOM     90  C   UNL A   1      47.196  33.839  30.559  1.00  0.00     0.198 A 
ATOM     91  C   UNL A   1      46.709  34.653  28.355  1.00  0.00     0.198 A 
ATOM     92  F   UNL A   1      45.729  33.230  26.761  1.00  0.00    -0.203 F 
ATOM     93  F   UNL A   1      47.631  34.057  31.808  1.00  0.00    -0.200 F 
ATOM     94  C   UNL A   1      47.192  34.873  29.636  1.00  0.00     0.200 A 
ATOM     95  F   UNL A   1      46.719  35.647  27.456  1.00  0.00    -0.200 F 
ATOM     96  F   UNL A   1      47.643  36.087  29.985  1.00  0.00    -0.200 F 
ENDBRANCH  63  86
ENDBRANCH  37  38
ENDBRANCH  29  32
ENDBRANCH  27  28
ENDBRANCH  26  27
ENDBRANCH   1  26
TORSDOF 14
ENDMDL
