MODEL 1
REMARK VINA RESULT:     -11.7      0.000      0.000
REMARK SMILES CC(C)[C@H](CO)Nc1ccc(C(=O)NCCCCNC(=O)c2ccc(-c3c4nc(c(-c5c(F)c(F)c(F)c(F)c5F)c5ccc([nH]5)c(-c5c(F)c(F)c(F)c(F)c5F)c5nc(c(-c6c(F)c(F)c(F)c(F)c6F)c6ccc3[nH]6)C=C5)C=C4)cc2)cc1
REMARK SMILES IDX 15 1 14 2 12 3 13 4 11 6 8 7 9 8 86 9 10 10 85 11 7 12 4 14
REMARK SMILES IDX 2 15 1 16 3 17 5 18 6 19 16 21 17 22 18 23 19 24 20 25 21 27
REMARK SMILES IDX 22 28 23 29 84 30 24 31 83 32 25 33 26 34 27 35 77 36 28 37
REMARK SMILES IDX 82 38 76 39 78 40 29 41 81 42 75 43 74 44 30 46 62 47 42 48
REMARK SMILES IDX 61 49 43 50 46 51 60 52 79 53 44 54 45 55 59 57 80 58 47 59
REMARK SMILES IDX 31 60 32 61 40 62 33 63 34 64 38 65 41 66 35 67 36 68 39 69
REMARK SMILES IDX 37 70 63 71 64 72 72 73 65 74 66 75 70 76 73 77 67 78 68 79
REMARK SMILES IDX 71 80 69 81 48 82 49 83 57 84 50 85 51 86 55 87 58 88 52 89
REMARK SMILES IDX 53 90 56 91 54 92
REMARK H PARENT 14 5 7 13 6 20 19 26 78 45 46 56
REMARK Flexibility Score: inf
ROOT
ATOM      1  C   UNL A   1      32.047  29.743  25.433  1.00  0.00     0.116 C 
ENDROOT
BRANCH   1   2
ATOM      2  N   UNL A   1      31.021  30.106  24.476  1.00  0.00    -0.352 N 
ATOM      3  C   UNL A   1      30.300  29.354  23.583  1.00  0.00     0.251 C 
ATOM      4  O   UNL A   1      29.464  29.937  22.892  1.00  0.00    -0.269 OA
ATOM      5  H   UNL A   1      30.801  31.064  24.465  1.00  0.00     0.163 HD
BRANCH   3   6
ATOM      6  C   UNL A   1      30.438  27.875  23.462  1.00  0.00     0.039 A 
ATOM      7  C   UNL A   1      30.689  25.052  23.463  1.00  0.00     0.034 A 
ATOM      8  C   UNL A   1      29.844  25.699  24.369  1.00  0.00     0.026 A 
ATOM      9  C   UNL A   1      31.364  25.833  22.527  1.00  0.00     0.026 A 
ATOM     10  C   UNL A   1      29.728  27.092  24.379  1.00  0.00     0.016 A 
ATOM     11  C   UNL A   1      31.205  27.223  22.497  1.00  0.00     0.016 A 
BRANCH   7  12
ATOM     12  N   UNL A   1      30.885  23.693  23.576  1.00  0.00    -0.380 N 
ATOM     13  H   UNL A   1      30.351  23.098  23.002  1.00  0.00     0.160 HD
BRANCH  12  14
ATOM     14  C   UNL A   1      31.846  23.080  24.507  1.00  0.00     0.107 C 
BRANCH  14  15
ATOM     15  C   UNL A   1      32.807  22.095  23.794  1.00  0.00     0.007 C 
ATOM     16  C   UNL A   1      32.315  21.704  22.396  1.00  0.00     0.009 C 
ATOM     17  C   UNL A   1      34.254  22.588  23.710  1.00  0.00     0.009 C 
ENDBRANCH  14  15
BRANCH  14  18
ATOM     18  C   UNL A   1      31.017  22.457  25.658  1.00  0.00     0.181 C 
BRANCH  18  19
ATOM     19  O   UNL A   1      31.352  21.074  25.816  1.00  0.00    -0.394 OA
ATOM     20  H   UNL A   1      32.063  20.841  25.199  1.00  0.00     0.210 HD
ENDBRANCH  18  19
ENDBRANCH  14  18
ENDBRANCH  12  14
ENDBRANCH   7  12
ENDBRANCH   3   6
ENDBRANCH   1   2
BRANCH   1  21
ATOM     21  C   UNL A   1      31.783  30.417  26.781  1.00  0.00     0.023 C 
BRANCH  21  22
ATOM     22  C   UNL A   1      31.618  31.936  26.699  1.00  0.00     0.023 C 
BRANCH  22  23
ATOM     23  C   UNL A   1      32.765  32.730  27.308  1.00  0.00     0.116 C 
BRANCH  23  24
ATOM     24  N   UNL A   1      32.408  34.104  27.625  1.00  0.00    -0.352 N 
ATOM     25  C   UNL A   1      32.980  34.936  28.559  1.00  0.00     0.251 C 
ATOM     26  H   UNL A   1      31.664  34.487  27.106  1.00  0.00     0.163 HD
ATOM     27  O   UNL A   1      32.511  36.039  28.791  1.00  0.00    -0.269 OA
BRANCH  25  28
ATOM     28  C   UNL A   1      34.153  34.449  29.314  1.00  0.00     0.039 A 
ATOM     29  C   UNL A   1      33.950  33.825  30.547  1.00  0.00     0.014 A 
ATOM     30  C   UNL A   1      35.438  34.568  28.778  1.00  0.00     0.014 A 
ATOM     31  C   UNL A   1      35.035  33.261  31.217  1.00  0.00     0.010 A 
ATOM     32  C   UNL A   1      36.505  33.945  29.412  1.00  0.00     0.010 A 
ATOM     33  C   UNL A   1      36.314  33.290  30.639  1.00  0.00    -0.014 A 
BRANCH  33  34
ATOM     34  C   UNL A   1      37.483  32.667  31.305  1.00  0.00     0.031 A 
ATOM     35  C   UNL A   1      38.216  31.549  30.622  1.00  0.00     0.074 A 
ATOM     36  C   UNL A   1      37.832  33.051  32.546  1.00  0.00     0.049 A 
ATOM     37  N   UNL A   1      39.184  30.794  31.073  1.00  0.00    -0.248 NA
ATOM     38  C   UNL A   1      37.774  31.215  29.259  1.00  0.00     0.031 C 
ATOM     39  C   UNL A   1      37.177  34.105  33.324  1.00  0.00     0.029 A 
ATOM     40  N   UNL A   1      38.819  32.588  33.379  1.00  0.00    -0.354 N 
ATOM     41  C   UNL A   1      39.453  29.885  30.058  1.00  0.00     0.074 A 
ATOM     42  C   UNL A   1      38.508  30.146  28.993  1.00  0.00     0.031 C 
ATOM     43  C   UNL A   1      37.796  34.223  34.510  1.00  0.00     0.029 A 
ATOM     44  C   UNL A   1      38.863  33.231  34.591  1.00  0.00     0.049 A 
ATOM     45  H   UNL A   1      39.437  31.863  33.130  1.00  0.00     0.167 HD
ATOM     46  C   UNL A   1      40.415  28.933  30.010  1.00  0.00     0.037 A 
ATOM     47  C   UNL A   1      39.671  33.032  35.650  1.00  0.00     0.037 A 
ATOM     48  C   UNL A   1      41.367  28.695  31.061  1.00  0.00     0.049 A 
ATOM     49  C   UNL A   1      40.722  31.958  35.580  1.00  0.00     0.074 A 
ATOM     50  C   UNL A   1      42.409  27.786  31.096  1.00  0.00     0.029 A 
ATOM     51  N   UNL A   1      41.388  29.377  32.271  1.00  0.00    -0.354 N 
ATOM     52  N   UNL A   1      41.000  31.135  34.599  1.00  0.00    -0.248 NA
ATOM     53  C   UNL A   1      41.573  31.788  36.766  1.00  0.00     0.031 C 
ATOM     54  C   UNL A   1      43.040  27.894  32.340  1.00  0.00     0.029 A 
ATOM     55  C   UNL A   1      42.420  28.901  33.064  1.00  0.00     0.049 A 
ATOM     56  H   UNL A   1      40.764  30.094  32.526  1.00  0.00     0.167 HD
ATOM     57  C   UNL A   1      42.079  30.375  35.031  1.00  0.00     0.074 A 
ATOM     58  C   UNL A   1      42.406  30.837  36.365  1.00  0.00     0.031 C 
ATOM     59  C   UNL A   1      42.742  29.389  34.381  1.00  0.00     0.037 A 
BRANCH  46  60
ATOM     60  C   UNL A   1      40.475  28.084  28.774  1.00  0.00     0.064 A 
ATOM     61  C   UNL A   1      39.791  26.861  28.688  1.00  0.00     0.173 A 
ATOM     62  C   UNL A   1      41.229  28.493  27.664  1.00  0.00     0.173 A 
ATOM     63  F   UNL A   1      39.069  26.417  29.727  1.00  0.00    -0.203 F 
ATOM     64  C   UNL A   1      39.896  26.059  27.555  1.00  0.00     0.198 A 
ATOM     65  C   UNL A   1      41.304  27.703  26.518  1.00  0.00     0.198 A 
ATOM     66  F   UNL A   1      41.898  29.655  27.690  1.00  0.00    -0.203 F 
ATOM     67  F   UNL A   1      39.288  24.865  27.523  1.00  0.00    -0.200 F 
ATOM     68  C   UNL A   1      40.647  26.483  26.470  1.00  0.00     0.200 A 
ATOM     69  F   UNL A   1      42.022  28.119  25.466  1.00  0.00    -0.200 F 
ATOM     70  F   UNL A   1      40.750  25.707  25.381  1.00  0.00    -0.200 F 
ENDBRANCH  46  60
BRANCH  47  71
ATOM     71  C   UNL A   1      39.549  33.903  36.847  1.00  0.00     0.064 A 
ATOM     72  C   UNL A   1      40.182  35.152  36.884  1.00  0.00     0.173 A 
ATOM     73  C   UNL A   1      38.794  33.518  37.963  1.00  0.00     0.173 A 
ATOM     74  F   UNL A   1      40.931  35.555  35.847  1.00  0.00    -0.203 F 
ATOM     75  C   UNL A   1      40.076  35.980  38.000  1.00  0.00     0.198 A 
ATOM     76  C   UNL A   1      38.670  34.357  39.069  1.00  0.00     0.198 A 
ATOM     77  F   UNL A   1      38.165  32.334  37.973  1.00  0.00    -0.203 F 
ATOM     78  F   UNL A   1      40.721  37.154  38.024  1.00  0.00    -0.200 F 
ATOM     79  C   UNL A   1      39.316  35.585  39.089  1.00  0.00     0.200 A 
ATOM     80  F   UNL A   1      37.923  33.977  40.115  1.00  0.00    -0.200 F 
ATOM     81  F   UNL A   1      39.208  36.383  40.159  1.00  0.00    -0.200 F 
ENDBRANCH  47  71
BRANCH  59  82
ATOM     82  C   UNL A   1      43.923  28.778  35.074  1.00  0.00     0.064 A 
ATOM     83  C   UNL A   1      43.793  27.649  35.895  1.00  0.00     0.173 A 
ATOM     84  C   UNL A   1      45.209  29.299  34.867  1.00  0.00     0.173 A 
ATOM     85  F   UNL A   1      42.583  27.124  36.135  1.00  0.00    -0.203 F 
ATOM     86  C   UNL A   1      44.909  27.074  36.499  1.00  0.00     0.198 A 
ATOM     87  C   UNL A   1      46.325  28.706  35.451  1.00  0.00     0.198 A 
ATOM     88  F   UNL A   1      45.385  30.375  34.086  1.00  0.00    -0.203 F 
ATOM     89  F   UNL A   1      44.760  26.018  37.311  1.00  0.00    -0.200 F 
ATOM     90  C   UNL A   1      46.173  27.597  36.270  1.00  0.00     0.200 A 
ATOM     91  F   UNL A   1      47.546  29.205  35.219  1.00  0.00    -0.200 F 
ATOM     92  F   UNL A   1      47.247  27.036  36.843  1.00  0.00    -0.200 F 
ENDBRANCH  59  82
ENDBRANCH  33  34
ENDBRANCH  25  28
ENDBRANCH  23  24
ENDBRANCH  22  23
ENDBRANCH  21  22
ENDBRANCH   1  21
TORSDOF 16
ENDMDL
MODEL 2
REMARK VINA RESULT:     -11.7      1.279      2.190
REMARK SMILES CC(C)[C@H](CO)Nc1ccc(C(=O)NCCCCNC(=O)c2ccc(-c3c4nc(c(-c5c(F)c(F)c(F)c(F)c5F)c5ccc([nH]5)c(-c5c(F)c(F)c(F)c(F)c5F)c5nc(c(-c6c(F)c(F)c(F)c(F)c6F)c6ccc3[nH]6)C=C5)C=C4)cc2)cc1
REMARK SMILES IDX 15 1 14 2 12 3 13 4 11 6 8 7 9 8 86 9 10 10 85 11 7 12 4 14
REMARK SMILES IDX 2 15 1 16 3 17 5 18 6 19 16 21 17 22 18 23 19 24 20 25 21 27
REMARK SMILES IDX 22 28 23 29 84 30 24 31 83 32 25 33 26 34 27 35 77 36 28 37
REMARK SMILES IDX 82 38 76 39 78 40 29 41 81 42 75 43 74 44 30 46 62 47 42 48
REMARK SMILES IDX 61 49 43 50 46 51 60 52 79 53 44 54 45 55 59 57 80 58 47 59
REMARK SMILES IDX 31 60 32 61 40 62 33 63 34 64 38 65 41 66 35 67 36 68 39 69
REMARK SMILES IDX 37 70 63 71 64 72 72 73 65 74 66 75 70 76 73 77 67 78 68 79
REMARK SMILES IDX 71 80 69 81 48 82 49 83 57 84 50 85 51 86 55 87 58 88 52 89
REMARK SMILES IDX 53 90 56 91 54 92
REMARK H PARENT 14 5 7 13 6 20 19 26 78 45 46 56
REMARK Flexibility Score: inf
ROOT
ATOM      1  C   UNL A   1      31.513  29.540  25.184  1.00  0.00     0.116 C 
ENDROOT
BRANCH   1   2
ATOM      2  N   UNL A   1      32.622  29.574  24.252  1.00  0.00    -0.352 N 
ATOM      3  C   UNL A   1      33.474  28.591  23.811  1.00  0.00     0.251 C 
ATOM      4  O   UNL A   1      34.331  28.909  22.987  1.00  0.00    -0.269 OA
ATOM      5  H   UNL A   1      32.796  30.461  23.864  1.00  0.00     0.163 HD
BRANCH   3   6
ATOM      6  C   UNL A   1      33.362  27.166  24.233  1.00  0.00     0.039 A 
ATOM      7  C   UNL A   1      33.324  24.495  25.179  1.00  0.00     0.034 A 
ATOM      8  C   UNL A   1      33.580  25.561  26.046  1.00  0.00     0.026 A 
ATOM      9  C   UNL A   1      33.038  24.790  23.847  1.00  0.00     0.026 A 
ATOM     10  C   UNL A   1      33.612  26.879  25.579  1.00  0.00     0.016 A 
ATOM     11  C   UNL A   1      33.012  26.112  23.390  1.00  0.00     0.016 A 
BRANCH   7  12
ATOM     12  N   UNL A   1      33.441  23.204  25.645  1.00  0.00    -0.380 N 
ATOM     13  H   UNL A   1      32.793  22.535  25.327  1.00  0.00     0.160 HD
BRANCH  12  14
ATOM     14  C   UNL A   1      34.479  22.768  26.593  1.00  0.00     0.107 C 
BRANCH  14  15
ATOM     15  C   UNL A   1      35.748  22.244  25.874  1.00  0.00     0.007 C 
ATOM     16  C   UNL A   1      35.447  21.704  24.472  1.00  0.00     0.009 C 
ATOM     17  C   UNL A   1      36.886  23.265  25.797  1.00  0.00     0.009 C 
ENDBRANCH  14  15
BRANCH  14  18
ATOM     18  C   UNL A   1      33.810  21.750  27.550  1.00  0.00     0.181 C 
BRANCH  18  19
ATOM     19  O   UNL A   1      32.648  22.330  28.155  1.00  0.00    -0.394 OA
ATOM     20  H   UNL A   1      31.872  22.151  27.601  1.00  0.00     0.210 HD
ENDBRANCH  18  19
ENDBRANCH  14  18
ENDBRANCH  12  14
ENDBRANCH   7  12
ENDBRANCH   3   6
ENDBRANCH   1   2
BRANCH   1  21
ATOM     21  C   UNL A   1      31.918  30.172  26.519  1.00  0.00     0.023 C 
BRANCH  21  22
ATOM     22  C   UNL A   1      31.679  31.681  26.594  1.00  0.00     0.023 C 
BRANCH  22  23
ATOM     23  C   UNL A   1      32.793  32.464  27.274  1.00  0.00     0.116 C 
BRANCH  23  24
ATOM     24  N   UNL A   1      32.435  33.846  27.554  1.00  0.00    -0.352 N 
ATOM     25  C   UNL A   1      33.003  34.701  28.470  1.00  0.00     0.251 C 
ATOM     26  H   UNL A   1      31.694  34.216  27.022  1.00  0.00     0.163 HD
ATOM     27  O   UNL A   1      32.534  35.810  28.672  1.00  0.00    -0.269 OA
BRANCH  25  28
ATOM     28  C   UNL A   1      34.172  34.232  29.243  1.00  0.00     0.039 A 
ATOM     29  C   UNL A   1      33.959  33.459  30.386  1.00  0.00     0.014 A 
ATOM     30  C   UNL A   1      35.468  34.518  28.808  1.00  0.00     0.014 A 
ATOM     31  C   UNL A   1      35.051  32.916  31.061  1.00  0.00     0.010 A 
ATOM     32  C   UNL A   1      36.551  33.920  29.440  1.00  0.00     0.010 A 
ATOM     33  C   UNL A   1      36.353  33.117  30.574  1.00  0.00    -0.014 A 
BRANCH  33  34
ATOM     34  C   UNL A   1      37.534  32.524  31.244  1.00  0.00     0.031 A 
ATOM     35  C   UNL A   1      38.282  31.407  30.575  1.00  0.00     0.074 A 
ATOM     36  C   UNL A   1      37.883  32.933  32.477  1.00  0.00     0.049 A 
ATOM     37  N   UNL A   1      39.264  30.675  31.033  1.00  0.00    -0.248 NA
ATOM     38  C   UNL A   1      37.839  31.044  29.219  1.00  0.00     0.031 C 
ATOM     39  C   UNL A   1      37.215  33.989  33.241  1.00  0.00     0.029 A 
ATOM     40  N   UNL A   1      38.881  32.499  33.312  1.00  0.00    -0.354 N 
ATOM     41  C   UNL A   1      39.542  29.754  30.032  1.00  0.00     0.074 A 
ATOM     42  C   UNL A   1      38.589  29.982  28.967  1.00  0.00     0.031 C 
ATOM     43  C   UNL A   1      37.837  34.136  34.422  1.00  0.00     0.029 A 
ATOM     44  C   UNL A   1      38.920  33.162  34.514  1.00  0.00     0.049 A 
ATOM     45  H   UNL A   1      39.510  31.780  33.071  1.00  0.00     0.167 HD
ATOM     46  C   UNL A   1      40.520  28.817  29.994  1.00  0.00     0.037 A 
ATOM     47  C   UNL A   1      39.737  32.993  35.571  1.00  0.00     0.037 A 
ATOM     48  C   UNL A   1      41.480  28.611  31.044  1.00  0.00     0.049 A 
ATOM     49  C   UNL A   1      40.805  31.935  35.514  1.00  0.00     0.074 A 
ATOM     50  C   UNL A   1      42.536  27.719  31.088  1.00  0.00     0.029 A 
ATOM     51  N   UNL A   1      41.496  29.312  32.242  1.00  0.00    -0.354 N 
ATOM     52  N   UNL A   1      41.091  31.101  34.544  1.00  0.00    -0.248 NA
ATOM     53  C   UNL A   1      41.663  31.797  36.697  1.00  0.00     0.031 C 
ATOM     54  C   UNL A   1      43.172  27.857  32.328  1.00  0.00     0.029 A 
ATOM     55  C   UNL A   1      42.539  28.865  33.038  1.00  0.00     0.049 A 
ATOM     56  H   UNL A   1      40.861  30.023  32.489  1.00  0.00     0.167 HD
ATOM     57  C   UNL A   1      42.184  30.365  34.983  1.00  0.00     0.074 A 
ATOM     58  C   UNL A   1      42.510  30.853  36.308  1.00  0.00     0.031 C 
ATOM     59  C   UNL A   1      42.859  29.379  34.345  1.00  0.00     0.037 A 
BRANCH  46  60
ATOM     60  C   UNL A   1      40.587  27.949  28.771  1.00  0.00     0.064 A 
ATOM     61  C   UNL A   1      41.362  28.307  27.657  1.00  0.00     0.173 A 
ATOM     62  C   UNL A   1      39.865  26.747  28.709  1.00  0.00     0.173 A 
ATOM     63  F   UNL A   1      42.059  29.453  27.660  1.00  0.00    -0.203 F 
ATOM     64  C   UNL A   1      41.377  27.518  26.510  1.00  0.00     0.198 A 
ATOM     65  C   UNL A   1      39.909  25.943  27.572  1.00  0.00     0.198 A 
ATOM     66  F   UNL A   1      39.113  26.355  29.747  1.00  0.00    -0.203 F 
ATOM     67  F   UNL A   1      42.072  27.915  25.434  1.00  0.00    -0.200 F 
ATOM     68  C   UNL A   1      40.655  26.335  26.470  1.00  0.00     0.200 A 
ATOM     69  F   UNL A   1      39.220  24.795  27.539  1.00  0.00    -0.200 F 
ATOM     70  F   UNL A   1      40.667  25.578  25.364  1.00  0.00    -0.200 F 
ENDBRANCH  46  60
BRANCH  47  71
ATOM     71  C   UNL A   1      39.606  33.881  36.755  1.00  0.00     0.064 A 
ATOM     72  C   UNL A   1      38.817  33.497  37.847  1.00  0.00     0.173 A 
ATOM     73  C   UNL A   1      40.268  35.114  36.828  1.00  0.00     0.173 A 
ATOM     74  F   UNL A   1      38.149  32.333  37.814  1.00  0.00    -0.203 F 
ATOM     75  C   UNL A   1      38.684  34.318  38.964  1.00  0.00     0.198 A 
ATOM     76  C   UNL A   1      40.153  35.925  37.955  1.00  0.00     0.198 A 
ATOM     77  F   UNL A   1      41.038  35.524  35.810  1.00  0.00    -0.203 F 
ATOM     78  F   UNL A   1      37.895  33.942  39.980  1.00  0.00    -0.200 F 
ATOM     79  C   UNL A   1      39.356  35.529  39.020  1.00  0.00     0.200 A 
ATOM     80  F   UNL A   1      40.815  37.088  38.012  1.00  0.00    -0.200 F 
ATOM     81  F   UNL A   1      39.234  36.316  40.097  1.00  0.00    -0.200 F 
ENDBRANCH  47  71
BRANCH  59  82
ATOM     82  C   UNL A   1      44.053  28.798  35.042  1.00  0.00     0.064 A 
ATOM     83  C   UNL A   1      43.944  27.686  35.889  1.00  0.00     0.173 A 
ATOM     84  C   UNL A   1      45.331  29.330  34.814  1.00  0.00     0.173 A 
ATOM     85  F   UNL A   1      42.742  27.152  36.151  1.00  0.00    -0.203 F 
ATOM     86  C   UNL A   1      45.071  27.138  36.496  1.00  0.00     0.198 A 
ATOM     87  C   UNL A   1      46.459  28.764  35.401  1.00  0.00     0.198 A 
ATOM     88  F   UNL A   1      45.487  30.390  34.007  1.00  0.00    -0.203 F 
ATOM     89  F   UNL A   1      44.941  26.099  37.333  1.00  0.00    -0.200 F 
ATOM     90  C   UNL A   1      46.327  27.672  36.245  1.00  0.00     0.200 A 
ATOM     91  F   UNL A   1      47.672  29.272  35.148  1.00  0.00    -0.200 F 
ATOM     92  F   UNL A   1      47.412  27.136  36.823  1.00  0.00    -0.200 F 
ENDBRANCH  59  82
ENDBRANCH  33  34
ENDBRANCH  25  28
ENDBRANCH  23  24
ENDBRANCH  22  23
ENDBRANCH  21  22
ENDBRANCH   1  21
TORSDOF 16
ENDMDL
MODEL 3
REMARK VINA RESULT:     -11.6      2.056      4.491
REMARK SMILES CC(C)[C@H](CO)Nc1ccc(C(=O)NCCCCNC(=O)c2ccc(-c3c4nc(c(-c5c(F)c(F)c(F)c(F)c5F)c5ccc([nH]5)c(-c5c(F)c(F)c(F)c(F)c5F)c5nc(c(-c6c(F)c(F)c(F)c(F)c6F)c6ccc3[nH]6)C=C5)C=C4)cc2)cc1
REMARK SMILES IDX 15 1 14 2 12 3 13 4 11 6 8 7 9 8 86 9 10 10 85 11 7 12 4 14
REMARK SMILES IDX 2 15 1 16 3 17 5 18 6 19 16 21 17 22 18 23 19 24 20 25 21 27
REMARK SMILES IDX 22 28 23 29 84 30 24 31 83 32 25 33 26 34 27 35 77 36 28 37
REMARK SMILES IDX 82 38 76 39 78 40 29 41 81 42 75 43 74 44 30 46 62 47 42 48
REMARK SMILES IDX 61 49 43 50 46 51 60 52 79 53 44 54 45 55 59 57 80 58 47 59
REMARK SMILES IDX 31 60 32 61 40 62 33 63 34 64 38 65 41 66 35 67 36 68 39 69
REMARK SMILES IDX 37 70 63 71 64 72 72 73 65 74 66 75 70 76 73 77 67 78 68 79
REMARK SMILES IDX 71 80 69 81 48 82 49 83 57 84 50 85 51 86 55 87 58 88 52 89
REMARK SMILES IDX 53 90 56 91 54 92
REMARK H PARENT 14 5 7 13 6 20 19 26 78 45 46 56
REMARK Flexibility Score: inf
ROOT
ATOM      1  C   UNL A   1      32.926  25.189  25.949  1.00  0.00     0.116 C 
ENDROOT
BRANCH   1   2
ATOM      2  N   UNL A   1      32.844  24.438  24.712  1.00  0.00    -0.352 N 
ATOM      3  C   UNL A   1      32.058  24.597  23.599  1.00  0.00     0.251 C 
ATOM      4  O   UNL A   1      32.218  23.804  22.671  1.00  0.00    -0.269 OA
ATOM      5  H   UNL A   1      33.465  23.677  24.661  1.00  0.00     0.163 HD
BRANCH   3   6
ATOM      6  C   UNL A   1      31.081  25.712  23.443  1.00  0.00     0.039 A 
ATOM      7  C   UNL A   1      29.401  27.975  23.148  1.00  0.00     0.034 A 
ATOM      8  C   UNL A   1      30.641  27.912  22.507  1.00  0.00     0.026 A 
ATOM      9  C   UNL A   1      28.994  26.871  23.894  1.00  0.00     0.026 A 
ATOM     10  C   UNL A   1      31.477  26.801  22.660  1.00  0.00     0.016 A 
ATOM     11  C   UNL A   1      29.803  25.735  24.003  1.00  0.00     0.016 A 
BRANCH   7  12
ATOM     12  N   UNL A   1      28.670  29.141  23.087  1.00  0.00    -0.380 N 
ATOM     13  H   UNL A   1      27.706  29.095  23.279  1.00  0.00     0.160 HD
BRANCH  12  14
ATOM     14  C   UNL A   1      29.248  30.452  22.751  1.00  0.00     0.107 C 
BRANCH  14  15
ATOM     15  C   UNL A   1      28.699  31.584  23.655  1.00  0.00     0.007 C 
ATOM     16  C   UNL A   1      29.016  32.980  23.106  1.00  0.00     0.009 C 
ATOM     17  C   UNL A   1      27.200  31.477  23.948  1.00  0.00     0.009 C 
ENDBRANCH  14  15
BRANCH  14  18
ATOM     18  C   UNL A   1      29.019  30.665  21.234  1.00  0.00     0.181 C 
BRANCH  18  19
ATOM     19  O   UNL A   1      27.797  30.040  20.826  1.00  0.00    -0.394 OA
ATOM     20  H   UNL A   1      27.989  29.357  20.164  1.00  0.00     0.210 HD
ENDBRANCH  18  19
ENDBRANCH  14  18
ENDBRANCH  12  14
ENDBRANCH   7  12
ENDBRANCH   3   6
ENDBRANCH   1   2
BRANCH   1  21
ATOM     21  C   UNL A   1      33.689  26.497  25.730  1.00  0.00     0.023 C 
BRANCH  21  22
ATOM     22  C   UNL A   1      32.823  27.753  25.839  1.00  0.00     0.023 C 
BRANCH  22  23
ATOM     23  C   UNL A   1      33.520  29.041  25.423  1.00  0.00     0.116 C 
BRANCH  23  24
ATOM     24  N   UNL A   1      32.873  30.237  25.940  1.00  0.00    -0.352 N 
ATOM     25  C   UNL A   1      33.284  31.044  26.975  1.00  0.00     0.251 C 
ATOM     26  H   UNL A   1      32.036  30.501  25.494  1.00  0.00     0.163 HD
ATOM     27  O   UNL A   1      32.587  31.965  27.370  1.00  0.00    -0.269 OA
BRANCH  25  28
ATOM     28  C   UNL A   1      34.574  30.747  27.632  1.00  0.00     0.039 A 
ATOM     29  C   UNL A   1      35.556  31.740  27.667  1.00  0.00     0.014 A 
ATOM     30  C   UNL A   1      34.786  29.513  28.248  1.00  0.00     0.014 A 
ATOM     31  C   UNL A   1      36.734  31.515  28.379  1.00  0.00     0.010 A 
ATOM     32  C   UNL A   1      35.928  29.316  29.015  1.00  0.00     0.010 A 
ATOM     33  C   UNL A   1      36.913  30.314  29.084  1.00  0.00    -0.014 A 
BRANCH  33  34
ATOM     34  C   UNL A   1      38.135  30.056  29.882  1.00  0.00     0.031 A 
ATOM     35  C   UNL A   1      39.199  29.149  29.336  1.00  0.00     0.074 A 
ATOM     36  C   UNL A   1      38.250  30.571  31.119  1.00  0.00     0.049 A 
ATOM     37  N   UNL A   1      40.285  28.701  29.912  1.00  0.00    -0.248 NA
ATOM     38  C   UNL A   1      38.994  28.652  27.966  1.00  0.00     0.031 C 
ATOM     39  C   UNL A   1      37.269  31.442  31.770  1.00  0.00     0.029 A 
ATOM     40  N   UNL A   1      39.240  30.425  32.059  1.00  0.00    -0.354 N 
ATOM     41  C   UNL A   1      40.879  27.856  28.985  1.00  0.00     0.074 A 
ATOM     42  C   UNL A   1      40.006  27.809  27.832  1.00  0.00     0.031 C 
ATOM     43  C   UNL A   1      37.718  31.771  32.992  1.00  0.00     0.029 A 
ATOM     44  C   UNL A   1      38.996  31.106  33.226  1.00  0.00     0.049 A 
ATOM     45  H   UNL A   1      40.049  29.883  31.908  1.00  0.00     0.167 HD
ATOM     46  C   UNL A   1      42.059  27.197  29.078  1.00  0.00     0.037 A 
ATOM     47  C   UNL A   1      39.723  31.176  34.357  1.00  0.00     0.037 A 
ATOM     48  C   UNL A   1      42.934  27.267  30.216  1.00  0.00     0.049 A 
ATOM     49  C   UNL A   1      41.021  30.422  34.444  1.00  0.00     0.074 A 
ATOM     50  C   UNL A   1      44.171  26.673  30.396  1.00  0.00     0.029 A 
ATOM     51  N   UNL A   1      42.659  27.979  31.376  1.00  0.00    -0.354 N 
ATOM     52  N   UNL A   1      41.600  29.664  33.544  1.00  0.00    -0.248 NA
ATOM     53  C   UNL A   1      41.769  30.536  35.703  1.00  0.00     0.031 C 
ATOM     54  C   UNL A   1      44.629  26.999  31.677  1.00  0.00     0.029 A 
ATOM     55  C   UNL A   1      43.699  27.831  32.280  1.00  0.00     0.049 A 
ATOM     56  H   UNL A   1      41.846  28.512  31.532  1.00  0.00     0.167 HD
ATOM     57  C   UNL A   1      42.794  29.240  34.112  1.00  0.00     0.074 A 
ATOM     58  C   UNL A   1      42.858  29.828  35.435  1.00  0.00     0.031 C 
ATOM     59  C   UNL A   1      43.753  28.442  33.584  1.00  0.00     0.037 A 
BRANCH  46  60
ATOM     60  C   UNL A   1      42.459  26.344  27.909  1.00  0.00     0.064 A 
ATOM     61  C   UNL A   1      43.298  26.833  26.895  1.00  0.00     0.173 A 
ATOM     62  C   UNL A   1      41.995  25.025  27.797  1.00  0.00     0.173 A 
ATOM     63  F   UNL A   1      43.756  28.092  26.947  1.00  0.00    -0.203 F 
ATOM     64  C   UNL A   1      43.621  26.048  25.792  1.00  0.00     0.198 A 
ATOM     65  C   UNL A   1      42.349  24.231  26.708  1.00  0.00     0.198 A 
ATOM     66  F   UNL A   1      41.196  24.506  28.741  1.00  0.00    -0.203 F 
ATOM     67  F   UNL A   1      44.369  26.560  24.803  1.00  0.00    -0.200 F 
ATOM     68  C   UNL A   1      43.151  24.747  25.701  1.00  0.00     0.200 A 
ATOM     69  F   UNL A   1      41.902  22.970  26.628  1.00  0.00    -0.200 F 
ATOM     70  F   UNL A   1      43.460  23.994  24.636  1.00  0.00    -0.200 F 
ENDBRANCH  46  60
BRANCH  47  71
ATOM     71  C   UNL A   1      39.260  32.031  35.480  1.00  0.00     0.064 A 
ATOM     72  C   UNL A   1      38.423  31.507  36.474  1.00  0.00     0.173 A 
ATOM     73  C   UNL A   1      39.650  33.373  35.593  1.00  0.00     0.173 A 
ATOM     74  F   UNL A   1      38.009  30.233  36.396  1.00  0.00    -0.203 F 
ATOM     75  C   UNL A   1      37.981  32.296  37.533  1.00  0.00     0.198 A 
ATOM     76  C   UNL A   1      39.225  34.155  36.666  1.00  0.00     0.198 A 
ATOM     77  F   UNL A   1      40.454  33.919  34.670  1.00  0.00    -0.203 F 
ATOM     78  F   UNL A   1      37.153  31.779  38.451  1.00  0.00    -0.200 F 
ATOM     79  C   UNL A   1      38.387  33.617  37.632  1.00  0.00     0.200 A 
ATOM     80  F   UNL A   1      39.631  35.428  36.765  1.00  0.00    -0.200 F 
ATOM     81  F   UNL A   1      37.967  34.375  38.654  1.00  0.00    -0.200 F 
ENDBRANCH  47  71
BRANCH  59  82
ATOM     82  C   UNL A   1      44.981  28.200  34.409  1.00  0.00     0.064 A 
ATOM     83  C   UNL A   1      46.085  29.063  34.360  1.00  0.00     0.173 A 
ATOM     84  C   UNL A   1      45.028  27.119  35.302  1.00  0.00     0.173 A 
ATOM     85  F   UNL A   1      46.093  30.100  33.510  1.00  0.00    -0.203 F 
ATOM     86  C   UNL A   1      47.201  28.840  35.164  1.00  0.00     0.198 A 
ATOM     87  C   UNL A   1      46.133  26.915  36.123  1.00  0.00     0.198 A 
ATOM     88  F   UNL A   1      43.994  26.269  35.390  1.00  0.00    -0.203 F 
ATOM     89  F   UNL A   1      48.262  29.654  35.074  1.00  0.00    -0.200 F 
ATOM     90  C   UNL A   1      47.220  27.773  36.050  1.00  0.00     0.200 A 
ATOM     91  F   UNL A   1      46.146  25.891  36.988  1.00  0.00    -0.200 F 
ATOM     92  F   UNL A   1      48.291  27.567  36.830  1.00  0.00    -0.200 F 
ENDBRANCH  59  82
ENDBRANCH  33  34
ENDBRANCH  25  28
ENDBRANCH  23  24
ENDBRANCH  22  23
ENDBRANCH  21  22
ENDBRANCH   1  21
TORSDOF 16
ENDMDL
