MODEL 1
REMARK VINA RESULT:     -12.7      0.000      0.000
REMARK SMILES COc1ccc2c(c1OC)C(=O)O[C@@H]2Nc1nonc1C(=O)NCCCCNC(=O)c1ccc(-c2c3nc(c(-c4c(F)c(F)c(F)c(F)c4F)c4ccc([nH]4)c(-c4c(F)c(F)c(F)c(F)c4F)c4nc(c(-c5c(F)c(F)c(F)c(F)c5F)c5ccc2[nH]5)C=C4)C=C3)cc1
REMARK SMILES IDX 25 1 24 2 23 3 21 4 22 5 20 7 16 8 17 9 18 10 19 11 15 12
REMARK SMILES IDX 14 14 3 15 4 16 8 17 5 18 7 19 6 20 11 21 12 22 13 23 2 24
REMARK SMILES IDX 1 25 9 26 10 27 26 28 27 29 28 30 29 31 30 33 31 34 32 35
REMARK SMILES IDX 93 36 33 37 92 38 34 39 35 40 36 41 86 42 37 43 91 44 85 45
REMARK SMILES IDX 87 46 38 47 90 48 84 49 83 50 39 52 71 53 51 54 70 55 52 56
REMARK SMILES IDX 55 57 69 58 88 59 53 60 54 61 68 63 89 64 56 65 40 66 41 67
REMARK SMILES IDX 49 68 42 69 43 70 47 71 50 72 44 73 45 74 48 75 46 76 72 77
REMARK SMILES IDX 73 78 81 79 74 80 75 81 79 82 82 83 76 84 77 85 80 86 78 87
REMARK SMILES IDX 57 88 58 89 66 90 59 91 60 92 64 93 67 94 61 95 62 96 65 97
REMARK SMILES IDX 63 98
REMARK H PARENT 23 6 15 13 28 32 87 51 55 62
REMARK Flexibility Score: inf
ROOT
ATOM      1  C   UNL A   1      32.708  29.862  25.756  1.00  0.00     0.023 C 
ENDROOT
BRANCH   1   2
ATOM      2  C   UNL A   1      32.636  28.333  25.642  1.00  0.00     0.116 C 
BRANCH   2   3
ATOM      3  N   UNL A   1      32.058  27.782  24.427  1.00  0.00    -0.350 N 
ATOM      4  C   UNL A   1      31.276  26.637  24.292  1.00  0.00     0.277 C 
ATOM      5  O   UNL A   1      30.798  26.412  23.177  1.00  0.00    -0.267 OA
ATOM      6  H   UNL A   1      32.242  28.278  23.596  1.00  0.00     0.163 HD
BRANCH   4   7
ATOM      7  C   UNL A   1      31.034  25.736  25.420  1.00  0.00     0.216 A 
ATOM      8  C   UNL A   1      31.898  24.933  26.206  1.00  0.00     0.207 A 
ATOM      9  N   UNL A   1      31.179  24.191  27.044  1.00  0.00    -0.031 NA
ATOM     10  O   UNL A   1      29.873  24.611  26.876  1.00  0.00    -0.242 OA
ATOM     11  N   UNL A   1      29.785  25.579  25.891  1.00  0.00    -0.042 NA
BRANCH   8  12
ATOM     12  N   UNL A   1      33.242  24.825  26.124  1.00  0.00    -0.326 N 
ATOM     13  H   UNL A   1      33.796  24.986  26.922  1.00  0.00     0.166 HD
BRANCH  12  14
ATOM     14  C   UNL A   1      33.872  24.473  24.872  1.00  0.00     0.307 C 
ATOM     15  C   UNL A   1      33.928  20.289  24.603  1.00  0.00     0.161 A 
ATOM     16  C   UNL A   1      32.774  20.919  24.136  1.00  0.00     0.051 A 
ATOM     17  C   UNL A   1      35.090  21.033  24.998  1.00  0.00     0.175 A 
ATOM     18  C   UNL A   1      32.704  22.299  24.131  1.00  0.00     0.014 A 
ATOM     19  C   UNL A   1      34.973  22.412  25.012  1.00  0.00     0.114 A 
ATOM     20  C   UNL A   1      33.785  23.020  24.621  1.00  0.00     0.032 A 
ATOM     21  C   UNL A   1      35.877  23.501  25.403  1.00  0.00     0.344 C 
ATOM     22  O   UNL A   1      36.974  23.460  25.940  1.00  0.00    -0.246 OA
ATOM     23  O   UNL A   1      35.265  24.671  25.081  1.00  0.00    -0.434 OA
BRANCH  15  24
ATOM     24  O   UNL A   1      33.912  18.914  24.634  1.00  0.00    -0.493 OA
ATOM     25  C   UNL A   1      32.905  18.300  25.464  1.00  0.00     0.278 C 
ENDBRANCH  15  24
BRANCH  17  26
ATOM     26  O   UNL A   1      36.162  20.300  25.375  1.00  0.00    -0.492 OA
ATOM     27  C   UNL A   1      37.368  20.168  24.636  1.00  0.00     0.278 C 
ENDBRANCH  17  26
ENDBRANCH  12  14
ENDBRANCH   8  12
ENDBRANCH   4   7
ENDBRANCH   2   3
ENDBRANCH   1   2
BRANCH   1  28
ATOM     28  C   UNL A   1      31.615  30.666  26.527  1.00  0.00     0.023 C 
BRANCH  28  29
ATOM     29  C   UNL A   1      31.651  32.215  26.501  1.00  0.00     0.116 C 
BRANCH  29  30
ATOM     30  N   UNL A   1      32.211  32.875  27.718  1.00  0.00    -0.352 N 
ATOM     31  C   UNL A   1      33.456  33.515  27.872  1.00  0.00     0.251 C 
ATOM     32  H   UNL A   1      31.635  32.860  28.516  1.00  0.00     0.163 HD
ATOM     33  O   UNL A   1      33.477  34.742  27.970  1.00  0.00    -0.269 OA
BRANCH  31  34
ATOM     34  C   UNL A   1      34.710  32.770  28.251  1.00  0.00     0.039 A 
ATOM     35  C   UNL A   1      35.939  33.421  28.300  1.00  0.00     0.014 A 
ATOM     36  C   UNL A   1      34.767  31.389  28.404  1.00  0.00     0.014 A 
ATOM     37  C   UNL A   1      37.108  32.736  28.726  1.00  0.00     0.010 A 
ATOM     38  C   UNL A   1      35.860  30.750  29.012  1.00  0.00     0.010 A 
ATOM     39  C   UNL A   1      37.057  31.420  29.226  1.00  0.00    -0.014 A 
BRANCH  39  40
ATOM     40  C   UNL A   1      38.177  30.779  30.010  1.00  0.00     0.031 A 
ATOM     41  C   UNL A   1      38.470  31.122  31.465  1.00  0.00     0.074 A 
ATOM     42  C   UNL A   1      39.052  29.958  29.378  1.00  0.00     0.049 A 
ATOM     43  N   UNL A   1      39.426  30.669  32.250  1.00  0.00    -0.248 NA
ATOM     44  C   UNL A   1      37.618  32.130  32.112  1.00  0.00     0.031 C 
ATOM     45  C   UNL A   1      39.025  29.625  27.953  1.00  0.00     0.029 A 
ATOM     46  N   UNL A   1      40.146  29.260  29.847  1.00  0.00    -0.354 N 
ATOM     47  C   UNL A   1      39.288  31.343  33.460  1.00  0.00     0.074 A 
ATOM     48  C   UNL A   1      38.229  32.309  33.275  1.00  0.00     0.031 C 
ATOM     49  C   UNL A   1      40.002  28.747  27.678  1.00  0.00     0.029 A 
ATOM     50  C   UNL A   1      40.762  28.479  28.894  1.00  0.00     0.049 A 
ATOM     51  H   UNL A   1      40.456  29.314  30.779  1.00  0.00     0.167 HD
ATOM     52  C   UNL A   1      39.931  31.150  34.641  1.00  0.00     0.037 A 
ATOM     53  C   UNL A   1      41.811  27.635  28.976  1.00  0.00     0.037 A 
ATOM     54  C   UNL A   1      40.963  30.173  34.864  1.00  0.00     0.049 A 
ATOM     55  C   UNL A   1      42.503  27.418  30.299  1.00  0.00     0.074 A 
ATOM     56  C   UNL A   1      41.603  29.846  36.048  1.00  0.00     0.029 A 
ATOM     57  N   UNL A   1      41.513  29.369  33.879  1.00  0.00    -0.354 N 
ATOM     58  N   UNL A   1      42.252  27.961  31.463  1.00  0.00    -0.248 NA
ATOM     59  C   UNL A   1      43.619  26.457  30.320  1.00  0.00     0.031 C 
ATOM     60  C   UNL A   1      42.577  28.883  35.771  1.00  0.00     0.029 A 
ATOM     61  C   UNL A   1      42.499  28.562  34.426  1.00  0.00     0.049 A 
ATOM     62  H   UNL A   1      41.244  29.370  32.933  1.00  0.00     0.167 HD
ATOM     63  C   UNL A   1      43.137  27.371  32.359  1.00  0.00     0.074 A 
ATOM     64  C   UNL A   1      43.935  26.430  31.607  1.00  0.00     0.031 C 
ATOM     65  C   UNL A   1      43.268  27.593  33.689  1.00  0.00     0.037 A 
BRANCH  52  66
ATOM     66  C   UNL A   1      39.501  31.994  35.813  1.00  0.00     0.064 A 
ATOM     67  C   UNL A   1      40.127  33.218  36.100  1.00  0.00     0.173 A 
ATOM     68  C   UNL A   1      38.433  31.600  36.634  1.00  0.00     0.173 A 
ATOM     69  F   UNL A   1      41.147  33.648  35.342  1.00  0.00    -0.203 F 
ATOM     70  C   UNL A   1      39.742  33.983  37.198  1.00  0.00     0.198 A 
ATOM     71  C   UNL A   1      38.025  32.389  37.709  1.00  0.00     0.198 A 
ATOM     72  F   UNL A   1      37.779  30.454  36.393  1.00  0.00    -0.203 F 
ATOM     73  F   UNL A   1      40.405  35.111  37.489  1.00  0.00    -0.200 F 
ATOM     74  C   UNL A   1      38.690  33.570  37.998  1.00  0.00     0.200 A 
ATOM     75  F   UNL A   1      36.990  32.001  38.468  1.00  0.00    -0.200 F 
ATOM     76  F   UNL A   1      38.319  34.310  39.053  1.00  0.00    -0.200 F 
ENDBRANCH  52  66
BRANCH  53  77
ATOM     77  C   UNL A   1      42.258  26.870  27.776  1.00  0.00     0.064 A 
ATOM     78  C   UNL A   1      41.707  25.613  27.479  1.00  0.00     0.173 A 
ATOM     79  C   UNL A   1      43.269  27.349  26.932  1.00  0.00     0.173 A 
ATOM     80  F   UNL A   1      40.750  25.099  28.267  1.00  0.00    -0.203 F 
ATOM     81  C   UNL A   1      42.178  24.850  26.412  1.00  0.00     0.198 A 
ATOM     82  C   UNL A   1      43.718  26.599  25.845  1.00  0.00     0.198 A 
ATOM     83  F   UNL A   1      43.825  28.547  27.162  1.00  0.00    -0.203 F 
ATOM     84  F   UNL A   1      41.680  23.625  26.195  1.00  0.00    -0.200 F 
ATOM     85  C   UNL A   1      43.181  25.345  25.595  1.00  0.00     0.200 A 
ATOM     86  F   UNL A   1      44.678  27.086  25.048  1.00  0.00    -0.200 F 
ATOM     87  F   UNL A   1      43.641  24.609  24.574  1.00  0.00    -0.200 F 
ENDBRANCH  53  77
BRANCH  65  88
ATOM     88  C   UNL A   1      44.254  26.762  34.459  1.00  0.00     0.064 A 
ATOM     89  C   UNL A   1      45.550  27.216  34.742  1.00  0.00     0.173 A 
ATOM     90  C   UNL A   1      43.854  25.533  35.010  1.00  0.00     0.173 A 
ATOM     91  F   UNL A   1      45.986  28.376  34.230  1.00  0.00    -0.203 F 
ATOM     92  C   UNL A   1      46.410  26.468  35.543  1.00  0.00     0.198 A 
ATOM     93  C   UNL A   1      44.706  24.804  35.835  1.00  0.00     0.198 A 
ATOM     94  F   UNL A   1      42.624  25.054  34.774  1.00  0.00    -0.203 F 
ATOM     95  F   UNL A   1      47.654  26.909  35.780  1.00  0.00    -0.200 F 
ATOM     96  C   UNL A   1      45.984  25.271  36.101  1.00  0.00     0.200 A 
ATOM     97  F   UNL A   1      44.285  23.658  36.386  1.00  0.00    -0.200 F 
ATOM     98  F   UNL A   1      46.804  24.569  36.894  1.00  0.00    -0.200 F 
ENDBRANCH  65  88
ENDBRANCH  39  40
ENDBRANCH  31  34
ENDBRANCH  29  30
ENDBRANCH  28  29
ENDBRANCH   1  28
TORSDOF 15
ENDMDL
MODEL 2
REMARK VINA RESULT:     -12.6      4.264     10.055
REMARK SMILES COc1ccc2c(c1OC)C(=O)O[C@@H]2Nc1nonc1C(=O)NCCCCNC(=O)c1ccc(-c2c3nc(c(-c4c(F)c(F)c(F)c(F)c4F)c4ccc([nH]4)c(-c4c(F)c(F)c(F)c(F)c4F)c4nc(c(-c5c(F)c(F)c(F)c(F)c5F)c5ccc2[nH]5)C=C4)C=C3)cc1
REMARK SMILES IDX 25 1 24 2 23 3 21 4 22 5 20 7 16 8 17 9 18 10 19 11 15 12
REMARK SMILES IDX 14 14 3 15 4 16 8 17 5 18 7 19 6 20 11 21 12 22 13 23 2 24
REMARK SMILES IDX 1 25 9 26 10 27 26 28 27 29 28 30 29 31 30 33 31 34 32 35
REMARK SMILES IDX 93 36 33 37 92 38 34 39 35 40 36 41 86 42 37 43 91 44 85 45
REMARK SMILES IDX 87 46 38 47 90 48 84 49 83 50 39 52 71 53 51 54 70 55 52 56
REMARK SMILES IDX 55 57 69 58 88 59 53 60 54 61 68 63 89 64 56 65 40 66 41 67
REMARK SMILES IDX 49 68 42 69 43 70 47 71 50 72 44 73 45 74 48 75 46 76 72 77
REMARK SMILES IDX 73 78 81 79 74 80 75 81 79 82 82 83 76 84 77 85 80 86 78 87
REMARK SMILES IDX 57 88 58 89 66 90 59 91 60 92 64 93 67 94 61 95 62 96 65 97
REMARK SMILES IDX 63 98
REMARK H PARENT 23 6 15 13 28 32 87 51 55 62
REMARK Flexibility Score: inf
ROOT
ATOM      1  C   UNL A   1      35.884  23.381  24.796  1.00  0.00     0.023 C 
ENDROOT
BRANCH   1   2
ATOM      2  C   UNL A   1      34.551  23.721  24.115  1.00  0.00     0.116 C 
BRANCH   2   3
ATOM      3  N   UNL A   1      33.725  22.608  23.675  1.00  0.00    -0.350 N 
ATOM      4  C   UNL A   1      32.633  22.041  24.327  1.00  0.00     0.277 C 
ATOM      5  O   UNL A   1      32.007  21.169  23.720  1.00  0.00    -0.267 OA
ATOM      6  H   UNL A   1      33.966  22.205  22.810  1.00  0.00     0.163 HD
BRANCH   4   7
ATOM      7  C   UNL A   1      32.245  22.454  25.677  1.00  0.00     0.216 A 
ATOM      8  C   UNL A   1      31.374  23.465  26.156  1.00  0.00     0.207 A 
ATOM      9  N   UNL A   1      31.447  23.526  27.483  1.00  0.00    -0.031 NA
ATOM     10  O   UNL A   1      32.268  22.477  27.853  1.00  0.00    -0.242 OA
ATOM     11  N   UNL A   1      32.743  21.802  26.742  1.00  0.00    -0.042 NA
BRANCH   8  12
ATOM     12  N   UNL A   1      30.616  24.323  25.438  1.00  0.00    -0.326 N 
ATOM     13  H   UNL A   1      30.354  24.092  24.518  1.00  0.00     0.166 HD
BRANCH  12  14
ATOM     14  C   UNL A   1      30.188  25.577  26.014  1.00  0.00     0.307 C 
ATOM     15  C   UNL A   1      29.936  28.383  22.907  1.00  0.00     0.161 A 
ATOM     16  C   UNL A   1      28.799  27.606  23.126  1.00  0.00     0.051 A 
ATOM     17  C   UNL A   1      31.064  28.342  23.794  1.00  0.00     0.175 A 
ATOM     18  C   UNL A   1      28.779  26.703  24.172  1.00  0.00     0.014 A 
ATOM     19  C   UNL A   1      31.024  27.403  24.811  1.00  0.00     0.114 A 
ATOM     20  C   UNL A   1      29.915  26.579  24.963  1.00  0.00     0.032 A 
ATOM     21  C   UNL A   1      31.972  27.006  25.858  1.00  0.00     0.344 C 
ATOM     22  O   UNL A   1      33.132  27.343  26.042  1.00  0.00    -0.246 OA
ATOM     23  O   UNL A   1      31.339  26.109  26.660  1.00  0.00    -0.434 OA
BRANCH  15  24
ATOM     24  O   UNL A   1      29.912  29.220  21.817  1.00  0.00    -0.493 OA
ATOM     25  C   UNL A   1      28.875  30.222  21.796  1.00  0.00     0.278 C 
ENDBRANCH  15  24
BRANCH  17  26
ATOM     26  O   UNL A   1      32.077  29.188  23.502  1.00  0.00    -0.492 OA
ATOM     27  C   UNL A   1      33.278  28.833  22.832  1.00  0.00     0.278 C 
ENDBRANCH  17  26
ENDBRANCH  12  14
ENDBRANCH   8  12
ENDBRANCH   4   7
ENDBRANCH   2   3
ENDBRANCH   1   2
BRANCH   1  28
ATOM     28  C   UNL A   1      36.002  22.179  25.784  1.00  0.00     0.023 C 
BRANCH  28  29
ATOM     29  C   UNL A   1      36.759  20.902  25.339  1.00  0.00     0.116 C 
BRANCH  29  30
ATOM     30  N   UNL A   1      38.226  21.060  25.108  1.00  0.00    -0.352 N 
ATOM     31  C   UNL A   1      39.255  21.174  26.063  1.00  0.00     0.251 C 
ATOM     32  H   UNL A   1      38.511  21.089  24.167  1.00  0.00     0.163 HD
ATOM     33  O   UNL A   1      40.023  20.223  26.215  1.00  0.00    -0.269 OA
BRANCH  31  34
ATOM     34  C   UNL A   1      39.664  22.495  26.661  1.00  0.00     0.039 A 
ATOM     35  C   UNL A   1      40.669  22.563  27.622  1.00  0.00     0.014 A 
ATOM     36  C   UNL A   1      38.977  23.684  26.441  1.00  0.00     0.014 A 
ATOM     37  C   UNL A   1      41.103  23.816  28.132  1.00  0.00     0.010 A 
ATOM     38  C   UNL A   1      39.521  24.934  26.781  1.00  0.00     0.010 A 
ATOM     39  C   UNL A   1      40.629  25.035  27.611  1.00  0.00    -0.014 A 
BRANCH  39  40
ATOM     40  C   UNL A   1      41.299  26.366  27.856  1.00  0.00     0.031 A 
ATOM     41  C   UNL A   1      42.723  26.670  27.409  1.00  0.00     0.074 A 
ATOM     42  C   UNL A   1      40.674  27.300  28.614  1.00  0.00     0.049 A 
ATOM     43  N   UNL A   1      43.434  27.765  27.586  1.00  0.00    -0.248 NA
ATOM     44  C   UNL A   1      43.463  25.603  26.721  1.00  0.00     0.031 C 
ATOM     45  C   UNL A   1      39.367  27.139  29.254  1.00  0.00     0.029 A 
ATOM     46  N   UNL A   1      41.056  28.572  28.989  1.00  0.00    -0.354 N 
ATOM     47  C   UNL A   1      44.690  27.505  27.042  1.00  0.00     0.074 A 
ATOM     48  C   UNL A   1      44.680  26.121  26.628  1.00  0.00     0.031 C 
ATOM     49  C   UNL A   1      39.030  28.276  29.881  1.00  0.00     0.029 A 
ATOM     50  C   UNL A   1      40.111  29.244  29.732  1.00  0.00     0.049 A 
ATOM     51  H   UNL A   1      41.925  28.964  28.746  1.00  0.00     0.167 HD
ATOM     52  C   UNL A   1      45.741  28.342  26.846  1.00  0.00     0.037 A 
ATOM     53  C   UNL A   1      40.097  30.497  30.235  1.00  0.00     0.037 A 
ATOM     54  C   UNL A   1      45.766  29.732  27.216  1.00  0.00     0.049 A 
ATOM     55  C   UNL A   1      41.266  31.419  29.991  1.00  0.00     0.074 A 
ATOM     56  C   UNL A   1      46.751  30.674  26.971  1.00  0.00     0.029 A 
ATOM     57  N   UNL A   1      44.761  30.378  27.917  1.00  0.00    -0.354 N 
ATOM     58  N   UNL A   1      42.379  31.191  29.343  1.00  0.00    -0.248 NA
ATOM     59  C   UNL A   1      41.167  32.782  30.540  1.00  0.00     0.031 C 
ATOM     60  C   UNL A   1      46.367  31.877  27.571  1.00  0.00     0.029 A 
ATOM     61  C   UNL A   1      45.113  31.701  28.131  1.00  0.00     0.049 A 
ATOM     62  H   UNL A   1      43.922  29.960  28.217  1.00  0.00     0.167 HD
ATOM     63  C   UNL A   1      43.084  32.389  29.360  1.00  0.00     0.074 A 
ATOM     64  C   UNL A   1      42.277  33.344  30.085  1.00  0.00     0.031 C 
ATOM     65  C   UNL A   1      44.293  32.667  28.816  1.00  0.00     0.037 A 
BRANCH  52  66
ATOM     66  C   UNL A   1      46.954  27.781  26.149  1.00  0.00     0.064 A 
ATOM     67  C   UNL A   1      47.047  27.760  24.747  1.00  0.00     0.173 A 
ATOM     68  C   UNL A   1      48.049  27.296  26.881  1.00  0.00     0.173 A 
ATOM     69  F   UNL A   1      46.033  28.221  23.998  1.00  0.00    -0.203 F 
ATOM     70  C   UNL A   1      48.158  27.220  24.107  1.00  0.00     0.198 A 
ATOM     71  C   UNL A   1      49.178  26.792  26.236  1.00  0.00     0.198 A 
ATOM     72  F   UNL A   1      48.031  27.315  28.222  1.00  0.00    -0.203 F 
ATOM     73  F   UNL A   1      48.187  27.148  22.769  1.00  0.00    -0.200 F 
ATOM     74  C   UNL A   1      49.224  26.741  24.851  1.00  0.00     0.200 A 
ATOM     75  F   UNL A   1      50.219  26.351  26.956  1.00  0.00    -0.200 F 
ATOM     76  F   UNL A   1      50.295  26.223  24.233  1.00  0.00    -0.200 F 
ENDBRANCH  52  66
BRANCH  53  77
ATOM     77  C   UNL A   1      38.907  30.995  30.984  1.00  0.00     0.064 A 
ATOM     78  C   UNL A   1      38.822  30.847  32.377  1.00  0.00     0.173 A 
ATOM     79  C   UNL A   1      37.816  31.581  30.327  1.00  0.00     0.173 A 
ATOM     80  F   UNL A   1      39.830  30.273  33.051  1.00  0.00    -0.203 F 
ATOM     81  C   UNL A   1      37.678  31.228  33.077  1.00  0.00     0.198 A 
ATOM     82  C   UNL A   1      36.686  31.992  31.031  1.00  0.00     0.198 A 
ATOM     83  F   UNL A   1      37.847  31.755  28.998  1.00  0.00    -0.203 F 
ATOM     84  F   UNL A   1      37.599  31.011  34.396  1.00  0.00    -0.200 F 
ATOM     85  C   UNL A   1      36.612  31.802  32.404  1.00  0.00     0.200 A 
ATOM     86  F   UNL A   1      35.662  32.560  30.380  1.00  0.00    -0.200 F 
ATOM     87  F   UNL A   1      35.509  32.161  33.074  1.00  0.00    -0.200 F 
ENDBRANCH  53  77
BRANCH  65  88
ATOM     88  C   UNL A   1      44.810  34.075  28.903  1.00  0.00     0.064 A 
ATOM     89  C   UNL A   1      45.678  34.489  29.924  1.00  0.00     0.173 A 
ATOM     90  C   UNL A   1      44.509  34.996  27.884  1.00  0.00     0.173 A 
ATOM     91  F   UNL A   1      45.987  33.654  30.928  1.00  0.00    -0.203 F 
ATOM     92  C   UNL A   1      46.221  35.772  29.924  1.00  0.00     0.198 A 
ATOM     93  C   UNL A   1      45.079  36.266  27.872  1.00  0.00     0.198 A 
ATOM     94  F   UNL A   1      43.688  34.650  26.882  1.00  0.00    -0.203 F 
ATOM     95  F   UNL A   1      47.028  36.155  30.923  1.00  0.00    -0.200 F 
ATOM     96  C   UNL A   1      45.933  36.654  28.892  1.00  0.00     0.200 A 
ATOM     97  F   UNL A   1      44.813  37.108  26.864  1.00  0.00    -0.200 F 
ATOM     98  F   UNL A   1      46.480  37.877  28.880  1.00  0.00    -0.200 F 
ENDBRANCH  65  88
ENDBRANCH  39  40
ENDBRANCH  31  34
ENDBRANCH  29  30
ENDBRANCH  28  29
ENDBRANCH   1  28
TORSDOF 15
ENDMDL
MODEL 3
REMARK VINA RESULT:     -12.4      4.144      9.909
REMARK SMILES COc1ccc2c(c1OC)C(=O)O[C@@H]2Nc1nonc1C(=O)NCCCCNC(=O)c1ccc(-c2c3nc(c(-c4c(F)c(F)c(F)c(F)c4F)c4ccc([nH]4)c(-c4c(F)c(F)c(F)c(F)c4F)c4nc(c(-c5c(F)c(F)c(F)c(F)c5F)c5ccc2[nH]5)C=C4)C=C3)cc1
REMARK SMILES IDX 25 1 24 2 23 3 21 4 22 5 20 7 16 8 17 9 18 10 19 11 15 12
REMARK SMILES IDX 14 14 3 15 4 16 8 17 5 18 7 19 6 20 11 21 12 22 13 23 2 24
REMARK SMILES IDX 1 25 9 26 10 27 26 28 27 29 28 30 29 31 30 33 31 34 32 35
REMARK SMILES IDX 93 36 33 37 92 38 34 39 35 40 36 41 86 42 37 43 91 44 85 45
REMARK SMILES IDX 87 46 38 47 90 48 84 49 83 50 39 52 71 53 51 54 70 55 52 56
REMARK SMILES IDX 55 57 69 58 88 59 53 60 54 61 68 63 89 64 56 65 40 66 41 67
REMARK SMILES IDX 49 68 42 69 43 70 47 71 50 72 44 73 45 74 48 75 46 76 72 77
REMARK SMILES IDX 73 78 81 79 74 80 75 81 79 82 82 83 76 84 77 85 80 86 78 87
REMARK SMILES IDX 57 88 58 89 66 90 59 91 60 92 64 93 67 94 61 95 62 96 65 97
REMARK SMILES IDX 63 98
REMARK H PARENT 23 6 15 13 28 32 87 51 55 62
REMARK Flexibility Score: inf
ROOT
ATOM      1  C   UNL A   1      34.117  19.801  24.687  1.00  0.00     0.023 C 
ENDROOT
BRANCH   1   2
ATOM      2  C   UNL A   1      33.122  20.283  25.752  1.00  0.00     0.116 C 
BRANCH   2   3
ATOM      3  N   UNL A   1      33.663  21.010  26.889  1.00  0.00    -0.350 N 
ATOM      4  C   UNL A   1      33.235  22.228  27.410  1.00  0.00     0.277 C 
ATOM      5  O   UNL A   1      33.771  22.613  28.452  1.00  0.00    -0.267 OA
ATOM      6  H   UNL A   1      34.427  20.590  27.347  1.00  0.00     0.163 HD
BRANCH   4   7
ATOM      7  C   UNL A   1      32.197  23.023  26.751  1.00  0.00     0.216 A 
ATOM      8  C   UNL A   1      32.093  23.569  25.446  1.00  0.00     0.207 A 
ATOM      9  N   UNL A   1      31.001  24.323  25.363  1.00  0.00    -0.031 NA
ATOM     10  O   UNL A   1      30.349  24.158  26.571  1.00  0.00    -0.242 OA
ATOM     11  N   UNL A   1      31.075  23.339  27.419  1.00  0.00    -0.042 NA
BRANCH   8  12
ATOM     12  N   UNL A   1      32.965  23.452  24.421  1.00  0.00    -0.326 N 
ATOM     13  H   UNL A   1      32.832  22.749  23.744  1.00  0.00     0.166 HD
BRANCH  12  14
ATOM     14  C   UNL A   1      34.090  24.351  24.311  1.00  0.00     0.307 C 
ATOM     15  C   UNL A   1      32.737  28.207  25.253  1.00  0.00     0.161 A 
ATOM     16  C   UNL A   1      33.148  27.420  26.330  1.00  0.00     0.051 A 
ATOM     17  C   UNL A   1      32.919  27.785  23.894  1.00  0.00     0.175 A 
ATOM     18  C   UNL A   1      33.667  26.161  26.096  1.00  0.00     0.014 A 
ATOM     19  C   UNL A   1      33.411  26.506  23.698  1.00  0.00     0.114 A 
ATOM     20  C   UNL A   1      33.739  25.705  24.786  1.00  0.00     0.032 A 
ATOM     21  C   UNL A   1      33.674  25.695  22.503  1.00  0.00     0.344 C 
ATOM     22  O   UNL A   1      33.414  25.913  21.329  1.00  0.00    -0.246 OA
ATOM     23  O   UNL A   1      34.280  24.551  22.915  1.00  0.00    -0.434 OA
BRANCH  15  24
ATOM     24  O   UNL A   1      32.177  29.425  25.558  1.00  0.00    -0.493 OA
ATOM     25  C   UNL A   1      32.104  29.770  26.956  1.00  0.00     0.278 C 
ENDBRANCH  15  24
BRANCH  17  26
ATOM     26  O   UNL A   1      32.531  28.666  22.945  1.00  0.00    -0.492 OA
ATOM     27  C   UNL A   1      31.224  28.762  22.397  1.00  0.00     0.278 C 
ENDBRANCH  17  26
ENDBRANCH  12  14
ENDBRANCH   8  12
ENDBRANCH   4   7
ENDBRANCH   2   3
ENDBRANCH   1   2
BRANCH   1  28
ATOM     28  C   UNL A   1      35.657  19.932  24.903  1.00  0.00     0.023 C 
BRANCH  28  29
ATOM     29  C   UNL A   1      36.311  21.336  24.876  1.00  0.00     0.116 C 
BRANCH  29  30
ATOM     30  N   UNL A   1      37.798  21.360  24.741  1.00  0.00    -0.352 N 
ATOM     31  C   UNL A   1      38.770  21.326  25.759  1.00  0.00     0.251 C 
ATOM     32  H   UNL A   1      38.144  21.407  23.820  1.00  0.00     0.163 HD
ATOM     33  O   UNL A   1      39.433  20.298  25.904  1.00  0.00    -0.269 OA
BRANCH  31  34
ATOM     34  C   UNL A   1      39.264  22.570  26.451  1.00  0.00     0.039 A 
ATOM     35  C   UNL A   1      40.375  22.527  27.289  1.00  0.00     0.014 A 
ATOM     36  C   UNL A   1      38.572  23.777  26.450  1.00  0.00     0.014 A 
ATOM     37  C   UNL A   1      40.883  23.713  27.884  1.00  0.00     0.010 A 
ATOM     38  C   UNL A   1      39.169  24.979  26.864  1.00  0.00     0.010 A 
ATOM     39  C   UNL A   1      40.367  24.984  27.565  1.00  0.00    -0.014 A 
BRANCH  39  40
ATOM     40  C   UNL A   1      41.079  26.278  27.879  1.00  0.00     0.031 A 
ATOM     41  C   UNL A   1      42.532  26.537  27.501  1.00  0.00     0.074 A 
ATOM     42  C   UNL A   1      40.461  27.214  28.640  1.00  0.00     0.049 A 
ATOM     43  N   UNL A   1      43.278  27.595  27.741  1.00  0.00    -0.248 NA
ATOM     44  C   UNL A   1      43.257  25.461  26.809  1.00  0.00     0.031 C 
ATOM     45  C   UNL A   1      39.123  27.087  29.221  1.00  0.00     0.029 A 
ATOM     46  N   UNL A   1      40.878  28.457  29.071  1.00  0.00    -0.354 N 
ATOM     47  C   UNL A   1      44.544  27.300  27.241  1.00  0.00     0.074 A 
ATOM     48  C   UNL A   1      44.496  25.931  26.782  1.00  0.00     0.031 C 
ATOM     49  C   UNL A   1      38.806  28.218  29.870  1.00  0.00     0.029 A 
ATOM     50  C   UNL A   1      39.929  29.145  29.796  1.00  0.00     0.049 A 
ATOM     51  H   UNL A   1      41.771  28.819  28.876  1.00  0.00     0.167 HD
ATOM     52  C   UNL A   1      45.635  28.098  27.114  1.00  0.00     0.037 A 
ATOM     53  C   UNL A   1      39.945  30.381  30.338  1.00  0.00     0.037 A 
ATOM     54  C   UNL A   1      45.700  29.474  27.529  1.00  0.00     0.049 A 
ATOM     55  C   UNL A   1      41.159  31.261  30.172  1.00  0.00     0.074 A 
ATOM     56  C   UNL A   1      46.731  30.382  27.355  1.00  0.00     0.029 A 
ATOM     57  N   UNL A   1      44.693  30.140  28.209  1.00  0.00    -0.354 N 
ATOM     58  N   UNL A   1      42.288  31.007  29.562  1.00  0.00    -0.248 NA
ATOM     59  C   UNL A   1      41.091  32.610  30.759  1.00  0.00     0.031 C 
ATOM     60  C   UNL A   1      46.371  31.581  27.977  1.00  0.00     0.029 A 
ATOM     61  C   UNL A   1      45.089  31.441  28.480  1.00  0.00     0.049 A 
ATOM     62  H   UNL A   1      43.827  29.748  28.462  1.00  0.00     0.167 HD
ATOM     63  C   UNL A   1      43.039  32.174  29.647  1.00  0.00     0.074 A 
ATOM     64  C   UNL A   1      42.241  33.139  30.368  1.00  0.00     0.031 C 
ATOM     65  C   UNL A   1      44.281  32.418  29.162  1.00  0.00     0.037 A 
BRANCH  52  66
ATOM     66  C   UNL A   1      46.854  27.509  26.450  1.00  0.00     0.064 A 
ATOM     67  C   UNL A   1      47.850  26.860  27.198  1.00  0.00     0.173 A 
ATOM     68  C   UNL A   1      47.013  27.558  25.057  1.00  0.00     0.173 A 
ATOM     69  F   UNL A   1      47.745  26.776  28.533  1.00  0.00    -0.203 F 
ATOM     70  C   UNL A   1      48.986  26.339  26.584  1.00  0.00     0.198 A 
ATOM     71  C   UNL A   1      48.132  26.999  24.442  1.00  0.00     0.198 A 
ATOM     72  F   UNL A   1      46.081  28.141  24.288  1.00  0.00    -0.203 F 
ATOM     73  F   UNL A   1      49.954  25.789  27.330  1.00  0.00    -0.200 F 
ATOM     74  C   UNL A   1      49.123  26.405  25.207  1.00  0.00     0.200 A 
ATOM     75  F   UNL A   1      48.253  27.042  23.107  1.00  0.00    -0.200 F 
ATOM     76  F   UNL A   1      50.216  25.900  24.617  1.00  0.00    -0.200 F 
ENDBRANCH  52  66
BRANCH  53  77
ATOM     77  C   UNL A   1      38.745  30.904  31.053  1.00  0.00     0.064 A 
ATOM     78  C   UNL A   1      37.732  31.580  30.356  1.00  0.00     0.173 A 
ATOM     79  C   UNL A   1      38.608  30.786  32.444  1.00  0.00     0.173 A 
ATOM     80  F   UNL A   1      37.825  31.739  29.027  1.00  0.00    -0.203 F 
ATOM     81  C   UNL A   1      36.650  32.151  31.025  1.00  0.00     0.198 A 
ATOM     82  C   UNL A   1      37.510  31.330  33.108  1.00  0.00     0.198 A 
ATOM     83  F   UNL A   1      39.541  30.143  33.159  1.00  0.00    -0.203 F 
ATOM     84  F   UNL A   1      35.734  32.849  30.341  1.00  0.00    -0.200 F 
ATOM     85  C   UNL A   1      36.539  32.023  32.400  1.00  0.00     0.200 A 
ATOM     86  F   UNL A   1      37.396  31.192  34.436  1.00  0.00    -0.200 F 
ATOM     87  F   UNL A   1      35.504  32.579  33.045  1.00  0.00    -0.200 F 
ENDBRANCH  53  77
BRANCH  65  88
ATOM     88  C   UNL A   1      44.849  33.800  29.314  1.00  0.00     0.064 A 
ATOM     89  C   UNL A   1      45.670  34.153  30.395  1.00  0.00     0.173 A 
ATOM     90  C   UNL A   1      44.649  34.756  28.303  1.00  0.00     0.173 A 
ATOM     91  F   UNL A   1      45.882  33.284  31.394  1.00  0.00    -0.203 F 
ATOM     92  C   UNL A   1      46.264  35.411  30.460  1.00  0.00     0.198 A 
ATOM     93  C   UNL A   1      45.270  36.000  28.357  1.00  0.00     0.198 A 
ATOM     94  F   UNL A   1      43.877  34.468  27.245  1.00  0.00    -0.203 F 
ATOM     95  F   UNL A   1      47.025  35.736  31.515  1.00  0.00    -0.200 F 
ATOM     96  C   UNL A   1      46.077  36.328  29.435  1.00  0.00     0.200 A 
ATOM     97  F   UNL A   1      45.101  36.875  27.356  1.00  0.00    -0.200 F 
ATOM     98  F   UNL A   1      46.674  37.526  29.487  1.00  0.00    -0.200 F 
ENDBRANCH  65  88
ENDBRANCH  39  40
ENDBRANCH  31  34
ENDBRANCH  29  30
ENDBRANCH  28  29
ENDBRANCH   1  28
TORSDOF 15
ENDMDL
