MODEL 1
REMARK VINA RESULT:     -10.5      0.000      0.000
REMARK SMILES CSCC[NH2+]CC(C)(C)C(=O)NCCCCNC(=O)c1ccc(-c2c3nc(c(-c4c(F)c(F)c(F)c(F)c4F)c4ccc([nH]4)c(-c4c(F)c(F)c(F)c(F)c4F)c4nc(c(-c5c(F)c(F)c(F)c(F)c5F)c5ccc2[nH]5)C=C4)C=C3)cc1
REMARK SMILES IDX 13 1 12 2 10 3 11 4 7 6 8 7 9 8 6 9 5 10 4 13 3 14 2 15 1 16
REMARK SMILES IDX 14 17 15 18 16 19 17 20 18 21 19 23 20 24 21 25 82 26 22 27
REMARK SMILES IDX 81 28 23 29 24 30 25 31 75 32 26 33 80 34 74 35 76 36 27 37
REMARK SMILES IDX 79 38 73 39 72 40 28 42 60 43 40 44 59 45 41 46 44 47 58 48
REMARK SMILES IDX 77 49 42 50 43 51 57 53 78 54 45 55 29 56 30 57 38 58 31 59
REMARK SMILES IDX 32 60 36 61 39 62 33 63 34 64 37 65 35 66 61 67 62 68 70 69
REMARK SMILES IDX 63 70 64 71 68 72 71 73 65 74 66 75 69 76 67 77 46 78 47 79
REMARK SMILES IDX 55 80 48 81 49 82 53 83 56 84 50 85 51 86 54 87 52 88
REMARK H PARENT 12 5 5 11 5 12 17 22 76 41 44 52
REMARK Flexibility Score: inf
ROOT
ATOM      1  C   UNL A   1      32.792  30.077  26.250  1.00  0.00     0.116 C 
ENDROOT
BRANCH   1   2
ATOM      2  N   UNL A   1      33.045  30.007  24.828  1.00  0.00    -0.355 N 
ATOM      3  C   UNL A   1      32.874  28.988  23.947  1.00  0.00     0.231 C 
ATOM      4  O   UNL A   1      33.643  28.999  22.981  1.00  0.00    -0.274 OA
ATOM      5  H   UNL A   1      33.401  30.835  24.433  1.00  0.00     0.163 HD
BRANCH   3   6
ATOM      6  C   UNL A   1      31.817  27.884  24.144  1.00  0.00     0.092 C 
ATOM      7  C   UNL A   1      31.744  27.353  25.588  1.00  0.00     0.027 C 
ATOM      8  C   UNL A   1      32.144  26.734  23.171  1.00  0.00     0.027 C 
BRANCH   6   9
ATOM      9  C   UNL A   1      30.406  28.449  23.744  1.00  0.00     0.276 C 
BRANCH   9  10
ATOM     10  N   UNL A   1      30.328  29.831  23.233  1.00  0.00    -0.345 N 
ATOM     11  H   UNL A   1      29.693  30.362  23.830  1.00  0.00     0.346 HD
ATOM     12  H   UNL A   1      31.275  30.209  23.244  1.00  0.00     0.346 HD
BRANCH  10  13
ATOM     13  C   UNL A   1      29.846  29.916  21.850  1.00  0.00     0.271 C 
BRANCH  13  14
ATOM     14  C   UNL A   1      28.608  30.809  21.685  1.00  0.00     0.130 C 
BRANCH  14  15
ATOM     15  S   UNL A   1      28.107  31.684  23.218  1.00  0.00    -0.160 SA
ATOM     16  C   UNL A   1      28.898  33.289  22.963  1.00  0.00     0.085 C 
ENDBRANCH  14  15
ENDBRANCH  13  14
ENDBRANCH  10  13
ENDBRANCH   9  10
ENDBRANCH   6   9
ENDBRANCH   3   6
ENDBRANCH   1   2
BRANCH   1  17
ATOM     17  C   UNL A   1      31.415  30.688  26.507  1.00  0.00     0.023 C 
BRANCH  17  18
ATOM     18  C   UNL A   1      31.404  32.220  26.558  1.00  0.00     0.023 C 
BRANCH  18  19
ATOM     19  C   UNL A   1      32.626  32.849  27.219  1.00  0.00     0.116 C 
BRANCH  19  20
ATOM     20  N   UNL A   1      32.378  34.212  27.662  1.00  0.00    -0.352 N 
ATOM     21  C   UNL A   1      33.003  34.938  28.641  1.00  0.00     0.251 C 
ATOM     22  H   UNL A   1      31.655  34.682  27.189  1.00  0.00     0.163 HD
ATOM     23  O   UNL A   1      32.541  36.026  28.983  1.00  0.00    -0.269 OA
BRANCH  21  24
ATOM     24  C   UNL A   1      34.210  34.409  29.306  1.00  0.00     0.039 A 
ATOM     25  C   UNL A   1      34.057  33.720  30.510  1.00  0.00     0.014 A 
ATOM     26  C   UNL A   1      35.483  34.589  28.756  1.00  0.00     0.014 A 
ATOM     27  C   UNL A   1      35.173  33.163  31.133  1.00  0.00     0.010 A 
ATOM     28  C   UNL A   1      36.585  33.963  29.335  1.00  0.00     0.010 A 
ATOM     29  C   UNL A   1      36.441  33.245  30.531  1.00  0.00    -0.014 A 
BRANCH  29  30
ATOM     30  C   UNL A   1      37.607  32.561  31.145  1.00  0.00     0.031 A 
ATOM     31  C   UNL A   1      38.103  32.956  32.507  1.00  0.00     0.074 A 
ATOM     32  C   UNL A   1      38.231  31.585  30.455  1.00  0.00     0.049 A 
ATOM     33  N   UNL A   1      39.087  32.448  33.208  1.00  0.00    -0.248 NA
ATOM     34  C   UNL A   1      37.423  34.084  33.163  1.00  0.00     0.031 C 
ATOM     35  C   UNL A   1      37.884  31.158  29.097  1.00  0.00     0.029 A 
ATOM     36  N   UNL A   1      39.281  30.772  30.799  1.00  0.00    -0.354 N 
ATOM     37  C   UNL A   1      39.136  33.185  34.383  1.00  0.00     0.074 A 
ATOM     38  C   UNL A   1      38.131  34.220  34.275  1.00  0.00     0.031 C 
ATOM     39  C   UNL A   1      38.682  30.141  28.739  1.00  0.00     0.029 A 
ATOM     40  C   UNL A   1      39.619  29.867  29.823  1.00  0.00     0.049 A 
ATOM     41  H   UNL A   1      39.748  30.832  31.664  1.00  0.00     0.167 HD
ATOM     42  C   UNL A   1      39.924  32.994  35.468  1.00  0.00     0.037 A 
ATOM     43  C   UNL A   1      40.577  28.921  29.804  1.00  0.00     0.037 A 
ATOM     44  C   UNL A   1      40.922  31.960  35.574  1.00  0.00     0.049 A 
ATOM     45  C   UNL A   1      41.442  28.737  31.022  1.00  0.00     0.074 A 
ATOM     46  C   UNL A   1      41.749  31.663  36.643  1.00  0.00     0.029 A 
ATOM     47  N   UNL A   1      41.230  31.054  34.568  1.00  0.00    -0.354 N 
ATOM     48  N   UNL A   1      41.425  29.391  32.158  1.00  0.00    -0.248 NA
ATOM     49  C   UNL A   1      42.449  27.670  30.959  1.00  0.00     0.031 C 
ATOM     50  C   UNL A   1      42.591  30.610  36.269  1.00  0.00     0.029 A 
ATOM     51  C   UNL A   1      42.248  30.211  34.987  1.00  0.00     0.049 A 
ATOM     52  H   UNL A   1      40.791  31.016  33.688  1.00  0.00     0.167 HD
ATOM     53  C   UNL A   1      42.401  28.803  32.951  1.00  0.00     0.074 A 
ATOM     54  C   UNL A   1      42.965  27.717  32.178  1.00  0.00     0.031 C 
ATOM     55  C   UNL A   1      42.803  29.137  34.202  1.00  0.00     0.037 A 
BRANCH  42  56
ATOM     56  C   UNL A   1      39.731  33.913  36.641  1.00  0.00     0.064 A 
ATOM     57  C   UNL A   1      38.913  33.554  37.725  1.00  0.00     0.173 A 
ATOM     58  C   UNL A   1      40.412  35.138  36.714  1.00  0.00     0.173 A 
ATOM     59  F   UNL A   1      38.230  32.399  37.702  1.00  0.00    -0.203 F 
ATOM     60  C   UNL A   1      38.770  34.394  38.826  1.00  0.00     0.198 A 
ATOM     61  C   UNL A   1      40.290  35.961  37.831  1.00  0.00     0.198 A 
ATOM     62  F   UNL A   1      41.209  35.529  35.709  1.00  0.00    -0.203 F 
ATOM     63  F   UNL A   1      37.952  34.047  39.829  1.00  0.00    -0.200 F 
ATOM     64  C   UNL A   1      39.466  35.592  38.882  1.00  0.00     0.200 A 
ATOM     65  F   UNL A   1      40.976  37.111  37.890  1.00  0.00    -0.200 F 
ATOM     66  F   UNL A   1      39.340  36.392  39.950  1.00  0.00    -0.200 F 
ENDBRANCH  42  56
BRANCH  43  67
ATOM     67  C   UNL A   1      40.765  28.069  28.600  1.00  0.00     0.064 A 
ATOM     68  C   UNL A   1      41.563  28.492  27.527  1.00  0.00     0.173 A 
ATOM     69  C   UNL A   1      40.125  26.825  28.483  1.00  0.00     0.173 A 
ATOM     70  F   UNL A   1      42.182  29.681  27.581  1.00  0.00    -0.203 F 
ATOM     71  C   UNL A   1      41.684  27.722  26.371  1.00  0.00     0.198 A 
ATOM     72  C   UNL A   1      40.277  26.040  27.342  1.00  0.00     0.198 A 
ATOM     73  F   UNL A   1      39.358  26.369  29.483  1.00  0.00    -0.203 F 
ATOM     74  F   UNL A   1      42.400  28.182  25.336  1.00  0.00    -0.200 F 
ATOM     75  C   UNL A   1      41.045  26.496  26.282  1.00  0.00     0.200 A 
ATOM     76  F   UNL A   1      39.673  24.847  27.268  1.00  0.00    -0.200 F 
ATOM     77  F   UNL A   1      41.160  25.757  25.170  1.00  0.00    -0.200 F 
ENDBRANCH  43  67
BRANCH  55  78
ATOM     78  C   UNL A   1      43.890  28.299  34.815  1.00  0.00     0.064 A 
ATOM     79  C   UNL A   1      43.599  27.134  35.543  1.00  0.00     0.173 A 
ATOM     80  C   UNL A   1      45.237  28.666  34.675  1.00  0.00     0.173 A 
ATOM     81  F   UNL A   1      42.327  26.746  35.718  1.00  0.00    -0.203 F 
ATOM     82  C   UNL A   1      44.613  26.397  36.149  1.00  0.00     0.198 A 
ATOM     83  C   UNL A   1      46.251  27.904  35.250  1.00  0.00     0.198 A 
ATOM     84  F   UNL A   1      45.572  29.763  33.981  1.00  0.00    -0.203 F 
ATOM     85  F   UNL A   1      44.306  25.331  36.900  1.00  0.00    -0.200 F 
ATOM     86  C   UNL A   1      45.938  26.779  35.998  1.00  0.00     0.200 A 
ATOM     87  F   UNL A   1      47.532  28.266  35.089  1.00  0.00    -0.200 F 
ATOM     88  F   UNL A   1      46.913  26.071  36.585  1.00  0.00    -0.200 F 
ENDBRANCH  55  78
ENDBRANCH  29  30
ENDBRANCH  21  24
ENDBRANCH  19  20
ENDBRANCH  18  19
ENDBRANCH  17  18
ENDBRANCH   1  17
TORSDOF 16
ENDMDL
MODEL 2
REMARK VINA RESULT:     -10.5      0.754      7.761
REMARK SMILES CSCC[NH2+]CC(C)(C)C(=O)NCCCCNC(=O)c1ccc(-c2c3nc(c(-c4c(F)c(F)c(F)c(F)c4F)c4ccc([nH]4)c(-c4c(F)c(F)c(F)c(F)c4F)c4nc(c(-c5c(F)c(F)c(F)c(F)c5F)c5ccc2[nH]5)C=C4)C=C3)cc1
REMARK SMILES IDX 13 1 12 2 10 3 11 4 7 6 8 7 9 8 6 9 5 10 4 13 3 14 2 15 1 16
REMARK SMILES IDX 14 17 15 18 16 19 17 20 18 21 19 23 20 24 21 25 82 26 22 27
REMARK SMILES IDX 81 28 23 29 24 30 25 31 75 32 26 33 80 34 74 35 76 36 27 37
REMARK SMILES IDX 79 38 73 39 72 40 28 42 60 43 40 44 59 45 41 46 44 47 58 48
REMARK SMILES IDX 77 49 42 50 43 51 57 53 78 54 45 55 29 56 30 57 38 58 31 59
REMARK SMILES IDX 32 60 36 61 39 62 33 63 34 64 37 65 35 66 61 67 62 68 70 69
REMARK SMILES IDX 63 70 64 71 68 72 71 73 65 74 66 75 69 76 67 77 46 78 47 79
REMARK SMILES IDX 55 80 48 81 49 82 53 83 56 84 50 85 51 86 54 87 52 88
REMARK H PARENT 12 5 5 11 5 12 17 22 76 41 44 52
REMARK Flexibility Score: inf
ROOT
ATOM      1  C   UNL A   1      32.914  30.245  26.046  1.00  0.00     0.116 C 
ENDROOT
BRANCH   1   2
ATOM      2  N   UNL A   1      33.287  29.791  24.724  1.00  0.00    -0.355 N 
ATOM      3  C   UNL A   1      33.578  28.549  24.263  1.00  0.00     0.231 C 
ATOM      4  O   UNL A   1      34.361  28.515  23.309  1.00  0.00    -0.274 OA
ATOM      5  H   UNL A   1      33.338  30.503  24.046  1.00  0.00     0.163 HD
BRANCH   3   6
ATOM      6  C   UNL A   1      32.998  27.267  24.894  1.00  0.00     0.092 C 
ATOM      7  C   UNL A   1      33.287  27.139  26.402  1.00  0.00     0.027 C 
ATOM      8  C   UNL A   1      33.581  26.058  24.136  1.00  0.00     0.027 C 
BRANCH   6   9
ATOM      9  C   UNL A   1      31.441  27.251  24.677  1.00  0.00     0.276 C 
BRANCH   9  10
ATOM     10  N   UNL A   1      30.928  26.939  23.329  1.00  0.00    -0.345 N 
ATOM     11  H   UNL A   1      31.676  27.095  22.654  1.00  0.00     0.346 HD
ATOM     12  H   UNL A   1      30.617  25.968  23.344  1.00  0.00     0.346 HD
BRANCH  10  13
ATOM     13  C   UNL A   1      29.773  27.755  22.941  1.00  0.00     0.271 C 
BRANCH  13  14
ATOM     14  C   UNL A   1      30.149  29.168  22.470  1.00  0.00     0.130 C 
BRANCH  14  15
ATOM     15  S   UNL A   1      28.898  30.447  22.874  1.00  0.00    -0.160 SA
ATOM     16  C   UNL A   1      28.246  30.813  21.228  1.00  0.00     0.085 C 
ENDBRANCH  14  15
ENDBRANCH  13  14
ENDBRANCH  10  13
ENDBRANCH   9  10
ENDBRANCH   6   9
ENDBRANCH   3   6
ENDBRANCH   1   2
BRANCH   1  17
ATOM     17  C   UNL A   1      31.469  30.742  26.040  1.00  0.00     0.023 C 
BRANCH  17  18
ATOM     18  C   UNL A   1      31.299  32.190  26.512  1.00  0.00     0.023 C 
BRANCH  18  19
ATOM     19  C   UNL A   1      32.517  32.786  27.209  1.00  0.00     0.116 C 
BRANCH  19  20
ATOM     20  N   UNL A   1      32.321  34.178  27.580  1.00  0.00    -0.352 N 
ATOM     21  C   UNL A   1      32.958  34.925  28.535  1.00  0.00     0.251 C 
ATOM     22  H   UNL A   1      31.628  34.655  27.068  1.00  0.00     0.163 HD
ATOM     23  O   UNL A   1      32.536  36.047  28.814  1.00  0.00    -0.269 OA
BRANCH  21  24
ATOM     24  C   UNL A   1      34.127  34.379  29.251  1.00  0.00     0.039 A 
ATOM     25  C   UNL A   1      33.914  33.717  30.462  1.00  0.00     0.014 A 
ATOM     26  C   UNL A   1      35.422  34.517  28.743  1.00  0.00     0.014 A 
ATOM     27  C   UNL A   1      34.994  33.145  31.134  1.00  0.00     0.010 A 
ATOM     28  C   UNL A   1      36.487  33.874  29.372  1.00  0.00     0.010 A 
ATOM     29  C   UNL A   1      36.284  33.184  30.575  1.00  0.00    -0.014 A 
BRANCH  29  30
ATOM     30  C   UNL A   1      37.409  32.482  31.242  1.00  0.00     0.031 A 
ATOM     31  C   UNL A   1      38.123  31.349  30.561  1.00  0.00     0.074 A 
ATOM     32  C   UNL A   1      37.777  32.864  32.481  1.00  0.00     0.049 A 
ATOM     33  N   UNL A   1      39.143  30.643  30.981  1.00  0.00    -0.248 NA
ATOM     34  C   UNL A   1      37.612  30.935  29.244  1.00  0.00     0.031 C 
ATOM     35  C   UNL A   1      37.117  33.906  33.273  1.00  0.00     0.029 A 
ATOM     36  N   UNL A   1      38.794  32.427  33.292  1.00  0.00    -0.354 N 
ATOM     37  C   UNL A   1      39.400  29.714  29.982  1.00  0.00     0.074 A 
ATOM     38  C   UNL A   1      38.387  29.897  28.965  1.00  0.00     0.031 C 
ATOM     39  C   UNL A   1      37.768  34.052  34.437  1.00  0.00     0.029 A 
ATOM     40  C   UNL A   1      38.865  33.092  34.492  1.00  0.00     0.049 A 
ATOM     41  H   UNL A   1      39.414  31.706  33.037  1.00  0.00     0.167 HD
ATOM     42  C   UNL A   1      40.409  28.814  29.903  1.00  0.00     0.037 A 
ATOM     43  C   UNL A   1      39.720  32.944  35.522  1.00  0.00     0.037 A 
ATOM     44  C   UNL A   1      41.418  28.636  30.916  1.00  0.00     0.049 A 
ATOM     45  C   UNL A   1      40.827  31.930  35.408  1.00  0.00     0.074 A 
ATOM     46  C   UNL A   1      42.500  27.774  30.916  1.00  0.00     0.029 A 
ATOM     47  N   UNL A   1      41.464  29.334  32.115  1.00  0.00    -0.354 N 
ATOM     48  N   UNL A   1      41.105  31.112  34.423  1.00  0.00    -0.248 NA
ATOM     49  C   UNL A   1      41.749  31.833  36.547  1.00  0.00     0.031 C 
ATOM     50  C   UNL A   1      43.174  27.915  32.134  1.00  0.00     0.029 A 
ATOM     51  C   UNL A   1      42.547  28.907  32.870  1.00  0.00     0.049 A 
ATOM     52  H   UNL A   1      40.823  30.029  32.389  1.00  0.00     0.167 HD
ATOM     53  C   UNL A   1      42.242  30.419  34.812  1.00  0.00     0.074 A 
ATOM     54  C   UNL A   1      42.623  30.940  36.108  1.00  0.00     0.031 C 
ATOM     55  C   UNL A   1      42.908  29.432  34.162  1.00  0.00     0.037 A 
BRANCH  42  56
ATOM     56  C   UNL A   1      40.485  27.958  28.671  1.00  0.00     0.064 A 
ATOM     57  C   UNL A   1      41.240  28.350  27.554  1.00  0.00     0.173 A 
ATOM     58  C   UNL A   1      39.849  26.708  28.624  1.00  0.00     0.173 A 
ATOM     59  F   UNL A   1      41.860  29.540  27.541  1.00  0.00    -0.203 F 
ATOM     60  C   UNL A   1      41.339  27.533  26.430  1.00  0.00     0.198 A 
ATOM     61  C   UNL A   1      39.975  25.880  27.510  1.00  0.00     0.198 A 
ATOM     62  F   UNL A   1      39.118  26.281  29.664  1.00  0.00    -0.203 F 
ATOM     63  F   UNL A   1      42.031  27.948  25.361  1.00  0.00    -0.200 F 
ATOM     64  C   UNL A   1      40.714  26.295  26.414  1.00  0.00     0.200 A 
ATOM     65  F   UNL A   1      39.384  24.677  27.502  1.00  0.00    -0.200 F 
ATOM     66  F   UNL A   1      40.822  25.503  25.338  1.00  0.00    -0.200 F 
ENDBRANCH  42  56
BRANCH  43  67
ATOM     67  C   UNL A   1      39.573  33.779  36.743  1.00  0.00     0.064 A 
ATOM     68  C   UNL A   1      38.846  33.322  37.852  1.00  0.00     0.173 A 
ATOM     69  C   UNL A   1      40.130  35.064  36.815  1.00  0.00     0.173 A 
ATOM     70  F   UNL A   1      38.278  32.108  37.828  1.00  0.00    -0.203 F 
ATOM     71  C   UNL A   1      38.653  34.133  38.970  1.00  0.00     0.198 A 
ATOM     72  C   UNL A   1      39.968  35.858  37.949  1.00  0.00     0.198 A 
ATOM     73  F   UNL A   1      40.842  35.546  35.787  1.00  0.00    -0.203 F 
ATOM     74  F   UNL A   1      37.899  33.695  39.988  1.00  0.00    -0.200 F 
ATOM     75  C   UNL A   1      39.217  35.397  39.019  1.00  0.00     0.200 A 
ATOM     76  F   UNL A   1      40.531  37.073  37.998  1.00  0.00    -0.200 F 
ATOM     77  F   UNL A   1      39.030  36.177  40.093  1.00  0.00    -0.200 F 
ENDBRANCH  43  67
BRANCH  55  78
ATOM     78  C   UNL A   1      44.129  28.874  34.838  1.00  0.00     0.064 A 
ATOM     79  C   UNL A   1      44.054  27.766  35.696  1.00  0.00     0.173 A 
ATOM     80  C   UNL A   1      45.388  29.457  34.630  1.00  0.00     0.173 A 
ATOM     81  F   UNL A   1      42.873  27.178  35.940  1.00  0.00    -0.203 F 
ATOM     82  C   UNL A   1      45.185  27.292  36.356  1.00  0.00     0.198 A 
ATOM     83  C   UNL A   1      46.524  28.957  35.262  1.00  0.00     0.198 A 
ATOM     84  F   UNL A   1      45.519  30.513  33.812  1.00  0.00    -0.203 F 
ATOM     85  F   UNL A   1      45.076  26.280  37.226  1.00  0.00    -0.200 F 
ATOM     86  C   UNL A   1      46.419  27.886  36.135  1.00  0.00     0.200 A 
ATOM     87  F   UNL A   1      47.718  29.521  35.033  1.00  0.00    -0.200 F 
ATOM     88  F   UNL A   1      47.507  27.432  36.774  1.00  0.00    -0.200 F 
ENDBRANCH  55  78
ENDBRANCH  29  30
ENDBRANCH  21  24
ENDBRANCH  19  20
ENDBRANCH  18  19
ENDBRANCH  17  18
ENDBRANCH   1  17
TORSDOF 16
ENDMDL
MODEL 3
REMARK VINA RESULT:     -10.2      1.318      2.287
REMARK SMILES CSCC[NH2+]CC(C)(C)C(=O)NCCCCNC(=O)c1ccc(-c2c3nc(c(-c4c(F)c(F)c(F)c(F)c4F)c4ccc([nH]4)c(-c4c(F)c(F)c(F)c(F)c4F)c4nc(c(-c5c(F)c(F)c(F)c(F)c5F)c5ccc2[nH]5)C=C4)C=C3)cc1
REMARK SMILES IDX 13 1 12 2 10 3 11 4 7 6 8 7 9 8 6 9 5 10 4 13 3 14 2 15 1 16
REMARK SMILES IDX 14 17 15 18 16 19 17 20 18 21 19 23 20 24 21 25 82 26 22 27
REMARK SMILES IDX 81 28 23 29 24 30 25 31 75 32 26 33 80 34 74 35 76 36 27 37
REMARK SMILES IDX 79 38 73 39 72 40 28 42 60 43 40 44 59 45 41 46 44 47 58 48
REMARK SMILES IDX 77 49 42 50 43 51 57 53 78 54 45 55 29 56 30 57 38 58 31 59
REMARK SMILES IDX 32 60 36 61 39 62 33 63 34 64 37 65 35 66 61 67 62 68 70 69
REMARK SMILES IDX 63 70 64 71 68 72 71 73 65 74 66 75 69 76 67 77 46 78 47 79
REMARK SMILES IDX 55 80 48 81 49 82 53 83 56 84 50 85 51 86 54 87 52 88
REMARK H PARENT 12 5 5 11 5 12 17 22 76 41 44 52
REMARK Flexibility Score: inf
ROOT
ATOM      1  C   UNL A   1      32.776  29.585  25.320  1.00  0.00     0.116 C 
ENDROOT
BRANCH   1   2
ATOM      2  N   UNL A   1      33.295  29.518  23.972  1.00  0.00    -0.355 N 
ATOM      3  C   UNL A   1      33.471  28.459  23.142  1.00  0.00     0.231 C 
ATOM      4  O   UNL A   1      34.390  28.580  22.327  1.00  0.00    -0.274 OA
ATOM      5  H   UNL A   1      33.566  30.385  23.594  1.00  0.00     0.163 HD
BRANCH   3   6
ATOM      6  C   UNL A   1      32.606  27.185  23.220  1.00  0.00     0.092 C 
ATOM      7  C   UNL A   1      32.405  26.665  24.657  1.00  0.00     0.027 C 
ATOM      8  C   UNL A   1      33.276  26.102  22.352  1.00  0.00     0.027 C 
BRANCH   6   9
ATOM      9  C   UNL A   1      31.197  27.484  22.592  1.00  0.00     0.276 C 
BRANCH   9  10
ATOM     10  N   UNL A   1      30.006  27.344  23.452  1.00  0.00    -0.345 N 
ATOM     11  H   UNL A   1      29.642  26.397  23.349  1.00  0.00     0.346 HD
ATOM     12  H   UNL A   1      30.301  27.543  24.408  1.00  0.00     0.346 HD
BRANCH  10  13
ATOM     13  C   UNL A   1      28.935  28.291  23.126  1.00  0.00     0.271 C 
BRANCH  13  14
ATOM     14  C   UNL A   1      29.406  29.489  22.289  1.00  0.00     0.130 C 
BRANCH  14  15
ATOM     15  S   UNL A   1      28.048  30.578  21.711  1.00  0.00    -0.160 SA
ATOM     16  C   UNL A   1      27.655  31.464  23.237  1.00  0.00     0.085 C 
ENDBRANCH  14  15
ENDBRANCH  13  14
ENDBRANCH  10  13
ENDBRANCH   9  10
ENDBRANCH   6   9
ENDBRANCH   3   6
ENDBRANCH   1   2
BRANCH   1  17
ATOM     17  C   UNL A   1      31.369  30.183  25.310  1.00  0.00     0.023 C 
BRANCH  17  18
ATOM     18  C   UNL A   1      31.241  31.504  26.075  1.00  0.00     0.023 C 
BRANCH  18  19
ATOM     19  C   UNL A   1      32.391  31.809  27.029  1.00  0.00     0.116 C 
BRANCH  19  20
ATOM     20  N   UNL A   1      32.551  33.234  27.271  1.00  0.00    -0.352 N 
ATOM     21  C   UNL A   1      33.496  33.892  28.012  1.00  0.00     0.251 C 
ATOM     22  H   UNL A   1      31.882  33.811  26.837  1.00  0.00     0.163 HD
ATOM     23  O   UNL A   1      33.369  35.096  28.233  1.00  0.00    -0.269 OA
BRANCH  21  24
ATOM     24  C   UNL A   1      34.648  33.159  28.571  1.00  0.00     0.039 A 
ATOM     25  C   UNL A   1      35.924  33.703  28.410  1.00  0.00     0.014 A 
ATOM     26  C   UNL A   1      34.482  31.945  29.245  1.00  0.00     0.014 A 
ATOM     27  C   UNL A   1      37.025  33.059  28.974  1.00  0.00     0.010 A 
ATOM     28  C   UNL A   1      35.570  31.346  29.878  1.00  0.00     0.010 A 
ATOM     29  C   UNL A   1      36.853  31.896  29.746  1.00  0.00    -0.014 A 
BRANCH  29  30
ATOM     30  C   UNL A   1      38.014  31.275  30.431  1.00  0.00     0.031 A 
ATOM     31  C   UNL A   1      38.349  31.627  31.853  1.00  0.00     0.074 A 
ATOM     32  C   UNL A   1      38.781  30.398  29.753  1.00  0.00     0.049 A 
ATOM     33  N   UNL A   1      39.306  31.161  32.616  1.00  0.00    -0.248 NA
ATOM     34  C   UNL A   1      37.515  32.653  32.500  1.00  0.00     0.031 C 
ATOM     35  C   UNL A   1      38.598  30.027  28.347  1.00  0.00     0.029 A 
ATOM     36  N   UNL A   1      39.864  29.655  30.153  1.00  0.00    -0.354 N 
ATOM     37  C   UNL A   1      39.184  31.826  33.828  1.00  0.00     0.074 A 
ATOM     38  C   UNL A   1      38.105  32.780  33.680  1.00  0.00     0.031 C 
ATOM     39  C   UNL A   1      39.511  29.103  28.014  1.00  0.00     0.029 A 
ATOM     40  C   UNL A   1      40.367  28.843  29.166  1.00  0.00     0.049 A 
ATOM     41  H   UNL A   1      40.244  29.701  31.059  1.00  0.00     0.167 HD
ATOM     42  C   UNL A   1      39.885  31.636  34.972  1.00  0.00     0.037 A 
ATOM     43  C   UNL A   1      41.403  27.982  29.189  1.00  0.00     0.037 A 
ATOM     44  C   UNL A   1      40.956  30.684  35.117  1.00  0.00     0.049 A 
ATOM     45  C   UNL A   1      42.167  27.798  30.473  1.00  0.00     0.074 A 
ATOM     46  C   UNL A   1      41.706  30.393  36.243  1.00  0.00     0.029 A 
ATOM     47  N   UNL A   1      41.433  29.870  34.100  1.00  0.00    -0.354 N 
ATOM     48  N   UNL A   1      41.990  28.378  31.634  1.00  0.00    -0.248 NA
ATOM     49  C   UNL A   1      43.266  26.824  30.450  1.00  0.00     0.031 C 
ATOM     50  C   UNL A   1      42.668  29.438  35.896  1.00  0.00     0.029 A 
ATOM     51  C   UNL A   1      42.479  29.090  34.568  1.00  0.00     0.049 A 
ATOM     52  H   UNL A   1      41.079  29.849  33.181  1.00  0.00     0.167 HD
ATOM     53  C   UNL A   1      42.939  27.827  32.484  1.00  0.00     0.074 A 
ATOM     54  C   UNL A   1      43.664  26.839  31.713  1.00  0.00     0.031 C 
ATOM     55  C   UNL A   1      43.195  28.116  33.784  1.00  0.00     0.037 A 
BRANCH  42  56
ATOM     56  C   UNL A   1      39.505  32.464  36.167  1.00  0.00     0.064 A 
ATOM     57  C   UNL A   1      38.488  32.057  37.045  1.00  0.00     0.173 A 
ATOM     58  C   UNL A   1      40.202  33.642  36.475  1.00  0.00     0.173 A 
ATOM     59  F   UNL A   1      37.783  30.943  36.793  1.00  0.00    -0.203 F 
ATOM     60  C   UNL A   1      38.169  32.809  38.173  1.00  0.00     0.198 A 
ATOM     61  C   UNL A   1      39.900  34.375  37.621  1.00  0.00     0.198 A 
ATOM     62  F   UNL A   1      41.186  34.076  35.674  1.00  0.00    -0.203 F 
ATOM     63  F   UNL A   1      37.166  32.421  38.973  1.00  0.00    -0.200 F 
ATOM     64  C   UNL A   1      38.882  33.962  38.465  1.00  0.00     0.200 A 
ATOM     65  F   UNL A   1      40.601  35.481  37.910  1.00  0.00    -0.200 F 
ATOM     66  F   UNL A   1      38.584  34.676  39.559  1.00  0.00    -0.200 F 
ENDBRANCH  42  56
BRANCH  43  67
ATOM     67  C   UNL A   1      41.773  27.223  27.965  1.00  0.00     0.064 A 
ATOM     68  C   UNL A   1      41.259  25.941  27.722  1.00  0.00     0.173 A 
ATOM     69  C   UNL A   1      42.672  27.752  27.027  1.00  0.00     0.173 A 
ATOM     70  F   UNL A   1      40.409  25.383  28.596  1.00  0.00    -0.203 F 
ATOM     71  C   UNL A   1      41.658  25.204  26.608  1.00  0.00     0.198 A 
ATOM     72  C   UNL A   1      43.042  27.029  25.895  1.00  0.00     0.198 A 
ATOM     73  F   UNL A   1      43.187  28.977  27.206  1.00  0.00    -0.203 F 
ATOM     74  F   UNL A   1      41.202  23.956  26.436  1.00  0.00    -0.200 F 
ATOM     75  C   UNL A   1      42.545  25.750  25.694  1.00  0.00     0.200 A 
ATOM     76  F   UNL A   1      43.885  27.568  25.004  1.00  0.00    -0.200 F 
ATOM     77  F   UNL A   1      42.930  25.041  24.624  1.00  0.00    -0.200 F 
ENDBRANCH  43  67
BRANCH  55  78
ATOM     78  C   UNL A   1      44.292  27.335  34.452  1.00  0.00     0.064 A 
ATOM     79  C   UNL A   1      45.616  27.801  34.480  1.00  0.00     0.173 A 
ATOM     80  C   UNL A   1      44.017  26.105  35.068  1.00  0.00     0.173 A 
ATOM     81  F   UNL A   1      45.936  28.965  33.895  1.00  0.00    -0.203 F 
ATOM     82  C   UNL A   1      46.631  27.042  35.058  1.00  0.00     0.198 A 
ATOM     83  C   UNL A   1      45.028  25.366  35.678  1.00  0.00     0.198 A 
ATOM     84  F   UNL A   1      42.768  25.617  35.080  1.00  0.00    -0.203 F 
ATOM     85  F   UNL A   1      47.898  27.473  35.007  1.00  0.00    -0.200 F 
ATOM     86  C   UNL A   1      46.335  25.828  35.660  1.00  0.00     0.200 A 
ATOM     87  F   UNL A   1      44.737  24.202  36.275  1.00  0.00    -0.200 F 
ATOM     88  F   UNL A   1      47.313  25.096  36.212  1.00  0.00    -0.200 F 
ENDBRANCH  55  78
ENDBRANCH  29  30
ENDBRANCH  21  24
ENDBRANCH  19  20
ENDBRANCH  18  19
ENDBRANCH  17  18
ENDBRANCH   1  17
TORSDOF 16
ENDMDL
