MODEL 1
REMARK VINA RESULT:     -16.1      0.000      0.000
REMARK SMILES C[C@@H](CCC(=O)NCCCCNC(=O)c1ccc(-c2c3nc(c(-c4c(F)c(F)c(F)c(F)c4F)c4ccc([nH]4)c(-c4c(F)c(F)c(F)c(F)c4F)c4nc(c(-c5c(F)c(F)c(F)c(F)c5F)c5ccc2[nH]5)C=C4)C=C3)cc1)[C@H]1CC[C@@H]2[C@H]3CC[C@@H]4CC(=O)CC[C@]4(C)[C@@H]3CC(=O)[C@]21C
REMARK SMILES IDX 9 1 8 2 7 3 5 4 6 5 4 7 3 8 2 9 1 10 78 11 79 12 97 13 80 14
REMARK SMILES IDX 81 15 95 16 98 17 82 18 94 19 96 20 83 21 93 22 84 23 91 24
REMARK SMILES IDX 85 25 90 26 92 27 86 28 89 29 87 30 88 31 10 32 11 33 12 34
REMARK SMILES IDX 13 35 14 37 15 38 16 39 77 40 17 41 76 42 18 43 19 44 20 45
REMARK SMILES IDX 70 46 21 47 75 48 69 49 71 50 22 51 74 52 68 53 67 54 23 56
REMARK SMILES IDX 55 57 35 58 54 59 36 60 39 61 53 62 72 63 37 64 38 65 52 67
REMARK SMILES IDX 73 68 40 69 24 70 25 71 33 72 26 73 27 74 31 75 34 76 28 77
REMARK SMILES IDX 29 78 32 79 30 80 56 81 57 82 65 83 58 84 59 85 63 86 66 87
REMARK SMILES IDX 60 88 61 89 64 90 62 91 41 92 42 93 50 94 43 95 44 96 48 97
REMARK SMILES IDX 51 98 45 99 46 100 49 101 47 102
REMARK H PARENT 7 6 12 36 71 55 39 66
REMARK Flexibility Score: inf
ROOT
ATOM      1  C   UNL A   1      33.541  35.802  31.958  1.00  0.00     0.023 C 
ENDROOT
BRANCH   1   2
ATOM      2  C   UNL A   1      33.323  35.689  30.169  1.00  0.00     0.116 C 
BRANCH   2   3
ATOM      3  N   UNL A   1      34.192  35.059  29.036  1.00  0.00    -0.356 N 
ATOM      4  C   UNL A   1      34.214  34.024  28.125  1.00  0.00     0.220 C 
ATOM      5  O   UNL A   1      35.186  33.943  27.361  1.00  0.00    -0.275 OA
ATOM      6  H   UNL A   1      35.017  35.587  28.936  1.00  0.00     0.163 HD
BRANCH   4   7
ATOM      7  C   UNL A   1      33.168  32.935  28.046  1.00  0.00     0.100 C 
BRANCH   7   8
ATOM      8  C   UNL A   1      33.668  31.687  27.331  1.00  0.00     0.013 C 
BRANCH   8   9
ATOM      9  C   UNL A   1      32.516  30.983  26.573  1.00  0.00    -0.010 C 
ATOM     10  C   UNL A   1      31.367  32.080  26.874  1.00  0.00     0.008 C 
BRANCH   9  11
ATOM     11  C   UNL A   1      32.700  29.147  26.630  1.00  0.00     0.005 C 
ATOM     12  C   UNL A   1      31.403  28.578  27.265  1.00  0.00     0.005 C 
ATOM     13  C   UNL A   1      33.559  27.670  25.868  1.00  0.00     0.032 C 
ATOM     14  C   UNL A   1      31.590  27.089  27.376  1.00  0.00     0.005 C 
ATOM     15  C   UNL A   1      32.334  26.687  26.105  1.00  0.00     0.006 C 
ATOM     16  C   UNL A   1      33.914  27.073  24.404  1.00  0.00     0.139 C 
ATOM     17  C   UNL A   1      35.073  27.315  26.229  1.00  0.00     0.020 C 
ATOM     18  C   UNL A   1      32.436  25.155  25.919  1.00  0.00    -0.003 C 
ATOM     19  C   UNL A   1      34.402  25.596  24.365  1.00  0.00     0.080 C 
ATOM     20  O   UNL A   1      33.964  27.669  23.335  1.00  0.00    -0.299 OA
ATOM     21  C   UNL A   1      31.011  24.559  25.729  1.00  0.00     0.004 C 
ATOM     22  C   UNL A   1      33.207  24.751  24.654  1.00  0.00     0.006 C 
ATOM     23  C   UNL A   1      30.929  23.134  25.154  1.00  0.00     0.005 C 
ATOM     24  C   UNL A   1      33.413  23.209  24.527  1.00  0.00    -0.025 C 
ATOM     25  C   UNL A   1      32.003  22.744  24.104  1.00  0.00     0.002 C 
ATOM     26  C   UNL A   1      33.877  22.453  25.807  1.00  0.00     0.015 C 
ATOM     27  C   UNL A   1      34.486  22.897  23.447  1.00  0.00     0.012 C 
ATOM     28  C   UNL A   1      31.986  21.262  23.777  1.00  0.00     0.079 C 
ATOM     29  C   UNL A   1      33.246  21.077  26.059  1.00  0.00     0.076 C 
ATOM     30  C   UNL A   1      32.443  20.412  24.943  1.00  0.00     0.133 C 
ATOM     31  O   UNL A   1      32.156  19.251  25.001  1.00  0.00    -0.300 OA
ENDBRANCH   9  11
ENDBRANCH   8   9
ENDBRANCH   7   8
ENDBRANCH   4   7
ENDBRANCH   2   3
ENDBRANCH   1   2
BRANCH   1  32
ATOM     32  C   UNL A   1      34.461  35.192  33.364  1.00  0.00     0.023 C 
BRANCH  32  33
ATOM     33  C   UNL A   1      35.451  33.814  33.870  1.00  0.00     0.116 C 
BRANCH  33  34
ATOM     34  N   UNL A   1      35.629  32.425  33.299  1.00  0.00    -0.352 N 
ATOM     35  C   UNL A   1      35.659  32.062  31.946  1.00  0.00     0.251 C 
ATOM     36  H   UNL A   1      35.738  31.695  33.950  1.00  0.00     0.163 HD
ATOM     37  O   UNL A   1      35.217  32.792  31.064  1.00  0.00    -0.269 OA
BRANCH  35  38
ATOM     38  C   UNL A   1      36.323  30.753  31.541  1.00  0.00     0.039 A 
ATOM     39  C   UNL A   1      36.316  30.423  30.169  1.00  0.00     0.014 A 
ATOM     40  C   UNL A   1      37.169  30.031  32.389  1.00  0.00     0.014 A 
ATOM     41  C   UNL A   1      37.328  29.630  29.618  1.00  0.00     0.010 A 
ATOM     42  C   UNL A   1      38.201  29.264  31.840  1.00  0.00     0.010 A 
ATOM     43  C   UNL A   1      38.352  29.170  30.449  1.00  0.00    -0.014 A 
BRANCH  43  44
ATOM     44  C   UNL A   1      39.695  28.837  29.911  1.00  0.00     0.031 A 
ATOM     45  C   UNL A   1      40.733  29.901  29.764  1.00  0.00     0.074 A 
ATOM     46  C   UNL A   1      39.864  27.605  29.381  1.00  0.00     0.049 A 
ATOM     47  N   UNL A   1      41.886  29.856  29.154  1.00  0.00    -0.248 NA
ATOM     48  C   UNL A   1      40.402  31.210  30.345  1.00  0.00     0.031 C 
ATOM     49  C   UNL A   1      38.856  26.537  29.402  1.00  0.00     0.029 A 
ATOM     50  N   UNL A   1      40.907  27.044  28.689  1.00  0.00    -0.354 N 
ATOM     51  C   UNL A   1      42.414  31.136  29.258  1.00  0.00     0.074 A 
ATOM     52  C   UNL A   1      41.430  31.945  29.946  1.00  0.00     0.031 C 
ATOM     53  C   UNL A   1      39.328  25.459  28.760  1.00  0.00     0.029 A 
ATOM     54  C   UNL A   1      40.658  25.760  28.255  1.00  0.00     0.049 A 
ATOM     55  H   UNL A   1      41.755  27.515  28.520  1.00  0.00     0.167 HD
ATOM     56  C   UNL A   1      43.619  31.579  28.824  1.00  0.00     0.037 A 
ATOM     57  C   UNL A   1      41.425  24.928  27.526  1.00  0.00     0.037 A 
ATOM     58  C   UNL A   1      44.565  30.732  28.144  1.00  0.00     0.049 A 
ATOM     59  C   UNL A   1      42.778  25.428  27.102  1.00  0.00     0.074 A 
ATOM     60  C   UNL A   1      45.844  31.028  27.710  1.00  0.00     0.029 A 
ATOM     61  N   UNL A   1      44.319  29.407  27.797  1.00  0.00    -0.354 N 
ATOM     62  N   UNL A   1      43.309  26.614  27.284  1.00  0.00    -0.248 NA
ATOM     63  C   UNL A   1      43.643  24.481  26.390  1.00  0.00     0.031 C 
ATOM     64  C   UNL A   1      46.356  29.893  27.068  1.00  0.00     0.029 A 
ATOM     65  C   UNL A   1      45.418  28.873  27.145  1.00  0.00     0.049 A 
ATOM     66  H   UNL A   1      43.486  28.919  27.989  1.00  0.00     0.167 HD
ATOM     67  C   UNL A   1      44.581  26.553  26.740  1.00  0.00     0.074 A 
ATOM     68  C   UNL A   1      44.746  25.202  26.233  1.00  0.00     0.031 C 
ATOM     69  C   UNL A   1      45.531  27.518  26.662  1.00  0.00     0.037 A 
BRANCH  56  70
ATOM     70  C   UNL A   1      43.961  33.021  29.076  1.00  0.00     0.064 A 
ATOM     71  C   UNL A   1      43.834  33.993  28.069  1.00  0.00     0.173 A 
ATOM     72  C   UNL A   1      44.430  33.442  30.329  1.00  0.00     0.173 A 
ATOM     73  F   UNL A   1      43.404  33.646  26.847  1.00  0.00    -0.203 F 
ATOM     74  C   UNL A   1      44.203  35.317  28.295  1.00  0.00     0.198 A 
ATOM     75  C   UNL A   1      44.767  34.774  30.561  1.00  0.00     0.198 A 
ATOM     76  F   UNL A   1      44.570  32.560  31.331  1.00  0.00    -0.203 F 
ATOM     77  F   UNL A   1      44.134  36.209  27.297  1.00  0.00    -0.200 F 
ATOM     78  C   UNL A   1      44.664  35.708  29.541  1.00  0.00     0.200 A 
ATOM     79  F   UNL A   1      45.204  35.152  31.771  1.00  0.00    -0.200 F 
ATOM     80  F   UNL A   1      45.022  36.982  29.758  1.00  0.00    -0.200 F 
ENDBRANCH  56  70
BRANCH  57  81
ATOM     81  C   UNL A   1      40.963  23.545  27.222  1.00  0.00     0.064 A 
ATOM     82  C   UNL A   1      39.916  23.325  26.316  1.00  0.00     0.173 A 
ATOM     83  C   UNL A   1      41.569  22.415  27.794  1.00  0.00     0.173 A 
ATOM     84  F   UNL A   1      39.294  24.369  25.748  1.00  0.00    -0.203 F 
ATOM     85  C   UNL A   1      39.482  22.036  26.006  1.00  0.00     0.198 A 
ATOM     86  C   UNL A   1      41.152  21.125  27.463  1.00  0.00     0.198 A 
ATOM     87  F   UNL A   1      42.585  22.562  28.658  1.00  0.00    -0.203 F 
ATOM     88  F   UNL A   1      38.457  21.862  25.161  1.00  0.00    -0.200 F 
ATOM     89  C   UNL A   1      40.105  20.937  26.574  1.00  0.00     0.200 A 
ATOM     90  F   UNL A   1      41.769  20.063  28.001  1.00  0.00    -0.200 F 
ATOM     91  F   UNL A   1      39.694  19.698  26.268  1.00  0.00    -0.200 F 
ENDBRANCH  57  81
BRANCH  69  92
ATOM     92  C   UNL A   1      46.832  27.125  26.034  1.00  0.00     0.064 A 
ATOM     93  C   UNL A   1      47.076  27.324  24.668  1.00  0.00     0.173 A 
ATOM     94  C   UNL A   1      47.857  26.578  26.819  1.00  0.00     0.173 A 
ATOM     95  F   UNL A   1      46.117  27.827  23.877  1.00  0.00    -0.203 F 
ATOM     96  C   UNL A   1      48.296  26.968  24.104  1.00  0.00     0.198 A 
ATOM     97  C   UNL A   1      49.088  26.254  26.258  1.00  0.00     0.198 A 
ATOM     98  F   UNL A   1      47.669  26.374  28.131  1.00  0.00    -0.203 F 
ATOM     99  F   UNL A   1      48.493  27.121  22.788  1.00  0.00    -0.200 F 
ATOM    100  C   UNL A   1      49.304  26.442  24.901  1.00  0.00     0.200 A 
ATOM    101  F   UNL A   1      50.064  25.758  27.031  1.00  0.00    -0.200 F 
ATOM    102  F   UNL A   1      50.481  26.107  24.357  1.00  0.00    -0.200 F 
ENDBRANCH  69  92
ENDBRANCH  43  44
ENDBRANCH  35  38
ENDBRANCH  33  34
ENDBRANCH  32  33
ENDBRANCH   1  32
TORSDOF 14
ENDMDL
MODEL 2
REMARK VINA RESULT:     -15.8      4.640     10.743
REMARK SMILES C[C@@H](CCC(=O)NCCCCNC(=O)c1ccc(-c2c3nc(c(-c4c(F)c(F)c(F)c(F)c4F)c4ccc([nH]4)c(-c4c(F)c(F)c(F)c(F)c4F)c4nc(c(-c5c(F)c(F)c(F)c(F)c5F)c5ccc2[nH]5)C=C4)C=C3)cc1)[C@H]1CC[C@@H]2[C@H]3CC[C@@H]4CC(=O)CC[C@]4(C)[C@@H]3CC(=O)[C@]21C
REMARK SMILES IDX 9 1 8 2 7 3 5 4 6 5 4 7 3 8 2 9 1 10 78 11 79 12 97 13 80 14
REMARK SMILES IDX 81 15 95 16 98 17 82 18 94 19 96 20 83 21 93 22 84 23 91 24
REMARK SMILES IDX 85 25 90 26 92 27 86 28 89 29 87 30 88 31 10 32 11 33 12 34
REMARK SMILES IDX 13 35 14 37 15 38 16 39 77 40 17 41 76 42 18 43 19 44 20 45
REMARK SMILES IDX 70 46 21 47 75 48 69 49 71 50 22 51 74 52 68 53 67 54 23 56
REMARK SMILES IDX 55 57 35 58 54 59 36 60 39 61 53 62 72 63 37 64 38 65 52 67
REMARK SMILES IDX 73 68 40 69 24 70 25 71 33 72 26 73 27 74 31 75 34 76 28 77
REMARK SMILES IDX 29 78 32 79 30 80 56 81 57 82 65 83 58 84 59 85 63 86 66 87
REMARK SMILES IDX 60 88 61 89 64 90 62 91 41 92 42 93 50 94 43 95 44 96 48 97
REMARK SMILES IDX 51 98 45 99 46 100 49 101 47 102
REMARK H PARENT 7 6 12 36 71 55 39 66
REMARK Flexibility Score: inf
ROOT
ATOM      1  C   UNL A   1      43.299  19.768  25.704  1.00  0.00     0.023 C 
ENDROOT
BRANCH   1   2
ATOM      2  C   UNL A   1      41.555  19.597  26.140  1.00  0.00     0.116 C 
BRANCH   2   3
ATOM      3  N   UNL A   1      40.347  20.583  26.074  1.00  0.00    -0.356 N 
ATOM      4  C   UNL A   1      38.994  20.636  25.814  1.00  0.00     0.220 C 
ATOM      5  O   UNL A   1      38.424  21.731  25.920  1.00  0.00    -0.275 OA
ATOM      6  H   UNL A   1      40.663  21.489  26.297  1.00  0.00     0.163 HD
BRANCH   4   7
ATOM      7  C   UNL A   1      38.171  19.461  25.334  1.00  0.00     0.100 C 
BRANCH   7   8
ATOM      8  C   UNL A   1      37.021  19.878  24.428  1.00  0.00     0.013 C 
BRANCH   8   9
ATOM      9  C   UNL A   1      35.655  19.595  25.099  1.00  0.00    -0.010 C 
ATOM     10  C   UNL A   1      35.506  18.056  24.626  1.00  0.00     0.008 C 
BRANCH   9  11
ATOM     11  C   UNL A   1      34.607  21.113  25.155  1.00  0.00     0.005 C 
ATOM     12  C   UNL A   1      34.786  21.741  26.563  1.00  0.00     0.005 C 
ATOM     13  C   UNL A   1      33.784  22.445  24.129  1.00  0.00     0.032 C 
ATOM     14  C   UNL A   1      33.873  22.936  26.627  1.00  0.00     0.005 C 
ATOM     15  C   UNL A   1      33.951  23.568  25.239  1.00  0.00     0.006 C 
ATOM     16  C   UNL A   1      34.130  23.439  22.896  1.00  0.00     0.139 C 
ATOM     17  C   UNL A   1      32.426  22.162  23.340  1.00  0.00     0.020 C 
ATOM     18  C   UNL A   1      33.247  24.943  25.158  1.00  0.00    -0.003 C 
ATOM     19  C   UNL A   1      33.119  24.593  22.641  1.00  0.00     0.080 C 
ATOM     20  O   UNL A   1      35.022  23.329  22.063  1.00  0.00    -0.299 OA
ATOM     21  C   UNL A   1      33.983  25.958  26.079  1.00  0.00     0.004 C 
ATOM     22  C   UNL A   1      33.303  25.567  23.755  1.00  0.00     0.006 C 
ATOM     23  C   UNL A   1      33.679  27.448  25.846  1.00  0.00     0.005 C 
ATOM     24  C   UNL A   1      32.493  26.896  23.643  1.00  0.00    -0.025 C 
ATOM     25  C   UNL A   1      33.421  27.886  24.379  1.00  0.00     0.002 C 
ATOM     26  C   UNL A   1      31.069  26.909  24.274  1.00  0.00     0.015 C 
ATOM     27  C   UNL A   1      32.290  27.277  22.150  1.00  0.00     0.012 C 
ATOM     28  C   UNL A   1      32.902  29.308  24.280  1.00  0.00     0.079 C 
ATOM     29  C   UNL A   1      30.653  28.191  25.006  1.00  0.00     0.076 C 
ATOM     30  C   UNL A   1      31.503  29.449  24.843  1.00  0.00     0.133 C 
ATOM     31  O   UNL A   1      31.087  30.520  25.179  1.00  0.00    -0.300 OA
ENDBRANCH   9  11
ENDBRANCH   8   9
ENDBRANCH   7   8
ENDBRANCH   4   7
ENDBRANCH   2   3
ENDBRANCH   1   2
BRANCH   1  32
ATOM     32  C   UNL A   1      44.610  20.924  25.329  1.00  0.00     0.023 C 
BRANCH  32  33
ATOM     33  C   UNL A   1      45.004  22.646  25.450  1.00  0.00     0.116 C 
BRANCH  33  34
ATOM     34  N   UNL A   1      44.235  23.831  25.991  1.00  0.00    -0.352 N 
ATOM     35  C   UNL A   1      44.163  25.118  25.443  1.00  0.00     0.251 C 
ATOM     36  H   UNL A   1      43.727  23.680  26.822  1.00  0.00     0.163 HD
ATOM     37  O   UNL A   1      44.983  25.526  24.626  1.00  0.00    -0.269 OA
BRANCH  35  38
ATOM     38  C   UNL A   1      42.993  26.020  25.812  1.00  0.00     0.039 A 
ATOM     39  C   UNL A   1      41.842  25.399  26.344  1.00  0.00     0.014 A 
ATOM     40  C   UNL A   1      43.106  27.409  25.924  1.00  0.00     0.014 A 
ATOM     41  C   UNL A   1      40.998  26.089  27.220  1.00  0.00     0.010 A 
ATOM     42  C   UNL A   1      42.284  28.094  26.824  1.00  0.00     0.010 A 
ATOM     43  C   UNL A   1      41.314  27.405  27.565  1.00  0.00    -0.014 A 
BRANCH  43  44
ATOM     44  C   UNL A   1      40.856  28.001  28.846  1.00  0.00     0.031 A 
ATOM     45  C   UNL A   1      39.658  28.894  28.875  1.00  0.00     0.074 A 
ATOM     46  C   UNL A   1      41.669  27.872  29.917  1.00  0.00     0.049 A 
ATOM     47  N   UNL A   1      39.211  29.651  29.841  1.00  0.00    -0.248 NA
ATOM     48  C   UNL A   1      38.888  28.983  27.626  1.00  0.00     0.031 C 
ATOM     49  C   UNL A   1      42.912  27.090  29.938  1.00  0.00     0.029 A 
ATOM     50  N   UNL A   1      41.613  28.415  31.176  1.00  0.00    -0.354 N 
ATOM     51  C   UNL A   1      38.116  30.322  29.312  1.00  0.00     0.074 A 
ATOM     52  C   UNL A   1      38.001  29.920  27.926  1.00  0.00     0.031 C 
ATOM     53  C   UNL A   1      43.494  27.201  31.140  1.00  0.00     0.029 A 
ATOM     54  C   UNL A   1      42.688  28.082  31.971  1.00  0.00     0.049 A 
ATOM     55  H   UNL A   1      40.873  28.988  31.483  1.00  0.00     0.167 HD
ATOM     56  C   UNL A   1      37.284  31.185  29.944  1.00  0.00     0.037 A 
ATOM     57  C   UNL A   1      42.983  28.457  33.230  1.00  0.00     0.037 A 
ATOM     58  C   UNL A   1      37.441  31.553  31.328  1.00  0.00     0.049 A 
ATOM     59  C   UNL A   1      42.015  29.374  33.923  1.00  0.00     0.074 A 
ATOM     60  C   UNL A   1      36.637  32.360  32.111  1.00  0.00     0.029 A 
ATOM     61  N   UNL A   1      38.492  31.128  32.135  1.00  0.00    -0.354 N 
ATOM     62  N   UNL A   1      40.929  29.934  33.446  1.00  0.00    -0.248 NA
ATOM     63  C   UNL A   1      42.297  29.700  35.326  1.00  0.00     0.031 C 
ATOM     64  C   UNL A   1      37.223  32.452  33.380  1.00  0.00     0.029 A 
ATOM     65  C   UNL A   1      38.364  31.663  33.405  1.00  0.00     0.049 A 
ATOM     66  H   UNL A   1      39.220  30.531  31.845  1.00  0.00     0.167 HD
ATOM     67  C   UNL A   1      40.376  30.654  34.492  1.00  0.00     0.074 A 
ATOM     68  C   UNL A   1      41.244  30.446  35.637  1.00  0.00     0.031 C 
ATOM     69  C   UNL A   1      39.257  31.420  34.512  1.00  0.00     0.037 A 
BRANCH  56  70
ATOM     70  C   UNL A   1      36.154  31.770  29.145  1.00  0.00     0.064 A 
ATOM     71  C   UNL A   1      36.116  33.136  28.814  1.00  0.00     0.173 A 
ATOM     72  C   UNL A   1      35.088  30.968  28.708  1.00  0.00     0.173 A 
ATOM     73  F   UNL A   1      37.100  33.954  29.216  1.00  0.00    -0.203 F 
ATOM     74  C   UNL A   1      35.040  33.681  28.118  1.00  0.00     0.198 A 
ATOM     75  C   UNL A   1      34.028  31.510  27.983  1.00  0.00     0.198 A 
ATOM     76  F   UNL A   1      35.068  29.657  28.990  1.00  0.00    -0.203 F 
ATOM     77  F   UNL A   1      34.999  34.998  27.876  1.00  0.00    -0.200 F 
ATOM     78  C   UNL A   1      33.999  32.868  27.699  1.00  0.00     0.200 A 
ATOM     79  F   UNL A   1      33.028  30.720  27.570  1.00  0.00    -0.200 F 
ATOM     80  F   UNL A   1      32.961  33.393  27.032  1.00  0.00    -0.200 F 
ENDBRANCH  56  70
BRANCH  57  81
ATOM     81  C   UNL A   1      44.190  27.916  33.917  1.00  0.00     0.064 A 
ATOM     82  C   UNL A   1      45.409  28.607  33.867  1.00  0.00     0.173 A 
ATOM     83  C   UNL A   1      44.152  26.727  34.662  1.00  0.00     0.173 A 
ATOM     84  F   UNL A   1      45.505  29.744  33.161  1.00  0.00    -0.203 F 
ATOM     85  C   UNL A   1      46.544  28.125  34.519  1.00  0.00     0.198 A 
ATOM     86  C   UNL A   1      45.281  26.260  35.336  1.00  0.00     0.198 A 
ATOM     87  F   UNL A   1      43.010  26.029  34.757  1.00  0.00    -0.203 F 
ATOM     88  F   UNL A   1      47.702  28.792  34.424  1.00  0.00    -0.200 F 
ATOM     89  C   UNL A   1      46.478  26.956  35.258  1.00  0.00     0.200 A 
ATOM     90  F   UNL A   1      45.209  25.137  36.064  1.00  0.00    -0.200 F 
ATOM     91  F   UNL A   1      47.567  26.498  35.893  1.00  0.00    -0.200 F 
ENDBRANCH  57  81
BRANCH  69  92
ATOM     92  C   UNL A   1      38.905  32.053  35.823  1.00  0.00     0.064 A 
ATOM     93  C   UNL A   1      39.276  33.371  36.124  1.00  0.00     0.173 A 
ATOM     94  C   UNL A   1      38.155  31.341  36.771  1.00  0.00     0.173 A 
ATOM     95  F   UNL A   1      40.010  34.081  35.254  1.00  0.00    -0.203 F 
ATOM     96  C   UNL A   1      38.927  33.947  37.340  1.00  0.00     0.198 A 
ATOM     97  C   UNL A   1      37.780  31.933  37.972  1.00  0.00     0.198 A 
ATOM     98  F   UNL A   1      37.775  30.078  36.523  1.00  0.00    -0.203 F 
ATOM     99  F   UNL A   1      39.333  35.191  37.629  1.00  0.00    -0.200 F 
ATOM    100  C   UNL A   1      38.172  33.232  38.258  1.00  0.00     0.200 A 
ATOM    101  F   UNL A   1      37.039  31.245  38.852  1.00  0.00    -0.200 F 
ATOM    102  F   UNL A   1      37.829  33.793  39.426  1.00  0.00    -0.200 F 
ENDBRANCH  69  92
ENDBRANCH  43  44
ENDBRANCH  35  38
ENDBRANCH  33  34
ENDBRANCH  32  33
ENDBRANCH   1  32
TORSDOF 14
ENDMDL
MODEL 3
REMARK VINA RESULT:     -15.5      1.487      2.713
REMARK SMILES C[C@@H](CCC(=O)NCCCCNC(=O)c1ccc(-c2c3nc(c(-c4c(F)c(F)c(F)c(F)c4F)c4ccc([nH]4)c(-c4c(F)c(F)c(F)c(F)c4F)c4nc(c(-c5c(F)c(F)c(F)c(F)c5F)c5ccc2[nH]5)C=C4)C=C3)cc1)[C@H]1CC[C@@H]2[C@H]3CC[C@@H]4CC(=O)CC[C@]4(C)[C@@H]3CC(=O)[C@]21C
REMARK SMILES IDX 9 1 8 2 7 3 5 4 6 5 4 7 3 8 2 9 1 10 78 11 79 12 97 13 80 14
REMARK SMILES IDX 81 15 95 16 98 17 82 18 94 19 96 20 83 21 93 22 84 23 91 24
REMARK SMILES IDX 85 25 90 26 92 27 86 28 89 29 87 30 88 31 10 32 11 33 12 34
REMARK SMILES IDX 13 35 14 37 15 38 16 39 77 40 17 41 76 42 18 43 19 44 20 45
REMARK SMILES IDX 70 46 21 47 75 48 69 49 71 50 22 51 74 52 68 53 67 54 23 56
REMARK SMILES IDX 55 57 35 58 54 59 36 60 39 61 53 62 72 63 37 64 38 65 52 67
REMARK SMILES IDX 73 68 40 69 24 70 25 71 33 72 26 73 27 74 31 75 34 76 28 77
REMARK SMILES IDX 29 78 32 79 30 80 56 81 57 82 65 83 58 84 59 85 63 86 66 87
REMARK SMILES IDX 60 88 61 89 64 90 62 91 41 92 42 93 50 94 43 95 44 96 48 97
REMARK SMILES IDX 51 98 45 99 46 100 49 101 47 102
REMARK H PARENT 7 6 12 36 71 55 39 66
REMARK Flexibility Score: inf
ROOT
ATOM      1  C   UNL A   1      33.153  34.103  28.246  1.00  0.00     0.023 C 
ENDROOT
BRANCH   1   2
ATOM      2  C   UNL A   1      32.343  32.800  27.294  1.00  0.00     0.116 C 
BRANCH   2   3
ATOM      3  N   UNL A   1      32.856  31.452  26.699  1.00  0.00    -0.356 N 
ATOM      4  C   UNL A   1      32.440  30.339  25.999  1.00  0.00     0.220 C 
ATOM      5  O   UNL A   1      33.286  29.479  25.718  1.00  0.00    -0.275 OA
ATOM      6  H   UNL A   1      33.818  31.364  26.891  1.00  0.00     0.163 HD
BRANCH   4   7
ATOM      7  C   UNL A   1      31.004  30.060  25.615  1.00  0.00     0.100 C 
BRANCH   7   8
ATOM      8  C   UNL A   1      30.593  30.755  24.323  1.00  0.00     0.013 C 
BRANCH   8   9
ATOM      9  C   UNL A   1      29.769  29.805  23.421  1.00  0.00    -0.010 C 
ATOM     10  C   UNL A   1      28.352  30.573  23.548  1.00  0.00     0.008 C 
BRANCH   9  11
ATOM     11  C   UNL A   1      30.396  28.071  23.523  1.00  0.00     0.005 C 
ATOM     12  C   UNL A   1      31.395  27.876  22.352  1.00  0.00     0.005 C 
ATOM     13  C   UNL A   1      30.684  26.612  24.659  1.00  0.00     0.032 C 
ATOM     14  C   UNL A   1      31.845  26.441  22.398  1.00  0.00     0.005 C 
ATOM     15  C   UNL A   1      31.978  26.115  23.883  1.00  0.00     0.006 C 
ATOM     16  C   UNL A   1      31.293  26.297  26.128  1.00  0.00     0.139 C 
ATOM     17  C   UNL A   1      29.485  25.657  25.102  1.00  0.00     0.020 C 
ATOM     18  C   UNL A   1      32.641  24.742  24.146  1.00  0.00    -0.003 C 
ATOM     19  C   UNL A   1      31.565  24.799  26.451  1.00  0.00     0.080 C 
ATOM     20  O   UNL A   1      31.456  27.073  27.062  1.00  0.00    -0.299 OA
ATOM     21  C   UNL A   1      34.109  24.768  23.631  1.00  0.00     0.004 C 
ATOM     22  C   UNL A   1      32.752  24.403  25.640  1.00  0.00     0.006 C 
ATOM     23  C   UNL A   1      35.040  23.653  24.138  1.00  0.00     0.005 C 
ATOM     24  C   UNL A   1      33.312  22.971  25.904  1.00  0.00    -0.025 C 
ATOM     25  C   UNL A   1      34.812  23.164  25.594  1.00  0.00     0.002 C 
ATOM     26  C   UNL A   1      32.721  21.813  25.044  1.00  0.00     0.015 C 
ATOM     27  C   UNL A   1      33.063  22.559  27.382  1.00  0.00     0.012 C 
ATOM     28  C   UNL A   1      35.609  21.915  25.920  1.00  0.00     0.079 C 
ATOM     29  C   UNL A   1      33.708  20.743  24.561  1.00  0.00     0.076 C 
ATOM     30  C   UNL A   1      35.113  20.703  25.159  1.00  0.00     0.133 C 
ATOM     31  O   UNL A   1      35.819  19.748  25.006  1.00  0.00    -0.300 OA
ENDBRANCH   9  11
ENDBRANCH   8   9
ENDBRANCH   7   8
ENDBRANCH   4   7
ENDBRANCH   2   3
ENDBRANCH   1   2
BRANCH   1  32
ATOM     32  C   UNL A   1      33.823  34.553  29.841  1.00  0.00     0.023 C 
BRANCH  32  33
ATOM     33  C   UNL A   1      35.186  34.196  30.914  1.00  0.00     0.116 C 
BRANCH  33  34
ATOM     34  N   UNL A   1      36.117  33.007  31.015  1.00  0.00    -0.352 N 
ATOM     35  C   UNL A   1      36.007  31.916  31.885  1.00  0.00     0.251 C 
ATOM     36  H   UNL A   1      36.885  33.001  30.399  1.00  0.00     0.163 HD
ATOM     37  O   UNL A   1      35.314  31.955  32.898  1.00  0.00    -0.269 OA
BRANCH  35  38
ATOM     38  C   UNL A   1      36.709  30.611  31.535  1.00  0.00     0.039 A 
ATOM     39  C   UNL A   1      36.646  30.184  30.191  1.00  0.00     0.014 A 
ATOM     40  C   UNL A   1      37.631  29.988  32.382  1.00  0.00     0.014 A 
ATOM     41  C   UNL A   1      37.663  29.398  29.640  1.00  0.00     0.010 A 
ATOM     42  C   UNL A   1      38.668  29.230  31.831  1.00  0.00     0.010 A 
ATOM     43  C   UNL A   1      38.750  29.043  30.443  1.00  0.00    -0.014 A 
BRANCH  43  44
ATOM     44  C   UNL A   1      40.077  28.730  29.856  1.00  0.00     0.031 A 
ATOM     45  C   UNL A   1      41.090  29.811  29.664  1.00  0.00     0.074 A 
ATOM     46  C   UNL A   1      40.247  27.499  29.324  1.00  0.00     0.049 A 
ATOM     47  N   UNL A   1      42.220  29.784  29.010  1.00  0.00    -0.248 NA
ATOM     48  C   UNL A   1      40.759  31.118  30.252  1.00  0.00     0.031 C 
ATOM     49  C   UNL A   1      39.259  26.414  29.388  1.00  0.00     0.029 A 
ATOM     50  N   UNL A   1      41.273  26.953  28.595  1.00  0.00    -0.354 N 
ATOM     51  C   UNL A   1      42.729  31.073  29.089  1.00  0.00     0.074 A 
ATOM     52  C   UNL A   1      41.758  31.869  29.811  1.00  0.00     0.031 C 
ATOM     53  C   UNL A   1      39.725  25.342  28.733  1.00  0.00     0.029 A 
ATOM     54  C   UNL A   1      41.029  25.663  28.176  1.00  0.00     0.049 A 
ATOM     55  H   UNL A   1      42.105  27.438  28.391  1.00  0.00     0.167 HD
ATOM     56  C   UNL A   1      43.908  31.534  28.607  1.00  0.00     0.037 A 
ATOM     57  C   UNL A   1      41.782  24.841  27.422  1.00  0.00     0.037 A 
ATOM     58  C   UNL A   1      44.842  30.700  27.895  1.00  0.00     0.049 A 
ATOM     59  C   UNL A   1      43.109  25.362  26.944  1.00  0.00     0.074 A 
ATOM     60  C   UNL A   1      46.098  31.016  27.411  1.00  0.00     0.029 A 
ATOM     61  N   UNL A   1      44.607  29.370  27.563  1.00  0.00    -0.354 N 
ATOM     62  N   UNL A   1      43.626  26.558  27.101  1.00  0.00    -0.248 NA
ATOM     63  C   UNL A   1      43.963  24.426  26.204  1.00  0.00     0.031 C 
ATOM     64  C   UNL A   1      46.605  29.887  26.755  1.00  0.00     0.029 A 
ATOM     65  C   UNL A   1      45.689  28.852  26.872  1.00  0.00     0.049 A 
ATOM     66  H   UNL A   1      43.789  28.868  27.789  1.00  0.00     0.167 HD
ATOM     67  C   UNL A   1      44.878  26.515  26.509  1.00  0.00     0.074 A 
ATOM     68  C   UNL A   1      45.046  25.166  26.002  1.00  0.00     0.031 C 
ATOM     69  C   UNL A   1      45.806  27.496  26.391  1.00  0.00     0.037 A 
BRANCH  56  70
ATOM     70  C   UNL A   1      44.235  32.983  28.839  1.00  0.00     0.064 A 
ATOM     71  C   UNL A   1      44.761  33.432  30.063  1.00  0.00     0.173 A 
ATOM     72  C   UNL A   1      44.014  33.941  27.838  1.00  0.00     0.173 A 
ATOM     73  F   UNL A   1      44.980  32.563  31.062  1.00  0.00    -0.203 F 
ATOM     74  C   UNL A   1      45.012  34.783  30.288  1.00  0.00     0.198 A 
ATOM     75  C   UNL A   1      44.297  35.288  28.055  1.00  0.00     0.198 A 
ATOM     76  F   UNL A   1      43.515  33.573  26.648  1.00  0.00    -0.203 F 
ATOM     77  F   UNL A   1      45.450  35.191  31.487  1.00  0.00    -0.200 F 
ATOM     78  C   UNL A   1      44.785  35.710  29.283  1.00  0.00     0.200 A 
ATOM     79  F   UNL A   1      44.086  36.181  27.079  1.00  0.00    -0.200 F 
ATOM     80  F   UNL A   1      45.023  37.011  29.501  1.00  0.00    -0.200 F 
ENDBRANCH  56  70
BRANCH  57  81
ATOM     81  C   UNL A   1      41.333  23.448  27.142  1.00  0.00     0.064 A 
ATOM     82  C   UNL A   1      42.003  22.354  27.709  1.00  0.00     0.173 A 
ATOM     83  C   UNL A   1      40.215  23.174  26.339  1.00  0.00     0.173 A 
ATOM     84  F   UNL A   1      43.084  22.558  28.476  1.00  0.00    -0.203 F 
ATOM     85  C   UNL A   1      41.585  21.045  27.472  1.00  0.00     0.198 A 
ATOM     86  C   UNL A   1      39.781  21.865  26.125  1.00  0.00     0.198 A 
ATOM     87  F   UNL A   1      39.525  24.181  25.781  1.00  0.00    -0.203 F 
ATOM     88  F   UNL A   1      42.267  20.020  28.002  1.00  0.00    -0.200 F 
ATOM     89  C   UNL A   1      40.471  20.801  26.686  1.00  0.00     0.200 A 
ATOM     90  F   UNL A   1      38.692  21.634  25.378  1.00  0.00    -0.200 F 
ATOM     91  F   UNL A   1      40.063  19.543  26.467  1.00  0.00    -0.200 F 
ENDBRANCH  57  81
BRANCH  69  92
ATOM     92  C   UNL A   1      47.089  27.123  25.714  1.00  0.00     0.064 A 
ATOM     93  C   UNL A   1      47.338  27.460  24.376  1.00  0.00     0.173 A 
ATOM     94  C   UNL A   1      48.093  26.453  26.428  1.00  0.00     0.173 A 
ATOM     95  F   UNL A   1      46.398  28.084  23.652  1.00  0.00    -0.203 F 
ATOM     96  C   UNL A   1      48.541  27.119  23.769  1.00  0.00     0.198 A 
ATOM     97  C   UNL A   1      49.308  26.143  25.827  1.00  0.00     0.198 A 
ATOM     98  F   UNL A   1      47.901  26.115  27.712  1.00  0.00    -0.203 F 
ATOM     99  F   UNL A   1      48.741  27.406  22.476  1.00  0.00    -0.200 F 
ATOM    100  C   UNL A   1      49.528  26.469  24.497  1.00  0.00     0.200 A 
ATOM    101  F   UNL A   1      50.266  25.528  26.535  1.00  0.00    -0.200 F 
ATOM    102  F   UNL A   1      50.691  26.150  23.912  1.00  0.00    -0.200 F 
ENDBRANCH  69  92
ENDBRANCH  43  44
ENDBRANCH  35  38
ENDBRANCH  33  34
ENDBRANCH  32  33
ENDBRANCH   1  32
TORSDOF 14
ENDMDL
