MODEL 1
REMARK VINA RESULT:     -13.7      0.000      0.000
REMARK SMILES COc1cccc(-c2c(C(=O)NCCCCNC(=O)c3ccc(-c4c5nc(c(-c6c(F)c(F)c(F)c(F)c6F)c6ccc([nH]6)c(-c6c(F)c(F)c(F)c(F)c6F)c6nc(c(-c7c(F)c(F)c(F)c(F)c7F)c7ccc4[nH]7)C=C6)C=C5)cc3)nnn2-c2ccc(OC(F)(F)F)cc2)c1
REMARK SMILES IDX 14 1 13 2 12 3 10 4 11 5 9 7 8 8 85 9 83 10 84 11 7 12 3 13
REMARK SMILES IDX 4 14 97 15 5 16 6 17 2 18 1 19 86 20 87 21 96 22 88 23 95 24
REMARK SMILES IDX 89 25 90 26 91 27 92 28 93 29 94 30 15 31 16 32 17 33 18 34
REMARK SMILES IDX 19 36 20 37 21 38 82 39 22 40 81 41 23 42 24 43 25 44 75 45
REMARK SMILES IDX 26 46 80 47 74 48 76 49 27 50 79 51 73 52 72 53 28 55 60 56
REMARK SMILES IDX 40 57 59 58 41 59 44 60 58 61 77 62 42 63 43 64 57 66 78 67
REMARK SMILES IDX 45 68 29 69 30 70 38 71 31 72 32 73 36 74 39 75 33 76 34 77
REMARK SMILES IDX 37 78 35 79 61 80 62 81 70 82 63 83 64 84 68 85 71 86 65 87
REMARK SMILES IDX 66 88 69 89 67 90 46 91 47 92 55 93 48 94 49 95 53 96 56 97
REMARK SMILES IDX 50 98 51 99 54 100 52 101
REMARK H PARENT 12 6 17 35 76 54 44 65
REMARK Flexibility Score: inf
ROOT
ATOM      1  C   UNL A   1      36.404  23.660  25.348  1.00  0.00     0.023 C 
ENDROOT
BRANCH   1   2
ATOM      2  C   UNL A   1      35.026  23.182  24.914  1.00  0.00     0.116 C 
BRANCH   2   3
ATOM      3  N   UNL A   1      34.070  22.830  25.927  1.00  0.00    -0.351 N 
ATOM      4  C   UNL A   1      32.723  23.134  26.038  1.00  0.00     0.274 C 
ATOM      5  O   UNL A   1      32.160  22.596  26.997  1.00  0.00    -0.267 OA
ATOM      6  H   UNL A   1      34.431  22.283  26.661  1.00  0.00     0.163 HD
BRANCH   4   7
ATOM      7  C   UNL A   1      31.967  24.052  25.158  1.00  0.00     0.178 A 
ATOM      8  C   UNL A   1      31.773  25.436  25.063  1.00  0.00     0.108 A 
ATOM      9  N   UNL A   1      30.924  25.581  23.963  1.00  0.00    -0.212 N 
ATOM     10  N   UNL A   1      31.203  23.460  24.159  1.00  0.00    -0.124 NA
ATOM     11  N   UNL A   1      30.497  24.384  23.534  1.00  0.00    -0.061 NA
BRANCH   8  12
ATOM     12  C   UNL A   1      32.069  26.577  25.935  1.00  0.00     0.006 A 
ATOM     13  C   UNL A   1      33.604  28.396  26.478  1.00  0.00     0.119 A 
ATOM     14  C   UNL A   1      32.652  28.906  27.359  1.00  0.00     0.046 A 
ATOM     15  C   UNL A   1      33.322  27.220  25.788  1.00  0.00     0.056 A 
ATOM     16  C   UNL A   1      31.422  28.263  27.535  1.00  0.00     0.005 A 
ATOM     17  C   UNL A   1      31.126  27.097  26.824  1.00  0.00     0.011 A 
BRANCH  13  18
ATOM     18  O   UNL A   1      34.774  29.096  26.388  1.00  0.00    -0.497 OA
ATOM     19  C   UNL A   1      35.471  29.319  27.611  1.00  0.00     0.278 C 
ENDBRANCH  13  18
ENDBRANCH   8  12
BRANCH   9  20
ATOM     20  C   UNL A   1      30.433  26.792  23.416  1.00  0.00     0.067 A 
ATOM     21  C   UNL A   1      29.084  27.123  23.552  1.00  0.00     0.032 A 
ATOM     22  C   UNL A   1      31.325  27.702  22.837  1.00  0.00     0.032 A 
ATOM     23  C   UNL A   1      28.662  28.408  23.192  1.00  0.00     0.049 A 
ATOM     24  C   UNL A   1      30.890  28.970  22.457  1.00  0.00     0.049 A 
ATOM     25  C   UNL A   1      29.562  29.342  22.657  1.00  0.00     0.129 A 
BRANCH  25  26
ATOM     26  O   UNL A   1      29.026  30.569  22.383  1.00  0.00    -0.406 OA
BRANCH  26  27
ATOM     27  C   UNL A   1      28.820  31.448  23.478  1.00  0.00     0.573 C 
ATOM     28  F   UNL A   1      27.569  31.330  23.974  1.00  0.00    -0.132 F 
ATOM     29  F   UNL A   1      29.716  31.216  24.461  1.00  0.00    -0.132 F 
ATOM     30  F   UNL A   1      28.983  32.719  23.052  1.00  0.00    -0.132 F 
ENDBRANCH  26  27
ENDBRANCH  25  26
ENDBRANCH   9  20
ENDBRANCH   4   7
ENDBRANCH   2   3
ENDBRANCH   1   2
BRANCH   1  31
ATOM     31  C   UNL A   1      37.595  22.747  25.081  1.00  0.00     0.023 C 
BRANCH  31  32
ATOM     32  C   UNL A   1      38.445  22.417  26.298  1.00  0.00     0.116 C 
BRANCH  32  33
ATOM     33  N   UNL A   1      39.826  22.011  26.013  1.00  0.00    -0.352 N 
ATOM     34  C   UNL A   1      40.967  22.800  26.140  1.00  0.00     0.251 C 
ATOM     35  H   UNL A   1      39.960  21.087  25.702  1.00  0.00     0.163 HD
ATOM     36  O   UNL A   1      42.014  22.531  25.577  1.00  0.00    -0.269 OA
BRANCH  34  37
ATOM     37  C   UNL A   1      40.871  23.979  27.020  1.00  0.00     0.039 A 
ATOM     38  C   UNL A   1      41.659  24.153  28.161  1.00  0.00     0.014 A 
ATOM     39  C   UNL A   1      40.023  24.982  26.576  1.00  0.00     0.014 A 
ATOM     40  C   UNL A   1      41.647  25.400  28.790  1.00  0.00     0.010 A 
ATOM     41  C   UNL A   1      40.208  26.252  27.038  1.00  0.00     0.010 A 
ATOM     42  C   UNL A   1      40.934  26.457  28.202  1.00  0.00    -0.014 A 
BRANCH  42  43
ATOM     43  C   UNL A   1      40.963  27.815  28.736  1.00  0.00     0.031 A 
ATOM     44  C   UNL A   1      42.051  28.687  28.211  1.00  0.00     0.074 A 
ATOM     45  C   UNL A   1      39.947  28.310  29.482  1.00  0.00     0.049 A 
ATOM     46  N   UNL A   1      43.024  29.219  28.874  1.00  0.00    -0.248 NA
ATOM     47  C   UNL A   1      42.132  28.912  26.758  1.00  0.00     0.031 C 
ATOM     48  C   UNL A   1      38.662  27.684  29.833  1.00  0.00     0.029 A 
ATOM     49  N   UNL A   1      39.814  29.551  30.018  1.00  0.00    -0.354 N 
ATOM     50  C   UNL A   1      43.750  29.984  27.963  1.00  0.00     0.074 A 
ATOM     51  C   UNL A   1      43.246  29.642  26.658  1.00  0.00     0.031 C 
ATOM     52  C   UNL A   1      37.804  28.618  30.295  1.00  0.00     0.029 A 
ATOM     53  C   UNL A   1      38.535  29.856  30.467  1.00  0.00     0.049 A 
ATOM     54  H   UNL A   1      40.566  30.184  30.084  1.00  0.00     0.167 HD
ATOM     55  C   UNL A   1      44.571  30.988  28.383  1.00  0.00     0.037 A 
ATOM     56  C   UNL A   1      38.108  31.051  30.941  1.00  0.00     0.037 A 
ATOM     57  C   UNL A   1      44.852  30.868  29.791  1.00  0.00     0.049 A 
ATOM     58  C   UNL A   1      39.316  31.806  31.352  1.00  0.00     0.074 A 
ATOM     59  C   UNL A   1      45.489  29.923  30.572  1.00  0.00     0.029 A 
ATOM     60  N   UNL A   1      44.116  31.633  30.661  1.00  0.00    -0.354 N 
ATOM     61  N   UNL A   1      40.087  31.449  32.343  1.00  0.00    -0.248 NA
ATOM     62  C   UNL A   1      39.931  32.672  30.358  1.00  0.00     0.031 C 
ATOM     63  C   UNL A   1      44.712  29.854  31.767  1.00  0.00     0.029 A 
ATOM     64  C   UNL A   1      43.699  30.810  31.676  1.00  0.00     0.049 A 
ATOM     65  H   UNL A   1      43.924  32.594  30.573  1.00  0.00     0.167 HD
ATOM     66  C   UNL A   1      41.377  31.684  31.888  1.00  0.00     0.074 A 
ATOM     67  C   UNL A   1      41.215  32.505  30.689  1.00  0.00     0.031 C 
ATOM     68  C   UNL A   1      42.433  30.954  32.356  1.00  0.00     0.037 A 
BRANCH  55  69
ATOM     69  C   UNL A   1      44.839  32.267  27.629  1.00  0.00     0.064 A 
ATOM     70  C   UNL A   1      46.048  32.401  26.911  1.00  0.00     0.173 A 
ATOM     71  C   UNL A   1      44.118  33.463  27.829  1.00  0.00     0.173 A 
ATOM     72  F   UNL A   1      46.820  31.332  26.666  1.00  0.00    -0.203 F 
ATOM     73  C   UNL A   1      46.538  33.649  26.514  1.00  0.00     0.198 A 
ATOM     74  C   UNL A   1      44.587  34.700  27.386  1.00  0.00     0.198 A 
ATOM     75  F   UNL A   1      42.997  33.505  28.556  1.00  0.00    -0.203 F 
ATOM     76  F   UNL A   1      47.753  33.739  25.955  1.00  0.00    -0.200 F 
ATOM     77  C   UNL A   1      45.812  34.798  26.761  1.00  0.00     0.200 A 
ATOM     78  F   UNL A   1      43.875  35.805  27.648  1.00  0.00    -0.200 F 
ATOM     79  F   UNL A   1      46.309  36.000  26.444  1.00  0.00    -0.200 F 
ENDBRANCH  55  69
BRANCH  56  80
ATOM     80  C   UNL A   1      36.788  31.692  30.738  1.00  0.00     0.064 A 
ATOM     81  C   UNL A   1      35.933  31.952  31.821  1.00  0.00     0.173 A 
ATOM     82  C   UNL A   1      36.467  32.323  29.520  1.00  0.00     0.173 A 
ATOM     83  F   UNL A   1      36.194  31.425  33.025  1.00  0.00    -0.203 F 
ATOM     84  C   UNL A   1      34.838  32.815  31.699  1.00  0.00     0.198 A 
ATOM     85  C   UNL A   1      35.374  33.182  29.399  1.00  0.00     0.198 A 
ATOM     86  F   UNL A   1      37.266  32.194  28.451  1.00  0.00    -0.203 F 
ATOM     87  F   UNL A   1      34.079  33.088  32.771  1.00  0.00    -0.200 F 
ATOM     88  C   UNL A   1      34.567  33.438  30.492  1.00  0.00     0.200 A 
ATOM     89  F   UNL A   1      35.147  33.810  28.237  1.00  0.00    -0.200 F 
ATOM     90  F   UNL A   1      33.558  34.316  30.394  1.00  0.00    -0.200 F 
ENDBRANCH  56  80
BRANCH  68  91
ATOM     91  C   UNL A   1      42.201  30.054  33.539  1.00  0.00     0.064 A 
ATOM     92  C   UNL A   1      41.825  28.702  33.440  1.00  0.00     0.173 A 
ATOM     93  C   UNL A   1      42.544  30.532  34.810  1.00  0.00     0.173 A 
ATOM     94  F   UNL A   1      41.572  28.142  32.253  1.00  0.00    -0.203 F 
ATOM     95  C   UNL A   1      41.768  27.880  34.565  1.00  0.00     0.198 A 
ATOM     96  C   UNL A   1      42.519  29.700  35.927  1.00  0.00     0.198 A 
ATOM     97  F   UNL A   1      42.962  31.798  34.959  1.00  0.00    -0.203 F 
ATOM     98  F   UNL A   1      41.407  26.594  34.441  1.00  0.00    -0.200 F 
ATOM     99  C   UNL A   1      42.124  28.378  35.806  1.00  0.00     0.200 A 
ATOM    100  F   UNL A   1      42.913  30.175  37.116  1.00  0.00    -0.200 F 
ATOM    101  F   UNL A   1      42.117  27.577  36.880  1.00  0.00    -0.200 F 
ENDBRANCH  68  91
ENDBRANCH  42  43
ENDBRANCH  34  37
ENDBRANCH  32  33
ENDBRANCH  31  32
ENDBRANCH   1  31
TORSDOF 16
ENDMDL
MODEL 2
REMARK VINA RESULT:     -13.7      4.072      9.237
REMARK SMILES COc1cccc(-c2c(C(=O)NCCCCNC(=O)c3ccc(-c4c5nc(c(-c6c(F)c(F)c(F)c(F)c6F)c6ccc([nH]6)c(-c6c(F)c(F)c(F)c(F)c6F)c6nc(c(-c7c(F)c(F)c(F)c(F)c7F)c7ccc4[nH]7)C=C6)C=C5)cc3)nnn2-c2ccc(OC(F)(F)F)cc2)c1
REMARK SMILES IDX 14 1 13 2 12 3 10 4 11 5 9 7 8 8 85 9 83 10 84 11 7 12 3 13
REMARK SMILES IDX 4 14 97 15 5 16 6 17 2 18 1 19 86 20 87 21 96 22 88 23 95 24
REMARK SMILES IDX 89 25 90 26 91 27 92 28 93 29 94 30 15 31 16 32 17 33 18 34
REMARK SMILES IDX 19 36 20 37 21 38 82 39 22 40 81 41 23 42 24 43 25 44 75 45
REMARK SMILES IDX 26 46 80 47 74 48 76 49 27 50 79 51 73 52 72 53 28 55 60 56
REMARK SMILES IDX 40 57 59 58 41 59 44 60 58 61 77 62 42 63 43 64 57 66 78 67
REMARK SMILES IDX 45 68 29 69 30 70 38 71 31 72 32 73 36 74 39 75 33 76 34 77
REMARK SMILES IDX 37 78 35 79 61 80 62 81 70 82 63 83 64 84 68 85 71 86 65 87
REMARK SMILES IDX 66 88 69 89 67 90 46 91 47 92 55 93 48 94 49 95 53 96 56 97
REMARK SMILES IDX 50 98 51 99 54 100 52 101
REMARK H PARENT 12 6 17 35 76 54 44 65
REMARK Flexibility Score: inf
ROOT
ATOM      1  C   UNL A   1      31.770  28.331  27.511  1.00  0.00     0.023 C 
ENDROOT
BRANCH   1   2
ATOM      2  C   UNL A   1      31.569  27.300  26.409  1.00  0.00     0.116 C 
BRANCH   2   3
ATOM      3  N   UNL A   1      32.212  27.513  25.142  1.00  0.00    -0.351 N 
ATOM      4  C   UNL A   1      32.489  26.629  24.113  1.00  0.00     0.274 C 
ATOM      5  O   UNL A   1      32.978  27.157  23.109  1.00  0.00    -0.267 OA
ATOM      6  H   UNL A   1      32.503  28.439  24.979  1.00  0.00     0.163 HD
BRANCH   4   7
ATOM      7  C   UNL A   1      32.291  25.163  24.154  1.00  0.00     0.178 A 
ATOM      8  C   UNL A   1      33.107  24.034  24.305  1.00  0.00     0.108 A 
ATOM      9  N   UNL A   1      32.212  22.963  24.249  1.00  0.00    -0.212 N 
ATOM     10  N   UNL A   1      30.990  24.709  23.976  1.00  0.00    -0.124 NA
ATOM     11  N   UNL A   1      30.983  23.390  23.918  1.00  0.00    -0.061 NA
BRANCH   8  12
ATOM     12  C   UNL A   1      34.554  23.800  24.273  1.00  0.00     0.006 A 
ATOM     13  C   UNL A   1      36.637  23.678  25.541  1.00  0.00     0.119 A 
ATOM     14  C   UNL A   1      37.267  23.157  24.412  1.00  0.00     0.046 A 
ATOM     15  C   UNL A   1      35.291  24.023  25.462  1.00  0.00     0.056 A 
ATOM     16  C   UNL A   1      36.558  22.961  23.222  1.00  0.00     0.005 A 
ATOM     17  C   UNL A   1      35.200  23.281  23.148  1.00  0.00     0.011 A 
BRANCH  13  18
ATOM     18  O   UNL A   1      37.423  23.836  26.647  1.00  0.00    -0.497 OA
ATOM     19  C   UNL A   1      38.692  24.451  26.435  1.00  0.00     0.278 C 
ENDBRANCH  13  18
ENDBRANCH   8  12
BRANCH   9  20
ATOM     20  C   UNL A   1      32.517  21.586  24.375  1.00  0.00     0.067 A 
ATOM     21  C   UNL A   1      32.792  21.044  25.631  1.00  0.00     0.032 A 
ATOM     22  C   UNL A   1      32.434  20.754  23.253  1.00  0.00     0.032 A 
ATOM     23  C   UNL A   1      32.885  19.653  25.763  1.00  0.00     0.049 A 
ATOM     24  C   UNL A   1      32.554  19.372  23.390  1.00  0.00     0.049 A 
ATOM     25  C   UNL A   1      32.752  18.810  24.650  1.00  0.00     0.129 A 
BRANCH  25  26
ATOM     26  O   UNL A   1      32.827  17.474  24.926  1.00  0.00    -0.406 OA
BRANCH  26  27
ATOM     27  C   UNL A   1      34.015  16.796  24.547  1.00  0.00     0.573 C 
ATOM     28  F   UNL A   1      34.991  17.668  24.210  1.00  0.00    -0.132 F 
ATOM     29  F   UNL A   1      34.454  15.994  25.540  1.00  0.00    -0.132 F 
ATOM     30  F   UNL A   1      33.752  16.026  23.470  1.00  0.00    -0.132 F 
ENDBRANCH  26  27
ENDBRANCH  25  26
ENDBRANCH   9  20
ENDBRANCH   4   7
ENDBRANCH   2   3
ENDBRANCH   1   2
BRANCH   1  31
ATOM     31  C   UNL A   1      32.309  29.701  27.120  1.00  0.00     0.023 C 
BRANCH  31  32
ATOM     32  C   UNL A   1      33.797  29.904  27.359  1.00  0.00     0.116 C 
BRANCH  32  33
ATOM     33  N   UNL A   1      34.300  31.258  27.099  1.00  0.00    -0.352 N 
ATOM     34  C   UNL A   1      35.447  31.837  27.638  1.00  0.00     0.251 C 
ATOM     35  H   UNL A   1      33.774  31.814  26.479  1.00  0.00     0.163 HD
ATOM     36  O   UNL A   1      35.622  33.042  27.660  1.00  0.00    -0.269 OA
BRANCH  34  37
ATOM     37  C   UNL A   1      36.474  30.920  28.166  1.00  0.00     0.039 A 
ATOM     38  C   UNL A   1      36.501  29.552  27.885  1.00  0.00     0.014 A 
ATOM     39  C   UNL A   1      37.502  31.526  28.873  1.00  0.00     0.014 A 
ATOM     40  C   UNL A   1      37.636  28.823  28.246  1.00  0.00     0.010 A 
ATOM     41  C   UNL A   1      38.693  30.872  28.992  1.00  0.00     0.010 A 
ATOM     42  C   UNL A   1      38.744  29.502  28.779  1.00  0.00    -0.014 A 
BRANCH  42  43
ATOM     43  C   UNL A   1      40.006  28.831  29.077  1.00  0.00     0.031 A 
ATOM     44  C   UNL A   1      40.294  28.622  30.524  1.00  0.00     0.074 A 
ATOM     45  C   UNL A   1      40.749  28.247  28.108  1.00  0.00     0.049 A 
ATOM     46  N   UNL A   1      41.270  29.116  31.212  1.00  0.00    -0.248 NA
ATOM     47  C   UNL A   1      39.327  27.860  31.330  1.00  0.00     0.031 C 
ATOM     48  C   UNL A   1      40.453  28.096  26.674  1.00  0.00     0.029 A 
ATOM     49  N   UNL A   1      41.917  27.564  28.230  1.00  0.00    -0.354 N 
ATOM     50  C   UNL A   1      41.145  28.599  32.500  1.00  0.00     0.074 A 
ATOM     51  C   UNL A   1      39.857  27.955  32.552  1.00  0.00     0.031 C 
ATOM     52  C   UNL A   1      41.273  27.173  26.128  1.00  0.00     0.029 A 
ATOM     53  C   UNL A   1      42.277  26.824  27.110  1.00  0.00     0.049 A 
ATOM     54  H   UNL A   1      42.465  27.592  29.048  1.00  0.00     0.167 HD
ATOM     55  C   UNL A   1      42.206  28.572  33.355  1.00  0.00     0.037 A 
ATOM     56  C   UNL A   1      43.328  25.976  27.005  1.00  0.00     0.037 A 
ATOM     57  C   UNL A   1      43.254  29.451  32.901  1.00  0.00     0.049 A 
ATOM     58  C   UNL A   1      44.281  26.338  28.082  1.00  0.00     0.074 A 
ATOM     59  C   UNL A   1      43.354  30.814  32.704  1.00  0.00     0.029 A 
ATOM     60  N   UNL A   1      44.300  28.898  32.204  1.00  0.00    -0.354 N 
ATOM     61  N   UNL A   1      44.927  27.471  28.122  1.00  0.00    -0.248 NA
ATOM     62  C   UNL A   1      44.140  25.651  29.356  1.00  0.00     0.031 C 
ATOM     63  C   UNL A   1      44.124  30.955  31.511  1.00  0.00     0.029 A 
ATOM     64  C   UNL A   1      44.511  29.679  31.097  1.00  0.00     0.049 A 
ATOM     65  H   UNL A   1      44.804  28.091  32.454  1.00  0.00     0.167 HD
ATOM     66  C   UNL A   1      44.901  27.846  29.458  1.00  0.00     0.074 A 
ATOM     67  C   UNL A   1      44.467  26.651  30.180  1.00  0.00     0.031 C 
ATOM     68  C   UNL A   1      44.951  29.161  29.822  1.00  0.00     0.037 A 
BRANCH  55  69
ATOM     69  C   UNL A   1      42.459  27.511  34.398  1.00  0.00     0.064 A 
ATOM     70  C   UNL A   1      43.051  26.291  34.008  1.00  0.00     0.173 A 
ATOM     71  C   UNL A   1      41.872  27.518  35.681  1.00  0.00     0.173 A 
ATOM     72  F   UNL A   1      43.634  26.166  32.807  1.00  0.00    -0.203 F 
ATOM     73  C   UNL A   1      42.974  25.143  34.803  1.00  0.00     0.198 A 
ATOM     74  C   UNL A   1      41.842  26.383  36.492  1.00  0.00     0.198 A 
ATOM     75  F   UNL A   1      41.206  28.576  36.154  1.00  0.00    -0.203 F 
ATOM     76  F   UNL A   1      43.434  23.976  34.333  1.00  0.00    -0.200 F 
ATOM     77  C   UNL A   1      42.361  25.188  36.040  1.00  0.00     0.200 A 
ATOM     78  F   UNL A   1      41.229  26.443  37.683  1.00  0.00    -0.200 F 
ATOM     79  F   UNL A   1      42.223  24.077  36.774  1.00  0.00    -0.200 F 
ENDBRANCH  55  69
BRANCH  56  80
ATOM     80  C   UNL A   1      43.391  24.689  26.274  1.00  0.00     0.064 A 
ATOM     81  C   UNL A   1      44.349  24.468  25.273  1.00  0.00     0.173 A 
ATOM     82  C   UNL A   1      42.702  23.554  26.744  1.00  0.00     0.173 A 
ATOM     83  F   UNL A   1      45.079  25.491  24.803  1.00  0.00    -0.203 F 
ATOM     84  C   UNL A   1      44.623  23.183  24.790  1.00  0.00     0.198 A 
ATOM     85  C   UNL A   1      42.973  22.273  26.261  1.00  0.00     0.198 A 
ATOM     86  F   UNL A   1      41.821  23.655  27.750  1.00  0.00    -0.203 F 
ATOM     87  F   UNL A   1      45.589  23.003  23.878  1.00  0.00    -0.200 F 
ATOM     88  C   UNL A   1      43.944  22.086  25.293  1.00  0.00     0.200 A 
ATOM     89  F   UNL A   1      42.338  21.215  26.785  1.00  0.00    -0.200 F 
ATOM     90  F   UNL A   1      44.253  20.849  24.880  1.00  0.00    -0.200 F 
ENDBRANCH  56  80
BRANCH  68  91
ATOM     91  C   UNL A   1      45.269  30.177  28.759  1.00  0.00     0.064 A 
ATOM     92  C   UNL A   1      44.302  30.809  27.958  1.00  0.00     0.173 A 
ATOM     93  C   UNL A   1      46.583  30.654  28.674  1.00  0.00     0.173 A 
ATOM     94  F   UNL A   1      43.009  30.479  28.046  1.00  0.00    -0.203 F 
ATOM     95  C   UNL A   1      44.642  31.849  27.092  1.00  0.00     0.198 A 
ATOM     96  C   UNL A   1      46.914  31.715  27.834  1.00  0.00     0.198 A 
ATOM     97  F   UNL A   1      47.539  30.127  29.454  1.00  0.00    -0.203 F 
ATOM     98  F   UNL A   1      43.698  32.434  26.340  1.00  0.00    -0.200 F 
ATOM     99  C   UNL A   1      45.947  32.307  27.039  1.00  0.00     0.200 A 
ATOM    100  F   UNL A   1      48.169  32.186  27.824  1.00  0.00    -0.200 F 
ATOM    101  F   UNL A   1      46.267  33.337  26.244  1.00  0.00    -0.200 F 
ENDBRANCH  68  91
ENDBRANCH  42  43
ENDBRANCH  34  37
ENDBRANCH  32  33
ENDBRANCH  31  32
ENDBRANCH   1  31
TORSDOF 16
ENDMDL
MODEL 3
REMARK VINA RESULT:     -13.4      3.050      5.024
REMARK SMILES COc1cccc(-c2c(C(=O)NCCCCNC(=O)c3ccc(-c4c5nc(c(-c6c(F)c(F)c(F)c(F)c6F)c6ccc([nH]6)c(-c6c(F)c(F)c(F)c(F)c6F)c6nc(c(-c7c(F)c(F)c(F)c(F)c7F)c7ccc4[nH]7)C=C6)C=C5)cc3)nnn2-c2ccc(OC(F)(F)F)cc2)c1
REMARK SMILES IDX 14 1 13 2 12 3 10 4 11 5 9 7 8 8 85 9 83 10 84 11 7 12 3 13
REMARK SMILES IDX 4 14 97 15 5 16 6 17 2 18 1 19 86 20 87 21 96 22 88 23 95 24
REMARK SMILES IDX 89 25 90 26 91 27 92 28 93 29 94 30 15 31 16 32 17 33 18 34
REMARK SMILES IDX 19 36 20 37 21 38 82 39 22 40 81 41 23 42 24 43 25 44 75 45
REMARK SMILES IDX 26 46 80 47 74 48 76 49 27 50 79 51 73 52 72 53 28 55 60 56
REMARK SMILES IDX 40 57 59 58 41 59 44 60 58 61 77 62 42 63 43 64 57 66 78 67
REMARK SMILES IDX 45 68 29 69 30 70 38 71 31 72 32 73 36 74 39 75 33 76 34 77
REMARK SMILES IDX 37 78 35 79 61 80 62 81 70 82 63 83 64 84 68 85 71 86 65 87
REMARK SMILES IDX 66 88 69 89 67 90 46 91 47 92 55 93 48 94 49 95 53 96 56 97
REMARK SMILES IDX 50 98 51 99 54 100 52 101
REMARK H PARENT 12 6 17 35 76 54 44 65
REMARK Flexibility Score: inf
ROOT
ATOM      1  C   UNL A   1      40.922  20.947  27.478  1.00  0.00     0.023 C 
ENDROOT
BRANCH   1   2
ATOM      2  C   UNL A   1      40.012  21.433  26.360  1.00  0.00     0.116 C 
BRANCH   2   3
ATOM      3  N   UNL A   1      39.105  20.498  25.755  1.00  0.00    -0.351 N 
ATOM      4  C   UNL A   1      37.819  20.675  25.272  1.00  0.00     0.274 C 
ATOM      5  O   UNL A   1      37.341  19.674  24.726  1.00  0.00    -0.267 OA
ATOM      6  H   UNL A   1      39.454  19.581  25.671  1.00  0.00     0.163 HD
BRANCH   4   7
ATOM      7  C   UNL A   1      37.006  21.904  25.403  1.00  0.00     0.178 A 
ATOM      8  C   UNL A   1      35.662  22.254  25.221  1.00  0.00     0.108 A 
ATOM      9  N   UNL A   1      35.623  23.613  25.542  1.00  0.00    -0.212 N 
ATOM     10  N   UNL A   1      37.686  23.059  25.770  1.00  0.00    -0.124 NA
ATOM     11  N   UNL A   1      36.862  24.091  25.732  1.00  0.00    -0.061 NA
BRANCH   8  12
ATOM     12  C   UNL A   1      34.503  21.598  24.609  1.00  0.00     0.006 A 
ATOM     13  C   UNL A   1      32.789  19.870  24.803  1.00  0.00     0.119 A 
ATOM     14  C   UNL A   1      32.154  20.405  23.684  1.00  0.00     0.046 A 
ATOM     15  C   UNL A   1      33.974  20.449  25.248  1.00  0.00     0.056 A 
ATOM     16  C   UNL A   1      32.683  21.520  23.026  1.00  0.00     0.005 A 
ATOM     17  C   UNL A   1      33.858  22.121  23.485  1.00  0.00     0.011 A 
BRANCH  13  18
ATOM     18  O   UNL A   1      32.193  18.776  25.364  1.00  0.00    -0.497 OA
ATOM     19  C   UNL A   1      32.665  17.505  24.924  1.00  0.00     0.278 C 
ENDBRANCH  13  18
ENDBRANCH   8  12
BRANCH   9  20
ATOM     20  C   UNL A   1      34.487  24.459  25.546  1.00  0.00     0.067 A 
ATOM     21  C   UNL A   1      33.474  24.262  26.485  1.00  0.00     0.032 A 
ATOM     22  C   UNL A   1      34.437  25.555  24.677  1.00  0.00     0.032 A 
ATOM     23  C   UNL A   1      32.468  25.227  26.609  1.00  0.00     0.049 A 
ATOM     24  C   UNL A   1      33.416  26.497  24.790  1.00  0.00     0.049 A 
ATOM     25  C   UNL A   1      32.440  26.355  25.774  1.00  0.00     0.129 A 
BRANCH  25  26
ATOM     26  O   UNL A   1      31.425  27.234  26.026  1.00  0.00    -0.406 OA
BRANCH  26  27
ATOM     27  C   UNL A   1      31.704  28.319  26.898  1.00  0.00     0.573 C 
ATOM     28  F   UNL A   1      32.999  28.316  27.285  1.00  0.00    -0.132 F 
ATOM     29  F   UNL A   1      31.415  29.500  26.310  1.00  0.00    -0.132 F 
ATOM     30  F   UNL A   1      30.936  28.199  28.002  1.00  0.00    -0.132 F 
ENDBRANCH  26  27
ENDBRANCH  25  26
ENDBRANCH   9  20
ENDBRANCH   4   7
ENDBRANCH   2   3
ENDBRANCH   1   2
BRANCH   1  31
ATOM     31  C   UNL A   1      42.185  20.186  27.095  1.00  0.00     0.023 C 
BRANCH  31  32
ATOM     32  C   UNL A   1      42.275  19.775  25.634  1.00  0.00     0.116 C 
BRANCH  32  33
ATOM     33  N   UNL A   1      43.613  19.392  25.166  1.00  0.00    -0.352 N 
ATOM     34  C   UNL A   1      44.605  20.249  24.693  1.00  0.00     0.251 C 
ATOM     35  H   UNL A   1      43.832  18.433  25.191  1.00  0.00     0.163 HD
ATOM     36  O   UNL A   1      45.538  19.858  24.015  1.00  0.00    -0.269 OA
BRANCH  34  37
ATOM     37  C   UNL A   1      44.500  21.669  25.075  1.00  0.00     0.039 A 
ATOM     38  C   UNL A   1      43.564  22.547  24.522  1.00  0.00     0.014 A 
ATOM     39  C   UNL A   1      45.318  22.063  26.124  1.00  0.00     0.014 A 
ATOM     40  C   UNL A   1      43.401  23.801  25.114  1.00  0.00     0.010 A 
ATOM     41  C   UNL A   1      44.979  23.173  26.841  1.00  0.00     0.010 A 
ATOM     42  C   UNL A   1      44.099  24.096  26.296  1.00  0.00    -0.014 A 
BRANCH  42  43
ATOM     43  C   UNL A   1      43.900  25.339  27.035  1.00  0.00     0.031 A 
ATOM     44  C   UNL A   1      44.871  26.427  26.733  1.00  0.00     0.074 A 
ATOM     45  C   UNL A   1      42.786  25.559  27.773  1.00  0.00     0.049 A 
ATOM     46  N   UNL A   1      45.720  26.972  27.541  1.00  0.00    -0.248 NA
ATOM     47  C   UNL A   1      44.992  26.897  25.343  1.00  0.00     0.031 C 
ATOM     48  C   UNL A   1      41.592  24.713  27.927  1.00  0.00     0.029 A 
ATOM     49  N   UNL A   1      42.444  26.665  28.484  1.00  0.00    -0.354 N 
ATOM     50  C   UNL A   1      46.371  27.969  26.816  1.00  0.00     0.074 A 
ATOM     51  C   UNL A   1      45.989  27.780  25.440  1.00  0.00     0.031 C 
ATOM     52  C   UNL A   1      40.583  25.431  28.465  1.00  0.00     0.029 A 
ATOM     53  C   UNL A   1      41.113  26.712  28.880  1.00  0.00     0.049 A 
ATOM     54  H   UNL A   1      43.089  27.376  28.702  1.00  0.00     0.167 HD
ATOM     55  C   UNL A   1      47.011  28.994  27.446  1.00  0.00     0.037 A 
ATOM     56  C   UNL A   1      40.490  27.742  29.502  1.00  0.00     0.037 A 
ATOM     57  C   UNL A   1      47.236  28.684  28.834  1.00  0.00     0.049 A 
ATOM     58  C   UNL A   1      41.551  28.579  30.112  1.00  0.00     0.074 A 
ATOM     59  C   UNL A   1      47.966  27.721  29.504  1.00  0.00     0.029 A 
ATOM     60  N   UNL A   1      46.352  29.187  29.757  1.00  0.00    -0.354 N 
ATOM     61  N   UNL A   1      42.316  28.174  31.089  1.00  0.00    -0.248 NA
ATOM     62  C   UNL A   1      42.080  29.673  29.313  1.00  0.00     0.031 C 
ATOM     63  C   UNL A   1      47.149  27.350  30.613  1.00  0.00     0.029 A 
ATOM     64  C   UNL A   1      46.011  28.159  30.598  1.00  0.00     0.049 A 
ATOM     65  H   UNL A   1      46.024  30.114  29.805  1.00  0.00     0.167 HD
ATOM     66  C   UNL A   1      43.577  28.656  30.773  1.00  0.00     0.074 A 
ATOM     67  C   UNL A   1      43.356  29.633  29.707  1.00  0.00     0.031 C 
ATOM     68  C   UNL A   1      44.705  28.013  31.197  1.00  0.00     0.037 A 
BRANCH  55  69
ATOM     69  C   UNL A   1      47.125  30.404  26.921  1.00  0.00     0.064 A 
ATOM     70  C   UNL A   1      48.372  31.061  26.979  1.00  0.00     0.173 A 
ATOM     71  C   UNL A   1      46.015  31.235  26.654  1.00  0.00     0.173 A 
ATOM     72  F   UNL A   1      49.496  30.374  27.231  1.00  0.00    -0.203 F 
ATOM     73  C   UNL A   1      48.483  32.451  26.875  1.00  0.00     0.198 A 
ATOM     74  C   UNL A   1      46.137  32.616  26.501  1.00  0.00     0.198 A 
ATOM     75  F   UNL A   1      44.762  30.768  26.647  1.00  0.00    -0.203 F 
ATOM     76  F   UNL A   1      49.671  33.040  27.070  1.00  0.00    -0.200 F 
ATOM     77  C   UNL A   1      47.364  33.228  26.646  1.00  0.00     0.200 A 
ATOM     78  F   UNL A   1      45.037  33.354  26.294  1.00  0.00    -0.200 F 
ATOM     79  F   UNL A   1      47.455  34.563  26.615  1.00  0.00    -0.200 F 
ENDBRANCH  55  69
BRANCH  56  80
ATOM     80  C   UNL A   1      39.101  28.220  29.305  1.00  0.00     0.064 A 
ATOM     81  C   UNL A   1      38.234  28.400  30.394  1.00  0.00     0.173 A 
ATOM     82  C   UNL A   1      38.695  28.782  28.079  1.00  0.00     0.173 A 
ATOM     83  F   UNL A   1      38.569  27.932  31.605  1.00  0.00    -0.203 F 
ATOM     84  C   UNL A   1      37.044  29.125  30.270  1.00  0.00     0.198 A 
ATOM     85  C   UNL A   1      37.507  29.504  27.956  1.00  0.00     0.198 A 
ATOM     86  F   UNL A   1      39.491  28.726  27.001  1.00  0.00    -0.203 F 
ATOM     87  F   UNL A   1      36.271  29.329  31.347  1.00  0.00    -0.200 F 
ATOM     88  C   UNL A   1      36.687  29.687  29.056  1.00  0.00     0.200 A 
ATOM     89  F   UNL A   1      37.194  30.077  26.785  1.00  0.00    -0.200 F 
ATOM     90  F   UNL A   1      35.581  30.438  28.954  1.00  0.00    -0.200 F 
ENDBRANCH  56  80
BRANCH  68  91
ATOM     91  C   UNL A   1      44.550  26.907  32.206  1.00  0.00     0.064 A 
ATOM     92  C   UNL A   1      44.461  25.543  31.874  1.00  0.00     0.173 A 
ATOM     93  C   UNL A   1      44.674  27.230  33.564  1.00  0.00     0.173 A 
ATOM     94  F   UNL A   1      44.434  25.144  30.598  1.00  0.00    -0.203 F 
ATOM     95  C   UNL A   1      44.466  24.554  32.857  1.00  0.00     0.198 A 
ATOM     96  C   UNL A   1      44.713  26.239  34.541  1.00  0.00     0.198 A 
ATOM     97  F   UNL A   1      44.817  28.510  33.937  1.00  0.00    -0.203 F 
ATOM     98  F   UNL A   1      44.381  23.261  32.511  1.00  0.00    -0.200 F 
ATOM     99  C   UNL A   1      44.602  24.903  34.189  1.00  0.00     0.200 A 
ATOM    100  F   UNL A   1      44.896  26.580  35.824  1.00  0.00    -0.200 F 
ATOM    101  F   UNL A   1      44.657  23.952  35.132  1.00  0.00    -0.200 F 
ENDBRANCH  68  91
ENDBRANCH  42  43
ENDBRANCH  34  37
ENDBRANCH  32  33
ENDBRANCH  31  32
ENDBRANCH   1  31
TORSDOF 16
ENDMDL
