MODEL 1
REMARK VINA RESULT:     -13.0      0.000      0.000
REMARK SMILES COc1ccc([C@H]2CC(c3ccccc3)=NN2C(=O)CCCC(=O)NCCCCNC(=O)c2ccc(-c3c4nc(c(-c5c(F)c(F)c(F)c(F)c5F)c5ccc([nH]5)c(-c5c(F)c(F)c(F)c(F)c5F)c5nc(c(-c6c(F)c(F)c(F)c(F)c6F)c6ccc3[nH]6)C=C5)C=C4)cc2)cc1
REMARK SMILES IDX 23 1 24 2 25 3 22 5 21 6 20 7 18 8 19 9 17 10 7 11 8 12 9 13
REMARK SMILES IDX 16 14 6 15 3 16 4 17 97 18 5 19 96 20 2 21 1 22 10 23 11 24
REMARK SMILES IDX 15 25 12 26 14 27 13 28 26 29 27 30 28 31 29 32 30 33 31 34
REMARK SMILES IDX 32 36 33 37 34 38 95 39 35 40 94 41 36 42 37 43 38 44 88 45
REMARK SMILES IDX 39 46 93 47 87 48 89 49 40 50 92 51 86 52 85 53 41 55 73 56
REMARK SMILES IDX 53 57 72 58 54 59 57 60 71 61 90 62 55 63 56 64 70 66 91 67
REMARK SMILES IDX 58 68 42 69 43 70 51 71 44 72 45 73 49 74 52 75 46 76 47 77
REMARK SMILES IDX 50 78 48 79 74 80 75 81 83 82 76 83 77 84 81 85 84 86 78 87
REMARK SMILES IDX 79 88 82 89 80 90 59 91 60 92 68 93 61 94 62 95 66 96 69 97
REMARK SMILES IDX 63 98 64 99 67 100 65 101
REMARK H PARENT 25 4 30 35 89 54 57 65
REMARK Flexibility Score: inf
ROOT
ATOM      1  C   UNL A   1      33.393  28.699  24.562  1.00  0.00     0.220 C 
ATOM      2  O   UNL A   1      34.128  28.585  23.577  1.00  0.00    -0.275 OA
ATOM      3  N   UNL A   1      32.236  29.380  24.370  1.00  0.00    -0.356 N 
ATOM      4  H   UNL A   1      31.971  29.501  23.430  1.00  0.00     0.163 HD
ENDROOT
BRANCH   1   5
ATOM      5  C   UNL A   1      33.690  27.923  25.833  1.00  0.00     0.100 C 
BRANCH   5   6
ATOM      6  C   UNL A   1      33.581  26.427  26.039  1.00  0.00     0.020 C 
BRANCH   6   7
ATOM      7  C   UNL A   1      34.399  25.414  25.240  1.00  0.00     0.103 C 
BRANCH   7   8
ATOM      8  C   UNL A   1      34.645  23.914  25.509  1.00  0.00     0.243 C 
ATOM      9  O   UNL A   1      35.694  23.655  26.127  1.00  0.00    -0.273 OA
BRANCH   8  10
ATOM     10  N   UNL A   1      33.696  22.915  25.327  1.00  0.00    -0.225 N 
ATOM     11  C   UNL A   1      32.218  22.876  25.439  1.00  0.00     0.147 C 
ATOM     12  C   UNL A   1      31.823  21.457  25.039  1.00  0.00     0.091 C 
ATOM     13  C   UNL A   1      33.162  20.917  24.663  1.00  0.00     0.071 C 
ATOM     14  N   UNL A   1      34.173  21.706  24.834  1.00  0.00    -0.174 NA
BRANCH  11  15
ATOM     15  C   UNL A   1      31.475  23.897  24.588  1.00  0.00    -0.023 A 
ATOM     16  C   UNL A   1      30.604  26.212  23.298  1.00  0.00     0.118 A 
ATOM     17  C   UNL A   1      30.187  25.958  24.599  1.00  0.00     0.047 A 
ATOM     18  C   UNL A   1      31.361  25.274  22.598  1.00  0.00     0.047 A 
ATOM     19  C   UNL A   1      30.582  24.779  25.231  1.00  0.00     0.010 A 
ATOM     20  C   UNL A   1      31.784  24.108  23.237  1.00  0.00     0.010 A 
BRANCH  16  21
ATOM     21  O   UNL A   1      30.399  27.472  22.806  1.00  0.00    -0.497 OA
ATOM     22  C   UNL A   1      29.103  27.960  23.126  1.00  0.00     0.278 C 
ENDBRANCH  16  21
ENDBRANCH  11  15
BRANCH  13  23
ATOM     23  C   UNL A   1      33.287  19.550  24.151  1.00  0.00    -0.002 A 
ATOM     24  C   UNL A   1      34.305  18.722  24.626  1.00  0.00     0.010 A 
ATOM     25  C   UNL A   1      32.393  19.104  23.176  1.00  0.00     0.010 A 
ATOM     26  C   UNL A   1      34.424  17.427  24.121  1.00  0.00     0.001 A 
ATOM     27  C   UNL A   1      32.528  17.814  22.664  1.00  0.00     0.001 A 
ATOM     28  C   UNL A   1      33.540  16.976  23.138  1.00  0.00     0.000 A 
ENDBRANCH  13  23
ENDBRANCH   8  10
ENDBRANCH   7   8
ENDBRANCH   6   7
ENDBRANCH   5   6
ENDBRANCH   1   5
BRANCH   3  29
ATOM     29  C   UNL A   1      31.340  29.952  25.338  1.00  0.00     0.116 C 
BRANCH  29  30
ATOM     30  C   UNL A   1      32.139  30.557  26.488  1.00  0.00     0.023 C 
BRANCH  30  31
ATOM     31  C   UNL A   1      31.763  32.011  26.758  1.00  0.00     0.023 C 
BRANCH  31  32
ATOM     32  C   UNL A   1      32.923  32.853  27.269  1.00  0.00     0.116 C 
BRANCH  32  33
ATOM     33  N   UNL A   1      32.526  34.209  27.626  1.00  0.00    -0.352 N 
ATOM     34  C   UNL A   1      33.028  34.974  28.648  1.00  0.00     0.251 C 
ATOM     35  H   UNL A   1      31.821  34.620  27.074  1.00  0.00     0.163 HD
ATOM     36  O   UNL A   1      32.547  36.062  28.942  1.00  0.00    -0.269 OA
BRANCH  34  37
ATOM     37  C   UNL A   1      34.159  34.420  29.406  1.00  0.00     0.039 A 
ATOM     38  C   UNL A   1      33.901  33.627  30.524  1.00  0.00     0.014 A 
ATOM     39  C   UNL A   1      35.453  34.568  28.898  1.00  0.00     0.014 A 
ATOM     40  C   UNL A   1      34.954  32.931  31.114  1.00  0.00     0.010 A 
ATOM     41  C   UNL A   1      36.481  33.815  29.442  1.00  0.00     0.010 A 
ATOM     42  C   UNL A   1      36.242  32.995  30.557  1.00  0.00    -0.014 A 
BRANCH  42  43
ATOM     43  C   UNL A   1      37.368  32.229  31.141  1.00  0.00     0.031 A 
ATOM     44  C   UNL A   1      37.861  32.583  32.514  1.00  0.00     0.074 A 
ATOM     45  C   UNL A   1      37.988  31.284  30.408  1.00  0.00     0.049 A 
ATOM     46  N   UNL A   1      38.885  32.105  33.174  1.00  0.00    -0.248 NA
ATOM     47  C   UNL A   1      37.131  33.645  33.227  1.00  0.00     0.031 C 
ATOM     48  C   UNL A   1      37.641  30.909  29.036  1.00  0.00     0.029 A 
ATOM     49  N   UNL A   1      39.055  30.478  30.711  1.00  0.00    -0.354 N 
ATOM     50  C   UNL A   1      38.937  32.827  34.358  1.00  0.00     0.074 A 
ATOM     51  C   UNL A   1      37.877  33.808  34.310  1.00  0.00     0.031 C 
ATOM     52  C   UNL A   1      38.469  29.936  28.622  1.00  0.00     0.029 A 
ATOM     53  C   UNL A   1      39.423  29.639  29.686  1.00  0.00     0.049 A 
ATOM     54  H   UNL A   1      39.516  30.498  31.582  1.00  0.00     0.167 HD
ATOM     55  C   UNL A   1      39.780  32.666  35.403  1.00  0.00     0.037 A 
ATOM     56  C   UNL A   1      40.421  28.738  29.619  1.00  0.00     0.037 A 
ATOM     57  C   UNL A   1      40.790  31.645  35.469  1.00  0.00     0.049 A 
ATOM     58  C   UNL A   1      41.305  28.540  30.822  1.00  0.00     0.074 A 
ATOM     59  C   UNL A   1      41.629  31.330  36.523  1.00  0.00     0.029 A 
ATOM     60  N   UNL A   1      41.090  30.769  34.437  1.00  0.00    -0.354 N 
ATOM     61  N   UNL A   1      41.285  29.165  31.974  1.00  0.00    -0.248 NA
ATOM     62  C   UNL A   1      42.341  27.504  30.721  1.00  0.00     0.031 C 
ATOM     63  C   UNL A   1      42.463  30.285  36.115  1.00  0.00     0.029 A 
ATOM     64  C   UNL A   1      42.114  29.922  34.824  1.00  0.00     0.049 A 
ATOM     65  H   UNL A   1      40.642  30.750  33.561  1.00  0.00     0.167 HD
ATOM     66  C   UNL A   1      42.284  28.581  32.742  1.00  0.00     0.074 A 
ATOM     67  C   UNL A   1      42.879  27.540  31.932  1.00  0.00     0.031 C 
ATOM     68  C   UNL A   1      42.677  28.881  34.005  1.00  0.00     0.037 A 
BRANCH  55  69
ATOM     69  C   UNL A   1      39.638  33.599  36.567  1.00  0.00     0.064 A 
ATOM     70  C   UNL A   1      40.292  34.839  36.602  1.00  0.00     0.173 A 
ATOM     71  C   UNL A   1      38.796  33.269  37.639  1.00  0.00     0.173 A 
ATOM     72  F   UNL A   1      41.120  35.194  35.608  1.00  0.00    -0.203 F 
ATOM     73  C   UNL A   1      40.122  35.708  37.676  1.00  0.00     0.198 A 
ATOM     74  C   UNL A   1      38.606  34.153  38.698  1.00  0.00     0.198 A 
ATOM     75  F   UNL A   1      38.148  32.095  37.655  1.00  0.00    -0.203 F 
ATOM     76  F   UNL A   1      40.788  36.871  37.706  1.00  0.00    -0.200 F 
ATOM     77  C   UNL A   1      39.272  35.369  38.718  1.00  0.00     0.200 A 
ATOM     78  F   UNL A   1      37.777  33.828  39.701  1.00  0.00    -0.200 F 
ATOM     79  F   UNL A   1      39.100  36.213  39.745  1.00  0.00    -0.200 F 
ENDBRANCH  55  69
BRANCH  56  80
ATOM     80  C   UNL A   1      40.627  27.937  28.384  1.00  0.00     0.064 A 
ATOM     81  C   UNL A   1      40.043  26.671  28.238  1.00  0.00     0.173 A 
ATOM     82  C   UNL A   1      41.435  28.406  27.338  1.00  0.00     0.173 A 
ATOM     83  F   UNL A   1      39.278  26.171  29.219  1.00  0.00    -0.203 F 
ATOM     84  C   UNL A   1      40.284  25.892  27.109  1.00  0.00     0.198 A 
ATOM     85  C   UNL A   1      41.652  27.638  26.195  1.00  0.00     0.198 A 
ATOM     86  F   UNL A   1      42.011  29.614  27.423  1.00  0.00    -0.203 F 
ATOM     87  F   UNL A   1      39.759  24.662  27.022  1.00  0.00    -0.200 F 
ATOM     88  C   UNL A   1      41.086  26.376  26.086  1.00  0.00     0.200 A 
ATOM     89  F   UNL A   1      42.416  28.115  25.205  1.00  0.00    -0.200 F 
ATOM     90  F   UNL A   1      41.321  25.625  25.003  1.00  0.00    -0.200 F 
ENDBRANCH  56  80
BRANCH  68  91
ATOM     91  C   UNL A   1      43.775  28.051  34.598  1.00  0.00     0.064 A 
ATOM     92  C   UNL A   1      45.123  28.417  34.469  1.00  0.00     0.173 A 
ATOM     93  C   UNL A   1      43.470  26.906  35.349  1.00  0.00     0.173 A 
ATOM     94  F   UNL A   1      45.463  29.496  33.749  1.00  0.00    -0.203 F 
ATOM     95  C   UNL A   1      46.128  27.653  35.054  1.00  0.00     0.198 A 
ATOM     96  C   UNL A   1      44.476  26.162  35.956  1.00  0.00     0.198 A 
ATOM     97  F   UNL A   1      42.195  26.521  35.508  1.00  0.00    -0.203 F 
ATOM     98  F   UNL A   1      47.412  27.997  34.884  1.00  0.00    -0.200 F 
ATOM     99  C   UNL A   1      45.804  26.531  35.803  1.00  0.00     0.200 A 
ATOM    100  F   UNL A   1      44.160  25.086  36.692  1.00  0.00    -0.200 F 
ATOM    101  F   UNL A   1      46.773  25.803  36.374  1.00  0.00    -0.200 F 
ENDBRANCH  68  91
ENDBRANCH  42  43
ENDBRANCH  34  37
ENDBRANCH  32  33
ENDBRANCH  31  32
ENDBRANCH  30  31
ENDBRANCH  29  30
ENDBRANCH   3  29
TORSDOF 18
ENDMDL
MODEL 2
REMARK VINA RESULT:     -12.9      5.215      9.304
REMARK SMILES COc1ccc([C@H]2CC(c3ccccc3)=NN2C(=O)CCCC(=O)NCCCCNC(=O)c2ccc(-c3c4nc(c(-c5c(F)c(F)c(F)c(F)c5F)c5ccc([nH]5)c(-c5c(F)c(F)c(F)c(F)c5F)c5nc(c(-c6c(F)c(F)c(F)c(F)c6F)c6ccc3[nH]6)C=C5)C=C4)cc2)cc1
REMARK SMILES IDX 23 1 24 2 25 3 22 5 21 6 20 7 18 8 19 9 17 10 7 11 8 12 9 13
REMARK SMILES IDX 16 14 6 15 3 16 4 17 97 18 5 19 96 20 2 21 1 22 10 23 11 24
REMARK SMILES IDX 15 25 12 26 14 27 13 28 26 29 27 30 28 31 29 32 30 33 31 34
REMARK SMILES IDX 32 36 33 37 34 38 95 39 35 40 94 41 36 42 37 43 38 44 88 45
REMARK SMILES IDX 39 46 93 47 87 48 89 49 40 50 92 51 86 52 85 53 41 55 73 56
REMARK SMILES IDX 53 57 72 58 54 59 57 60 71 61 90 62 55 63 56 64 70 66 91 67
REMARK SMILES IDX 58 68 42 69 43 70 51 71 44 72 45 73 49 74 52 75 46 76 47 77
REMARK SMILES IDX 50 78 48 79 74 80 75 81 83 82 76 83 77 84 81 85 84 86 78 87
REMARK SMILES IDX 79 88 82 89 80 90 59 91 60 92 68 93 61 94 62 95 66 96 69 97
REMARK SMILES IDX 63 98 64 99 67 100 65 101
REMARK H PARENT 25 4 30 35 89 54 57 65
REMARK Flexibility Score: inf
ROOT
ATOM      1  C   UNL A   1      35.002  23.062  26.468  1.00  0.00     0.220 C 
ATOM      2  O   UNL A   1      34.655  22.930  27.645  1.00  0.00    -0.275 OA
ATOM      3  N   UNL A   1      35.387  21.930  25.826  1.00  0.00    -0.356 N 
ATOM      4  H   UNL A   1      35.121  21.089  26.263  1.00  0.00     0.163 HD
ENDROOT
BRANCH   1   5
ATOM      5  C   UNL A   1      34.788  24.383  25.750  1.00  0.00     0.100 C 
BRANCH   5   6
ATOM      6  C   UNL A   1      33.660  25.369  25.964  1.00  0.00     0.020 C 
BRANCH   6   7
ATOM      7  C   UNL A   1      32.268  24.952  26.440  1.00  0.00     0.103 C 
BRANCH   7   8
ATOM      8  C   UNL A   1      31.539  23.600  26.290  1.00  0.00     0.243 C 
ATOM      9  O   UNL A   1      30.726  23.338  27.195  1.00  0.00    -0.273 OA
BRANCH   8  10
ATOM     10  N   UNL A   1      31.559  22.818  25.141  1.00  0.00    -0.225 N 
ATOM     11  C   UNL A   1      31.134  23.049  23.739  1.00  0.00     0.147 C 
ATOM     12  C   UNL A   1      31.505  21.771  22.993  1.00  0.00     0.091 C 
ATOM     13  C   UNL A   1      32.184  21.023  24.090  1.00  0.00     0.071 C 
ATOM     14  N   UNL A   1      32.198  21.589  25.253  1.00  0.00    -0.174 NA
BRANCH  11  15
ATOM     15  C   UNL A   1      31.757  24.262  23.064  1.00  0.00    -0.023 A 
ATOM     16  C   UNL A   1      33.055  26.666  22.497  1.00  0.00     0.118 A 
ATOM     17  C   UNL A   1      31.712  26.683  22.855  1.00  0.00     0.047 A 
ATOM     18  C   UNL A   1      33.726  25.458  22.314  1.00  0.00     0.047 A 
ATOM     19  C   UNL A   1      31.047  25.481  23.093  1.00  0.00     0.010 A 
ATOM     20  C   UNL A   1      33.072  24.254  22.581  1.00  0.00     0.010 A 
BRANCH  16  21
ATOM     21  O   UNL A   1      33.725  27.858  22.508  1.00  0.00    -0.497 OA
ATOM     22  C   UNL A   1      33.754  28.437  23.807  1.00  0.00     0.278 C 
ENDBRANCH  16  21
ENDBRANCH  11  15
BRANCH  13  23
ATOM     23  C   UNL A   1      32.773  19.707  23.829  1.00  0.00    -0.002 A 
ATOM     24  C   UNL A   1      32.303  18.936  22.765  1.00  0.00     0.010 A 
ATOM     25  C   UNL A   1      33.783  19.235  24.669  1.00  0.00     0.010 A 
ATOM     26  C   UNL A   1      32.861  17.677  22.535  1.00  0.00     0.001 A 
ATOM     27  C   UNL A   1      34.325  17.970  24.443  1.00  0.00     0.001 A 
ATOM     28  C   UNL A   1      33.866  17.195  23.375  1.00  0.00     0.000 A 
ENDBRANCH  13  23
ENDBRANCH   8  10
ENDBRANCH   7   8
ENDBRANCH   6   7
ENDBRANCH   5   6
ENDBRANCH   1   5
BRANCH   3  29
ATOM     29  C   UNL A   1      36.126  21.779  24.602  1.00  0.00     0.116 C 
BRANCH  29  30
ATOM     30  C   UNL A   1      37.621  21.870  24.887  1.00  0.00     0.023 C 
BRANCH  30  31
ATOM     31  C   UNL A   1      38.260  20.499  25.095  1.00  0.00     0.023 C 
BRANCH  31  32
ATOM     32  C   UNL A   1      39.393  20.506  26.110  1.00  0.00     0.116 C 
BRANCH  32  33
ATOM     33  N   UNL A   1      40.233  19.317  26.029  1.00  0.00    -0.352 N 
ATOM     34  C   UNL A   1      41.603  19.269  26.091  1.00  0.00     0.251 C 
ATOM     35  H   UNL A   1      39.768  18.457  25.920  1.00  0.00     0.163 HD
ATOM     36  O   UNL A   1      42.226  18.233  25.897  1.00  0.00    -0.269 OA
BRANCH  34  37
ATOM     37  C   UNL A   1      42.305  20.530  26.370  1.00  0.00     0.039 A 
ATOM     38  C   UNL A   1      42.690  21.341  25.303  1.00  0.00     0.014 A 
ATOM     39  C   UNL A   1      42.428  20.958  27.695  1.00  0.00     0.014 A 
ATOM     40  C   UNL A   1      43.161  22.626  25.569  1.00  0.00     0.010 A 
ATOM     41  C   UNL A   1      42.824  22.261  27.949  1.00  0.00     0.010 A 
ATOM     42  C   UNL A   1      43.200  23.104  26.890  1.00  0.00    -0.014 A 
BRANCH  42  43
ATOM     43  C   UNL A   1      43.655  24.481  27.193  1.00  0.00     0.031 A 
ATOM     44  C   UNL A   1      42.663  25.484  27.708  1.00  0.00     0.074 A 
ATOM     45  C   UNL A   1      44.925  24.841  26.930  1.00  0.00     0.049 A 
ATOM     46  N   UNL A   1      42.825  26.759  27.950  1.00  0.00    -0.248 NA
ATOM     47  C   UNL A   1      41.292  24.999  27.944  1.00  0.00     0.031 C 
ATOM     48  C   UNL A   1      45.955  23.970  26.360  1.00  0.00     0.029 A 
ATOM     49  N   UNL A   1      45.563  26.045  27.091  1.00  0.00    -0.354 N 
ATOM     50  C   UNL A   1      41.577  27.229  28.335  1.00  0.00     0.074 A 
ATOM     51  C   UNL A   1      40.655  26.120  28.248  1.00  0.00     0.031 C 
ATOM     52  C   UNL A   1      47.098  24.663  26.233  1.00  0.00     0.029 A 
ATOM     53  C   UNL A   1      46.876  26.033  26.685  1.00  0.00     0.049 A 
ATOM     54  H   UNL A   1      45.121  26.843  27.462  1.00  0.00     0.167 HD
ATOM     55  C   UNL A   1      41.239  28.472  28.748  1.00  0.00     0.037 A 
ATOM     56  C   UNL A   1      47.790  27.022  26.677  1.00  0.00     0.037 A 
ATOM     57  C   UNL A   1      42.177  29.551  28.894  1.00  0.00     0.049 A 
ATOM     58  C   UNL A   1      47.399  28.379  27.201  1.00  0.00     0.074 A 
ATOM     59  C   UNL A   1      41.959  30.819  29.402  1.00  0.00     0.029 A 
ATOM     60  N   UNL A   1      43.515  29.484  28.536  1.00  0.00    -0.354 N 
ATOM     61  N   UNL A   1      46.237  28.788  27.651  1.00  0.00    -0.248 NA
ATOM     62  C   UNL A   1      48.447  29.408  27.227  1.00  0.00     0.031 C 
ATOM     63  C   UNL A   1      43.158  31.532  29.317  1.00  0.00     0.029 A 
ATOM     64  C   UNL A   1      44.132  30.695  28.796  1.00  0.00     0.049 A 
ATOM     65  H   UNL A   1      43.960  28.693  28.154  1.00  0.00     0.167 HD
ATOM     66  C   UNL A   1      46.422  30.108  28.038  1.00  0.00     0.074 A 
ATOM     67  C   UNL A   1      47.811  30.427  27.787  1.00  0.00     0.031 C 
ATOM     68  C   UNL A   1      45.522  30.981  28.554  1.00  0.00     0.037 A 
BRANCH  55  69
ATOM     69  C   UNL A   1      39.804  28.728  29.092  1.00  0.00     0.064 A 
ATOM     70  C   UNL A   1      39.310  28.530  30.390  1.00  0.00     0.173 A 
ATOM     71  C   UNL A   1      38.922  29.230  28.122  1.00  0.00     0.173 A 
ATOM     72  F   UNL A   1      40.109  28.037  31.348  1.00  0.00    -0.203 F 
ATOM     73  C   UNL A   1      37.981  28.806  30.700  1.00  0.00     0.198 A 
ATOM     74  C   UNL A   1      37.602  29.532  28.443  1.00  0.00     0.198 A 
ATOM     75  F   UNL A   1      39.345  29.438  26.866  1.00  0.00    -0.203 F 
ATOM     76  F   UNL A   1      37.522  28.570  31.936  1.00  0.00    -0.200 F 
ATOM     77  C   UNL A   1      37.132  29.315  29.730  1.00  0.00     0.200 A 
ATOM     78  F   UNL A   1      36.784  30.033  27.507  1.00  0.00    -0.200 F 
ATOM     79  F   UNL A   1      35.855  29.593  30.034  1.00  0.00    -0.200 F 
ENDBRANCH  55  69
BRANCH  56  80
ATOM     80  C   UNL A   1      49.167  26.767  26.181  1.00  0.00     0.064 A 
ATOM     81  C   UNL A   1      49.528  27.073  24.860  1.00  0.00     0.173 A 
ATOM     82  C   UNL A   1      50.143  26.184  27.003  1.00  0.00     0.173 A 
ATOM     83  F   UNL A   1      48.624  27.614  24.030  1.00  0.00    -0.203 F 
ATOM     84  C   UNL A   1      50.799  26.779  24.373  1.00  0.00     0.198 A 
ATOM     85  C   UNL A   1      51.424  25.917  26.523  1.00  0.00     0.198 A 
ATOM     86  F   UNL A   1      49.853  25.878  28.276  1.00  0.00    -0.203 F 
ATOM     87  F   UNL A   1      51.097  27.031  23.092  1.00  0.00    -0.200 F 
ATOM     88  C   UNL A   1      51.747  26.203  25.205  1.00  0.00     0.200 A 
ATOM     89  F   UNL A   1      52.340  25.373  27.334  1.00  0.00    -0.200 F 
ATOM     90  F   UNL A   1      52.968  25.916  24.735  1.00  0.00    -0.200 F 
ENDBRANCH  56  80
BRANCH  68  91
ATOM     91  C   UNL A   1      46.019  32.349  28.913  1.00  0.00     0.064 A 
ATOM     92  C   UNL A   1      46.559  32.624  30.178  1.00  0.00     0.173 A 
ATOM     93  C   UNL A   1      46.004  33.380  27.962  1.00  0.00     0.173 A 
ATOM     94  F   UNL A   1      46.583  31.673  31.123  1.00  0.00    -0.203 F 
ATOM     95  C   UNL A   1      47.046  33.891  30.484  1.00  0.00     0.198 A 
ATOM     96  C   UNL A   1      46.519  34.637  28.263  1.00  0.00     0.198 A 
ATOM     97  F   UNL A   1      45.506  33.162  26.736  1.00  0.00    -0.203 F 
ATOM     98  F   UNL A   1      47.520  34.145  31.712  1.00  0.00    -0.200 F 
ATOM     99  C   UNL A   1      47.034  34.894  29.525  1.00  0.00     0.200 A 
ATOM    100  F   UNL A   1      46.519  35.600  27.330  1.00  0.00    -0.200 F 
ATOM    101  F   UNL A   1      47.514  36.109  29.819  1.00  0.00    -0.200 F 
ENDBRANCH  68  91
ENDBRANCH  42  43
ENDBRANCH  34  37
ENDBRANCH  32  33
ENDBRANCH  31  32
ENDBRANCH  30  31
ENDBRANCH  29  30
ENDBRANCH   3  29
TORSDOF 18
ENDMDL
MODEL 3
REMARK VINA RESULT:     -12.8      1.171      7.090
REMARK SMILES COc1ccc([C@H]2CC(c3ccccc3)=NN2C(=O)CCCC(=O)NCCCCNC(=O)c2ccc(-c3c4nc(c(-c5c(F)c(F)c(F)c(F)c5F)c5ccc([nH]5)c(-c5c(F)c(F)c(F)c(F)c5F)c5nc(c(-c6c(F)c(F)c(F)c(F)c6F)c6ccc3[nH]6)C=C5)C=C4)cc2)cc1
REMARK SMILES IDX 23 1 24 2 25 3 22 5 21 6 20 7 18 8 19 9 17 10 7 11 8 12 9 13
REMARK SMILES IDX 16 14 6 15 3 16 4 17 97 18 5 19 96 20 2 21 1 22 10 23 11 24
REMARK SMILES IDX 15 25 12 26 14 27 13 28 26 29 27 30 28 31 29 32 30 33 31 34
REMARK SMILES IDX 32 36 33 37 34 38 95 39 35 40 94 41 36 42 37 43 38 44 88 45
REMARK SMILES IDX 39 46 93 47 87 48 89 49 40 50 92 51 86 52 85 53 41 55 73 56
REMARK SMILES IDX 53 57 72 58 54 59 57 60 71 61 90 62 55 63 56 64 70 66 91 67
REMARK SMILES IDX 58 68 42 69 43 70 51 71 44 72 45 73 49 74 52 75 46 76 47 77
REMARK SMILES IDX 50 78 48 79 74 80 75 81 83 82 76 83 77 84 81 85 84 86 78 87
REMARK SMILES IDX 79 88 82 89 80 90 59 91 60 92 68 93 61 94 62 95 66 96 69 97
REMARK SMILES IDX 63 98 64 99 67 100 65 101
REMARK H PARENT 25 4 30 35 89 54 57 65
REMARK Flexibility Score: inf
ROOT
ATOM      1  C   UNL A   1      31.825  28.042  27.273  1.00  0.00     0.220 C 
ATOM      2  O   UNL A   1      31.251  27.457  28.196  1.00  0.00    -0.275 OA
ATOM      3  N   UNL A   1      32.248  29.304  27.536  1.00  0.00    -0.356 N 
ATOM      4  H   UNL A   1      32.287  29.544  28.490  1.00  0.00     0.163 HD
ENDROOT
BRANCH   1   5
ATOM      5  C   UNL A   1      32.214  27.290  26.013  1.00  0.00     0.100 C 
BRANCH   5   6
ATOM      6  C   UNL A   1      33.325  26.274  25.860  1.00  0.00     0.020 C 
BRANCH   6   7
ATOM      7  C   UNL A   1      33.260  24.870  26.461  1.00  0.00     0.103 C 
BRANCH   7   8
ATOM      8  C   UNL A   1      32.159  23.795  26.337  1.00  0.00     0.243 C 
ATOM      9  O   UNL A   1      31.254  23.867  27.188  1.00  0.00    -0.273 OA
BRANCH   8  10
ATOM     10  N   UNL A   1      32.002  22.952  25.242  1.00  0.00    -0.225 N 
ATOM     11  C   UNL A   1      31.383  23.116  23.905  1.00  0.00     0.147 C 
ATOM     12  C   UNL A   1      31.624  21.792  23.186  1.00  0.00     0.091 C 
ATOM     13  C   UNL A   1      32.445  21.090  24.215  1.00  0.00     0.071 C 
ATOM     14  N   UNL A   1      32.634  21.717  25.331  1.00  0.00    -0.174 NA
BRANCH  11  15
ATOM     15  C   UNL A   1      31.918  24.278  23.080  1.00  0.00    -0.023 A 
ATOM     16  C   UNL A   1      32.990  26.703  22.210  1.00  0.00     0.118 A 
ATOM     17  C   UNL A   1      31.631  26.618  22.491  1.00  0.00     0.047 A 
ATOM     18  C   UNL A   1      33.796  25.567  22.255  1.00  0.00     0.047 A 
ATOM     19  C   UNL A   1      31.083  25.397  22.880  1.00  0.00     0.010 A 
ATOM     20  C   UNL A   1      33.257  24.350  22.674  1.00  0.00     0.010 A 
BRANCH  16  21
ATOM     21  O   UNL A   1      33.527  27.953  22.068  1.00  0.00    -0.497 OA
ATOM     22  C   UNL A   1      32.760  28.938  22.748  1.00  0.00     0.278 C 
ENDBRANCH  16  21
ENDBRANCH  11  15
BRANCH  13  23
ATOM     23  C   UNL A   1      32.971  19.749  23.947  1.00  0.00    -0.002 A 
ATOM     24  C   UNL A   1      32.321  18.919  23.033  1.00  0.00     0.010 A 
ATOM     25  C   UNL A   1      34.108  19.316  24.632  1.00  0.00     0.010 A 
ATOM     26  C   UNL A   1      32.823  17.638  22.797  1.00  0.00     0.001 A 
ATOM     27  C   UNL A   1      34.594  18.029  24.403  1.00  0.00     0.001 A 
ATOM     28  C   UNL A   1      33.955  17.194  23.484  1.00  0.00     0.000 A 
ENDBRANCH  13  23
ENDBRANCH   8  10
ENDBRANCH   7   8
ENDBRANCH   6   7
ENDBRANCH   5   6
ENDBRANCH   1   5
BRANCH   3  29
ATOM     29  C   UNL A   1      32.648  30.343  26.626  1.00  0.00     0.116 C 
BRANCH  29  30
ATOM     30  C   UNL A   1      31.414  31.024  26.044  1.00  0.00     0.023 C 
BRANCH  30  31
ATOM     31  C   UNL A   1      31.280  32.475  26.498  1.00  0.00     0.023 C 
BRANCH  31  32
ATOM     32  C   UNL A   1      32.569  33.057  27.060  1.00  0.00     0.116 C 
BRANCH  32  33
ATOM     33  N   UNL A   1      32.372  34.343  27.715  1.00  0.00    -0.352 N 
ATOM     34  C   UNL A   1      33.102  34.860  28.756  1.00  0.00     0.251 C 
ATOM     35  H   UNL A   1      31.636  34.902  27.375  1.00  0.00     0.163 HD
ATOM     36  O   UNL A   1      32.785  35.902  29.317  1.00  0.00    -0.269 OA
BRANCH  34  37
ATOM     37  C   UNL A   1      34.273  34.091  29.198  1.00  0.00     0.039 A 
ATOM     38  C   UNL A   1      35.547  34.532  28.840  1.00  0.00     0.014 A 
ATOM     39  C   UNL A   1      34.092  33.033  30.092  1.00  0.00     0.014 A 
ATOM     40  C   UNL A   1      36.659  33.933  29.429  1.00  0.00     0.010 A 
ATOM     41  C   UNL A   1      35.196  32.492  30.731  1.00  0.00     0.010 A 
ATOM     42  C   UNL A   1      36.488  32.933  30.401  1.00  0.00    -0.014 A 
BRANCH  42  43
ATOM     43  C   UNL A   1      37.653  32.312  31.074  1.00  0.00     0.031 A 
ATOM     44  C   UNL A   1      38.429  31.244  30.357  1.00  0.00     0.074 A 
ATOM     45  C   UNL A   1      37.954  32.649  32.342  1.00  0.00     0.049 A 
ATOM     46  N   UNL A   1      39.420  30.509  30.792  1.00  0.00    -0.248 NA
ATOM     47  C   UNL A   1      38.009  30.931  28.981  1.00  0.00     0.031 C 
ATOM     48  C   UNL A   1      37.223  33.619  33.160  1.00  0.00     0.029 A 
ATOM     49  N   UNL A   1      38.947  32.196  33.174  1.00  0.00    -0.354 N 
ATOM     50  C   UNL A   1      39.718  29.632  29.758  1.00  0.00     0.074 A 
ATOM     51  C   UNL A   1      38.775  29.889  28.694  1.00  0.00     0.031 C 
ATOM     52  C   UNL A   1      37.802  33.700  34.369  1.00  0.00     0.029 A 
ATOM     53  C   UNL A   1      38.924  32.768  34.423  1.00  0.00     0.049 A 
ATOM     54  H   UNL A   1      39.613  31.524  32.902  1.00  0.00     0.167 HD
ATOM     55  C   UNL A   1      40.708  28.713  29.696  1.00  0.00     0.037 A 
ATOM     56  C   UNL A   1      39.720  32.556  35.489  1.00  0.00     0.037 A 
ATOM     57  C   UNL A   1      41.681  28.511  30.734  1.00  0.00     0.049 A 
ATOM     58  C   UNL A   1      40.851  31.569  35.367  1.00  0.00     0.074 A 
ATOM     59  C   UNL A   1      42.786  27.678  30.730  1.00  0.00     0.029 A 
ATOM     60  N   UNL A   1      41.667  29.157  31.962  1.00  0.00    -0.354 N 
ATOM     61  N   UNL A   1      41.181  30.812  34.349  1.00  0.00    -0.248 NA
ATOM     62  C   UNL A   1      41.727  31.417  36.536  1.00  0.00     0.031 C 
ATOM     63  C   UNL A   1      43.420  27.793  31.970  1.00  0.00     0.029 A 
ATOM     64  C   UNL A   1      42.736  28.728  32.730  1.00  0.00     0.049 A 
ATOM     65  H   UNL A   1      40.998  29.821  32.244  1.00  0.00     0.167 HD
ATOM     66  C   UNL A   1      42.316  30.116  34.744  1.00  0.00     0.074 A 
ATOM     67  C   UNL A   1      42.628  30.553  36.089  1.00  0.00     0.031 C 
ATOM     68  C   UNL A   1      43.035  29.193  34.058  1.00  0.00     0.037 A 
BRANCH  55  69
ATOM     69  C   UNL A   1      40.803  27.870  28.461  1.00  0.00     0.064 A 
ATOM     70  C   UNL A   1      41.591  28.254  27.366  1.00  0.00     0.173 A 
ATOM     71  C   UNL A   1      40.139  26.636  28.393  1.00  0.00     0.173 A 
ATOM     72  F   UNL A   1      42.234  29.432  27.376  1.00  0.00    -0.203 F 
ATOM     73  C   UNL A   1      41.696  27.442  26.240  1.00  0.00     0.198 A 
ATOM     74  C   UNL A   1      40.269  25.814  27.277  1.00  0.00     0.198 A 
ATOM     75  F   UNL A   1      39.373  26.223  29.414  1.00  0.00    -0.203 F 
ATOM     76  F   UNL A   1      42.422  27.848  25.189  1.00  0.00    -0.200 F 
ATOM     77  C   UNL A   1      41.043  26.220  26.201  1.00  0.00     0.200 A 
ATOM     78  F   UNL A   1      39.645  24.628  27.243  1.00  0.00    -0.200 F 
ATOM     79  F   UNL A   1      41.155  25.433  25.120  1.00  0.00    -0.200 F 
ENDBRANCH  55  69
BRANCH  56  80
ATOM     80  C   UNL A   1      39.495  33.303  36.754  1.00  0.00     0.064 A 
ATOM     81  C   UNL A   1      38.647  32.798  37.750  1.00  0.00     0.173 A 
ATOM     82  C   UNL A   1      40.097  34.549  36.981  1.00  0.00     0.173 A 
ATOM     83  F   UNL A   1      38.033  31.620  37.570  1.00  0.00    -0.203 F 
ATOM     84  C   UNL A   1      38.386  33.524  38.910  1.00  0.00     0.198 A 
ATOM     85  C   UNL A   1      39.858  35.261  38.155  1.00  0.00     0.198 A 
ATOM     86  F   UNL A   1      40.923  35.074  36.064  1.00  0.00    -0.203 F 
ATOM     87  F   UNL A   1      37.527  33.043  39.819  1.00  0.00    -0.200 F 
ATOM     88  C   UNL A   1      38.993  34.754  39.113  1.00  0.00     0.200 A 
ATOM     89  F   UNL A   1      40.457  36.443  38.353  1.00  0.00    -0.200 F 
ATOM     90  F   UNL A   1      38.738  35.454  40.227  1.00  0.00    -0.200 F 
ENDBRANCH  56  80
BRANCH  68  91
ATOM     91  C   UNL A   1      44.246  28.625  34.734  1.00  0.00     0.064 A 
ATOM     92  C   UNL A   1      45.502  29.242  34.628  1.00  0.00     0.173 A 
ATOM     93  C   UNL A   1      44.137  27.482  35.539  1.00  0.00     0.173 A 
ATOM     94  F   UNL A   1      45.657  30.329  33.859  1.00  0.00    -0.203 F 
ATOM     95  C   UNL A   1      46.610  28.719  35.288  1.00  0.00     0.198 A 
ATOM     96  C   UNL A   1      45.241  26.980  36.220  1.00  0.00     0.198 A 
ATOM     97  F   UNL A   1      42.955  26.863  35.679  1.00  0.00    -0.203 F 
ATOM     98  F   UNL A   1      47.809  29.299  35.140  1.00  0.00    -0.200 F 
ATOM     99  C   UNL A   1      46.478  27.594  36.090  1.00  0.00     0.200 A 
ATOM    100  F   UNL A   1      45.108  25.902  37.006  1.00  0.00    -0.200 F 
ATOM    101  F   UNL A   1      47.544  27.100  36.733  1.00  0.00    -0.200 F 
ENDBRANCH  68  91
ENDBRANCH  42  43
ENDBRANCH  34  37
ENDBRANCH  32  33
ENDBRANCH  31  32
ENDBRANCH  30  31
ENDBRANCH  29  30
ENDBRANCH   3  29
TORSDOF 18
ENDMDL
