MODEL 1
REMARK VINA RESULT:     -13.1      0.000      0.000
REMARK SMILES Cc1nnc(-c2ccccc2-c2cc(NCC(=O)NCCCCNC(=O)c3ccc(-c4c5nc(c(-c6c(F)c(F)c(F)c(F)c6F)c6ccc([nH]6)c(-c6c(F)c(F)c(F)c(F)c6F)c6nc(c(-c7c(F)c(F)c(F)c(F)c7F)c7ccc4[nH]7)C=C6)C=C5)cc3)nc3[nH]ccc23)o1
REMARK SMILES IDX 20 1 19 2 17 3 18 4 16 6 15 7 14 9 12 10 13 11 95 12 91 13
REMARK SMILES IDX 94 14 90 15 92 16 93 17 11 19 6 20 7 21 8 22 10 23 9 24 5 25
REMARK SMILES IDX 1 26 2 27 3 28 96 29 4 30 21 31 22 32 23 33 24 34 25 35
REMARK SMILES IDX 26 37 27 38 28 39 89 40 29 41 88 42 30 43 31 44 32 45 82 46
REMARK SMILES IDX 33 47 87 48 81 49 83 50 34 51 86 52 80 53 79 54 35 56 67 57
REMARK SMILES IDX 47 58 66 59 48 60 51 61 65 62 84 63 49 64 50 65 64 67 85 68
REMARK SMILES IDX 52 69 36 70 37 71 45 72 38 73 39 74 43 75 46 76 40 77 41 78
REMARK SMILES IDX 44 79 42 80 68 81 69 82 77 83 70 84 71 85 75 86 78 87 72 88
REMARK SMILES IDX 73 89 76 90 74 91 53 92 54 93 62 94 55 95 56 96 60 97 63 98
REMARK SMILES IDX 57 99 58 100 61 101 59 102
REMARK H PARENT 19 5 15 8 92 18 24 36 83 55 51 66
REMARK Flexibility Score: inf
ROOT
ATOM      1  C   UNL A   1      35.410  33.212  28.003  1.00  0.00     0.116 C 
ENDROOT
BRANCH   1   2
ATOM      2  N   UNL A   1      35.831  31.826  28.086  1.00  0.00    -0.355 N 
ATOM      3  C   UNL A   1      35.092  30.702  27.841  1.00  0.00     0.239 C 
ATOM      4  O   UNL A   1      35.599  29.607  28.100  1.00  0.00    -0.273 OA
ATOM      5  H   UNL A   1      36.768  31.677  28.351  1.00  0.00     0.163 HD
BRANCH   3   6
ATOM      6  C   UNL A   1      33.675  30.816  27.263  1.00  0.00     0.214 C 
BRANCH   6   7
ATOM      7  N   UNL A   1      32.907  29.598  27.499  1.00  0.00    -0.361 N 
ATOM      8  H   UNL A   1      32.883  29.208  28.403  1.00  0.00     0.162 HD
BRANCH   7   9
ATOM      9  C   UNL A   1      32.212  28.983  26.471  1.00  0.00     0.129 A 
ATOM     10  C   UNL A   1      31.356  26.911  25.501  1.00  0.00    -0.003 A 
ATOM     11  C   UNL A   1      32.115  27.590  26.474  1.00  0.00     0.056 A 
ATOM     12  C   UNL A   1      30.740  27.710  24.516  1.00  0.00     0.027 A 
ATOM     13  C   UNL A   1      30.953  29.078  24.591  1.00  0.00     0.140 A 
ATOM     14  C   UNL A   1      29.895  27.497  23.387  1.00  0.00     0.030 A 
ATOM     15  N   UNL A   1      31.664  29.747  25.509  1.00  0.00    -0.213 NA
ATOM     16  N   UNL A   1      30.295  29.674  23.551  1.00  0.00    -0.346 N 
ATOM     17  C   UNL A   1      29.640  28.725  22.811  1.00  0.00     0.085 A 
ATOM     18  H   UNL A   1      30.292  30.640  23.361  1.00  0.00     0.167 HD
BRANCH  10  19
ATOM     19  C   UNL A   1      31.205  25.448  25.477  1.00  0.00    -0.005 A 
ATOM     20  C   UNL A   1      31.702  24.639  24.433  1.00  0.00     0.047 A 
ATOM     21  C   UNL A   1      31.522  23.243  24.476  1.00  0.00     0.014 A 
ATOM     22  C   UNL A   1      30.857  22.641  25.543  1.00  0.00     0.001 A 
ATOM     23  C   UNL A   1      30.528  24.815  26.539  1.00  0.00     0.009 A 
ATOM     24  C   UNL A   1      30.360  23.428  26.574  1.00  0.00     0.001 A 
BRANCH  20  25
ATOM     25  C   UNL A   1      32.430  25.184  23.304  1.00  0.00     0.248 A 
ATOM     26  C   UNL A   1      32.518  25.565  19.806  1.00  0.00     0.113 C 
ATOM     27  C   UNL A   1      32.802  25.549  21.251  1.00  0.00     0.213 A 
ATOM     28  N   UNL A   1      33.849  26.004  21.905  1.00  0.00    -0.113 NA
ATOM     29  O   UNL A   1      31.857  25.000  22.072  1.00  0.00    -0.421 OA
ATOM     30  N   UNL A   1      33.600  25.782  23.242  1.00  0.00    -0.108 NA
ENDBRANCH  20  25
ENDBRANCH  10  19
ENDBRANCH   7   9
ENDBRANCH   6   7
ENDBRANCH   3   6
ENDBRANCH   1   2
BRANCH   1  31
ATOM     31  C   UNL A   1      34.681  33.642  29.275  1.00  0.00     0.023 C 
BRANCH  31  32
ATOM     32  C   UNL A   1      33.429  34.482  29.012  1.00  0.00     0.023 C 
BRANCH  32  33
ATOM     33  C   UNL A   1      33.459  35.889  29.594  1.00  0.00     0.116 C 
BRANCH  33  34
ATOM     34  N   UNL A   1      32.494  36.106  30.660  1.00  0.00    -0.352 N 
ATOM     35  C   UNL A   1      32.580  35.753  31.985  1.00  0.00     0.251 C 
ATOM     36  H   UNL A   1      31.667  36.571  30.395  1.00  0.00     0.163 HD
ATOM     37  O   UNL A   1      31.646  35.968  32.753  1.00  0.00    -0.269 OA
BRANCH  35  38
ATOM     38  C   UNL A   1      33.787  35.058  32.482  1.00  0.00     0.039 A 
ATOM     39  C   UNL A   1      33.663  33.737  32.919  1.00  0.00     0.014 A 
ATOM     40  C   UNL A   1      35.034  35.686  32.490  1.00  0.00     0.014 A 
ATOM     41  C   UNL A   1      34.801  33.023  33.301  1.00  0.00     0.010 A 
ATOM     42  C   UNL A   1      36.176  34.951  32.794  1.00  0.00     0.010 A 
ATOM     43  C   UNL A   1      36.072  33.614  33.207  1.00  0.00    -0.014 A 
BRANCH  43  44
ATOM     44  C   UNL A   1      37.302  32.858  33.547  1.00  0.00     0.031 A 
ATOM     45  C   UNL A   1      38.033  33.152  34.827  1.00  0.00     0.074 A 
ATOM     46  C   UNL A   1      37.797  31.955  32.678  1.00  0.00     0.049 A 
ATOM     47  N   UNL A   1      39.168  32.666  35.265  1.00  0.00    -0.248 NA
ATOM     48  C   UNL A   1      37.423  34.148  35.721  1.00  0.00     0.031 C 
ATOM     49  C   UNL A   1      37.204  31.610  31.385  1.00  0.00     0.029 A 
ATOM     50  N   UNL A   1      38.922  31.169  32.747  1.00  0.00    -0.354 N 
ATOM     51  C   UNL A   1      39.411  33.308  36.472  1.00  0.00     0.074 A 
ATOM     52  C   UNL A   1      38.338  34.259  36.671  1.00  0.00     0.031 C 
ATOM     53  C   UNL A   1      37.956  30.667  30.794  1.00  0.00     0.029 A 
ATOM     54  C   UNL A   1      39.103  30.369  31.646  1.00  0.00     0.049 A 
ATOM     55  H   UNL A   1      39.539  31.179  33.513  1.00  0.00     0.167 HD
ATOM     56  C   UNL A   1      40.423  33.105  37.349  1.00  0.00     0.037 A 
ATOM     57  C   UNL A   1      40.089  29.498  31.355  1.00  0.00     0.037 A 
ATOM     58  C   UNL A   1      41.473  32.140  37.163  1.00  0.00     0.049 A 
ATOM     59  C   UNL A   1      41.206  29.296  32.344  1.00  0.00     0.074 A 
ATOM     60  C   UNL A   1      42.517  31.824  38.014  1.00  0.00     0.029 A 
ATOM     61  N   UNL A   1      41.611  31.331  36.044  1.00  0.00    -0.354 N 
ATOM     62  N   UNL A   1      41.394  29.867  33.509  1.00  0.00    -0.248 NA
ATOM     63  C   UNL A   1      42.245  28.323  31.979  1.00  0.00     0.031 C 
ATOM     64  C   UNL A   1      43.310  30.852  37.393  1.00  0.00     0.029 A 
ATOM     65  C   UNL A   1      42.732  30.526  36.177  1.00  0.00     0.049 A 
ATOM     66  H   UNL A   1      41.002  31.328  35.271  1.00  0.00     0.167 HD
ATOM     67  C   UNL A   1      42.549  29.297  34.030  1.00  0.00     0.074 A 
ATOM     68  C   UNL A   1      43.013  28.330  33.059  1.00  0.00     0.031 C 
ATOM     69  C   UNL A   1      43.169  29.555  35.208  1.00  0.00     0.037 A 
BRANCH  56  70
ATOM     70  C   UNL A   1      40.437  33.943  38.595  1.00  0.00     0.064 A 
ATOM     71  C   UNL A   1      39.746  33.549  39.752  1.00  0.00     0.173 A 
ATOM     72  C   UNL A   1      41.174  35.135  38.646  1.00  0.00     0.173 A 
ATOM     73  F   UNL A   1      39.017  32.423  39.752  1.00  0.00    -0.203 F 
ATOM     74  C   UNL A   1      39.766  34.334  40.901  1.00  0.00     0.198 A 
ATOM     75  C   UNL A   1      41.217  35.902  39.807  1.00  0.00     0.198 A 
ATOM     76  F   UNL A   1      41.857  35.556  37.570  1.00  0.00    -0.203 F 
ATOM     77  F   UNL A   1      39.056  33.965  41.976  1.00  0.00    -0.200 F 
ATOM     78  C   UNL A   1      40.507  35.506  40.931  1.00  0.00     0.200 A 
ATOM     79  F   UNL A   1      41.945  37.028  39.838  1.00  0.00    -0.200 F 
ATOM     80  F   UNL A   1      40.531  36.258  42.040  1.00  0.00    -0.200 F 
ENDBRANCH  56  70
BRANCH  57  81
ATOM     81  C   UNL A   1      40.052  28.727  30.085  1.00  0.00     0.064 A 
ATOM     82  C   UNL A   1      39.441  27.466  30.030  1.00  0.00     0.173 A 
ATOM     83  C   UNL A   1      40.633  29.221  28.910  1.00  0.00     0.173 A 
ATOM     84  F   UNL A   1      38.889  26.940  31.133  1.00  0.00    -0.203 F 
ATOM     85  C   UNL A   1      39.436  26.719  28.854  1.00  0.00     0.198 A 
ATOM     86  C   UNL A   1      40.603  28.486  27.727  1.00  0.00     0.198 A 
ATOM     87  F   UNL A   1      41.227  30.424  28.908  1.00  0.00    -0.203 F 
ATOM     88  F   UNL A   1      38.889  25.495  28.842  1.00  0.00    -0.200 F 
ATOM     89  C   UNL A   1      40.012  27.231  27.701  1.00  0.00     0.200 A 
ATOM     90  F   UNL A   1      41.149  28.991  26.612  1.00  0.00    -0.200 F 
ATOM     91  F   UNL A   1      40.006  26.513  26.571  1.00  0.00    -0.200 F 
ENDBRANCH  57  81
BRANCH  69  92
ATOM     92  C   UNL A   1      44.387  28.742  35.537  1.00  0.00     0.064 A 
ATOM     93  C   UNL A   1      45.673  29.155  35.160  1.00  0.00     0.173 A 
ATOM     94  C   UNL A   1      44.267  27.555  36.275  1.00  0.00     0.173 A 
ATOM     95  F   UNL A   1      45.839  30.274  34.440  1.00  0.00    -0.203 F 
ATOM     96  C   UNL A   1      46.793  28.394  35.488  1.00  0.00     0.198 A 
ATOM     97  C   UNL A   1      45.390  26.813  36.627  1.00  0.00     0.198 A 
ATOM     98  F   UNL A   1      43.059  27.120  36.666  1.00  0.00    -0.203 F 
ATOM     99  F   UNL A   1      48.007  28.782  35.076  1.00  0.00    -0.200 F 
ATOM    100  C   UNL A   1      46.651  27.229  36.226  1.00  0.00     0.200 A 
ATOM    101  F   UNL A   1      45.253  25.695  37.353  1.00  0.00    -0.200 F 
ATOM    102  F   UNL A   1      47.731  26.503  36.548  1.00  0.00    -0.200 F 
ENDBRANCH  69  92
ENDBRANCH  43  44
ENDBRANCH  35  38
ENDBRANCH  33  34
ENDBRANCH  32  33
ENDBRANCH  31  32
ENDBRANCH   1  31
TORSDOF 15
ENDMDL
MODEL 2
REMARK VINA RESULT:     -12.9      6.821     12.207
REMARK SMILES Cc1nnc(-c2ccccc2-c2cc(NCC(=O)NCCCCNC(=O)c3ccc(-c4c5nc(c(-c6c(F)c(F)c(F)c(F)c6F)c6ccc([nH]6)c(-c6c(F)c(F)c(F)c(F)c6F)c6nc(c(-c7c(F)c(F)c(F)c(F)c7F)c7ccc4[nH]7)C=C6)C=C5)cc3)nc3[nH]ccc23)o1
REMARK SMILES IDX 20 1 19 2 17 3 18 4 16 6 15 7 14 9 12 10 13 11 95 12 91 13
REMARK SMILES IDX 94 14 90 15 92 16 93 17 11 19 6 20 7 21 8 22 10 23 9 24 5 25
REMARK SMILES IDX 1 26 2 27 3 28 96 29 4 30 21 31 22 32 23 33 24 34 25 35
REMARK SMILES IDX 26 37 27 38 28 39 89 40 29 41 88 42 30 43 31 44 32 45 82 46
REMARK SMILES IDX 33 47 87 48 81 49 83 50 34 51 86 52 80 53 79 54 35 56 67 57
REMARK SMILES IDX 47 58 66 59 48 60 51 61 65 62 84 63 49 64 50 65 64 67 85 68
REMARK SMILES IDX 52 69 36 70 37 71 45 72 38 73 39 74 43 75 46 76 40 77 41 78
REMARK SMILES IDX 44 79 42 80 68 81 69 82 77 83 70 84 71 85 75 86 78 87 72 88
REMARK SMILES IDX 73 89 76 90 74 91 53 92 54 93 62 94 55 95 56 96 60 97 63 98
REMARK SMILES IDX 57 99 58 100 61 101 59 102
REMARK H PARENT 19 5 15 8 92 18 24 36 83 55 51 66
REMARK Flexibility Score: inf
ROOT
ATOM      1  C   UNL A   1      39.967  21.578  26.336  1.00  0.00     0.116 C 
ENDROOT
BRANCH   1   2
ATOM      2  N   UNL A   1      39.737  22.773  27.125  1.00  0.00    -0.355 N 
ATOM      3  C   UNL A   1      38.850  23.786  26.885  1.00  0.00     0.239 C 
ATOM      4  O   UNL A   1      38.902  24.785  27.607  1.00  0.00    -0.273 OA
ATOM      5  H   UNL A   1      40.289  22.866  27.935  1.00  0.00     0.163 HD
BRANCH   3   6
ATOM      6  C   UNL A   1      37.827  23.668  25.748  1.00  0.00     0.214 C 
BRANCH   6   7
ATOM      7  N   UNL A   1      36.703  22.821  26.133  1.00  0.00    -0.361 N 
ATOM      8  H   UNL A   1      36.861  21.874  26.351  1.00  0.00     0.162 HD
BRANCH   7   9
ATOM      9  C   UNL A   1      35.416  23.329  26.196  1.00  0.00     0.129 A 
ATOM     10  C   UNL A   1      33.896  25.180  25.717  1.00  0.00    -0.003 A 
ATOM     11  C   UNL A   1      35.193  24.634  25.752  1.00  0.00     0.056 A 
ATOM     12  C   UNL A   1      32.854  24.354  26.186  1.00  0.00     0.027 A 
ATOM     13  C   UNL A   1      33.209  23.095  26.650  1.00  0.00     0.140 A 
ATOM     14  C   UNL A   1      31.438  24.447  26.325  1.00  0.00     0.030 A 
ATOM     15  N   UNL A   1      34.433  22.551  26.686  1.00  0.00    -0.213 NA
ATOM     16  N   UNL A   1      32.076  22.458  27.073  1.00  0.00    -0.346 N 
ATOM     17  C   UNL A   1      30.987  23.266  26.876  1.00  0.00     0.085 A 
ATOM     18  H   UNL A   1      32.046  21.553  27.461  1.00  0.00     0.167 HD
BRANCH  10  19
ATOM     19  C   UNL A   1      33.609  26.540  25.236  1.00  0.00    -0.005 A 
ATOM     20  C   UNL A   1      33.303  26.833  23.889  1.00  0.00     0.047 A 
ATOM     21  C   UNL A   1      33.038  28.160  23.500  1.00  0.00     0.014 A 
ATOM     22  C   UNL A   1      33.072  29.198  24.429  1.00  0.00     0.001 A 
ATOM     23  C   UNL A   1      33.645  27.610  26.154  1.00  0.00     0.009 A 
ATOM     24  C   UNL A   1      33.376  28.922  25.757  1.00  0.00     0.001 A 
BRANCH  20  25
ATOM     25  C   UNL A   1      33.219  25.808  22.869  1.00  0.00     0.248 A 
ATOM     26  C   UNL A   1      32.499  22.430  22.188  1.00  0.00     0.113 C 
ATOM     27  C   UNL A   1      32.903  23.845  22.136  1.00  0.00     0.213 A 
ATOM     28  N   UNL A   1      33.347  24.554  21.122  1.00  0.00    -0.113 NA
ATOM     29  O   UNL A   1      32.803  24.571  23.291  1.00  0.00    -0.421 OA
ATOM     30  N   UNL A   1      33.537  25.835  21.593  1.00  0.00    -0.108 NA
ENDBRANCH  20  25
ENDBRANCH  10  19
ENDBRANCH   7   9
ENDBRANCH   6   7
ENDBRANCH   3   6
ENDBRANCH   1   2
BRANCH   1  31
ATOM     31  C   UNL A   1      41.399  21.071  26.511  1.00  0.00     0.023 C 
BRANCH  31  32
ATOM     32  C   UNL A   1      41.610  19.639  26.014  1.00  0.00     0.023 C 
BRANCH  32  33
ATOM     33  C   UNL A   1      42.998  19.066  26.260  1.00  0.00     0.116 C 
BRANCH  33  34
ATOM     34  N   UNL A   1      43.693  18.664  25.047  1.00  0.00    -0.352 N 
ATOM     35  C   UNL A   1      44.537  19.402  24.253  1.00  0.00     0.251 C 
ATOM     36  H   UNL A   1      43.536  17.736  24.756  1.00  0.00     0.163 HD
ATOM     37  O   UNL A   1      45.009  18.924  23.225  1.00  0.00    -0.269 OA
BRANCH  35  38
ATOM     38  C   UNL A   1      44.842  20.804  24.612  1.00  0.00     0.039 A 
ATOM     39  C   UNL A   1      44.352  21.823  23.790  1.00  0.00     0.014 A 
ATOM     40  C   UNL A   1      45.575  21.117  25.758  1.00  0.00     0.014 A 
ATOM     41  C   UNL A   1      44.539  23.158  24.156  1.00  0.00     0.010 A 
ATOM     42  C   UNL A   1      45.692  22.444  26.162  1.00  0.00     0.010 A 
ATOM     43  C   UNL A   1      45.179  23.478  25.363  1.00  0.00    -0.014 A 
BRANCH  43  44
ATOM     44  C   UNL A   1      45.336  24.886  25.805  1.00  0.00     0.031 A 
ATOM     45  C   UNL A   1      46.677  25.557  25.709  1.00  0.00     0.074 A 
ATOM     46  C   UNL A   1      44.291  25.539  26.350  1.00  0.00     0.049 A 
ATOM     47  N   UNL A   1      47.042  26.746  26.120  1.00  0.00    -0.248 NA
ATOM     48  C   UNL A   1      47.763  24.776  25.098  1.00  0.00     0.031 C 
ATOM     49  C   UNL A   1      42.949  24.984  26.537  1.00  0.00     0.029 A 
ATOM     50  N   UNL A   1      44.197  26.811  26.860  1.00  0.00    -0.354 N 
ATOM     51  C   UNL A   1      48.396  26.846  25.830  1.00  0.00     0.074 A 
ATOM     52  C   UNL A   1      48.803  25.578  25.263  1.00  0.00     0.031 C 
ATOM     53  C   UNL A   1      42.162  25.917  27.097  1.00  0.00     0.029 A 
ATOM     54  C   UNL A   1      42.950  27.120  27.344  1.00  0.00     0.049 A 
ATOM     55  H   UNL A   1      44.953  27.442  26.876  1.00  0.00     0.167 HD
ATOM     56  C   UNL A   1      49.221  27.907  25.998  1.00  0.00     0.037 A 
ATOM     57  C   UNL A   1      42.498  28.246  27.929  1.00  0.00     0.037 A 
ATOM     58  C   UNL A   1      48.807  29.175  26.536  1.00  0.00     0.049 A 
ATOM     59  C   UNL A   1      43.436  29.409  28.110  1.00  0.00     0.074 A 
ATOM     60  C   UNL A   1      49.555  30.328  26.701  1.00  0.00     0.029 A 
ATOM     61  N   UNL A   1      47.529  29.458  26.996  1.00  0.00    -0.354 N 
ATOM     62  N   UNL A   1      44.701  29.511  27.778  1.00  0.00    -0.248 NA
ATOM     63  C   UNL A   1      42.882  30.615  28.740  1.00  0.00     0.031 C 
ATOM     64  C   UNL A   1      48.739  31.297  27.298  1.00  0.00     0.029 A 
ATOM     65  C   UNL A   1      47.471  30.763  27.458  1.00  0.00     0.049 A 
ATOM     66  H   UNL A   1      46.775  28.825  26.992  1.00  0.00     0.167 HD
ATOM     67  C   UNL A   1      45.082  30.800  28.126  1.00  0.00     0.074 A 
ATOM     68  C   UNL A   1      43.913  31.446  28.685  1.00  0.00     0.031 C 
ATOM     69  C   UNL A   1      46.293  31.396  27.994  1.00  0.00     0.037 A 
BRANCH  56  70
ATOM     70  C   UNL A   1      50.655  27.740  25.586  1.00  0.00     0.064 A 
ATOM     71  C   UNL A   1      51.061  27.912  24.254  1.00  0.00     0.173 A 
ATOM     72  C   UNL A   1      51.640  27.437  26.538  1.00  0.00     0.173 A 
ATOM     73  F   UNL A   1      50.157  28.191  23.303  1.00  0.00    -0.203 F 
ATOM     74  C   UNL A   1      52.394  27.754  23.885  1.00  0.00     0.198 A 
ATOM     75  C   UNL A   1      52.977  27.310  26.170  1.00  0.00     0.198 A 
ATOM     76  F   UNL A   1      51.308  27.267  27.826  1.00  0.00    -0.203 F 
ATOM     77  F   UNL A   1      52.750  27.871  22.597  1.00  0.00    -0.200 F 
ATOM     78  C   UNL A   1      53.352  27.460  24.843  1.00  0.00     0.200 A 
ATOM     79  F   UNL A   1      53.904  27.039  27.100  1.00  0.00    -0.200 F 
ATOM     80  F   UNL A   1      54.636  27.315  24.488  1.00  0.00    -0.200 F 
ENDBRANCH  56  70
BRANCH  57  81
ATOM     81  C   UNL A   1      41.078  28.343  28.361  1.00  0.00     0.064 A 
ATOM     82  C   UNL A   1      40.105  28.884  27.508  1.00  0.00     0.173 A 
ATOM     83  C   UNL A   1      40.667  27.915  29.630  1.00  0.00     0.173 A 
ATOM     84  F   UNL A   1      40.453  29.328  26.291  1.00  0.00    -0.203 F 
ATOM     85  C   UNL A   1      38.780  29.015  27.919  1.00  0.00     0.198 A 
ATOM     86  C   UNL A   1      39.337  28.020  30.030  1.00  0.00     0.198 A 
ATOM     87  F   UNL A   1      41.558  27.386  30.483  1.00  0.00    -0.203 F 
ATOM     88  F   UNL A   1      37.881  29.582  27.102  1.00  0.00    -0.200 F 
ATOM     89  C   UNL A   1      38.395  28.578  29.177  1.00  0.00     0.200 A 
ATOM     90  F   UNL A   1      38.966  27.584  31.241  1.00  0.00    -0.200 F 
ATOM     91  F   UNL A   1      37.121  28.704  29.571  1.00  0.00    -0.200 F 
ENDBRANCH  57  81
BRANCH  69  92
ATOM     92  C   UNL A   1      46.404  32.833  28.413  1.00  0.00     0.064 A 
ATOM     93  C   UNL A   1      46.821  33.195  29.703  1.00  0.00     0.173 A 
ATOM     94  C   UNL A   1      46.128  33.859  27.498  1.00  0.00     0.173 A 
ATOM     95  F   UNL A   1      47.082  32.251  30.618  1.00  0.00    -0.203 F 
ATOM     96  C   UNL A   1      46.931  34.535  30.067  1.00  0.00     0.198 A 
ATOM     97  C   UNL A   1      46.268  35.196  27.857  1.00  0.00     0.198 A 
ATOM     98  F   UNL A   1      45.732  33.565  26.250  1.00  0.00    -0.203 F 
ATOM     99  F   UNL A   1      47.285  34.859  31.319  1.00  0.00    -0.200 F 
ATOM    100  C   UNL A   1      46.662  35.533  29.143  1.00  0.00     0.200 A 
ATOM    101  F   UNL A   1      46.022  36.160  26.958  1.00  0.00    -0.200 F 
ATOM    102  F   UNL A   1      46.778  36.821  29.493  1.00  0.00    -0.200 F 
ENDBRANCH  69  92
ENDBRANCH  43  44
ENDBRANCH  35  38
ENDBRANCH  33  34
ENDBRANCH  32  33
ENDBRANCH  31  32
ENDBRANCH   1  31
TORSDOF 15
ENDMDL
MODEL 3
REMARK VINA RESULT:     -12.9      1.727      2.306
REMARK SMILES Cc1nnc(-c2ccccc2-c2cc(NCC(=O)NCCCCNC(=O)c3ccc(-c4c5nc(c(-c6c(F)c(F)c(F)c(F)c6F)c6ccc([nH]6)c(-c6c(F)c(F)c(F)c(F)c6F)c6nc(c(-c7c(F)c(F)c(F)c(F)c7F)c7ccc4[nH]7)C=C6)C=C5)cc3)nc3[nH]ccc23)o1
REMARK SMILES IDX 20 1 19 2 17 3 18 4 16 6 15 7 14 9 12 10 13 11 95 12 91 13
REMARK SMILES IDX 94 14 90 15 92 16 93 17 11 19 6 20 7 21 8 22 10 23 9 24 5 25
REMARK SMILES IDX 1 26 2 27 3 28 96 29 4 30 21 31 22 32 23 33 24 34 25 35
REMARK SMILES IDX 26 37 27 38 28 39 89 40 29 41 88 42 30 43 31 44 32 45 82 46
REMARK SMILES IDX 33 47 87 48 81 49 83 50 34 51 86 52 80 53 79 54 35 56 67 57
REMARK SMILES IDX 47 58 66 59 48 60 51 61 65 62 84 63 49 64 50 65 64 67 85 68
REMARK SMILES IDX 52 69 36 70 37 71 45 72 38 73 39 74 43 75 46 76 40 77 41 78
REMARK SMILES IDX 44 79 42 80 68 81 69 82 77 83 70 84 71 85 75 86 78 87 72 88
REMARK SMILES IDX 73 89 76 90 74 91 53 92 54 93 62 94 55 95 56 96 60 97 63 98
REMARK SMILES IDX 57 99 58 100 61 101 59 102
REMARK H PARENT 19 5 15 8 92 18 24 36 83 55 51 66
REMARK Flexibility Score: inf
ROOT
ATOM      1  C   UNL A   1      34.531  32.039  28.150  1.00  0.00     0.116 C 
ENDROOT
BRANCH   1   2
ATOM      2  N   UNL A   1      33.231  31.681  27.617  1.00  0.00    -0.355 N 
ATOM      3  C   UNL A   1      32.888  30.568  26.901  1.00  0.00     0.239 C 
ATOM      4  O   UNL A   1      31.753  30.515  26.420  1.00  0.00    -0.273 OA
ATOM      5  H   UNL A   1      32.503  32.321  27.793  1.00  0.00     0.163 HD
BRANCH   3   6
ATOM      6  C   UNL A   1      33.897  29.427  26.710  1.00  0.00     0.214 C 
BRANCH   6   7
ATOM      7  N   UNL A   1      33.533  28.583  25.577  1.00  0.00    -0.361 N 
ATOM      8  H   UNL A   1      33.397  28.991  24.692  1.00  0.00     0.162 HD
BRANCH   7   9
ATOM      9  C   UNL A   1      33.376  27.215  25.729  1.00  0.00     0.129 A 
ATOM     10  C   UNL A   1      34.390  24.994  25.660  1.00  0.00    -0.003 A 
ATOM     11  C   UNL A   1      34.462  26.384  25.449  1.00  0.00     0.056 A 
ATOM     12  C   UNL A   1      33.158  24.494  26.129  1.00  0.00     0.027 A 
ATOM     13  C   UNL A   1      32.137  25.413  26.321  1.00  0.00     0.140 A 
ATOM     14  C   UNL A   1      32.626  23.222  26.494  1.00  0.00     0.030 A 
ATOM     15  N   UNL A   1      32.184  26.740  26.135  1.00  0.00    -0.213 NA
ATOM     16  N   UNL A   1      31.029  24.741  26.757  1.00  0.00    -0.346 N 
ATOM     17  C   UNL A   1      31.312  23.405  26.873  1.00  0.00     0.085 A 
ATOM     18  H   UNL A   1      30.159  25.154  26.958  1.00  0.00     0.167 HD
BRANCH  10  19
ATOM     19  C   UNL A   1      35.515  24.083  25.402  1.00  0.00    -0.005 A 
ATOM     20  C   UNL A   1      35.556  23.200  24.301  1.00  0.00     0.047 A 
ATOM     21  C   UNL A   1      36.667  22.356  24.116  1.00  0.00     0.014 A 
ATOM     22  C   UNL A   1      37.739  22.378  25.006  1.00  0.00     0.001 A 
ATOM     23  C   UNL A   1      36.608  24.080  26.293  1.00  0.00     0.009 A 
ATOM     24  C   UNL A   1      37.708  23.241  26.096  1.00  0.00     0.001 A 
BRANCH  20  25
ATOM     25  C   UNL A   1      34.496  23.137  23.315  1.00  0.00     0.248 A 
ATOM     26  C   UNL A   1      31.778  21.274  22.076  1.00  0.00     0.113 C 
ATOM     27  C   UNL A   1      32.853  22.253  22.311  1.00  0.00     0.213 A 
ATOM     28  N   UNL A   1      33.163  23.337  21.634  1.00  0.00    -0.113 NA
ATOM     29  O   UNL A   1      33.665  22.049  23.392  1.00  0.00    -0.421 OA
ATOM     30  N   UNL A   1      34.221  23.921  22.296  1.00  0.00    -0.108 NA
ENDBRANCH  20  25
ENDBRANCH  10  19
ENDBRANCH   7   9
ENDBRANCH   6   7
ENDBRANCH   3   6
ENDBRANCH   1   2
BRANCH   1  31
ATOM     31  C   UNL A   1      34.430  33.247  29.081  1.00  0.00     0.023 C 
BRANCH  31  32
ATOM     32  C   UNL A   1      33.259  34.177  28.757  1.00  0.00     0.023 C 
BRANCH  32  33
ATOM     33  C   UNL A   1      33.435  35.621  29.206  1.00  0.00     0.116 C 
BRANCH  33  34
ATOM     34  N   UNL A   1      32.529  36.022  30.270  1.00  0.00    -0.352 N 
ATOM     35  C   UNL A   1      32.646  35.817  31.624  1.00  0.00     0.251 C 
ATOM     36  H   UNL A   1      31.722  36.505  29.981  1.00  0.00     0.163 HD
ATOM     37  O   UNL A   1      31.759  36.179  32.392  1.00  0.00    -0.269 OA
BRANCH  35  38
ATOM     38  C   UNL A   1      33.828  35.107  32.159  1.00  0.00     0.039 A 
ATOM     39  C   UNL A   1      33.660  33.810  32.651  1.00  0.00     0.014 A 
ATOM     40  C   UNL A   1      35.094  35.696  32.149  1.00  0.00     0.014 A 
ATOM     41  C   UNL A   1      34.773  33.079  33.071  1.00  0.00     0.010 A 
ATOM     42  C   UNL A   1      36.211  34.940  32.492  1.00  0.00     0.010 A 
ATOM     43  C   UNL A   1      36.062  33.625  32.961  1.00  0.00    -0.014 A 
BRANCH  43  44
ATOM     44  C   UNL A   1      37.266  32.846  33.342  1.00  0.00     0.031 A 
ATOM     45  C   UNL A   1      37.967  33.135  34.639  1.00  0.00     0.074 A 
ATOM     46  C   UNL A   1      37.766  31.925  32.494  1.00  0.00     0.049 A 
ATOM     47  N   UNL A   1      39.078  32.630  35.114  1.00  0.00    -0.248 NA
ATOM     48  C   UNL A   1      37.353  34.152  35.508  1.00  0.00     0.031 C 
ATOM     49  C   UNL A   1      37.201  31.582  31.188  1.00  0.00     0.029 A 
ATOM     50  N   UNL A   1      38.871  31.117  32.602  1.00  0.00    -0.354 N 
ATOM     51  C   UNL A   1      39.301  33.277  36.321  1.00  0.00     0.074 A 
ATOM     52  C   UNL A   1      38.244  34.252  36.482  1.00  0.00     0.031 C 
ATOM     53  C   UNL A   1      37.950  30.618  30.626  1.00  0.00     0.029 A 
ATOM     54  C   UNL A   1      39.066  30.303  31.513  1.00  0.00     0.049 A 
ATOM     55  H   UNL A   1      39.467  31.120  33.385  1.00  0.00     0.167 HD
ATOM     56  C   UNL A   1      40.283  33.061  37.228  1.00  0.00     0.037 A 
ATOM     57  C   UNL A   1      40.040  29.410  31.257  1.00  0.00     0.037 A 
ATOM     58  C   UNL A   1      41.318  32.072  37.079  1.00  0.00     0.049 A 
ATOM     59  C   UNL A   1      41.125  29.192  32.278  1.00  0.00     0.074 A 
ATOM     60  C   UNL A   1      42.331  31.741  37.963  1.00  0.00     0.029 A 
ATOM     61  N   UNL A   1      41.469  31.250  35.971  1.00  0.00    -0.354 N 
ATOM     62  N   UNL A   1      41.293  29.769  33.444  1.00  0.00    -0.248 NA
ATOM     63  C   UNL A   1      42.153  28.195  31.951  1.00  0.00     0.031 C 
ATOM     64  C   UNL A   1      43.119  30.748  37.372  1.00  0.00     0.029 A 
ATOM     65  C   UNL A   1      42.569  30.424  36.143  1.00  0.00     0.049 A 
ATOM     66  H   UNL A   1      40.882  31.254  35.182  1.00  0.00     0.167 HD
ATOM     67  C   UNL A   1      42.420  29.180  34.002  1.00  0.00     0.074 A 
ATOM     68  C   UNL A   1      42.890  28.195  33.052  1.00  0.00     0.031 C 
ATOM     69  C   UNL A   1      43.012  29.435  35.195  1.00  0.00     0.037 A 
BRANCH  56  70
ATOM     70  C   UNL A   1      40.280  33.909  38.468  1.00  0.00     0.064 A 
ATOM     71  C   UNL A   1      39.557  33.535  39.611  1.00  0.00     0.173 A 
ATOM     72  C   UNL A   1      41.033  35.091  38.526  1.00  0.00     0.173 A 
ATOM     73  F   UNL A   1      38.812  32.420  39.604  1.00  0.00    -0.203 F 
ATOM     74  C   UNL A   1      39.562  34.330  40.753  1.00  0.00     0.198 A 
ATOM     75  C   UNL A   1      41.060  35.867  39.681  1.00  0.00     0.198 A 
ATOM     76  F   UNL A   1      41.747  35.493  37.463  1.00  0.00    -0.203 F 
ATOM     77  F   UNL A   1      38.821  33.979  41.815  1.00  0.00    -0.200 F 
ATOM     78  C   UNL A   1      40.318  35.491  40.791  1.00  0.00     0.200 A 
ATOM     79  F   UNL A   1      41.803  36.983  39.720  1.00  0.00    -0.200 F 
ATOM     80  F   UNL A   1      40.327  36.252  41.894  1.00  0.00    -0.200 F 
ENDBRANCH  56  70
BRANCH  57  81
ATOM     81  C   UNL A   1      40.023  28.628  29.993  1.00  0.00     0.064 A 
ATOM     82  C   UNL A   1      39.424  27.361  29.941  1.00  0.00     0.173 A 
ATOM     83  C   UNL A   1      40.612  29.119  28.819  1.00  0.00     0.173 A 
ATOM     84  F   UNL A   1      38.866  26.839  31.043  1.00  0.00    -0.203 F 
ATOM     85  C   UNL A   1      39.436  26.605  28.771  1.00  0.00     0.198 A 
ATOM     86  C   UNL A   1      40.599  28.374  27.642  1.00  0.00     0.198 A 
ATOM     87  F   UNL A   1      41.195  30.327  28.814  1.00  0.00    -0.203 F 
ATOM     88  F   UNL A   1      38.901  25.377  28.764  1.00  0.00    -0.200 F 
ATOM     89  C   UNL A   1      40.019  27.114  27.620  1.00  0.00     0.200 A 
ATOM     90  F   UNL A   1      41.151  28.875  26.528  1.00  0.00    -0.200 F 
ATOM     91  F   UNL A   1      40.031  26.387  26.495  1.00  0.00    -0.200 F 
ENDBRANCH  57  81
BRANCH  69  92
ATOM     92  C   UNL A   1      44.203  28.599  35.564  1.00  0.00     0.064 A 
ATOM     93  C   UNL A   1      45.510  28.994  35.242  1.00  0.00     0.173 A 
ATOM     94  C   UNL A   1      44.034  27.408  36.287  1.00  0.00     0.173 A 
ATOM     95  F   UNL A   1      45.722  30.117  34.540  1.00  0.00    -0.203 F 
ATOM     96  C   UNL A   1      46.603  28.212  35.607  1.00  0.00     0.198 A 
ATOM     97  C   UNL A   1      45.131  26.645  36.676  1.00  0.00     0.198 A 
ATOM     98  F   UNL A   1      42.806  26.990  36.625  1.00  0.00    -0.203 F 
ATOM     99  F   UNL A   1      47.839  28.584  35.247  1.00  0.00    -0.200 F 
ATOM    100  C   UNL A   1      46.413  27.044  36.330  1.00  0.00     0.200 A 
ATOM    101  F   UNL A   1      44.947  25.524  37.387  1.00  0.00    -0.200 F 
ATOM    102  F   UNL A   1      47.467  26.297  36.688  1.00  0.00    -0.200 F 
ENDBRANCH  69  92
ENDBRANCH  43  44
ENDBRANCH  35  38
ENDBRANCH  33  34
ENDBRANCH  32  33
ENDBRANCH  31  32
ENDBRANCH   1  31
TORSDOF 15
ENDMDL
