MODEL 1
REMARK VINA RESULT:     -13.0      0.000      0.000
REMARK SMILES O=C(C[C@@H](C(=O)N(c1ccccc1)c1ccccc1)[NH+]1CCOCC1)NCCCCNC(=O)c1ccc(-c2c3nc(c(-c4c(F)c(F)c(F)c(F)c4F)c4ccc([nH]4)c(-c4c(F)c(F)c(F)c(F)c4F)c4nc(c(-c5c(F)c(F)c(F)c(F)c5F)c5ccc2[nH]5)C=C4)C=C3)cc1
REMARK SMILES IDX 28 1 27 2 26 3 1 4 2 5 3 7 4 8 5 9 6 10 7 11 8 12 9 13 13 14
REMARK SMILES IDX 10 15 12 16 11 17 14 18 15 19 19 20 16 21 18 22 17 23 20 24
REMARK SMILES IDX 21 25 25 26 22 28 24 29 23 30 29 31 30 32 31 33 32 34 33 36
REMARK SMILES IDX 34 37 35 38 96 39 36 40 95 41 37 42 38 43 39 44 89 45 40 46
REMARK SMILES IDX 94 47 88 48 90 49 41 50 93 51 87 52 86 53 42 55 74 56 54 57
REMARK SMILES IDX 73 58 55 59 58 60 72 61 91 62 56 63 57 64 71 66 92 67 59 68
REMARK SMILES IDX 43 69 44 70 52 71 45 72 46 73 50 74 53 75 47 76 48 77 51 78
REMARK SMILES IDX 49 79 75 80 76 81 84 82 77 83 78 84 82 85 85 86 79 87 80 88
REMARK SMILES IDX 83 89 81 90 60 91 61 92 69 93 62 94 63 95 67 96 70 97 64 98
REMARK SMILES IDX 65 99 68 100 66 101
REMARK H PARENT 26 6 20 27 31 35 90 54 58 65
REMARK Flexibility Score: inf
ROOT
ATOM      1  C   UNL A   1      32.021  27.667  26.791  1.00  0.00     0.023 C 
ENDROOT
BRANCH   1   2
ATOM      2  C   UNL A   1      31.035  26.496  26.851  1.00  0.00     0.116 C 
BRANCH   2   3
ATOM      3  N   UNL A   1      31.563  25.218  26.404  1.00  0.00    -0.356 N 
ATOM      4  O   UNL A   1      29.859  23.919  27.253  1.00  0.00    -0.275 OA
ATOM      5  C   UNL A   1      30.843  24.041  26.530  1.00  0.00     0.226 C 
ATOM      6  H   UNL A   1      32.459  25.188  25.998  1.00  0.00     0.163 HD
BRANCH   5   7
ATOM      7  C   UNL A   1      31.432  22.865  25.775  1.00  0.00     0.175 C 
BRANCH   7   8
ATOM      8  C   UNL A   1      32.938  22.829  25.393  1.00  0.00     0.284 C 
BRANCH   8   9
ATOM      9  C   UNL A   1      33.887  21.700  25.979  1.00  0.00     0.290 C 
ATOM     10  O   UNL A   1      33.900  21.414  27.183  1.00  0.00    -0.267 OA
ATOM     11  N   UNL A   1      34.656  20.956  25.086  1.00  0.00    -0.276 N 
BRANCH  11  12
ATOM     12  C   UNL A   1      34.126  19.688  24.620  1.00  0.00     0.049 A 
ATOM     13  C   UNL A   1      34.858  18.491  24.632  1.00  0.00     0.027 A 
ATOM     14  C   UNL A   1      32.852  19.646  24.024  1.00  0.00     0.027 A 
ATOM     15  C   UNL A   1      34.392  17.353  23.953  1.00  0.00     0.002 A 
ATOM     16  C   UNL A   1      32.409  18.533  23.304  1.00  0.00     0.002 A 
ATOM     17  C   UNL A   1      33.191  17.390  23.250  1.00  0.00     0.000 A 
ENDBRANCH  11  12
BRANCH  11  18
ATOM     18  C   UNL A   1      36.075  21.095  25.166  1.00  0.00     0.049 A 
ATOM     19  C   UNL A   1      36.609  22.328  25.556  1.00  0.00     0.027 A 
ATOM     20  C   UNL A   1      36.948  20.014  24.998  1.00  0.00     0.027 A 
ATOM     21  C   UNL A   1      37.976  22.486  25.785  1.00  0.00     0.002 A 
ATOM     22  C   UNL A   1      38.323  20.175  25.214  1.00  0.00     0.002 A 
ATOM     23  C   UNL A   1      38.832  21.405  25.621  1.00  0.00     0.000 A 
ENDBRANCH  11  18
ENDBRANCH   8   9
BRANCH   8  24
ATOM     24  N   UNL A   1      33.208  23.134  23.923  1.00  0.00    -0.320 N 
ATOM     25  C   UNL A   1      34.084  24.282  23.599  1.00  0.00     0.291 C 
ATOM     26  C   UNL A   1      32.081  23.191  22.968  1.00  0.00     0.291 C 
ATOM     27  H   UNL A   1      33.704  22.255  23.781  1.00  0.00     0.348 HD
ATOM     28  C   UNL A   1      33.349  25.639  23.547  1.00  0.00     0.221 C 
ATOM     29  C   UNL A   1      31.328  24.525  23.020  1.00  0.00     0.221 C 
ATOM     30  O   UNL A   1      32.206  25.609  22.684  1.00  0.00    -0.370 OA
ENDBRANCH   8  24
ENDBRANCH   7   8
ENDBRANCH   5   7
ENDBRANCH   2   3
ENDBRANCH   1   2
BRANCH   1  31
ATOM     31  C   UNL A   1      31.686  28.826  25.840  1.00  0.00     0.023 C 
BRANCH  31  32
ATOM     32  C   UNL A   1      32.741  29.922  25.655  1.00  0.00     0.116 C 
BRANCH  32  33
ATOM     33  N   UNL A   1      32.430  31.194  26.279  1.00  0.00    -0.352 N 
ATOM     34  C   UNL A   1      33.150  31.903  27.214  1.00  0.00     0.251 C 
ATOM     35  H   UNL A   1      31.583  31.609  25.994  1.00  0.00     0.163 HD
ATOM     36  O   UNL A   1      32.721  32.988  27.623  1.00  0.00    -0.269 OA
BRANCH  34  37
ATOM     37  C   UNL A   1      34.408  31.370  27.791  1.00  0.00     0.039 A 
ATOM     38  C   UNL A   1      35.468  32.256  28.008  1.00  0.00     0.014 A 
ATOM     39  C   UNL A   1      34.579  30.017  28.094  1.00  0.00     0.014 A 
ATOM     40  C   UNL A   1      36.658  31.808  28.601  1.00  0.00     0.010 A 
ATOM     41  C   UNL A   1      35.755  29.583  28.731  1.00  0.00     0.010 A 
ATOM     42  C   UNL A   1      36.802  30.474  29.022  1.00  0.00    -0.014 A 
BRANCH  42  43
ATOM     43  C   UNL A   1      38.008  30.041  29.805  1.00  0.00     0.031 A 
ATOM     44  C   UNL A   1      38.263  30.515  31.216  1.00  0.00     0.074 A 
ATOM     45  C   UNL A   1      38.928  29.238  29.228  1.00  0.00     0.049 A 
ATOM     46  N   UNL A   1      39.263  30.231  32.018  1.00  0.00    -0.248 NA
ATOM     47  C   UNL A   1      37.288  31.451  31.793  1.00  0.00     0.031 C 
ATOM     48  C   UNL A   1      38.879  28.747  27.851  1.00  0.00     0.029 A 
ATOM     49  N   UNL A   1      40.089  28.687  29.729  1.00  0.00    -0.354 N 
ATOM     50  C   UNL A   1      39.050  30.964  33.179  1.00  0.00     0.074 A 
ATOM     51  C   UNL A   1      37.851  31.745  32.958  1.00  0.00     0.031 C 
ATOM     52  C   UNL A   1      39.926  27.936  27.632  1.00  0.00     0.029 A 
ATOM     53  C   UNL A   1      40.749  27.875  28.837  1.00  0.00     0.049 A 
ATOM     54  H   UNL A   1      40.414  28.860  30.642  1.00  0.00     0.167 HD
ATOM     55  C   UNL A   1      39.765  30.972  34.333  1.00  0.00     0.037 A 
ATOM     56  C   UNL A   1      41.882  27.156  28.962  1.00  0.00     0.037 A 
ATOM     57  C   UNL A   1      40.934  30.167  34.591  1.00  0.00     0.049 A 
ATOM     58  C   UNL A   1      42.643  27.162  30.261  1.00  0.00     0.074 A 
ATOM     59  C   UNL A   1      41.655  30.050  35.769  1.00  0.00     0.029 A 
ATOM     60  N   UNL A   1      41.555  29.344  33.666  1.00  0.00    -0.354 N 
ATOM     61  N   UNL A   1      42.370  27.788  31.378  1.00  0.00    -0.248 NA
ATOM     62  C   UNL A   1      43.872  26.354  30.315  1.00  0.00     0.031 C 
ATOM     63  C   UNL A   1      42.741  29.196  35.543  1.00  0.00     0.029 A 
ATOM     64  C   UNL A   1      42.665  28.738  34.240  1.00  0.00     0.049 A 
ATOM     65  H   UNL A   1      41.255  29.210  32.738  1.00  0.00     0.167 HD
ATOM     66  C   UNL A   1      43.369  27.424  32.273  1.00  0.00     0.074 A 
ATOM     67  C   UNL A   1      44.249  26.511  31.576  1.00  0.00     0.031 C 
ATOM     68  C   UNL A   1      43.538  27.817  33.559  1.00  0.00     0.037 A 
BRANCH  55  69
ATOM     69  C   UNL A   1      39.297  31.879  35.437  1.00  0.00     0.064 A 
ATOM     70  C   UNL A   1      38.400  31.438  36.421  1.00  0.00     0.173 A 
ATOM     71  C   UNL A   1      39.807  33.182  35.553  1.00  0.00     0.173 A 
ATOM     72  F   UNL A   1      37.884  30.202  36.358  1.00  0.00    -0.203 F 
ATOM     73  C   UNL A   1      38.002  32.279  37.458  1.00  0.00     0.198 A 
ATOM     74  C   UNL A   1      39.433  34.009  36.611  1.00  0.00     0.198 A 
ATOM     75  F   UNL A   1      40.683  33.650  34.651  1.00  0.00    -0.203 F 
ATOM     76  F   UNL A   1      37.106  31.851  38.358  1.00  0.00    -0.200 F 
ATOM     77  C   UNL A   1      38.525  33.559  37.557  1.00  0.00     0.200 A 
ATOM     78  F   UNL A   1      39.955  35.239  36.715  1.00  0.00    -0.200 F 
ATOM     79  F   UNL A   1      38.149  34.363  38.561  1.00  0.00    -0.200 F 
ENDBRANCH  55  69
BRANCH  56  80
ATOM     80  C   UNL A   1      42.366  26.329  27.825  1.00  0.00     0.064 A 
ATOM     81  C   UNL A   1      43.345  26.818  26.948  1.00  0.00     0.173 A 
ATOM     82  C   UNL A   1      41.845  25.051  27.574  1.00  0.00     0.173 A 
ATOM     83  F   UNL A   1      43.856  28.044  27.132  1.00  0.00    -0.203 F 
ATOM     84  C   UNL A   1      43.767  26.070  25.851  1.00  0.00     0.198 A 
ATOM     85  C   UNL A   1      42.290  24.293  26.495  1.00  0.00     0.198 A 
ATOM     86  F   UNL A   1      40.909  24.538  28.386  1.00  0.00    -0.203 F 
ATOM     87  F   UNL A   1      44.666  26.583  24.999  1.00  0.00    -0.200 F 
ATOM     88  C   UNL A   1      43.244  24.806  25.628  1.00  0.00     0.200 A 
ATOM     89  F   UNL A   1      41.792  23.066  26.290  1.00  0.00    -0.200 F 
ATOM     90  F   UNL A   1      43.650  24.087  24.573  1.00  0.00    -0.200 F 
ENDBRANCH  56  80
BRANCH  68  91
ATOM     91  C   UNL A   1      44.693  27.232  34.324  1.00  0.00     0.064 A 
ATOM     92  C   UNL A   1      45.941  27.870  34.383  1.00  0.00     0.173 A 
ATOM     93  C   UNL A   1      44.538  26.033  35.038  1.00  0.00     0.173 A 
ATOM     94  F   UNL A   1      46.149  29.011  33.707  1.00  0.00    -0.203 F 
ATOM     95  C   UNL A   1      46.996  27.319  35.107  1.00  0.00     0.198 A 
ATOM     96  C   UNL A   1      45.586  25.499  35.785  1.00  0.00     0.198 A 
ATOM     97  F   UNL A   1      43.365  25.382  35.019  1.00  0.00    -0.203 F 
ATOM     98  F   UNL A   1      48.192  27.922  35.111  1.00  0.00    -0.200 F 
ATOM     99  C   UNL A   1      46.816  26.139  35.813  1.00  0.00     0.200 A 
ATOM    100  F   UNL A   1      45.405  24.365  36.476  1.00  0.00    -0.200 F 
ATOM    101  F   UNL A   1      47.830  25.613  36.515  1.00  0.00    -0.200 F 
ENDBRANCH  68  91
ENDBRANCH  42  43
ENDBRANCH  34  37
ENDBRANCH  32  33
ENDBRANCH  31  32
ENDBRANCH   1  31
TORSDOF 16
ENDMDL
MODEL 2
REMARK VINA RESULT:     -13.0      1.009      2.800
REMARK SMILES O=C(C[C@@H](C(=O)N(c1ccccc1)c1ccccc1)[NH+]1CCOCC1)NCCCCNC(=O)c1ccc(-c2c3nc(c(-c4c(F)c(F)c(F)c(F)c4F)c4ccc([nH]4)c(-c4c(F)c(F)c(F)c(F)c4F)c4nc(c(-c5c(F)c(F)c(F)c(F)c5F)c5ccc2[nH]5)C=C4)C=C3)cc1
REMARK SMILES IDX 28 1 27 2 26 3 1 4 2 5 3 7 4 8 5 9 6 10 7 11 8 12 9 13 13 14
REMARK SMILES IDX 10 15 12 16 11 17 14 18 15 19 19 20 16 21 18 22 17 23 20 24
REMARK SMILES IDX 21 25 25 26 22 28 24 29 23 30 29 31 30 32 31 33 32 34 33 36
REMARK SMILES IDX 34 37 35 38 96 39 36 40 95 41 37 42 38 43 39 44 89 45 40 46
REMARK SMILES IDX 94 47 88 48 90 49 41 50 93 51 87 52 86 53 42 55 74 56 54 57
REMARK SMILES IDX 73 58 55 59 58 60 72 61 91 62 56 63 57 64 71 66 92 67 59 68
REMARK SMILES IDX 43 69 44 70 52 71 45 72 46 73 50 74 53 75 47 76 48 77 51 78
REMARK SMILES IDX 49 79 75 80 76 81 84 82 77 83 78 84 82 85 85 86 79 87 80 88
REMARK SMILES IDX 83 89 81 90 60 91 61 92 69 93 62 94 63 95 67 96 70 97 64 98
REMARK SMILES IDX 65 99 68 100 66 101
REMARK H PARENT 26 6 20 27 31 35 90 54 58 65
REMARK Flexibility Score: inf
ROOT
ATOM      1  C   UNL A   1      32.985  29.318  24.367  1.00  0.00     0.023 C 
ENDROOT
BRANCH   1   2
ATOM      2  C   UNL A   1      32.743  28.724  22.977  1.00  0.00     0.116 C 
BRANCH   2   3
ATOM      3  N   UNL A   1      31.883  27.552  22.945  1.00  0.00    -0.356 N 
ATOM      4  O   UNL A   1      33.486  26.069  22.209  1.00  0.00    -0.275 OA
ATOM      5  C   UNL A   1      32.378  26.284  22.691  1.00  0.00     0.226 C 
ATOM      6  H   UNL A   1      30.919  27.664  23.110  1.00  0.00     0.163 HD
BRANCH   5   7
ATOM      7  C   UNL A   1      31.393  25.163  22.959  1.00  0.00     0.175 C 
BRANCH   7   8
ATOM      8  C   UNL A   1      31.810  23.905  23.772  1.00  0.00     0.284 C 
BRANCH   8   9
ATOM      9  C   UNL A   1      32.913  22.914  23.206  1.00  0.00     0.290 C 
ATOM     10  O   UNL A   1      33.128  22.795  21.993  1.00  0.00    -0.267 OA
ATOM     11  N   UNL A   1      33.717  22.234  24.117  1.00  0.00    -0.276 N 
BRANCH  11  12
ATOM     12  C   UNL A   1      35.004  22.811  24.458  1.00  0.00     0.049 A 
ATOM     13  C   UNL A   1      36.130  22.743  23.623  1.00  0.00     0.027 A 
ATOM     14  C   UNL A   1      35.192  23.386  25.729  1.00  0.00     0.027 A 
ATOM     15  C   UNL A   1      37.403  23.100  24.097  1.00  0.00     0.002 A 
ATOM     16  C   UNL A   1      36.463  23.694  26.221  1.00  0.00     0.002 A 
ATOM     17  C   UNL A   1      37.575  23.530  25.410  1.00  0.00     0.000 A 
ENDBRANCH  11  12
BRANCH  11  18
ATOM     18  C   UNL A   1      33.591  20.812  24.173  1.00  0.00     0.049 A 
ATOM     19  C   UNL A   1      32.495  20.210  23.547  1.00  0.00     0.027 A 
ATOM     20  C   UNL A   1      34.585  19.988  24.712  1.00  0.00     0.027 A 
ATOM     21  C   UNL A   1      32.388  18.822  23.447  1.00  0.00     0.002 A 
ATOM     22  C   UNL A   1      34.473  18.595  24.626  1.00  0.00     0.002 A 
ATOM     23  C   UNL A   1      33.383  18.015  23.982  1.00  0.00     0.000 A 
ENDBRANCH  11  18
ENDBRANCH   8   9
BRANCH   8  24
ATOM     24  N   UNL A   1      31.942  24.155  25.270  1.00  0.00    -0.320 N 
ATOM     25  C   UNL A   1      31.554  23.068  26.196  1.00  0.00     0.291 C 
ATOM     26  C   UNL A   1      31.410  25.405  25.854  1.00  0.00     0.291 C 
ATOM     27  H   UNL A   1      32.958  24.233  25.217  1.00  0.00     0.348 HD
ATOM     28  C   UNL A   1      30.046  23.034  26.530  1.00  0.00     0.221 C 
ATOM     29  C   UNL A   1      29.895  25.353  26.081  1.00  0.00     0.221 C 
ATOM     30  O   UNL A   1      29.561  24.299  26.996  1.00  0.00    -0.370 OA
ENDBRANCH   8  24
ENDBRANCH   7   8
ENDBRANCH   5   7
ENDBRANCH   2   3
ENDBRANCH   1   2
BRANCH   1  31
ATOM     31  C   UNL A   1      31.800  29.336  25.345  1.00  0.00     0.023 C 
BRANCH  31  32
ATOM     32  C   UNL A   1      32.044  29.902  26.748  1.00  0.00     0.116 C 
BRANCH  32  33
ATOM     33  N   UNL A   1      32.087  31.350  26.833  1.00  0.00    -0.352 N 
ATOM     34  C   UNL A   1      33.099  32.164  27.290  1.00  0.00     0.251 C 
ATOM     35  H   UNL A   1      31.277  31.816  26.520  1.00  0.00     0.163 HD
ATOM     36  O   UNL A   1      32.951  33.391  27.274  1.00  0.00    -0.269 OA
BRANCH  34  37
ATOM     37  C   UNL A   1      34.348  31.603  27.859  1.00  0.00     0.039 A 
ATOM     38  C   UNL A   1      35.413  32.474  28.112  1.00  0.00     0.014 A 
ATOM     39  C   UNL A   1      34.507  30.240  28.120  1.00  0.00     0.014 A 
ATOM     40  C   UNL A   1      36.595  31.999  28.699  1.00  0.00     0.010 A 
ATOM     41  C   UNL A   1      35.674  29.778  28.751  1.00  0.00     0.010 A 
ATOM     42  C   UNL A   1      36.726  30.650  29.078  1.00  0.00    -0.014 A 
BRANCH  42  43
ATOM     43  C   UNL A   1      37.923  30.184  29.856  1.00  0.00     0.031 A 
ATOM     44  C   UNL A   1      38.167  30.606  31.285  1.00  0.00     0.074 A 
ATOM     45  C   UNL A   1      38.844  29.397  29.259  1.00  0.00     0.049 A 
ATOM     46  N   UNL A   1      39.159  30.288  32.085  1.00  0.00    -0.248 NA
ATOM     47  C   UNL A   1      37.192  31.525  31.887  1.00  0.00     0.031 C 
ATOM     48  C   UNL A   1      38.805  28.956  27.865  1.00  0.00     0.029 A 
ATOM     49  N   UNL A   1      39.998  28.823  29.750  1.00  0.00    -0.354 N 
ATOM     50  C   UNL A   1      38.939  30.981  33.270  1.00  0.00     0.074 A 
ATOM     51  C   UNL A   1      37.746  31.775  33.066  1.00  0.00     0.031 C 
ATOM     52  C   UNL A   1      39.850  28.147  27.626  1.00  0.00     0.029 A 
ATOM     53  C   UNL A   1      40.662  28.040  28.835  1.00  0.00     0.049 A 
ATOM     54  H   UNL A   1      40.316  28.961  30.671  1.00  0.00     0.167 HD
ATOM     55  C   UNL A   1      39.644  30.943  34.430  1.00  0.00     0.037 A 
ATOM     56  C   UNL A   1      41.790  27.311  28.945  1.00  0.00     0.037 A 
ATOM     57  C   UNL A   1      40.806  30.124  34.669  1.00  0.00     0.049 A 
ATOM     58  C   UNL A   1      42.540  27.267  30.250  1.00  0.00     0.074 A 
ATOM     59  C   UNL A   1      41.517  29.961  35.849  1.00  0.00     0.029 A 
ATOM     60  N   UNL A   1      41.432  29.331  33.721  1.00  0.00    -0.354 N 
ATOM     61  N   UNL A   1      42.260  27.854  31.386  1.00  0.00    -0.248 NA
ATOM     62  C   UNL A   1      43.764  26.450  30.285  1.00  0.00     0.031 C 
ATOM     63  C   UNL A   1      42.600  29.111  35.602  1.00  0.00     0.029 A 
ATOM     64  C   UNL A   1      42.534  28.700  34.283  1.00  0.00     0.049 A 
ATOM     65  H   UNL A   1      41.140  29.232  32.786  1.00  0.00     0.167 HD
ATOM     66  C   UNL A   1      43.249  27.453  32.276  1.00  0.00     0.074 A 
ATOM     67  C   UNL A   1      44.130  26.560  31.554  1.00  0.00     0.031 C 
ATOM     68  C   UNL A   1      43.408  27.799  33.577  1.00  0.00     0.037 A 
BRANCH  55  69
ATOM     69  C   UNL A   1      39.170  31.813  35.562  1.00  0.00     0.064 A 
ATOM     70  C   UNL A   1      38.301  31.327  36.549  1.00  0.00     0.173 A 
ATOM     71  C   UNL A   1      39.648  33.126  35.699  1.00  0.00     0.173 A 
ATOM     72  F   UNL A   1      37.816  30.079  36.466  1.00  0.00    -0.203 F 
ATOM     73  C   UNL A   1      37.898  32.133  37.611  1.00  0.00     0.198 A 
ATOM     74  C   UNL A   1      39.270  33.919  36.781  1.00  0.00     0.198 A 
ATOM     75  F   UNL A   1      40.497  33.637  34.794  1.00  0.00    -0.203 F 
ATOM     76  F   UNL A   1      37.028  31.662  38.515  1.00  0.00    -0.200 F 
ATOM     77  C   UNL A   1      38.389  33.424  37.731  1.00  0.00     0.200 A 
ATOM     78  F   UNL A   1      39.761  35.159  36.905  1.00  0.00    -0.200 F 
ATOM     79  F   UNL A   1      38.009  34.195  38.759  1.00  0.00    -0.200 F 
ENDBRANCH  55  69
BRANCH  56  80
ATOM     80  C   UNL A   1      42.281  26.522  27.783  1.00  0.00     0.064 A 
ATOM     81  C   UNL A   1      41.799  25.227  27.541  1.00  0.00     0.173 A 
ATOM     82  C   UNL A   1      43.254  27.030  26.911  1.00  0.00     0.173 A 
ATOM     83  F   UNL A   1      40.886  24.688  28.363  1.00  0.00    -0.203 F 
ATOM     84  C   UNL A   1      42.290  24.462  26.485  1.00  0.00     0.198 A 
ATOM     85  C   UNL A   1      43.721  26.276  25.837  1.00  0.00     0.198 A 
ATOM     86  F   UNL A   1      43.743  28.265  27.097  1.00  0.00    -0.203 F 
ATOM     87  F   UNL A   1      41.852  23.208  26.309  1.00  0.00    -0.200 F 
ATOM     88  C   UNL A   1      43.246  24.988  25.631  1.00  0.00     0.200 A 
ATOM     89  F   UNL A   1      44.635  26.793  25.006  1.00  0.00    -0.200 F 
ATOM     90  F   UNL A   1      43.718  24.253  24.616  1.00  0.00    -0.200 F 
ENDBRANCH  56  80
BRANCH  68  91
ATOM     91  C   UNL A   1      44.553  27.181  34.330  1.00  0.00     0.064 A 
ATOM     92  C   UNL A   1      45.804  27.810  34.423  1.00  0.00     0.173 A 
ATOM     93  C   UNL A   1      44.386  25.959  35.000  1.00  0.00     0.173 A 
ATOM     94  F   UNL A   1      46.024  28.973  33.790  1.00  0.00    -0.203 F 
ATOM     95  C   UNL A   1      46.850  27.228  35.136  1.00  0.00     0.198 A 
ATOM     96  C   UNL A   1      45.425  25.393  35.736  1.00  0.00     0.198 A 
ATOM     97  F   UNL A   1      43.210  25.314  34.948  1.00  0.00    -0.203 F 
ATOM     98  F   UNL A   1      48.049  27.824  35.171  1.00  0.00    -0.200 F 
ATOM     99  C   UNL A   1      46.658  26.024  35.798  1.00  0.00     0.200 A 
ATOM    100  F   UNL A   1      45.232  24.236  36.385  1.00  0.00    -0.200 F 
ATOM    101  F   UNL A   1      47.663  25.469  36.489  1.00  0.00    -0.200 F 
ENDBRANCH  68  91
ENDBRANCH  42  43
ENDBRANCH  34  37
ENDBRANCH  32  33
ENDBRANCH  31  32
ENDBRANCH   1  31
TORSDOF 16
ENDMDL
MODEL 3
REMARK VINA RESULT:     -13.0      3.004      4.314
REMARK SMILES O=C(C[C@@H](C(=O)N(c1ccccc1)c1ccccc1)[NH+]1CCOCC1)NCCCCNC(=O)c1ccc(-c2c3nc(c(-c4c(F)c(F)c(F)c(F)c4F)c4ccc([nH]4)c(-c4c(F)c(F)c(F)c(F)c4F)c4nc(c(-c5c(F)c(F)c(F)c(F)c5F)c5ccc2[nH]5)C=C4)C=C3)cc1
REMARK SMILES IDX 28 1 27 2 26 3 1 4 2 5 3 7 4 8 5 9 6 10 7 11 8 12 9 13 13 14
REMARK SMILES IDX 10 15 12 16 11 17 14 18 15 19 19 20 16 21 18 22 17 23 20 24
REMARK SMILES IDX 21 25 25 26 22 28 24 29 23 30 29 31 30 32 31 33 32 34 33 36
REMARK SMILES IDX 34 37 35 38 96 39 36 40 95 41 37 42 38 43 39 44 89 45 40 46
REMARK SMILES IDX 94 47 88 48 90 49 41 50 93 51 87 52 86 53 42 55 74 56 54 57
REMARK SMILES IDX 73 58 55 59 58 60 72 61 91 62 56 63 57 64 71 66 92 67 59 68
REMARK SMILES IDX 43 69 44 70 52 71 45 72 46 73 50 74 53 75 47 76 48 77 51 78
REMARK SMILES IDX 49 79 75 80 76 81 84 82 77 83 78 84 82 85 85 86 79 87 80 88
REMARK SMILES IDX 83 89 81 90 60 91 61 92 69 93 62 94 63 95 67 96 70 97 64 98
REMARK SMILES IDX 65 99 68 100 66 101
REMARK H PARENT 26 6 20 27 31 35 90 54 58 65
REMARK Flexibility Score: inf
ROOT
ATOM      1  C   UNL A   1      31.588  28.391  25.876  1.00  0.00     0.023 C 
ENDROOT
BRANCH   1   2
ATOM      2  C   UNL A   1      31.243  27.383  26.976  1.00  0.00     0.116 C 
BRANCH   2   3
ATOM      3  N   UNL A   1      31.496  25.991  26.643  1.00  0.00    -0.356 N 
ATOM      4  O   UNL A   1      29.290  25.328  26.586  1.00  0.00    -0.275 OA
ATOM      5  C   UNL A   1      30.472  25.110  26.339  1.00  0.00     0.226 C 
ATOM      6  H   UNL A   1      32.425  25.665  26.631  1.00  0.00     0.163 HD
BRANCH   5   7
ATOM      7  C   UNL A   1      30.937  23.786  25.762  1.00  0.00     0.175 C 
BRANCH   7   8
ATOM      8  C   UNL A   1      32.430  23.547  25.402  1.00  0.00     0.284 C 
BRANCH   8   9
ATOM      9  C   UNL A   1      33.257  22.402  26.126  1.00  0.00     0.290 C 
ATOM     10  O   UNL A   1      33.249  22.266  27.357  1.00  0.00    -0.267 OA
ATOM     11  N   UNL A   1      33.932  21.476  25.335  1.00  0.00    -0.276 N 
BRANCH  11  12
ATOM     12  C   UNL A   1      33.264  20.225  25.026  1.00  0.00     0.049 A 
ATOM     13  C   UNL A   1      33.148  19.163  25.935  1.00  0.00     0.027 A 
ATOM     14  C   UNL A   1      32.787  19.998  23.721  1.00  0.00     0.027 A 
ATOM     15  C   UNL A   1      32.711  17.896  25.514  1.00  0.00     0.002 A 
ATOM     16  C   UNL A   1      32.401  18.727  23.286  1.00  0.00     0.002 A 
ATOM     17  C   UNL A   1      32.384  17.667  24.180  1.00  0.00     0.000 A 
ENDBRANCH  11  12
BRANCH  11  18
ATOM     18  C   UNL A   1      35.359  21.468  25.403  1.00  0.00     0.049 A 
ATOM     19  C   UNL A   1      36.043  20.313  25.011  1.00  0.00     0.027 A 
ATOM     20  C   UNL A   1      36.104  22.609  25.719  1.00  0.00     0.027 A 
ATOM     21  C   UNL A   1      37.436  20.289  24.924  1.00  0.00     0.002 A 
ATOM     22  C   UNL A   1      37.502  22.583  25.646  1.00  0.00     0.002 A 
ATOM     23  C   UNL A   1      38.165  21.429  25.235  1.00  0.00     0.000 A 
ENDBRANCH  11  18
ENDBRANCH   8   9
BRANCH   8  24
ATOM     24  N   UNL A   1      32.727  23.647  23.909  1.00  0.00    -0.320 N 
ATOM     25  C   UNL A   1      33.898  24.446  23.483  1.00  0.00     0.291 C 
ATOM     26  C   UNL A   1      31.637  23.974  22.965  1.00  0.00     0.291 C 
ATOM     27  H   UNL A   1      32.928  22.650  23.833  1.00  0.00     0.348 HD
ATOM     28  C   UNL A   1      33.607  25.955  23.329  1.00  0.00     0.221 C 
ATOM     29  C   UNL A   1      31.326  25.474  22.918  1.00  0.00     0.221 C 
ATOM     30  O   UNL A   1      32.479  26.211  22.485  1.00  0.00    -0.370 OA
ENDBRANCH   8  24
ENDBRANCH   7   8
ENDBRANCH   5   7
ENDBRANCH   2   3
ENDBRANCH   1   2
BRANCH   1  31
ATOM     31  C   UNL A   1      33.074  28.704  25.643  1.00  0.00     0.023 C 
BRANCH  31  32
ATOM     32  C   UNL A   1      33.978  28.820  26.874  1.00  0.00     0.116 C 
BRANCH  32  33
ATOM     33  N   UNL A   1      33.862  30.063  27.614  1.00  0.00    -0.352 N 
ATOM     34  C   UNL A   1      34.812  30.720  28.363  1.00  0.00     0.251 C 
ATOM     35  H   UNL A   1      32.979  30.497  27.575  1.00  0.00     0.163 HD
ATOM     36  O   UNL A   1      34.523  31.787  28.917  1.00  0.00    -0.269 OA
BRANCH  34  37
ATOM     37  C   UNL A   1      36.165  30.151  28.573  1.00  0.00     0.039 A 
ATOM     38  C   UNL A   1      37.098  30.254  27.536  1.00  0.00     0.014 A 
ATOM     39  C   UNL A   1      36.527  29.492  29.750  1.00  0.00     0.014 A 
ATOM     40  C   UNL A   1      38.406  29.778  27.708  1.00  0.00     0.010 A 
ATOM     41  C   UNL A   1      37.851  29.059  29.934  1.00  0.00     0.010 A 
ATOM     42  C   UNL A   1      38.821  29.220  28.931  1.00  0.00    -0.014 A 
BRANCH  42  43
ATOM     43  C   UNL A   1      40.262  28.867  29.165  1.00  0.00     0.031 A 
ATOM     44  C   UNL A   1      41.200  29.778  29.920  1.00  0.00     0.074 A 
ATOM     45  C   UNL A   1      40.763  27.723  28.652  1.00  0.00     0.049 A 
ATOM     46  N   UNL A   1      42.472  29.611  30.198  1.00  0.00    -0.248 NA
ATOM     47  C   UNL A   1      40.652  31.053  30.400  1.00  0.00     0.031 C 
ATOM     48  C   UNL A   1      40.019  26.764  27.835  1.00  0.00     0.029 A 
ATOM     49  N   UNL A   1      42.021  27.166  28.742  1.00  0.00    -0.354 N 
ATOM     50  C   UNL A   1      42.879  30.761  30.863  1.00  0.00     0.074 A 
ATOM     51  C   UNL A   1      41.729  31.641  30.903  1.00  0.00     0.031 C 
ATOM     52  C   UNL A   1      40.812  25.722  27.541  1.00  0.00     0.029 A 
ATOM     53  C   UNL A   1      42.137  25.949  28.112  1.00  0.00     0.049 A 
ATOM     54  H   UNL A   1      42.767  27.599  29.216  1.00  0.00     0.167 HD
ATOM     55  C   UNL A   1      44.085  31.054  31.415  1.00  0.00     0.037 A 
ATOM     56  C   UNL A   1      43.180  25.103  28.001  1.00  0.00     0.037 A 
ATOM     57  C   UNL A   1      45.227  30.174  31.428  1.00  0.00     0.049 A 
ATOM     58  C   UNL A   1      44.500  25.440  28.643  1.00  0.00     0.074 A 
ATOM     59  C   UNL A   1      46.452  30.363  32.050  1.00  0.00     0.029 A 
ATOM     60  N   UNL A   1      45.293  28.944  30.794  1.00  0.00    -0.354 N 
ATOM     61  N   UNL A   1      44.833  26.490  29.350  1.00  0.00    -0.248 NA
ATOM     62  C   UNL A   1      45.589  24.464  28.473  1.00  0.00     0.031 C 
ATOM     63  C   UNL A   1      47.275  29.272  31.752  1.00  0.00     0.029 A 
ATOM     64  C   UNL A   1      46.546  28.377  30.989  1.00  0.00     0.049 A 
ATOM     65  H   UNL A   1      44.561  28.533  30.280  1.00  0.00     0.167 HD
ATOM     66  C   UNL A   1      46.153  26.287  29.735  1.00  0.00     0.074 A 
ATOM     67  C   UNL A   1      46.558  25.007  29.197  1.00  0.00     0.031 C 
ATOM     68  C   UNL A   1      46.953  27.097  30.470  1.00  0.00     0.037 A 
BRANCH  55  69
ATOM     69  C   UNL A   1      44.241  32.395  32.077  1.00  0.00     0.064 A 
ATOM     70  C   UNL A   1      44.677  33.522  31.364  1.00  0.00     0.173 A 
ATOM     71  C   UNL A   1      43.884  32.570  33.423  1.00  0.00     0.173 A 
ATOM     72  F   UNL A   1      45.030  33.409  30.075  1.00  0.00    -0.203 F 
ATOM     73  C   UNL A   1      44.784  34.765  31.983  1.00  0.00     0.198 A 
ATOM     74  C   UNL A   1      43.959  33.823  34.030  1.00  0.00     0.198 A 
ATOM     75  F   UNL A   1      43.442  31.531  34.149  1.00  0.00    -0.203 F 
ATOM     76  F   UNL A   1      45.250  35.816  31.293  1.00  0.00    -0.200 F 
ATOM     77  C   UNL A   1      44.418  34.916  33.312  1.00  0.00     0.200 A 
ATOM     78  F   UNL A   1      43.586  33.970  35.308  1.00  0.00    -0.200 F 
ATOM     79  F   UNL A   1      44.511  36.116  33.902  1.00  0.00    -0.200 F 
ENDBRANCH  55  69
BRANCH  56  80
ATOM     80  C   UNL A   1      43.019  23.817  27.270  1.00  0.00     0.064 A 
ATOM     81  C   UNL A   1      42.470  22.695  27.907  1.00  0.00     0.173 A 
ATOM     82  C   UNL A   1      43.433  23.675  25.938  1.00  0.00     0.173 A 
ATOM     83  F   UNL A   1      42.083  22.774  29.189  1.00  0.00    -0.203 F 
ATOM     84  C   UNL A   1      42.363  21.473  27.246  1.00  0.00     0.198 A 
ATOM     85  C   UNL A   1      43.297  22.461  25.269  1.00  0.00     0.198 A 
ATOM     86  F   UNL A   1      43.962  24.720  25.285  1.00  0.00    -0.203 F 
ATOM     87  F   UNL A   1      41.884  20.402  27.895  1.00  0.00    -0.200 F 
ATOM     88  C   UNL A   1      42.772  21.358  25.926  1.00  0.00     0.200 A 
ATOM     89  F   UNL A   1      43.680  22.358  23.990  1.00  0.00    -0.200 F 
ATOM     90  F   UNL A   1      42.668  20.183  25.291  1.00  0.00    -0.200 F 
ENDBRANCH  56  80
BRANCH  68  91
ATOM     91  C   UNL A   1      48.342  26.611  30.781  1.00  0.00     0.064 A 
ATOM     92  C   UNL A   1      48.609  25.788  31.886  1.00  0.00     0.173 A 
ATOM     93  C   UNL A   1      49.416  26.944  29.941  1.00  0.00     0.173 A 
ATOM     94  F   UNL A   1      47.622  25.451  32.731  1.00  0.00    -0.203 F 
ATOM     95  C   UNL A   1      49.901  25.338  32.151  1.00  0.00     0.198 A 
ATOM     96  C   UNL A   1      50.701  26.469  30.192  1.00  0.00     0.198 A 
ATOM     97  F   UNL A   1      49.219  27.726  28.868  1.00  0.00    -0.203 F 
ATOM     98  F   UNL A   1      50.139  24.592  33.238  1.00  0.00    -0.200 F 
ATOM     99  C   UNL A   1      50.944  25.672  31.300  1.00  0.00     0.200 A 
ATOM    100  F   UNL A   1      51.705  26.783  29.362  1.00  0.00    -0.200 F 
ATOM    101  F   UNL A   1      52.185  25.232  31.553  1.00  0.00    -0.200 F 
ENDBRANCH  68  91
ENDBRANCH  42  43
ENDBRANCH  34  37
ENDBRANCH  32  33
ENDBRANCH  31  32
ENDBRANCH   1  31
TORSDOF 16
ENDMDL
