MODEL 1
REMARK VINA RESULT:     -11.2      0.000      0.000
REMARK SMILES CC(C)c1c(C(=O)NCCCCNC(=O)c2ccc(-c3c4nc(c(-c5c(F)c(F)c(F)c(F)c5F)c5ccc([nH]5)c(-c5c(F)c(F)c(F)c(F)c5F)c5nc(c(-c6c(F)c(F)c(F)c(F)c6F)c6ccc3[nH]6)C=C5)C=C4)cc2)cnn1CCC#N
REMARK SMILES IDX 10 1 9 2 8 3 6 4 7 5 5 7 4 8 81 9 79 10 80 11 2 12 1 13 3 14
REMARK SMILES IDX 82 15 83 16 84 17 85 18 11 19 12 20 13 21 14 22 15 24 16 25
REMARK SMILES IDX 17 26 78 27 18 28 77 29 19 30 20 31 21 32 71 33 22 34 76 35
REMARK SMILES IDX 70 36 72 37 23 38 75 39 69 40 68 41 24 43 56 44 36 45 55 46
REMARK SMILES IDX 37 47 40 48 54 49 73 50 38 51 39 52 53 54 74 55 41 56 25 57
REMARK SMILES IDX 26 58 34 59 27 60 28 61 32 62 35 63 29 64 30 65 33 66 31 67
REMARK SMILES IDX 57 68 58 69 66 70 59 71 60 72 64 73 67 74 61 75 62 76 65 77
REMARK SMILES IDX 63 78 42 79 43 80 51 81 44 82 45 83 49 84 52 85 46 86 47 87
REMARK SMILES IDX 50 88 48 89
REMARK H PARENT 8 6 13 23 72 42 40 53
REMARK Flexibility Score: inf
ROOT
ATOM      1  C   UNL A   1      31.452  30.366  26.216  1.00  0.00     0.023 C 
ENDROOT
BRANCH   1   2
ATOM      2  C   UNL A   1      32.818  29.764  25.878  1.00  0.00     0.116 C 
BRANCH   2   3
ATOM      3  N   UNL A   1      33.006  29.630  24.448  1.00  0.00    -0.352 N 
ATOM      4  C   UNL A   1      32.654  28.689  23.516  1.00  0.00     0.254 C 
ATOM      5  O   UNL A   1      33.058  28.929  22.376  1.00  0.00    -0.269 OA
ATOM      6  H   UNL A   1      33.500  30.387  24.057  1.00  0.00     0.163 HD
BRANCH   4   7
ATOM      7  C   UNL A   1      31.849  27.503  23.824  1.00  0.00     0.081 A 
ATOM      8  C   UNL A   1      32.334  26.191  24.014  1.00  0.00     0.054 A 
ATOM      9  N   UNL A   1      31.221  25.414  24.266  1.00  0.00    -0.267 N 
ATOM     10  C   UNL A   1      30.461  27.358  24.019  1.00  0.00     0.149 A 
ATOM     11  N   UNL A   1      30.081  26.104  24.209  1.00  0.00    -0.180 NA
BRANCH   8  12
ATOM     12  C   UNL A   1      33.759  25.674  23.980  1.00  0.00     0.032 C 
ATOM     13  C   UNL A   1      34.354  25.514  25.379  1.00  0.00     0.014 C 
ATOM     14  C   UNL A   1      33.918  24.424  23.114  1.00  0.00     0.014 C 
ENDBRANCH   8  12
BRANCH   9  15
ATOM     15  C   UNL A   1      31.079  24.012  24.620  1.00  0.00     0.159 C 
BRANCH  15  16
ATOM     16  C   UNL A   1      31.461  23.735  26.073  1.00  0.00     0.144 C 
BRANCH  16  17
ATOM     17  C   UNL A   1      30.326  23.316  26.904  1.00  0.00     0.064 C 
ATOM     18  N   UNL A   1      29.456  22.936  27.585  1.00  0.00    -0.198 NA
ENDBRANCH  16  17
ENDBRANCH  15  16
ENDBRANCH   9  15
ENDBRANCH   4   7
ENDBRANCH   2   3
ENDBRANCH   1   2
BRANCH   1  19
ATOM     19  C   UNL A   1      31.456  31.887  26.447  1.00  0.00     0.023 C 
BRANCH  19  20
ATOM     20  C   UNL A   1      32.629  32.405  27.271  1.00  0.00     0.116 C 
BRANCH  20  21
ATOM     21  N   UNL A   1      32.498  33.816  27.650  1.00  0.00    -0.352 N 
ATOM     22  C   UNL A   1      33.127  34.474  28.697  1.00  0.00     0.251 C 
ATOM     23  H   UNL A   1      31.893  34.361  27.096  1.00  0.00     0.163 HD
ATOM     24  O   UNL A   1      32.647  35.480  29.201  1.00  0.00    -0.269 OA
BRANCH  22  25
ATOM     25  C   UNL A   1      34.431  33.957  29.157  1.00  0.00     0.039 A 
ATOM     26  C   UNL A   1      34.595  33.155  30.289  1.00  0.00     0.014 A 
ATOM     27  C   UNL A   1      35.519  34.271  28.352  1.00  0.00     0.014 A 
ATOM     28  C   UNL A   1      35.875  32.675  30.583  1.00  0.00     0.010 A 
ATOM     29  C   UNL A   1      36.670  33.552  28.473  1.00  0.00     0.010 A 
ATOM     30  C   UNL A   1      36.915  32.894  29.662  1.00  0.00    -0.014 A 
BRANCH  30  31
ATOM     31  C   UNL A   1      38.232  32.276  29.765  1.00  0.00     0.031 A 
ATOM     32  C   UNL A   1      38.193  30.878  29.275  1.00  0.00     0.074 A 
ATOM     33  C   UNL A   1      39.366  32.974  30.033  1.00  0.00     0.049 A 
ATOM     34  N   UNL A   1      38.210  29.813  30.003  1.00  0.00    -0.248 NA
ATOM     35  C   UNL A   1      37.839  30.620  27.866  1.00  0.00     0.031 C 
ATOM     36  C   UNL A   1      39.518  34.419  30.259  1.00  0.00     0.029 A 
ATOM     37  N   UNL A   1      40.666  32.540  30.100  1.00  0.00    -0.354 N 
ATOM     38  C   UNL A   1      38.171  28.752  29.106  1.00  0.00     0.074 A 
ATOM     39  C   UNL A   1      37.678  29.294  27.872  1.00  0.00     0.031 C 
ATOM     40  C   UNL A   1      40.828  34.767  30.217  1.00  0.00     0.029 A 
ATOM     41  C   UNL A   1      41.631  33.564  30.114  1.00  0.00     0.049 A 
ATOM     42  H   UNL A   1      40.904  31.586  30.136  1.00  0.00     0.167 HD
ATOM     43  C   UNL A   1      38.897  27.631  29.374  1.00  0.00     0.037 A 
ATOM     44  C   UNL A   1      42.987  33.410  30.055  1.00  0.00     0.037 A 
ATOM     45  C   UNL A   1      39.288  27.622  30.767  1.00  0.00     0.049 A 
ATOM     46  C   UNL A   1      43.274  32.014  30.466  1.00  0.00     0.074 A 
ATOM     47  C   UNL A   1      38.624  27.618  31.978  1.00  0.00     0.029 A 
ATOM     48  N   UNL A   1      40.556  28.073  31.030  1.00  0.00    -0.354 N 
ATOM     49  N   UNL A   1      43.059  31.569  31.672  1.00  0.00    -0.248 NA
ATOM     50  C   UNL A   1      43.283  31.016  29.411  1.00  0.00     0.031 C 
ATOM     51  C   UNL A   1      39.392  28.472  32.828  1.00  0.00     0.029 A 
ATOM     52  C   UNL A   1      40.543  28.863  32.144  1.00  0.00     0.049 A 
ATOM     53  H   UNL A   1      41.356  27.861  30.496  1.00  0.00     0.167 HD
ATOM     54  C   UNL A   1      42.435  30.347  31.476  1.00  0.00     0.074 A 
ATOM     55  C   UNL A   1      42.647  30.037  30.060  1.00  0.00     0.031 C 
ATOM     56  C   UNL A   1      41.541  29.876  32.396  1.00  0.00     0.037 A 
BRANCH  43  57
ATOM     57  C   UNL A   1      39.681  26.850  28.334  1.00  0.00     0.064 A 
ATOM     58  C   UNL A   1      39.594  25.441  28.354  1.00  0.00     0.173 A 
ATOM     59  C   UNL A   1      40.740  27.371  27.556  1.00  0.00     0.173 A 
ATOM     60  F   UNL A   1      38.635  24.828  29.067  1.00  0.00    -0.203 F 
ATOM     61  C   UNL A   1      40.548  24.627  27.738  1.00  0.00     0.198 A 
ATOM     62  C   UNL A   1      41.662  26.555  26.903  1.00  0.00     0.198 A 
ATOM     63  F   UNL A   1      41.006  28.677  27.475  1.00  0.00    -0.203 F 
ATOM     64  F   UNL A   1      40.497  23.299  27.908  1.00  0.00    -0.200 F 
ATOM     65  C   UNL A   1      41.588  25.185  27.021  1.00  0.00     0.200 A 
ATOM     66  F   UNL A   1      42.676  27.119  26.230  1.00  0.00    -0.200 F 
ATOM     67  F   UNL A   1      42.541  24.413  26.484  1.00  0.00    -0.200 F 
ENDBRANCH  43  57
BRANCH  44  68
ATOM     68  C   UNL A   1      44.022  34.220  29.347  1.00  0.00     0.064 A 
ATOM     69  C   UNL A   1      44.145  34.203  27.941  1.00  0.00     0.173 A 
ATOM     70  C   UNL A   1      44.687  35.270  30.006  1.00  0.00     0.173 A 
ATOM     71  F   UNL A   1      43.501  33.276  27.217  1.00  0.00    -0.203 F 
ATOM     72  C   UNL A   1      44.863  35.188  27.244  1.00  0.00     0.198 A 
ATOM     73  C   UNL A   1      45.401  36.253  29.311  1.00  0.00     0.198 A 
ATOM     74  F   UNL A   1      44.570  35.423  31.333  1.00  0.00    -0.203 F 
ATOM     75  F   UNL A   1      44.903  35.172  25.904  1.00  0.00    -0.200 F 
ATOM     76  C   UNL A   1      45.479  36.219  27.930  1.00  0.00     0.200 A 
ATOM     77  F   UNL A   1      45.953  37.272  29.983  1.00  0.00    -0.200 F 
ATOM     78  F   UNL A   1      46.107  37.201  27.266  1.00  0.00    -0.200 F 
ENDBRANCH  44  68
BRANCH  56  79
ATOM     79  C   UNL A   1      41.488  30.560  33.735  1.00  0.00     0.064 A 
ATOM     80  C   UNL A   1      40.631  31.626  34.065  1.00  0.00     0.173 A 
ATOM     81  C   UNL A   1      42.257  30.012  34.769  1.00  0.00     0.173 A 
ATOM     82  F   UNL A   1      39.798  32.149  33.156  1.00  0.00    -0.203 F 
ATOM     83  C   UNL A   1      40.578  32.136  35.364  1.00  0.00     0.198 A 
ATOM     84  C   UNL A   1      42.176  30.497  36.070  1.00  0.00     0.198 A 
ATOM     85  F   UNL A   1      43.055  28.962  34.524  1.00  0.00    -0.203 F 
ATOM     86  F   UNL A   1      39.760  33.158  35.655  1.00  0.00    -0.200 F 
ATOM     87  C   UNL A   1      41.347  31.566  36.365  1.00  0.00     0.200 A 
ATOM     88  F   UNL A   1      42.884  29.908  37.042  1.00  0.00    -0.200 F 
ATOM     89  F   UNL A   1      41.271  32.030  37.621  1.00  0.00    -0.200 F 
ENDBRANCH  56  79
ENDBRANCH  30  31
ENDBRANCH  22  25
ENDBRANCH  20  21
ENDBRANCH  19  20
ENDBRANCH   1  19
TORSDOF 15
ENDMDL
MODEL 2
REMARK VINA RESULT:     -11.2      3.712      7.663
REMARK SMILES CC(C)c1c(C(=O)NCCCCNC(=O)c2ccc(-c3c4nc(c(-c5c(F)c(F)c(F)c(F)c5F)c5ccc([nH]5)c(-c5c(F)c(F)c(F)c(F)c5F)c5nc(c(-c6c(F)c(F)c(F)c(F)c6F)c6ccc3[nH]6)C=C5)C=C4)cc2)cnn1CCC#N
REMARK SMILES IDX 10 1 9 2 8 3 6 4 7 5 5 7 4 8 81 9 79 10 80 11 2 12 1 13 3 14
REMARK SMILES IDX 82 15 83 16 84 17 85 18 11 19 12 20 13 21 14 22 15 24 16 25
REMARK SMILES IDX 17 26 78 27 18 28 77 29 19 30 20 31 21 32 71 33 22 34 76 35
REMARK SMILES IDX 70 36 72 37 23 38 75 39 69 40 68 41 24 43 56 44 36 45 55 46
REMARK SMILES IDX 37 47 40 48 54 49 73 50 38 51 39 52 53 54 74 55 41 56 25 57
REMARK SMILES IDX 26 58 34 59 27 60 28 61 32 62 35 63 29 64 30 65 33 66 31 67
REMARK SMILES IDX 57 68 58 69 66 70 59 71 60 72 64 73 67 74 61 75 62 76 65 77
REMARK SMILES IDX 63 78 42 79 43 80 51 81 44 82 45 83 49 84 52 85 46 86 47 87
REMARK SMILES IDX 50 88 48 89
REMARK H PARENT 8 6 13 23 72 42 40 53
REMARK Flexibility Score: inf
ROOT
ATOM      1  C   UNL A   1      36.437  20.565  25.115  1.00  0.00     0.023 C 
ENDROOT
BRANCH   1   2
ATOM      2  C   UNL A   1      35.187  21.079  25.834  1.00  0.00     0.116 C 
BRANCH   2   3
ATOM      3  N   UNL A   1      34.105  20.118  25.783  1.00  0.00    -0.352 N 
ATOM      4  C   UNL A   1      32.876  20.086  25.177  1.00  0.00     0.254 C 
ATOM      5  O   UNL A   1      32.214  19.077  25.430  1.00  0.00    -0.269 OA
ATOM      6  H   UNL A   1      34.296  19.303  26.302  1.00  0.00     0.163 HD
BRANCH   4   7
ATOM      7  C   UNL A   1      32.381  21.140  24.288  1.00  0.00     0.081 A 
ATOM      8  C   UNL A   1      31.957  22.430  24.676  1.00  0.00     0.054 A 
ATOM      9  N   UNL A   1      31.569  23.062  23.512  1.00  0.00    -0.267 N 
ATOM     10  C   UNL A   1      32.217  21.162  22.888  1.00  0.00     0.149 A 
ATOM     11  N   UNL A   1      31.667  22.278  22.437  1.00  0.00    -0.180 NA
BRANCH   8  12
ATOM     12  C   UNL A   1      31.924  23.061  26.054  1.00  0.00     0.032 C 
ATOM     13  C   UNL A   1      33.011  24.120  26.237  1.00  0.00     0.014 C 
ATOM     14  C   UNL A   1      30.532  23.556  26.449  1.00  0.00     0.014 C 
ENDBRANCH   8  12
BRANCH   9  15
ATOM     15  C   UNL A   1      31.123  24.420  23.250  1.00  0.00     0.159 C 
BRANCH  15  16
ATOM     16  C   UNL A   1      32.283  25.370  22.959  1.00  0.00     0.144 C 
BRANCH  16  17
ATOM     17  C   UNL A   1      32.634  25.442  21.536  1.00  0.00     0.064 C 
ATOM     18  N   UNL A   1      32.971  25.489  20.418  1.00  0.00    -0.198 NA
ENDBRANCH  16  17
ENDBRANCH  15  16
ENDBRANCH   9  15
ENDBRANCH   4   7
ENDBRANCH   2   3
ENDBRANCH   1   2
BRANCH   1  19
ATOM     19  C   UNL A   1      37.262  21.648  24.399  1.00  0.00     0.023 C 
BRANCH  19  20
ATOM     20  C   UNL A   1      38.150  22.483  25.314  1.00  0.00     0.116 C 
BRANCH  20  21
ATOM     21  N   UNL A   1      38.804  21.701  26.367  1.00  0.00    -0.352 N 
ATOM     22  C   UNL A   1      39.874  22.081  27.164  1.00  0.00     0.251 C 
ATOM     23  H   UNL A   1      38.442  20.799  26.528  1.00  0.00     0.163 HD
ATOM     24  O   UNL A   1      40.616  21.254  27.677  1.00  0.00    -0.269 OA
BRANCH  22  25
ATOM     25  C   UNL A   1      40.066  23.520  27.427  1.00  0.00     0.039 A 
ATOM     26  C   UNL A   1      39.047  24.472  27.328  1.00  0.00     0.014 A 
ATOM     27  C   UNL A   1      41.338  23.890  27.847  1.00  0.00     0.014 A 
ATOM     28  C   UNL A   1      39.341  25.796  27.667  1.00  0.00     0.010 A 
ATOM     29  C   UNL A   1      41.516  25.093  28.461  1.00  0.00     0.010 A 
ATOM     30  C   UNL A   1      40.597  26.096  28.227  1.00  0.00    -0.014 A 
BRANCH  30  31
ATOM     31  C   UNL A   1      40.940  27.393  28.798  1.00  0.00     0.031 A 
ATOM     32  C   UNL A   1      42.140  27.956  28.133  1.00  0.00     0.074 A 
ATOM     33  C   UNL A   1      40.121  28.081  29.635  1.00  0.00     0.049 A 
ATOM     34  N   UNL A   1      43.332  28.007  28.625  1.00  0.00    -0.248 NA
ATOM     35  C   UNL A   1      42.087  28.256  26.690  1.00  0.00     0.031 C 
ATOM     36  C   UNL A   1      38.786  27.704  30.122  1.00  0.00     0.029 A 
ATOM     37  N   UNL A   1      40.285  29.323  30.195  1.00  0.00    -0.354 N 
ATOM     38  C   UNL A   1      44.107  28.625  27.652  1.00  0.00     0.074 A 
ATOM     39  C   UNL A   1      43.373  28.502  26.424  1.00  0.00     0.031 C 
ATOM     40  C   UNL A   1      38.181  28.767  30.707  1.00  0.00     0.029 A 
ATOM     41  C   UNL A   1      39.126  29.864  30.783  1.00  0.00     0.049 A 
ATOM     42  H   UNL A   1      41.146  29.799  30.186  1.00  0.00     0.167 HD
ATOM     43  C   UNL A   1      45.087  29.490  28.035  1.00  0.00     0.037 A 
ATOM     44  C   UNL A   1      38.981  31.120  31.297  1.00  0.00     0.037 A 
ATOM     45  C   UNL A   1      45.380  29.306  29.440  1.00  0.00     0.049 A 
ATOM     46  C   UNL A   1      40.347  31.626  31.575  1.00  0.00     0.074 A 
ATOM     47  C   UNL A   1      45.835  28.264  30.225  1.00  0.00     0.029 A 
ATOM     48  N   UNL A   1      44.765  30.185  30.293  1.00  0.00    -0.354 N 
ATOM     49  N   UNL A   1      41.126  31.110  32.483  1.00  0.00    -0.248 NA
ATOM     50  C   UNL A   1      41.012  32.328  30.491  1.00  0.00     0.031 C 
ATOM     51  C   UNL A   1      45.095  28.364  31.443  1.00  0.00     0.029 A 
ATOM     52  C   UNL A   1      44.314  29.518  31.396  1.00  0.00     0.049 A 
ATOM     53  H   UNL A   1      44.664  31.152  30.135  1.00  0.00     0.167 HD
ATOM     54  C   UNL A   1      42.355  30.996  31.853  1.00  0.00     0.074 A 
ATOM     55  C   UNL A   1      42.235  31.811  30.641  1.00  0.00     0.031 C 
ATOM     56  C   UNL A   1      43.221  30.001  32.208  1.00  0.00     0.037 A 
BRANCH  43  57
ATOM     57  C   UNL A   1      45.394  30.802  27.335  1.00  0.00     0.064 A 
ATOM     58  C   UNL A   1      46.733  31.068  26.978  1.00  0.00     0.173 A 
ATOM     59  C   UNL A   1      44.531  31.921  27.295  1.00  0.00     0.173 A 
ATOM     60  F   UNL A   1      47.649  30.087  26.987  1.00  0.00    -0.203 F 
ATOM     61  C   UNL A   1      47.189  32.362  26.710  1.00  0.00     0.198 A 
ATOM     62  C   UNL A   1      44.980  33.202  26.980  1.00  0.00     0.198 A 
ATOM     63  F   UNL A   1      43.248  31.861  27.660  1.00  0.00    -0.203 F 
ATOM     64  F   UNL A   1      48.496  32.579  26.516  1.00  0.00    -0.200 F 
ATOM     65  C   UNL A   1      46.313  33.430  26.721  1.00  0.00     0.200 A 
ATOM     66  F   UNL A   1      44.117  34.228  27.018  1.00  0.00    -0.200 F 
ATOM     67  F   UNL A   1      46.756  34.680  26.530  1.00  0.00    -0.200 F 
ENDBRANCH  43  57
BRANCH  44  68
ATOM     68  C   UNL A   1      37.821  32.060  31.242  1.00  0.00     0.064 A 
ATOM     69  C   UNL A   1      37.429  32.687  30.040  1.00  0.00     0.173 A 
ATOM     70  C   UNL A   1      36.883  32.103  32.289  1.00  0.00     0.173 A 
ATOM     71  F   UNL A   1      38.232  32.649  28.966  1.00  0.00    -0.203 F 
ATOM     72  C   UNL A   1      36.171  33.290  29.891  1.00  0.00     0.198 A 
ATOM     73  C   UNL A   1      35.627  32.703  32.139  1.00  0.00     0.198 A 
ATOM     74  F   UNL A   1      37.124  31.471  33.446  1.00  0.00    -0.203 F 
ATOM     75  F   UNL A   1      35.812  33.819  28.712  1.00  0.00    -0.200 F 
ATOM     76  C   UNL A   1      35.266  33.286  30.938  1.00  0.00     0.200 A 
ATOM     77  F   UNL A   1      34.743  32.651  33.145  1.00  0.00    -0.200 F 
ATOM     78  F   UNL A   1      34.037  33.799  30.779  1.00  0.00    -0.200 F 
ENDBRANCH  44  68
BRANCH  56  79
ATOM     79  C   UNL A   1      42.936  29.245  33.478  1.00  0.00     0.064 A 
ATOM     80  C   UNL A   1      42.138  28.089  33.568  1.00  0.00     0.173 A 
ATOM     81  C   UNL A   1      43.619  29.644  34.632  1.00  0.00     0.173 A 
ATOM     82  F   UNL A   1      41.521  27.589  32.489  1.00  0.00    -0.203 F 
ATOM     83  C   UNL A   1      42.007  27.393  34.771  1.00  0.00     0.198 A 
ATOM     84  C   UNL A   1      43.517  28.929  35.821  1.00  0.00     0.198 A 
ATOM     85  F   UNL A   1      44.434  30.710  34.592  1.00  0.00    -0.203 F 
ATOM     86  F   UNL A   1      41.234  26.299  34.838  1.00  0.00    -0.200 F 
ATOM     87  C   UNL A   1      42.702  27.812  35.894  1.00  0.00     0.200 A 
ATOM     88  F   UNL A   1      44.232  29.310  36.888  1.00  0.00    -0.200 F 
ATOM     89  F   UNL A   1      42.608  27.124  37.042  1.00  0.00    -0.200 F 
ENDBRANCH  56  79
ENDBRANCH  30  31
ENDBRANCH  22  25
ENDBRANCH  20  21
ENDBRANCH  19  20
ENDBRANCH   1  19
TORSDOF 15
ENDMDL
MODEL 3
REMARK VINA RESULT:     -11.2      3.807      8.022
REMARK SMILES CC(C)c1c(C(=O)NCCCCNC(=O)c2ccc(-c3c4nc(c(-c5c(F)c(F)c(F)c(F)c5F)c5ccc([nH]5)c(-c5c(F)c(F)c(F)c(F)c5F)c5nc(c(-c6c(F)c(F)c(F)c(F)c6F)c6ccc3[nH]6)C=C5)C=C4)cc2)cnn1CCC#N
REMARK SMILES IDX 10 1 9 2 8 3 6 4 7 5 5 7 4 8 81 9 79 10 80 11 2 12 1 13 3 14
REMARK SMILES IDX 82 15 83 16 84 17 85 18 11 19 12 20 13 21 14 22 15 24 16 25
REMARK SMILES IDX 17 26 78 27 18 28 77 29 19 30 20 31 21 32 71 33 22 34 76 35
REMARK SMILES IDX 70 36 72 37 23 38 75 39 69 40 68 41 24 43 56 44 36 45 55 46
REMARK SMILES IDX 37 47 40 48 54 49 73 50 38 51 39 52 53 54 74 55 41 56 25 57
REMARK SMILES IDX 26 58 34 59 27 60 28 61 32 62 35 63 29 64 30 65 33 66 31 67
REMARK SMILES IDX 57 68 58 69 66 70 59 71 60 72 64 73 67 74 61 75 62 76 65 77
REMARK SMILES IDX 63 78 42 79 43 80 51 81 44 82 45 83 49 84 52 85 46 86 47 87
REMARK SMILES IDX 50 88 48 89
REMARK H PARENT 8 6 13 23 72 42 40 53
REMARK Flexibility Score: inf
ROOT
ATOM      1  C   UNL A   1      38.545  23.373  26.367  1.00  0.00     0.023 C 
ENDROOT
BRANCH   1   2
ATOM      2  C   UNL A   1      37.039  23.608  26.220  1.00  0.00     0.116 C 
BRANCH   2   3
ATOM      3  N   UNL A   1      36.649  23.734  24.831  1.00  0.00    -0.352 N 
ATOM      4  C   UNL A   1      35.963  22.940  23.949  1.00  0.00     0.254 C 
ATOM      5  O   UNL A   1      35.885  23.401  22.808  1.00  0.00    -0.269 OA
ATOM      6  H   UNL A   1      36.945  24.582  24.429  1.00  0.00     0.163 HD
BRANCH   4   7
ATOM      7  C   UNL A   1      35.352  21.660  24.316  1.00  0.00     0.081 A 
ATOM      8  C   UNL A   1      33.974  21.352  24.284  1.00  0.00     0.054 A 
ATOM      9  N   UNL A   1      33.872  20.048  24.724  1.00  0.00    -0.267 N 
ATOM     10  C   UNL A   1      35.934  20.455  24.760  1.00  0.00     0.149 A 
ATOM     11  N   UNL A   1      35.048  19.522  25.072  1.00  0.00    -0.180 NA
BRANCH   8  12
ATOM     12  C   UNL A   1      32.803  22.213  23.853  1.00  0.00     0.032 C 
ATOM     13  C   UNL A   1      32.230  21.784  22.503  1.00  0.00     0.014 C 
ATOM     14  C   UNL A   1      31.737  22.354  24.940  1.00  0.00     0.014 C 
ENDBRANCH   8  12
BRANCH   9  15
ATOM     15  C   UNL A   1      32.736  19.148  24.832  1.00  0.00     0.159 C 
BRANCH  15  16
ATOM     16  C   UNL A   1      32.465  18.392  23.533  1.00  0.00     0.144 C 
BRANCH  16  17
ATOM     17  C   UNL A   1      33.363  17.250  23.325  1.00  0.00     0.064 C 
ATOM     18  N   UNL A   1      34.050  16.330  23.108  1.00  0.00    -0.198 NA
ENDBRANCH  16  17
ENDBRANCH  15  16
ENDBRANCH   9  15
ENDBRANCH   4   7
ENDBRANCH   2   3
ENDBRANCH   1   2
BRANCH   1  19
ATOM     19  C   UNL A   1      39.020  21.963  25.979  1.00  0.00     0.023 C 
BRANCH  19  20
ATOM     20  C   UNL A   1      40.236  21.463  26.750  1.00  0.00     0.116 C 
BRANCH  20  21
ATOM     21  N   UNL A   1      41.494  21.602  26.010  1.00  0.00    -0.352 N 
ATOM     22  C   UNL A   1      42.196  22.769  25.743  1.00  0.00     0.251 C 
ATOM     23  H   UNL A   1      41.889  20.769  25.662  1.00  0.00     0.163 HD
ATOM     24  O   UNL A   1      42.952  22.855  24.785  1.00  0.00    -0.269 OA
BRANCH  22  25
ATOM     25  C   UNL A   1      42.049  23.897  26.682  1.00  0.00     0.039 A 
ATOM     26  C   UNL A   1      42.668  23.954  27.934  1.00  0.00     0.014 A 
ATOM     27  C   UNL A   1      41.284  24.963  26.225  1.00  0.00     0.014 A 
ATOM     28  C   UNL A   1      42.502  25.108  28.704  1.00  0.00     0.010 A 
ATOM     29  C   UNL A   1      41.392  26.175  26.838  1.00  0.00     0.010 A 
ATOM     30  C   UNL A   1      41.845  26.218  28.142  1.00  0.00    -0.014 A 
BRANCH  30  31
ATOM     31  C   UNL A   1      41.788  27.531  28.772  1.00  0.00     0.031 A 
ATOM     32  C   UNL A   1      42.920  28.376  28.324  1.00  0.00     0.074 A 
ATOM     33  C   UNL A   1      40.709  27.982  29.465  1.00  0.00     0.049 A 
ATOM     34  N   UNL A   1      43.973  28.668  29.010  1.00  0.00    -0.248 NA
ATOM     35  C   UNL A   1      43.036  28.723  26.895  1.00  0.00     0.031 C 
ATOM     36  C   UNL A   1      39.433  27.296  29.717  1.00  0.00     0.029 A 
ATOM     37  N   UNL A   1      40.494  29.202  30.055  1.00  0.00    -0.354 N 
ATOM     38  C   UNL A   1      44.736  29.486  28.186  1.00  0.00     0.074 A 
ATOM     39  C   UNL A   1      44.259  29.260  26.852  1.00  0.00     0.031 C 
ATOM     40  C   UNL A   1      38.516  28.170  30.200  1.00  0.00     0.029 A 
ATOM     41  C   UNL A   1      39.164  29.444  30.443  1.00  0.00     0.049 A 
ATOM     42  H   UNL A   1      41.215  29.856  30.194  1.00  0.00     0.167 HD
ATOM     43  C   UNL A   1      45.420  30.528  28.736  1.00  0.00     0.037 A 
ATOM     44  C   UNL A   1      38.656  30.612  30.935  1.00  0.00     0.037 A 
ATOM     45  C   UNL A   1      45.514  30.350  30.170  1.00  0.00     0.049 A 
ATOM     46  C   UNL A   1      39.809  31.395  31.444  1.00  0.00     0.074 A 
ATOM     47  C   UNL A   1      46.059  29.400  31.011  1.00  0.00     0.029 A 
ATOM     48  N   UNL A   1      44.586  31.031  30.914  1.00  0.00    -0.354 N 
ATOM     49  N   UNL A   1      40.526  31.024  32.466  1.00  0.00    -0.248 NA
ATOM     50  C   UNL A   1      40.464  32.276  30.493  1.00  0.00     0.031 C 
ATOM     51  C   UNL A   1      45.128  29.277  32.088  1.00  0.00     0.029 A 
ATOM     52  C   UNL A   1      44.125  30.231  31.920  1.00  0.00     0.049 A 
ATOM     53  H   UNL A   1      44.296  31.957  30.749  1.00  0.00     0.167 HD
ATOM     54  C   UNL A   1      41.834  31.215  32.051  1.00  0.00     0.074 A 
ATOM     55  C   UNL A   1      41.731  32.037  30.843  1.00  0.00     0.031 C 
ATOM     56  C   UNL A   1      42.834  30.421  32.539  1.00  0.00     0.037 A 
BRANCH  43  57
ATOM     57  C   UNL A   1      45.531  31.907  28.108  1.00  0.00     0.064 A 
ATOM     58  C   UNL A   1      44.339  32.573  27.752  1.00  0.00     0.173 A 
ATOM     59  C   UNL A   1      46.710  32.451  27.550  1.00  0.00     0.173 A 
ATOM     60  F   UNL A   1      43.154  32.143  28.212  1.00  0.00    -0.203 F 
ATOM     61  C   UNL A   1      44.321  33.624  26.831  1.00  0.00     0.198 A 
ATOM     62  C   UNL A   1      46.692  33.531  26.669  1.00  0.00     0.198 A 
ATOM     63  F   UNL A   1      47.916  31.909  27.733  1.00  0.00    -0.203 F 
ATOM     64  F   UNL A   1      43.149  34.127  26.421  1.00  0.00    -0.200 F 
ATOM     65  C   UNL A   1      45.497  34.096  26.282  1.00  0.00     0.200 A 
ATOM     66  F   UNL A   1      47.844  33.958  26.132  1.00  0.00    -0.200 F 
ATOM     67  F   UNL A   1      45.480  35.058  25.351  1.00  0.00    -0.200 F 
ENDBRANCH  43  57
BRANCH  44  68
ATOM     68  C   UNL A   1      37.339  31.273  30.693  1.00  0.00     0.064 A 
ATOM     69  C   UNL A   1      36.407  31.474  31.734  1.00  0.00     0.173 A 
ATOM     70  C   UNL A   1      37.110  32.009  29.516  1.00  0.00     0.173 A 
ATOM     71  F   UNL A   1      36.571  30.861  32.916  1.00  0.00    -0.203 F 
ATOM     72  C   UNL A   1      35.336  32.372  31.611  1.00  0.00     0.198 A 
ATOM     73  C   UNL A   1      36.043  32.906  29.395  1.00  0.00     0.198 A 
ATOM     74  F   UNL A   1      37.979  31.950  28.497  1.00  0.00    -0.203 F 
ATOM     75  F   UNL A   1      34.509  32.583  32.646  1.00  0.00    -0.200 F 
ATOM     76  C   UNL A   1      35.163  33.098  30.445  1.00  0.00     0.200 A 
ATOM     77  F   UNL A   1      35.915  33.637  28.279  1.00  0.00    -0.200 F 
ATOM     78  F   UNL A   1      34.184  34.009  30.348  1.00  0.00    -0.200 F 
ENDBRANCH  44  68
BRANCH  56  79
ATOM     79  C   UNL A   1      42.524  29.563  33.736  1.00  0.00     0.064 A 
ATOM     80  C   UNL A   1      41.977  28.268  33.683  1.00  0.00     0.173 A 
ATOM     81  C   UNL A   1      42.931  30.036  34.990  1.00  0.00     0.173 A 
ATOM     82  F   UNL A   1      41.644  27.706  32.513  1.00  0.00    -0.203 F 
ATOM     83  C   UNL A   1      41.815  27.503  34.840  1.00  0.00     0.198 A 
ATOM     84  C   UNL A   1      42.803  29.258  36.136  1.00  0.00     0.198 A 
ATOM     85  F   UNL A   1      43.506  31.244  35.094  1.00  0.00    -0.203 F 
ATOM     86  F   UNL A   1      41.283  26.274  34.767  1.00  0.00    -0.200 F 
ATOM     87  C   UNL A   1      42.234  27.998  36.064  1.00  0.00     0.200 A 
ATOM     88  F   UNL A   1      43.257  29.724  37.307  1.00  0.00    -0.200 F 
ATOM     89  F   UNL A   1      42.114  27.252  37.171  1.00  0.00    -0.200 F 
ENDBRANCH  56  79
ENDBRANCH  30  31
ENDBRANCH  22  25
ENDBRANCH  20  21
ENDBRANCH  19  20
ENDBRANCH   1  19
TORSDOF 15
ENDMDL
