MODEL 1
REMARK VINA RESULT:     -11.5      0.000      0.000
REMARK SMILES C[C@@H]1CCC[C@](CCSc2ccccc2)(C(=O)NCCCCNC(=O)c2ccc(-c3c4nc(c(-c5c(F)c(F)c(F)c(F)c5F)c5ccc([nH]5)c(-c5c(F)c(F)c(F)c(F)c5F)c5nc(c(-c6c(F)c(F)c(F)c(F)c6F)c6ccc3[nH]6)C=C5)C=C4)cc2)C1
REMARK SMILES IDX 19 1 18 2 16 3 17 4 6 6 1 7 2 8 3 9 89 10 4 11 5 12 7 13
REMARK SMILES IDX 8 14 9 15 10 16 11 17 15 18 12 19 14 20 13 21 20 22 21 23
REMARK SMILES IDX 22 24 23 25 24 26 25 28 26 29 27 30 88 31 28 32 87 33 29 34
REMARK SMILES IDX 30 35 31 36 81 37 32 38 86 39 80 40 82 41 33 42 85 43 79 44
REMARK SMILES IDX 78 45 34 47 66 48 46 49 65 50 47 51 50 52 64 53 83 54 48 55
REMARK SMILES IDX 49 56 63 58 84 59 51 60 35 61 36 62 44 63 37 64 38 65 42 66
REMARK SMILES IDX 45 67 39 68 40 69 43 70 41 71 67 72 68 73 76 74 69 75 70 76
REMARK SMILES IDX 74 77 77 78 71 79 72 80 75 81 73 82 52 83 53 84 61 85 54 86
REMARK SMILES IDX 55 87 59 88 62 89 56 90 57 91 60 92 58 93
REMARK H PARENT 18 5 23 27 82 46 50 57
REMARK Flexibility Score: inf
ROOT
ATOM      1  C   UNL A   1      35.941  20.412  25.355  1.00  0.00     0.116 C 
ENDROOT
BRANCH   1   2
ATOM      2  N   UNL A   1      34.574  19.975  25.256  1.00  0.00    -0.356 N 
ATOM      3  C   UNL A   1      33.403  20.636  25.125  1.00  0.00     0.226 C 
ATOM      4  O   UNL A   1      32.417  19.932  25.384  1.00  0.00    -0.274 OA
ATOM      5  H   UNL A   1      34.472  18.997  25.290  1.00  0.00     0.163 HD
BRANCH   3   6
ATOM      6  C   UNL A   1      33.240  22.150  24.777  1.00  0.00     0.050 C 
ATOM      7  C   UNL A   1      36.607  23.276  23.263  1.00  0.00     0.007 C 
ATOM      8  C   UNL A   1      35.344  23.665  24.057  1.00  0.00    -0.013 C 
ATOM      9  C   UNL A   1      35.638  23.937  25.538  1.00  0.00     0.003 C 
ATOM     10  C   UNL A   1      34.184  22.717  23.697  1.00  0.00     0.020 C 
ATOM     11  C   UNL A   1      34.726  23.286  26.571  1.00  0.00     0.001 C 
ATOM     12  C   UNL A   1      33.322  22.978  26.081  1.00  0.00     0.017 C 
BRANCH   6  13
ATOM     13  C   UNL A   1      31.747  22.287  24.248  1.00  0.00     0.028 C 
BRANCH  13  14
ATOM     14  C   UNL A   1      31.412  23.294  23.122  1.00  0.00     0.076 C 
BRANCH  14  15
ATOM     15  S   UNL A   1      30.501  24.825  23.538  1.00  0.00    -0.126 SA
BRANCH  15  16
ATOM     16  C   UNL A   1      31.705  25.784  24.439  1.00  0.00     0.007 A 
ATOM     17  C   UNL A   1      32.816  26.273  23.743  1.00  0.00     0.015 A 
ATOM     18  C   UNL A   1      31.571  26.092  25.797  1.00  0.00     0.015 A 
ATOM     19  C   UNL A   1      33.816  26.991  24.405  1.00  0.00     0.001 A 
ATOM     20  C   UNL A   1      32.573  26.807  26.463  1.00  0.00     0.001 A 
ATOM     21  C   UNL A   1      33.700  27.244  25.770  1.00  0.00     0.000 A 
ENDBRANCH  15  16
ENDBRANCH  14  15
ENDBRANCH  13  14
ENDBRANCH   6  13
ENDBRANCH   3   6
ENDBRANCH   1   2
BRANCH   1  22
ATOM     22  C   UNL A   1      36.885  19.330  24.833  1.00  0.00     0.023 C 
BRANCH  22  23
ATOM     23  C   UNL A   1      38.325  19.804  24.667  1.00  0.00     0.023 C 
BRANCH  23  24
ATOM     24  C   UNL A   1      39.158  19.738  25.942  1.00  0.00     0.116 C 
BRANCH  24  25
ATOM     25  N   UNL A   1      40.350  18.906  25.818  1.00  0.00    -0.352 N 
ATOM     26  C   UNL A   1      41.656  19.288  26.004  1.00  0.00     0.251 C 
ATOM     27  H   UNL A   1      40.201  17.964  25.573  1.00  0.00     0.163 HD
ATOM     28  O   UNL A   1      42.589  18.518  25.804  1.00  0.00    -0.269 OA
BRANCH  26  29
ATOM     29  C   UNL A   1      41.903  20.676  26.423  1.00  0.00     0.039 A 
ATOM     30  C   UNL A   1      42.168  20.942  27.767  1.00  0.00     0.014 A 
ATOM     31  C   UNL A   1      42.017  21.670  25.448  1.00  0.00     0.014 A 
ATOM     32  C   UNL A   1      42.621  22.209  28.131  1.00  0.00     0.010 A 
ATOM     33  C   UNL A   1      42.532  22.908  25.805  1.00  0.00     0.010 A 
ATOM     34  C   UNL A   1      42.842  23.185  27.148  1.00  0.00    -0.014 A 
BRANCH  34  35
ATOM     35  C   UNL A   1      43.370  24.528  27.485  1.00  0.00     0.031 A 
ATOM     36  C   UNL A   1      42.432  25.560  28.039  1.00  0.00     0.074 A 
ATOM     37  C   UNL A   1      44.647  24.845  27.200  1.00  0.00     0.049 A 
ATOM     38  N   UNL A   1      42.625  26.838  28.235  1.00  0.00    -0.248 NA
ATOM     39  C   UNL A   1      41.077  25.094  28.380  1.00  0.00     0.031 C 
ATOM     40  C   UNL A   1      45.640  23.937  26.625  1.00  0.00     0.029 A 
ATOM     41  N   UNL A   1      45.320  26.033  27.334  1.00  0.00    -0.354 N 
ATOM     42  C   UNL A   1      41.409  27.333  28.684  1.00  0.00     0.074 A 
ATOM     43  C   UNL A   1      40.474  26.230  28.691  1.00  0.00     0.031 C 
ATOM     44  C   UNL A   1      46.800  24.598  26.465  1.00  0.00     0.029 A 
ATOM     45  C   UNL A   1      46.619  25.984  26.889  1.00  0.00     0.049 A 
ATOM     46  H   UNL A   1      44.911  26.844  27.714  1.00  0.00     0.167 HD
ATOM     47  C   UNL A   1      41.107  28.592  29.077  1.00  0.00     0.037 A 
ATOM     48  C   UNL A   1      47.550  26.955  26.819  1.00  0.00     0.037 A 
ATOM     49  C   UNL A   1      42.055  29.672  29.111  1.00  0.00     0.049 A 
ATOM     50  C   UNL A   1      47.198  28.342  27.288  1.00  0.00     0.074 A 
ATOM     51  C   UNL A   1      41.867  30.975  29.537  1.00  0.00     0.029 A 
ATOM     52  N   UNL A   1      43.380  29.567  28.710  1.00  0.00    -0.354 N 
ATOM     53  N   UNL A   1      46.057  28.793  27.750  1.00  0.00    -0.248 NA
ATOM     54  C   UNL A   1      48.263  29.352  27.231  1.00  0.00     0.031 C 
ATOM     55  C   UNL A   1      43.072  31.665  29.371  1.00  0.00     0.029 A 
ATOM     56  C   UNL A   1      44.020  30.782  28.879  1.00  0.00     0.049 A 
ATOM     57  H   UNL A   1      43.801  28.749  28.359  1.00  0.00     0.167 HD
ATOM     58  C   UNL A   1      46.275  30.126  28.072  1.00  0.00     0.074 A 
ATOM     59  C   UNL A   1      47.659  30.411  27.754  1.00  0.00     0.031 C 
ATOM     60  C   UNL A   1      45.408  31.031  28.586  1.00  0.00     0.037 A 
BRANCH  47  61
ATOM     61  C   UNL A   1      39.696  28.861  29.504  1.00  0.00     0.064 A 
ATOM     62  C   UNL A   1      39.280  28.670  30.831  1.00  0.00     0.173 A 
ATOM     63  C   UNL A   1      38.748  29.322  28.579  1.00  0.00     0.173 A 
ATOM     64  F   UNL A   1      40.145  28.212  31.748  1.00  0.00    -0.203 F 
ATOM     65  C   UNL A   1      37.960  28.899  31.208  1.00  0.00     0.198 A 
ATOM     66  C   UNL A   1      37.435  29.579  28.966  1.00  0.00     0.198 A 
ATOM     67  F   UNL A   1      39.092  29.523  27.298  1.00  0.00    -0.203 F 
ATOM     68  F   UNL A   1      37.574  28.654  32.467  1.00  0.00    -0.200 F 
ATOM     69  C   UNL A   1      37.041  29.359  30.278  1.00  0.00     0.200 A 
ATOM     70  F   UNL A   1      36.549  30.034  28.069  1.00  0.00    -0.200 F 
ATOM     71  F   UNL A   1      35.771  29.580  30.643  1.00  0.00    -0.200 F 
ENDBRANCH  47  61
BRANCH  48  72
ATOM     72  C   UNL A   1      48.912  26.645  26.313  1.00  0.00     0.064 A 
ATOM     73  C   UNL A   1      49.251  26.893  24.975  1.00  0.00     0.173 A 
ATOM     74  C   UNL A   1      49.896  26.094  27.145  1.00  0.00     0.173 A 
ATOM     75  F   UNL A   1      48.337  27.401  24.137  1.00  0.00    -0.203 F 
ATOM     76  C   UNL A   1      50.518  26.584  24.485  1.00  0.00     0.198 A 
ATOM     77  C   UNL A   1      51.171  25.808  26.659  1.00  0.00     0.198 A 
ATOM     78  F   UNL A   1      49.623  25.844  28.434  1.00  0.00    -0.203 F 
ATOM     79  F   UNL A   1      50.802  26.793  23.192  1.00  0.00    -0.200 F 
ATOM     80  C   UNL A   1      51.478  26.046  25.328  1.00  0.00     0.200 A 
ATOM     81  F   UNL A   1      52.100  25.301  27.480  1.00  0.00    -0.200 F 
ATOM     82  F   UNL A   1      52.697  25.751  24.856  1.00  0.00    -0.200 F 
ENDBRANCH  48  72
BRANCH  60  83
ATOM     83  C   UNL A   1      45.939  32.398  28.898  1.00  0.00     0.064 A 
ATOM     84  C   UNL A   1      46.503  32.703  30.143  1.00  0.00     0.173 A 
ATOM     85  C   UNL A   1      45.946  33.392  27.908  1.00  0.00     0.173 A 
ATOM     86  F   UNL A   1      46.507  31.787  31.125  1.00  0.00    -0.203 F 
ATOM     87  C   UNL A   1      47.046  33.960  30.391  1.00  0.00     0.198 A 
ATOM     88  C   UNL A   1      46.511  34.640  28.150  1.00  0.00     0.198 A 
ATOM     89  F   UNL A   1      45.423  33.144  26.697  1.00  0.00    -0.203 F 
ATOM     90  F   UNL A   1      47.555  34.242  31.599  1.00  0.00    -0.200 F 
ATOM     91  C   UNL A   1      47.058  34.923  29.392  1.00  0.00     0.200 A 
ATOM     92  F   UNL A   1      46.533  35.564  27.182  1.00  0.00    -0.200 F 
ATOM     93  F   UNL A   1      47.595  36.129  29.629  1.00  0.00    -0.200 F 
ENDBRANCH  60  83
ENDBRANCH  34  35
ENDBRANCH  26  29
ENDBRANCH  24  25
ENDBRANCH  23  24
ENDBRANCH  22  23
ENDBRANCH   1  22
TORSDOF 15
ENDMDL
MODEL 2
REMARK VINA RESULT:     -11.5      5.857      9.721
REMARK SMILES C[C@@H]1CCC[C@](CCSc2ccccc2)(C(=O)NCCCCNC(=O)c2ccc(-c3c4nc(c(-c5c(F)c(F)c(F)c(F)c5F)c5ccc([nH]5)c(-c5c(F)c(F)c(F)c(F)c5F)c5nc(c(-c6c(F)c(F)c(F)c(F)c6F)c6ccc3[nH]6)C=C5)C=C4)cc2)C1
REMARK SMILES IDX 19 1 18 2 16 3 17 4 6 6 1 7 2 8 3 9 89 10 4 11 5 12 7 13
REMARK SMILES IDX 8 14 9 15 10 16 11 17 15 18 12 19 14 20 13 21 20 22 21 23
REMARK SMILES IDX 22 24 23 25 24 26 25 28 26 29 27 30 88 31 28 32 87 33 29 34
REMARK SMILES IDX 30 35 31 36 81 37 32 38 86 39 80 40 82 41 33 42 85 43 79 44
REMARK SMILES IDX 78 45 34 47 66 48 46 49 65 50 47 51 50 52 64 53 83 54 48 55
REMARK SMILES IDX 49 56 63 58 84 59 51 60 35 61 36 62 44 63 37 64 38 65 42 66
REMARK SMILES IDX 45 67 39 68 40 69 43 70 41 71 67 72 68 73 76 74 69 75 70 76
REMARK SMILES IDX 74 77 77 78 71 79 72 80 75 81 73 82 52 83 53 84 61 85 54 86
REMARK SMILES IDX 55 87 59 88 62 89 56 90 57 91 60 92 58 93
REMARK H PARENT 18 5 23 27 82 46 50 57
REMARK Flexibility Score: inf
ROOT
ATOM      1  C   UNL A   1      33.095  29.564  26.264  1.00  0.00     0.116 C 
ENDROOT
BRANCH   1   2
ATOM      2  N   UNL A   1      33.280  29.739  24.849  1.00  0.00    -0.356 N 
ATOM      3  C   UNL A   1      33.000  28.962  23.780  1.00  0.00     0.226 C 
ATOM      4  O   UNL A   1      33.588  29.322  22.751  1.00  0.00    -0.274 OA
ATOM      5  H   UNL A   1      33.696  30.598  24.611  1.00  0.00     0.163 HD
BRANCH   3   6
ATOM      6  C   UNL A   1      32.112  27.677  23.791  1.00  0.00     0.050 C 
ATOM      7  C   UNL A   1      34.096  25.011  25.752  1.00  0.00     0.007 C 
ATOM      8  C   UNL A   1      33.065  25.310  24.646  1.00  0.00    -0.013 C 
ATOM      9  C   UNL A   1      33.614  25.038  23.239  1.00  0.00     0.003 C 
ATOM     10  C   UNL A   1      32.377  26.662  24.920  1.00  0.00     0.020 C 
ATOM     11  C   UNL A   1      33.399  26.110  22.176  1.00  0.00     0.001 C 
ATOM     12  C   UNL A   1      32.189  27.000  22.402  1.00  0.00     0.017 C 
BRANCH   6  13
ATOM     13  C   UNL A   1      30.623  28.214  23.950  1.00  0.00     0.028 C 
BRANCH  13  14
ATOM     14  C   UNL A   1      29.506  27.688  23.017  1.00  0.00     0.076 C 
BRANCH  14  15
ATOM     15  S   UNL A   1      27.819  28.376  23.173  1.00  0.00    -0.126 SA
BRANCH  15  16
ATOM     16  C   UNL A   1      28.022  30.075  22.669  1.00  0.00     0.007 A 
ATOM     17  C   UNL A   1      28.028  30.363  21.299  1.00  0.00     0.015 A 
ATOM     18  C   UNL A   1      28.145  31.131  23.579  1.00  0.00     0.015 A 
ATOM     19  C   UNL A   1      28.230  31.668  20.843  1.00  0.00     0.001 A 
ATOM     20  C   UNL A   1      28.353  32.437  23.125  1.00  0.00     0.001 A 
ATOM     21  C   UNL A   1      28.408  32.703  21.758  1.00  0.00     0.000 A 
ENDBRANCH  15  16
ENDBRANCH  14  15
ENDBRANCH  13  14
ENDBRANCH   6  13
ENDBRANCH   3   6
ENDBRANCH   1   2
BRANCH   1  22
ATOM     22  C   UNL A   1      31.793  30.224  26.717  1.00  0.00     0.023 C 
BRANCH  22  23
ATOM     23  C   UNL A   1      31.775  31.736  26.522  1.00  0.00     0.023 C 
BRANCH  23  24
ATOM     24  C   UNL A   1      32.861  32.481  27.289  1.00  0.00     0.116 C 
BRANCH  24  25
ATOM     25  N   UNL A   1      32.527  33.872  27.572  1.00  0.00    -0.352 N 
ATOM     26  C   UNL A   1      33.102  34.694  28.510  1.00  0.00     0.251 C 
ATOM     27  H   UNL A   1      31.807  34.267  27.028  1.00  0.00     0.163 HD
ATOM     28  O   UNL A   1      32.693  35.832  28.711  1.00  0.00    -0.269 OA
BRANCH  26  29
ATOM     29  C   UNL A   1      34.216  34.146  29.299  1.00  0.00     0.039 A 
ATOM     30  C   UNL A   1      33.934  33.403  30.447  1.00  0.00     0.014 A 
ATOM     31  C   UNL A   1      35.517  34.250  28.802  1.00  0.00     0.014 A 
ATOM     32  C   UNL A   1      34.964  32.697  31.068  1.00  0.00     0.010 A 
ATOM     33  C   UNL A   1      36.524  33.493  29.383  1.00  0.00     0.010 A 
ATOM     34  C   UNL A   1      36.254  32.708  30.517  1.00  0.00    -0.014 A 
BRANCH  34  35
ATOM     35  C   UNL A   1      37.365  31.932  31.116  1.00  0.00     0.031 A 
ATOM     36  C   UNL A   1      37.844  32.293  32.492  1.00  0.00     0.074 A 
ATOM     37  C   UNL A   1      38.001  30.990  30.395  1.00  0.00     0.049 A 
ATOM     38  N   UNL A   1      38.904  31.881  33.137  1.00  0.00    -0.248 NA
ATOM     39  C   UNL A   1      37.041  33.287  33.222  1.00  0.00     0.031 C 
ATOM     40  C   UNL A   1      37.648  30.581  29.034  1.00  0.00     0.029 A 
ATOM     41  N   UNL A   1      39.095  30.222  30.701  1.00  0.00    -0.354 N 
ATOM     42  C   UNL A   1      38.913  32.590  34.329  1.00  0.00     0.074 A 
ATOM     43  C   UNL A   1      37.781  33.490  34.301  1.00  0.00     0.031 C 
ATOM     44  C   UNL A   1      38.505  29.628  28.627  1.00  0.00     0.029 A 
ATOM     45  C   UNL A   1      39.488  29.390  29.681  1.00  0.00     0.049 A 
ATOM     46  H   UNL A   1      39.556  30.263  31.570  1.00  0.00     0.167 HD
ATOM     47  C   UNL A   1      39.778  32.484  35.365  1.00  0.00     0.037 A 
ATOM     48  C   UNL A   1      40.532  28.543  29.604  1.00  0.00     0.037 A 
ATOM     49  C   UNL A   1      40.873  31.554  35.404  1.00  0.00     0.049 A 
ATOM     50  C   UNL A   1      41.465  28.423  30.780  1.00  0.00     0.074 A 
ATOM     51  C   UNL A   1      41.781  31.330  36.424  1.00  0.00     0.029 A 
ATOM     52  N   UNL A   1      41.201  30.682  34.375  1.00  0.00    -0.354 N 
ATOM     53  N   UNL A   1      41.443  29.068  31.921  1.00  0.00    -0.248 NA
ATOM     54  C   UNL A   1      42.562  27.454  30.661  1.00  0.00     0.031 C 
ATOM     55  C   UNL A   1      42.674  30.340  36.001  1.00  0.00     0.029 A 
ATOM     56  C   UNL A   1      42.298  29.920  34.735  1.00  0.00     0.049 A 
ATOM     57  H   UNL A   1      40.723  30.617  33.517  1.00  0.00     0.167 HD
ATOM     58  C   UNL A   1      42.497  28.560  32.667  1.00  0.00     0.074 A 
ATOM     59  C   UNL A   1      43.139  27.550  31.851  1.00  0.00     0.031 C 
ATOM     60  C   UNL A   1      42.897  28.897  33.917  1.00  0.00     0.037 A 
BRANCH  47  61
ATOM     61  C   UNL A   1      39.565  33.394  36.536  1.00  0.00     0.064 A 
ATOM     62  C   UNL A   1      40.174  34.657  36.606  1.00  0.00     0.173 A 
ATOM     63  C   UNL A   1      38.736  33.006  37.598  1.00  0.00     0.173 A 
ATOM     64  F   UNL A   1      40.991  35.066  35.624  1.00  0.00    -0.203 F 
ATOM     65  C   UNL A   1      39.988  35.482  37.711  1.00  0.00     0.198 A 
ATOM     66  C   UNL A   1      38.528  33.846  38.689  1.00  0.00     0.198 A 
ATOM     67  F   UNL A   1      38.128  31.810  37.582  1.00  0.00    -0.203 F 
ATOM     68  F   UNL A   1      40.626  36.658  37.781  1.00  0.00    -0.200 F 
ATOM     69  C   UNL A   1      39.160  35.079  38.749  1.00  0.00     0.200 A 
ATOM     70  F   UNL A   1      37.720  33.461  39.687  1.00  0.00    -0.200 F 
ATOM     71  F   UNL A   1      38.982  35.875  39.811  1.00  0.00    -0.200 F 
ENDBRANCH  47  61
BRANCH  48  72
ATOM     72  C   UNL A   1      40.737  27.722  28.383  1.00  0.00     0.064 A 
ATOM     73  C   UNL A   1      40.135  26.462  28.259  1.00  0.00     0.173 A 
ATOM     74  C   UNL A   1      41.537  28.171  27.322  1.00  0.00     0.173 A 
ATOM     75  F   UNL A   1      39.377  25.983  29.256  1.00  0.00    -0.203 F 
ATOM     76  C   UNL A   1      40.340  25.674  27.128  1.00  0.00     0.198 A 
ATOM     77  C   UNL A   1      41.721  27.392  26.181  1.00  0.00     0.198 A 
ATOM     78  F   UNL A   1      42.130  29.371  27.389  1.00  0.00    -0.203 F 
ATOM     79  F   UNL A   1      39.786  24.456  27.055  1.00  0.00    -0.200 F 
ATOM     80  C   UNL A   1      41.129  26.141  26.089  1.00  0.00     0.200 A 
ATOM     81  F   UNL A   1      42.474  27.852  25.173  1.00  0.00    -0.200 F 
ATOM     82  F   UNL A   1      41.325  25.383  25.001  1.00  0.00    -0.200 F 
ENDBRANCH  48  72
BRANCH  60  83
ATOM     83  C   UNL A   1      44.042  28.130  34.509  1.00  0.00     0.064 A 
ATOM     84  C   UNL A   1      45.360  28.598  34.432  1.00  0.00     0.173 A 
ATOM     85  C   UNL A   1      43.800  26.947  35.222  1.00  0.00     0.173 A 
ATOM     86  F   UNL A   1      45.640  29.719  33.748  1.00  0.00    -0.203 F 
ATOM     87  C   UNL A   1      46.399  27.902  35.040  1.00  0.00     0.198 A 
ATOM     88  C   UNL A   1      44.838  26.266  35.850  1.00  0.00     0.198 A 
ATOM     89  F   UNL A   1      42.553  26.463  35.327  1.00  0.00    -0.203 F 
ATOM     90  F   UNL A   1      47.658  28.351  34.932  1.00  0.00    -0.200 F 
ATOM     91  C   UNL A   1      46.137  26.742  35.756  1.00  0.00     0.200 A 
ATOM     92  F   UNL A   1      44.582  25.153  36.550  1.00  0.00    -0.200 F 
ATOM     93  F   UNL A   1      47.138  26.081  36.354  1.00  0.00    -0.200 F 
ENDBRANCH  60  83
ENDBRANCH  34  35
ENDBRANCH  26  29
ENDBRANCH  24  25
ENDBRANCH  23  24
ENDBRANCH  22  23
ENDBRANCH   1  22
TORSDOF 15
ENDMDL
MODEL 3
REMARK VINA RESULT:     -11.5      5.643     10.872
REMARK SMILES C[C@@H]1CCC[C@](CCSc2ccccc2)(C(=O)NCCCCNC(=O)c2ccc(-c3c4nc(c(-c5c(F)c(F)c(F)c(F)c5F)c5ccc([nH]5)c(-c5c(F)c(F)c(F)c(F)c5F)c5nc(c(-c6c(F)c(F)c(F)c(F)c6F)c6ccc3[nH]6)C=C5)C=C4)cc2)C1
REMARK SMILES IDX 19 1 18 2 16 3 17 4 6 6 1 7 2 8 3 9 89 10 4 11 5 12 7 13
REMARK SMILES IDX 8 14 9 15 10 16 11 17 15 18 12 19 14 20 13 21 20 22 21 23
REMARK SMILES IDX 22 24 23 25 24 26 25 28 26 29 27 30 88 31 28 32 87 33 29 34
REMARK SMILES IDX 30 35 31 36 81 37 32 38 86 39 80 40 82 41 33 42 85 43 79 44
REMARK SMILES IDX 78 45 34 47 66 48 46 49 65 50 47 51 50 52 64 53 83 54 48 55
REMARK SMILES IDX 49 56 63 58 84 59 51 60 35 61 36 62 44 63 37 64 38 65 42 66
REMARK SMILES IDX 45 67 39 68 40 69 43 70 41 71 67 72 68 73 76 74 69 75 70 76
REMARK SMILES IDX 74 77 77 78 71 79 72 80 75 81 73 82 52 83 53 84 61 85 54 86
REMARK SMILES IDX 55 87 59 88 62 89 56 90 57 91 60 92 58 93
REMARK H PARENT 18 5 23 27 82 46 50 57
REMARK Flexibility Score: inf
ROOT
ATOM      1  C   UNL A   1      31.346  30.097  25.065  1.00  0.00     0.116 C 
ENDROOT
BRANCH   1   2
ATOM      2  N   UNL A   1      30.706  29.570  23.891  1.00  0.00    -0.356 N 
ATOM      3  C   UNL A   1      30.727  28.357  23.296  1.00  0.00     0.226 C 
ATOM      4  O   UNL A   1      30.295  28.378  22.135  1.00  0.00    -0.274 OA
ATOM      5  H   UNL A   1      30.138  30.225  23.426  1.00  0.00     0.163 HD
BRANCH   3   6
ATOM      6  C   UNL A   1      31.305  27.044  23.914  1.00  0.00     0.050 C 
ATOM      7  C   UNL A   1      31.967  27.807  27.638  1.00  0.00     0.007 C 
ATOM      8  C   UNL A   1      32.362  26.997  26.388  1.00  0.00    -0.013 C 
ATOM      9  C   UNL A   1      33.712  27.433  25.805  1.00  0.00     0.003 C 
ATOM     10  C   UNL A   1      31.154  26.873  25.439  1.00  0.00     0.020 C 
ATOM     11  C   UNL A   1      33.790  27.670  24.301  1.00  0.00     0.001 C 
ATOM     12  C   UNL A   1      32.781  26.889  23.478  1.00  0.00     0.017 C 
BRANCH   6  13
ATOM     13  C   UNL A   1      30.498  25.871  23.204  1.00  0.00     0.028 C 
BRANCH  13  14
ATOM     14  C   UNL A   1      30.541  24.438  23.786  1.00  0.00     0.076 C 
BRANCH  14  15
ATOM     15  S   UNL A   1      31.758  23.244  23.123  1.00  0.00    -0.126 SA
BRANCH  15  16
ATOM     16  C   UNL A   1      33.189  23.503  24.157  1.00  0.00     0.007 A 
ATOM     17  C   UNL A   1      33.016  23.462  25.546  1.00  0.00     0.015 A 
ATOM     18  C   UNL A   1      34.473  23.712  23.643  1.00  0.00     0.015 A 
ATOM     19  C   UNL A   1      34.090  23.703  26.406  1.00  0.00     0.001 A 
ATOM     20  C   UNL A   1      35.548  23.958  24.503  1.00  0.00     0.001 A 
ATOM     21  C   UNL A   1      35.353  23.967  25.884  1.00  0.00     0.000 A 
ENDBRANCH  15  16
ENDBRANCH  14  15
ENDBRANCH  13  14
ENDBRANCH   6  13
ENDBRANCH   3   6
ENDBRANCH   1   2
BRANCH   1  22
ATOM     22  C   UNL A   1      30.780  31.474  25.407  1.00  0.00     0.023 C 
BRANCH  22  23
ATOM     23  C   UNL A   1      31.109  31.934  26.824  1.00  0.00     0.023 C 
BRANCH  23  24
ATOM     24  C   UNL A   1      32.386  32.758  26.936  1.00  0.00     0.116 C 
BRANCH  24  25
ATOM     25  N   UNL A   1      32.180  34.079  27.519  1.00  0.00    -0.352 N 
ATOM     26  C   UNL A   1      32.967  34.712  28.449  1.00  0.00     0.251 C 
ATOM     27  H   UNL A   1      31.386  34.573  27.210  1.00  0.00     0.163 HD
ATOM     28  O   UNL A   1      32.659  35.800  28.923  1.00  0.00    -0.269 OA
BRANCH  26  29
ATOM     29  C   UNL A   1      34.188  34.020  28.887  1.00  0.00     0.039 A 
ATOM     30  C   UNL A   1      35.430  34.602  28.625  1.00  0.00     0.014 A 
ATOM     31  C   UNL A   1      34.074  32.879  29.684  1.00  0.00     0.014 A 
ATOM     32  C   UNL A   1      36.569  34.071  29.228  1.00  0.00     0.010 A 
ATOM     33  C   UNL A   1      35.200  32.395  30.335  1.00  0.00     0.010 A 
ATOM     34  C   UNL A   1      36.454  32.990  30.116  1.00  0.00    -0.014 A 
BRANCH  34  35
ATOM     35  C   UNL A   1      37.632  32.427  30.817  1.00  0.00     0.031 A 
ATOM     36  C   UNL A   1      38.402  31.315  30.167  1.00  0.00     0.074 A 
ATOM     37  C   UNL A   1      37.940  32.837  32.061  1.00  0.00     0.049 A 
ATOM     38  N   UNL A   1      39.342  30.555  30.663  1.00  0.00    -0.248 NA
ATOM     39  C   UNL A   1      38.029  30.988  28.780  1.00  0.00     0.031 C 
ATOM     40  C   UNL A   1      37.241  33.884  32.809  1.00  0.00     0.029 A 
ATOM     41  N   UNL A   1      38.911  32.402  32.928  1.00  0.00    -0.354 N 
ATOM     42  C   UNL A   1      39.646  29.640  29.666  1.00  0.00     0.074 A 
ATOM     43  C   UNL A   1      38.762  29.909  28.553  1.00  0.00     0.031 C 
ATOM     44  C   UNL A   1      37.812  34.016  34.018  1.00  0.00     0.029 A 
ATOM     45  C   UNL A   1      38.890  33.038  34.144  1.00  0.00     0.049 A 
ATOM     46  H   UNL A   1      39.562  31.699  32.698  1.00  0.00     0.167 HD
ATOM     47  C   UNL A   1      40.595  28.674  29.671  1.00  0.00     0.037 A 
ATOM     48  C   UNL A   1      39.648  32.842  35.240  1.00  0.00     0.037 A 
ATOM     49  C   UNL A   1      41.500  28.443  30.763  1.00  0.00     0.049 A 
ATOM     50  C   UNL A   1      40.715  31.780  35.211  1.00  0.00     0.074 A 
ATOM     51  C   UNL A   1      42.530  27.524  30.853  1.00  0.00     0.029 A 
ATOM     52  N   UNL A   1      41.489  29.152  31.956  1.00  0.00    -0.354 N 
ATOM     53  N   UNL A   1      41.024  30.944  34.249  1.00  0.00    -0.248 NA
ATOM     54  C   UNL A   1      41.542  31.636  36.417  1.00  0.00     0.031 C 
ATOM     55  C   UNL A   1      43.126  27.659  32.111  1.00  0.00     0.029 A 
ATOM     56  C   UNL A   1      42.493  28.690  32.788  1.00  0.00     0.049 A 
ATOM     57  H   UNL A   1      40.859  29.876  32.176  1.00  0.00     0.167 HD
ATOM     58  C   UNL A   1      42.100  30.204  34.717  1.00  0.00     0.074 A 
ATOM     59  C   UNL A   1      42.394  30.688  36.050  1.00  0.00     0.031 C 
ATOM     60  C   UNL A   1      42.785  29.212  34.098  1.00  0.00     0.037 A 
BRANCH  47  61
ATOM     61  C   UNL A   1      40.698  27.804  28.455  1.00  0.00     0.064 A 
ATOM     62  C   UNL A   1      40.023  26.576  28.371  1.00  0.00     0.173 A 
ATOM     63  C   UNL A   1      41.472  28.204  27.356  1.00  0.00     0.173 A 
ATOM     64  F   UNL A   1      39.286  26.140  29.403  1.00  0.00    -0.203 F 
ATOM     65  C   UNL A   1      40.148  25.766  27.246  1.00  0.00     0.198 A 
ATOM     66  C   UNL A   1      41.570  27.405  26.220  1.00  0.00     0.198 A 
ATOM     67  F   UNL A   1      42.136  29.370  27.384  1.00  0.00    -0.203 F 
ATOM     68  F   UNL A   1      39.542  24.571  27.213  1.00  0.00    -0.200 F 
ATOM     69  C   UNL A   1      40.916  26.183  26.169  1.00  0.00     0.200 A 
ATOM     70  F   UNL A   1      42.304  27.814  25.176  1.00  0.00    -0.200 F 
ATOM     71  F   UNL A   1      41.034  25.402  25.088  1.00  0.00    -0.200 F 
ENDBRANCH  47  61
BRANCH  48  72
ATOM     72  C   UNL A   1      39.447  33.686  36.446  1.00  0.00     0.064 A 
ATOM     73  C   UNL A   1      40.043  34.951  36.542  1.00  0.00     0.173 A 
ATOM     74  C   UNL A   1      38.664  33.250  37.525  1.00  0.00     0.173 A 
ATOM     75  F   UNL A   1      40.816  35.403  35.543  1.00  0.00    -0.203 F 
ATOM     76  C   UNL A   1      39.880  35.740  37.679  1.00  0.00     0.198 A 
ATOM     77  C   UNL A   1      38.482  34.050  38.651  1.00  0.00     0.198 A 
ATOM     78  F   UNL A   1      38.068  32.050  37.480  1.00  0.00    -0.203 F 
ATOM     79  F   UNL A   1      40.496  36.927  37.760  1.00  0.00    -0.200 F 
ATOM     80  C   UNL A   1      39.096  35.291  38.730  1.00  0.00     0.200 A 
ATOM     81  F   UNL A   1      37.713  33.619  39.660  1.00  0.00    -0.200 F 
ATOM     82  F   UNL A   1      38.938  36.051  39.823  1.00  0.00    -0.200 F 
ENDBRANCH  48  72
BRANCH  60  83
ATOM     83  C   UNL A   1      43.958  28.624  34.823  1.00  0.00     0.064 A 
ATOM     84  C   UNL A   1      45.236  29.191  34.739  1.00  0.00     0.173 A 
ATOM     85  C   UNL A   1      43.779  27.519  35.669  1.00  0.00     0.173 A 
ATOM     86  F   UNL A   1      45.458  30.241  33.932  1.00  0.00    -0.203 F 
ATOM     87  C   UNL A   1      46.298  28.666  35.469  1.00  0.00     0.198 A 
ATOM     88  C   UNL A   1      44.837  27.011  36.417  1.00  0.00     0.198 A 
ATOM     89  F   UNL A   1      42.571  26.946  35.787  1.00  0.00    -0.203 F 
ATOM     90  F   UNL A   1      47.520  29.205  35.353  1.00  0.00    -0.200 F 
ATOM     91  C   UNL A   1      46.096  27.583  36.314  1.00  0.00     0.200 A 
ATOM     92  F   UNL A   1      44.637  25.974  37.240  1.00  0.00    -0.200 F 
ATOM     93  F   UNL A   1      47.117  27.088  37.027  1.00  0.00    -0.200 F 
ENDBRANCH  60  83
ENDBRANCH  34  35
ENDBRANCH  26  29
ENDBRANCH  24  25
ENDBRANCH  23  24
ENDBRANCH  22  23
ENDBRANCH   1  22
TORSDOF 15
ENDMDL
