MODEL 1
REMARK VINA RESULT:     -12.9      0.000      0.000
REMARK SMILES O=C(NCCCCNC(=O)[C@@H]1C[C@@H]2CC[C@H]1N2C(=O)C[C@H]1CCCCO1)c1ccc(-c2c3nc(c(-c4c(F)c(F)c(F)c(F)c4F)c4ccc([nH]4)c(-c4c(F)c(F)c(F)c(F)c4F)c4nc(c(-c5c(F)c(F)c(F)c(F)c5F)c5ccc2[nH]5)C=C4)C=C3)cc1
REMARK SMILES IDX 6 1 5 2 4 3 3 4 1 5 2 6 27 8 28 9 89 10 29 11 88 12 30 13
REMARK SMILES IDX 31 14 32 15 82 16 33 17 87 18 81 19 83 20 34 21 86 22 80 23
REMARK SMILES IDX 79 24 35 26 67 27 47 28 66 29 48 30 51 31 65 32 84 33 49 34
REMARK SMILES IDX 50 35 64 37 85 38 52 39 36 40 37 41 45 42 38 43 39 44 43 45
REMARK SMILES IDX 46 46 40 47 41 48 44 49 42 50 68 51 69 52 77 53 70 54 71 55
REMARK SMILES IDX 75 56 78 57 72 58 73 59 76 60 74 61 53 62 54 63 62 64 55 65
REMARK SMILES IDX 56 66 60 67 63 68 57 69 58 70 61 71 59 72 7 73 8 74 9 75
REMARK SMILES IDX 10 77 11 78 12 79 16 80 13 81 15 82 17 83 14 84 18 85 19 86
REMARK SMILES IDX 20 87 21 88 22 89 26 90 23 91 25 92 24 93
REMARK H PARENT 3 7 83 25 51 36 8 76
REMARK Flexibility Score: inf
ROOT
ATOM      1  C   UNL A   1      32.077  30.412  26.853  1.00  0.00     0.023 C 
ENDROOT
BRANCH   1   2
ATOM      2  C   UNL A   1      31.816  31.922  26.806  1.00  0.00     0.023 C 
BRANCH   2   3
ATOM      3  C   UNL A   1      32.887  32.796  27.450  1.00  0.00     0.116 C 
BRANCH   3   4
ATOM      4  N   UNL A   1      32.470  34.162  27.713  1.00  0.00    -0.352 N 
ATOM      5  O   UNL A   1      32.552  36.133  28.842  1.00  0.00    -0.269 OA
ATOM      6  C   UNL A   1      33.028  35.028  28.636  1.00  0.00     0.251 C 
ATOM      7  H   UNL A   1      31.715  34.505  27.182  1.00  0.00     0.163 HD
BRANCH   6   8
ATOM      8  C   UNL A   1      34.197  34.555  29.410  1.00  0.00     0.039 A 
ATOM      9  C   UNL A   1      35.479  34.654  28.864  1.00  0.00     0.014 A 
ATOM     10  C   UNL A   1      33.992  33.901  30.627  1.00  0.00     0.014 A 
ATOM     11  C   UNL A   1      36.530  33.962  29.456  1.00  0.00     0.010 A 
ATOM     12  C   UNL A   1      35.068  33.270  31.261  1.00  0.00     0.010 A 
ATOM     13  C   UNL A   1      36.336  33.259  30.658  1.00  0.00    -0.014 A 
BRANCH  13  14
ATOM     14  C   UNL A   1      37.485  32.550  31.282  1.00  0.00     0.031 A 
ATOM     15  C   UNL A   1      37.953  32.890  32.671  1.00  0.00     0.074 A 
ATOM     16  C   UNL A   1      38.086  31.564  30.591  1.00  0.00     0.049 A 
ATOM     17  N   UNL A   1      38.943  32.373  33.357  1.00  0.00    -0.248 NA
ATOM     18  C   UNL A   1      37.222  33.949  33.384  1.00  0.00     0.031 C 
ATOM     19  C   UNL A   1      37.722  31.147  29.236  1.00  0.00     0.029 A 
ATOM     20  N   UNL A   1      39.115  30.725  30.933  1.00  0.00    -0.354 N 
ATOM     21  C   UNL A   1      38.972  33.058  34.566  1.00  0.00     0.074 A 
ATOM     22  C   UNL A   1      37.907  34.038  34.517  1.00  0.00     0.031 C 
ATOM     23  C   UNL A   1      38.484  30.105  28.877  1.00  0.00     0.029 A 
ATOM     24  C   UNL A   1      39.432  29.821  29.949  1.00  0.00     0.049 A 
ATOM     25  H   UNL A   1      39.582  30.766  31.799  1.00  0.00     0.167 HD
ATOM     26  C   UNL A   1      39.810  32.881  35.616  1.00  0.00     0.037 A 
ATOM     27  C   UNL A   1      40.393  28.881  29.902  1.00  0.00     0.037 A 
ATOM     28  C   UNL A   1      40.852  31.887  35.670  1.00  0.00     0.049 A 
ATOM     29  C   UNL A   1      41.311  28.714  31.076  1.00  0.00     0.074 A 
ATOM     30  C   UNL A   1      41.728  31.608  36.705  1.00  0.00     0.029 A 
ATOM     31  N   UNL A   1      41.158  31.006  34.642  1.00  0.00    -0.354 N 
ATOM     32  N   UNL A   1      41.318  29.362  32.216  1.00  0.00    -0.248 NA
ATOM     33  C   UNL A   1      42.360  27.693  30.955  1.00  0.00     0.031 C 
ATOM     34  C   UNL A   1      42.589  30.585  36.290  1.00  0.00     0.029 A 
ATOM     35  C   UNL A   1      42.221  30.198  35.012  1.00  0.00     0.049 A 
ATOM     36  H   UNL A   1      40.689  30.963  33.778  1.00  0.00     0.167 HD
ATOM     37  C   UNL A   1      42.363  28.823  32.951  1.00  0.00     0.074 A 
ATOM     38  C   UNL A   1      42.953  27.779  32.138  1.00  0.00     0.031 C 
ATOM     39  C   UNL A   1      42.799  29.167  34.188  1.00  0.00     0.037 A 
BRANCH  26  40
ATOM     40  C   UNL A   1      39.655  33.792  36.801  1.00  0.00     0.064 A 
ATOM     41  C   UNL A   1      40.247  35.064  36.836  1.00  0.00     0.173 A 
ATOM     42  C   UNL A   1      38.848  33.415  37.885  1.00  0.00     0.173 A 
ATOM     43  F   UNL A   1      41.036  35.469  35.830  1.00  0.00    -0.203 F 
ATOM     44  C   UNL A   1      40.048  35.917  37.920  1.00  0.00     0.198 A 
ATOM     45  C   UNL A   1      38.632  34.279  38.955  1.00  0.00     0.198 A 
ATOM     46  F   UNL A   1      38.253  32.213  37.898  1.00  0.00    -0.203 F 
ATOM     47  F   UNL A   1      40.649  37.115  37.946  1.00  0.00    -0.200 F 
ATOM     48  C   UNL A   1      39.235  35.528  38.973  1.00  0.00     0.200 A 
ATOM     49  F   UNL A   1      37.837  33.906  39.967  1.00  0.00    -0.200 F 
ATOM     50  F   UNL A   1      39.036  36.355  40.009  1.00  0.00    -0.200 F 
ENDBRANCH  26  40
BRANCH  27  51
ATOM     51  C   UNL A   1      40.529  28.037  28.690  1.00  0.00     0.064 A 
ATOM     52  C   UNL A   1      39.859  26.811  28.585  1.00  0.00     0.173 A 
ATOM     53  C   UNL A   1      41.303  28.456  27.596  1.00  0.00     0.173 A 
ATOM     54  F   UNL A   1      39.123  26.361  29.612  1.00  0.00    -0.203 F 
ATOM     55  C   UNL A   1      39.961  26.033  27.434  1.00  0.00     0.198 A 
ATOM     56  C   UNL A   1      41.381  27.691  26.436  1.00  0.00     0.198 A 
ATOM     57  F   UNL A   1      41.957  29.625  27.647  1.00  0.00    -0.203 F 
ATOM     58  F   UNL A   1      39.334  24.850  27.370  1.00  0.00    -0.200 F 
ATOM     59  C   UNL A   1      40.714  26.478  26.357  1.00  0.00     0.200 A 
ATOM     60  F   UNL A   1      42.094  28.134  25.392  1.00  0.00    -0.200 F 
ATOM     61  F   UNL A   1      40.799  25.737  25.245  1.00  0.00    -0.200 F 
ENDBRANCH  27  51
BRANCH  39  62
ATOM     62  C   UNL A   1      43.959  28.394  34.737  1.00  0.00     0.064 A 
ATOM     63  C   UNL A   1      45.281  28.816  34.534  1.00  0.00     0.173 A 
ATOM     64  C   UNL A   1      43.746  27.230  35.489  1.00  0.00     0.173 A 
ATOM     65  F   UNL A   1      45.534  29.914  33.805  1.00  0.00    -0.203 F 
ATOM     66  C   UNL A   1      46.350  28.086  35.045  1.00  0.00     0.198 A 
ATOM     67  C   UNL A   1      44.817  26.515  36.019  1.00  0.00     0.198 A 
ATOM     68  F   UNL A   1      42.499  26.789  35.713  1.00  0.00    -0.203 F 
ATOM     69  F   UNL A   1      47.607  28.481  34.800  1.00  0.00    -0.200 F 
ATOM     70  C   UNL A   1      46.117  26.939  35.790  1.00  0.00     0.200 A 
ATOM     71  F   UNL A   1      44.590  25.413  36.745  1.00  0.00    -0.200 F 
ATOM     72  F   UNL A   1      47.148  26.237  36.281  1.00  0.00    -0.200 F 
ENDBRANCH  39  62
ENDBRANCH  13  14
ENDBRANCH   6   8
ENDBRANCH   3   4
ENDBRANCH   2   3
ENDBRANCH   1   2
BRANCH   1  73
ATOM     73  C   UNL A   1      33.569  30.081  26.824  1.00  0.00     0.116 C 
BRANCH  73  74
ATOM     74  N   UNL A   1      33.885  28.669  26.880  1.00  0.00    -0.356 N 
ATOM     75  C   UNL A   1      33.440  27.595  26.179  1.00  0.00     0.225 C 
ATOM     76  H   UNL A   1      34.556  28.442  27.564  1.00  0.00     0.163 HD
ATOM     77  O   UNL A   1      34.148  26.585  26.223  1.00  0.00    -0.275 OA
BRANCH  75  78
ATOM     78  C   UNL A   1      32.068  27.554  25.541  1.00  0.00     0.103 C 
ATOM     79  C   UNL A   1      30.989  26.835  26.421  1.00  0.00     0.040 C 
ATOM     80  C   UNL A   1      31.852  26.874  24.189  1.00  0.00     0.098 C 
ATOM     81  C   UNL A   1      30.210  25.988  25.389  1.00  0.00     0.086 C 
ATOM     82  C   UNL A   1      32.228  25.378  24.258  1.00  0.00     0.028 C 
ATOM     83  N   UNL A   1      30.409  26.776  24.196  1.00  0.00    -0.336 N 
ATOM     84  C   UNL A   1      31.051  24.757  25.042  1.00  0.00     0.027 C 
BRANCH  83  85
ATOM     85  C   UNL A   1      29.424  27.359  23.456  1.00  0.00     0.225 C 
ATOM     86  O   UNL A   1      28.243  27.041  23.597  1.00  0.00    -0.275 OA
BRANCH  85  87
ATOM     87  C   UNL A   1      29.828  28.396  22.423  1.00  0.00     0.132 C 
BRANCH  87  88
ATOM     88  C   UNL A   1      28.877  29.596  22.370  1.00  0.00     0.127 C 
ATOM     89  C   UNL A   1      29.156  30.577  23.516  1.00  0.00     0.033 C 
ATOM     90  O   UNL A   1      29.018  30.273  21.118  1.00  0.00    -0.378 OA
ATOM     91  C   UNL A   1      28.263  31.812  23.406  1.00  0.00     0.005 C 
ATOM     92  C   UNL A   1      28.085  31.338  20.956  1.00  0.00     0.160 C 
ATOM     93  C   UNL A   1      28.329  32.411  22.005  1.00  0.00     0.029 C 
ENDBRANCH  87  88
ENDBRANCH  85  87
ENDBRANCH  83  85
ENDBRANCH  75  78
ENDBRANCH  73  74
ENDBRANCH   1  73
TORSDOF 14
ENDMDL
MODEL 2
REMARK VINA RESULT:     -12.8      0.397      7.403
REMARK SMILES O=C(NCCCCNC(=O)[C@@H]1C[C@@H]2CC[C@H]1N2C(=O)C[C@H]1CCCCO1)c1ccc(-c2c3nc(c(-c4c(F)c(F)c(F)c(F)c4F)c4ccc([nH]4)c(-c4c(F)c(F)c(F)c(F)c4F)c4nc(c(-c5c(F)c(F)c(F)c(F)c5F)c5ccc2[nH]5)C=C4)C=C3)cc1
REMARK SMILES IDX 6 1 5 2 4 3 3 4 1 5 2 6 27 8 28 9 89 10 29 11 88 12 30 13
REMARK SMILES IDX 31 14 32 15 82 16 33 17 87 18 81 19 83 20 34 21 86 22 80 23
REMARK SMILES IDX 79 24 35 26 67 27 47 28 66 29 48 30 51 31 65 32 84 33 49 34
REMARK SMILES IDX 50 35 64 37 85 38 52 39 36 40 37 41 45 42 38 43 39 44 43 45
REMARK SMILES IDX 46 46 40 47 41 48 44 49 42 50 68 51 69 52 77 53 70 54 71 55
REMARK SMILES IDX 75 56 78 57 72 58 73 59 76 60 74 61 53 62 54 63 62 64 55 65
REMARK SMILES IDX 56 66 60 67 63 68 57 69 58 70 61 71 59 72 7 73 8 74 9 75
REMARK SMILES IDX 10 77 11 78 12 79 16 80 13 81 15 82 17 83 14 84 18 85 19 86
REMARK SMILES IDX 20 87 21 88 22 89 26 90 23 91 25 92 24 93
REMARK H PARENT 3 7 83 25 51 36 8 76
REMARK Flexibility Score: inf
ROOT
ATOM      1  C   UNL A   1      32.085  30.422  26.943  1.00  0.00     0.023 C 
ENDROOT
BRANCH   1   2
ATOM      2  C   UNL A   1      31.796  31.925  26.859  1.00  0.00     0.023 C 
BRANCH   2   3
ATOM      3  C   UNL A   1      32.882  32.836  27.422  1.00  0.00     0.116 C 
BRANCH   3   4
ATOM      4  N   UNL A   1      32.455  34.202  27.663  1.00  0.00    -0.352 N 
ATOM      5  O   UNL A   1      32.501  36.183  28.777  1.00  0.00    -0.269 OA
ATOM      6  C   UNL A   1      32.986  35.078  28.593  1.00  0.00     0.251 C 
ATOM      7  H   UNL A   1      31.714  34.540  27.109  1.00  0.00     0.163 HD
BRANCH   6   8
ATOM      8  C   UNL A   1      34.135  34.614  29.403  1.00  0.00     0.039 A 
ATOM      9  C   UNL A   1      35.424  34.651  28.865  1.00  0.00     0.014 A 
ATOM     10  C   UNL A   1      33.902  34.029  30.649  1.00  0.00     0.014 A 
ATOM     11  C   UNL A   1      36.450  33.963  29.502  1.00  0.00     0.010 A 
ATOM     12  C   UNL A   1      34.955  33.403  31.325  1.00  0.00     0.010 A 
ATOM     13  C   UNL A   1      36.228  33.327  30.736  1.00  0.00    -0.014 A 
BRANCH  13  14
ATOM     14  C   UNL A   1      37.351  32.621  31.407  1.00  0.00     0.031 A 
ATOM     15  C   UNL A   1      38.100  31.512  30.719  1.00  0.00     0.074 A 
ATOM     16  C   UNL A   1      37.714  33.014  32.641  1.00  0.00     0.049 A 
ATOM     17  N   UNL A   1      39.099  30.789  31.166  1.00  0.00    -0.248 NA
ATOM     18  C   UNL A   1      37.677  31.163  29.354  1.00  0.00     0.031 C 
ATOM     19  C   UNL A   1      37.061  34.075  33.409  1.00  0.00     0.029 A 
ATOM     20  N   UNL A   1      38.726  32.584  33.460  1.00  0.00    -0.354 N 
ATOM     21  C   UNL A   1      39.403  29.886  30.155  1.00  0.00     0.074 A 
ATOM     22  C   UNL A   1      38.476  30.142  29.073  1.00  0.00     0.031 C 
ATOM     23  C   UNL A   1      37.713  34.244  34.568  1.00  0.00     0.029 A 
ATOM     24  C   UNL A   1      38.788  33.262  34.652  1.00  0.00     0.049 A 
ATOM     25  H   UNL A   1      39.348  31.860  33.219  1.00  0.00     0.167 HD
ATOM     26  C   UNL A   1      40.368  28.935  30.136  1.00  0.00     0.037 A 
ATOM     27  C   UNL A   1      39.605  33.100  35.709  1.00  0.00     0.037 A 
ATOM     28  C   UNL A   1      41.304  28.701  31.206  1.00  0.00     0.049 A 
ATOM     29  C   UNL A   1      40.658  32.033  35.663  1.00  0.00     0.074 A 
ATOM     30  C   UNL A   1      42.340  27.784  31.264  1.00  0.00     0.029 A 
ATOM     31  N   UNL A   1      41.318  29.392  32.410  1.00  0.00    -0.354 N 
ATOM     32  N   UNL A   1      40.940  31.195  34.695  1.00  0.00    -0.248 NA
ATOM     33  C   UNL A   1      41.499  31.882  36.857  1.00  0.00     0.031 C 
ATOM     34  C   UNL A   1      42.956  27.894  32.516  1.00  0.00     0.029 A 
ATOM     35  C   UNL A   1      42.332  28.909  33.221  1.00  0.00     0.049 A 
ATOM     36  H   UNL A   1      40.699  30.119  32.650  1.00  0.00     0.167 HD
ATOM     37  C   UNL A   1      41.996  30.423  35.158  1.00  0.00     0.074 A 
ATOM     38  C   UNL A   1      42.319  30.908  36.484  1.00  0.00     0.031 C 
ATOM     39  C   UNL A   1      42.636  29.400  34.541  1.00  0.00     0.037 A 
BRANCH  26  40
ATOM     40  C   UNL A   1      40.460  28.051  28.924  1.00  0.00     0.064 A 
ATOM     41  C   UNL A   1      39.750  26.844  28.835  1.00  0.00     0.173 A 
ATOM     42  C   UNL A   1      41.215  28.451  27.811  1.00  0.00     0.173 A 
ATOM     43  F   UNL A   1      39.022  26.411  29.875  1.00  0.00    -0.203 F 
ATOM     44  C   UNL A   1      39.806  26.064  27.682  1.00  0.00     0.198 A 
ATOM     45  C   UNL A   1      41.249  27.680  26.651  1.00  0.00     0.198 A 
ATOM     46  F   UNL A   1      41.907  29.599  27.841  1.00  0.00    -0.203 F 
ATOM     47  F   UNL A   1      39.143  24.899  27.631  1.00  0.00    -0.200 F 
ATOM     48  C   UNL A   1      40.547  26.487  26.589  1.00  0.00     0.200 A 
ATOM     49  F   UNL A   1      41.958  28.096  25.592  1.00  0.00    -0.200 F 
ATOM     50  F   UNL A   1      40.590  25.740  25.477  1.00  0.00    -0.200 F 
ENDBRANCH  26  40
BRANCH  27  51
ATOM     51  C   UNL A   1      39.442  33.972  36.899  1.00  0.00     0.064 A 
ATOM     52  C   UNL A   1      38.702  33.545  38.009  1.00  0.00     0.173 A 
ATOM     53  C   UNL A   1      40.053  35.233  36.964  1.00  0.00     0.173 A 
ATOM     54  F   UNL A   1      38.084  32.355  37.985  1.00  0.00    -0.203 F 
ATOM     55  C   UNL A   1      38.575  34.351  39.139  1.00  0.00     0.198 A 
ATOM     56  C   UNL A   1      39.949  36.024  38.104  1.00  0.00     0.198 A 
ATOM     57  F   UNL A   1      40.778  35.681  35.928  1.00  0.00    -0.203 F 
ATOM     58  F   UNL A   1      37.837  33.933  40.177  1.00  0.00    -0.200 F 
ATOM     59  C   UNL A   1      39.205  35.585  39.189  1.00  0.00     0.200 A 
ATOM     60  F   UNL A   1      40.576  37.207  38.155  1.00  0.00    -0.200 F 
ATOM     61  F   UNL A   1      39.096  36.352  40.282  1.00  0.00    -0.200 F 
ENDBRANCH  27  51
BRANCH  39  62
ATOM     62  C   UNL A   1      43.759  28.752  35.293  1.00  0.00     0.064 A 
ATOM     63  C   UNL A   1      43.526  27.707  36.197  1.00  0.00     0.173 A 
ATOM     64  C   UNL A   1      45.083  29.167  35.091  1.00  0.00     0.173 A 
ATOM     65  F   UNL A   1      42.273  27.287  36.436  1.00  0.00    -0.203 F 
ATOM     66  C   UNL A   1      44.576  27.116  36.893  1.00  0.00     0.198 A 
ATOM     67  C   UNL A   1      46.134  28.559  35.772  1.00  0.00     0.198 A 
ATOM     68  F   UNL A   1      45.356  30.161  34.233  1.00  0.00    -0.203 F 
ATOM     69  F   UNL A   1      44.327  26.151  37.788  1.00  0.00    -0.200 F 
ATOM     70  C   UNL A   1      45.879  27.539  36.676  1.00  0.00     0.200 A 
ATOM     71  F   UNL A   1      47.393  28.963  35.555  1.00  0.00    -0.200 F 
ATOM     72  F   UNL A   1      46.890  26.970  37.348  1.00  0.00    -0.200 F 
ENDBRANCH  39  62
ENDBRANCH  13  14
ENDBRANCH   6   8
ENDBRANCH   3   4
ENDBRANCH   2   3
ENDBRANCH   1   2
BRANCH   1  73
ATOM     73  C   UNL A   1      33.580  30.114  26.882  1.00  0.00     0.116 C 
BRANCH  73  74
ATOM     74  N   UNL A   1      33.919  28.707  26.918  1.00  0.00    -0.356 N 
ATOM     75  C   UNL A   1      33.489  27.634  26.203  1.00  0.00     0.225 C 
ATOM     76  H   UNL A   1      34.595  28.482  27.597  1.00  0.00     0.163 HD
ATOM     77  O   UNL A   1      34.214  26.636  26.232  1.00  0.00    -0.275 OA
BRANCH  75  78
ATOM     78  C   UNL A   1      32.117  27.580  25.568  1.00  0.00     0.103 C 
ATOM     79  C   UNL A   1      31.043  26.865  26.457  1.00  0.00     0.040 C 
ATOM     80  C   UNL A   1      31.902  26.885  24.223  1.00  0.00     0.098 C 
ATOM     81  C   UNL A   1      30.267  26.004  25.435  1.00  0.00     0.086 C 
ATOM     82  C   UNL A   1      32.286  25.393  24.307  1.00  0.00     0.028 C 
ATOM     83  N   UNL A   1      30.460  26.781  24.234  1.00  0.00    -0.336 N 
ATOM     84  C   UNL A   1      31.113  24.773  25.098  1.00  0.00     0.027 C 
BRANCH  83  85
ATOM     85  C   UNL A   1      29.471  27.351  23.489  1.00  0.00     0.225 C 
ATOM     86  O   UNL A   1      28.293  27.021  23.629  1.00  0.00    -0.275 OA
BRANCH  85  87
ATOM     87  C   UNL A   1      29.867  28.388  22.454  1.00  0.00     0.132 C 
BRANCH  87  88
ATOM     88  C   UNL A   1      28.899  29.573  22.387  1.00  0.00     0.127 C 
ATOM     89  C   UNL A   1      29.173  30.580  23.512  1.00  0.00     0.033 C 
ATOM     90  O   UNL A   1      29.018  30.229  21.121  1.00  0.00    -0.378 OA
ATOM     91  C   UNL A   1      28.263  31.800  23.387  1.00  0.00     0.005 C 
ATOM     92  C   UNL A   1      28.069  31.277  20.948  1.00  0.00     0.160 C 
ATOM     93  C   UNL A   1      28.307  32.373  21.975  1.00  0.00     0.029 C 
ENDBRANCH  87  88
ENDBRANCH  85  87
ENDBRANCH  83  85
ENDBRANCH  75  78
ENDBRANCH  73  74
ENDBRANCH   1  73
TORSDOF 14
ENDMDL
MODEL 3
REMARK VINA RESULT:     -12.8      1.586      8.113
REMARK SMILES O=C(NCCCCNC(=O)[C@@H]1C[C@@H]2CC[C@H]1N2C(=O)C[C@H]1CCCCO1)c1ccc(-c2c3nc(c(-c4c(F)c(F)c(F)c(F)c4F)c4ccc([nH]4)c(-c4c(F)c(F)c(F)c(F)c4F)c4nc(c(-c5c(F)c(F)c(F)c(F)c5F)c5ccc2[nH]5)C=C4)C=C3)cc1
REMARK SMILES IDX 6 1 5 2 4 3 3 4 1 5 2 6 27 8 28 9 89 10 29 11 88 12 30 13
REMARK SMILES IDX 31 14 32 15 82 16 33 17 87 18 81 19 83 20 34 21 86 22 80 23
REMARK SMILES IDX 79 24 35 26 67 27 47 28 66 29 48 30 51 31 65 32 84 33 49 34
REMARK SMILES IDX 50 35 64 37 85 38 52 39 36 40 37 41 45 42 38 43 39 44 43 45
REMARK SMILES IDX 46 46 40 47 41 48 44 49 42 50 68 51 69 52 77 53 70 54 71 55
REMARK SMILES IDX 75 56 78 57 72 58 73 59 76 60 74 61 53 62 54 63 62 64 55 65
REMARK SMILES IDX 56 66 60 67 63 68 57 69 58 70 61 71 59 72 7 73 8 74 9 75
REMARK SMILES IDX 10 77 11 78 12 79 16 80 13 81 15 82 17 83 14 84 18 85 19 86
REMARK SMILES IDX 20 87 21 88 22 89 26 90 23 91 25 92 24 93
REMARK H PARENT 3 7 83 25 51 36 8 76
REMARK Flexibility Score: inf
ROOT
ATOM      1  C   UNL A   1      32.051  30.308  26.860  1.00  0.00     0.023 C 
ENDROOT
BRANCH   1   2
ATOM      2  C   UNL A   1      31.804  31.819  26.775  1.00  0.00     0.023 C 
BRANCH   2   3
ATOM      3  C   UNL A   1      32.877  32.698  27.410  1.00  0.00     0.116 C 
BRANCH   3   4
ATOM      4  N   UNL A   1      32.467  34.071  27.645  1.00  0.00    -0.352 N 
ATOM      5  O   UNL A   1      32.539  36.056  28.751  1.00  0.00    -0.269 OA
ATOM      6  C   UNL A   1      33.010  34.943  28.571  1.00  0.00     0.251 C 
ATOM      7  H   UNL A   1      31.730  34.415  27.090  1.00  0.00     0.163 HD
BRANCH   6   8
ATOM      8  C   UNL A   1      34.153  34.469  29.382  1.00  0.00     0.039 A 
ATOM      9  C   UNL A   1      35.450  34.547  28.869  1.00  0.00     0.014 A 
ATOM     10  C   UNL A   1      33.910  33.832  30.601  1.00  0.00     0.014 A 
ATOM     11  C   UNL A   1      36.478  33.853  29.497  1.00  0.00     0.010 A 
ATOM     12  C   UNL A   1      34.962  33.198  31.271  1.00  0.00     0.010 A 
ATOM     13  C   UNL A   1      36.246  33.166  30.702  1.00  0.00    -0.014 A 
BRANCH  13  14
ATOM     14  C   UNL A   1      37.370  32.454  31.364  1.00  0.00     0.031 A 
ATOM     15  C   UNL A   1      38.112  31.345  30.669  1.00  0.00     0.074 A 
ATOM     16  C   UNL A   1      37.741  32.842  32.598  1.00  0.00     0.049 A 
ATOM     17  N   UNL A   1      39.110  30.617  31.109  1.00  0.00    -0.248 NA
ATOM     18  C   UNL A   1      37.680  31.002  29.305  1.00  0.00     0.031 C 
ATOM     19  C   UNL A   1      37.095  33.903  33.373  1.00  0.00     0.029 A 
ATOM     20  N   UNL A   1      38.755  32.406  33.411  1.00  0.00    -0.354 N 
ATOM     21  C   UNL A   1      39.405  29.716  30.093  1.00  0.00     0.074 A 
ATOM     22  C   UNL A   1      38.474  29.979  29.016  1.00  0.00     0.031 C 
ATOM     23  C   UNL A   1      37.753  34.066  34.529  1.00  0.00     0.029 A 
ATOM     24  C   UNL A   1      38.826  33.080  34.605  1.00  0.00     0.049 A 
ATOM     25  H   UNL A   1      39.373  31.680  33.163  1.00  0.00     0.167 HD
ATOM     26  C   UNL A   1      40.367  28.762  30.066  1.00  0.00     0.037 A 
ATOM     27  C   UNL A   1      39.648  32.911  35.657  1.00  0.00     0.037 A 
ATOM     28  C   UNL A   1      41.308  28.521  31.131  1.00  0.00     0.049 A 
ATOM     29  C   UNL A   1      40.696  31.841  35.602  1.00  0.00     0.074 A 
ATOM     30  C   UNL A   1      42.341  27.601  31.180  1.00  0.00     0.029 A 
ATOM     31  N   UNL A   1      41.330  29.209  32.336  1.00  0.00    -0.354 N 
ATOM     32  N   UNL A   1      40.971  31.005  34.630  1.00  0.00    -0.248 NA
ATOM     33  C   UNL A   1      41.543  31.683  36.791  1.00  0.00     0.031 C 
ATOM     34  C   UNL A   1      42.964  27.704  32.429  1.00  0.00     0.029 A 
ATOM     35  C   UNL A   1      42.347  28.719  33.142  1.00  0.00     0.049 A 
ATOM     36  H   UNL A   1      40.715  29.937  32.582  1.00  0.00     0.167 HD
ATOM     37  C   UNL A   1      42.026  30.228  35.084  1.00  0.00     0.074 A 
ATOM     38  C   UNL A   1      42.357  30.708  36.411  1.00  0.00     0.031 C 
ATOM     39  C   UNL A   1      42.659  29.205  34.462  1.00  0.00     0.037 A 
BRANCH  26  40
ATOM     40  C   UNL A   1      40.450  27.882  28.851  1.00  0.00     0.064 A 
ATOM     41  C   UNL A   1      39.711  26.694  28.748  1.00  0.00     0.173 A 
ATOM     42  C   UNL A   1      41.227  28.267  27.748  1.00  0.00     0.173 A 
ATOM     43  F   UNL A   1      38.961  26.275  29.778  1.00  0.00    -0.203 F 
ATOM     44  C   UNL A   1      39.759  25.918  27.592  1.00  0.00     0.198 A 
ATOM     45  C   UNL A   1      41.255  27.502  26.585  1.00  0.00     0.198 A 
ATOM     46  F   UNL A   1      41.948  29.398  27.791  1.00  0.00    -0.203 F 
ATOM     47  F   UNL A   1      39.068  24.771  27.528  1.00  0.00    -0.200 F 
ATOM     48  C   UNL A   1      40.523  26.327  26.509  1.00  0.00     0.200 A 
ATOM     49  F   UNL A   1      41.985  27.904  25.536  1.00  0.00    -0.200 F 
ATOM     50  F   UNL A   1      40.559  25.584  25.394  1.00  0.00    -0.200 F 
ENDBRANCH  26  40
BRANCH  27  51
ATOM     51  C   UNL A   1      39.493  33.780  36.850  1.00  0.00     0.064 A 
ATOM     52  C   UNL A   1      40.082  35.050  36.898  1.00  0.00     0.173 A 
ATOM     53  C   UNL A   1      38.723  33.373  37.950  1.00  0.00     0.173 A 
ATOM     54  F   UNL A   1      40.843  35.474  35.878  1.00  0.00    -0.203 F 
ATOM     55  C   UNL A   1      39.912  35.878  38.005  1.00  0.00     0.198 A 
ATOM     56  C   UNL A   1      38.530  34.213  39.042  1.00  0.00     0.198 A 
ATOM     57  F   UNL A   1      38.133  32.169  37.947  1.00  0.00    -0.203 F 
ATOM     58  F   UNL A   1      40.511  37.077  38.040  1.00  0.00    -0.200 F 
ATOM     59  C   UNL A   1      39.128  35.464  39.072  1.00  0.00     0.200 A 
ATOM     60  F   UNL A   1      37.756  33.816  40.061  1.00  0.00    -0.200 F 
ATOM     61  F   UNL A   1      38.951  36.268  40.128  1.00  0.00    -0.200 F 
ENDBRANCH  27  51
BRANCH  39  62
ATOM     62  C   UNL A   1      43.784  28.550  35.205  1.00  0.00     0.064 A 
ATOM     63  C   UNL A   1      45.102  29.012  35.090  1.00  0.00     0.173 A 
ATOM     64  C   UNL A   1      43.537  27.463  36.055  1.00  0.00     0.173 A 
ATOM     65  F   UNL A   1      45.389  30.039  34.274  1.00  0.00    -0.203 F 
ATOM     66  C   UNL A   1      46.139  28.392  35.781  1.00  0.00     0.198 A 
ATOM     67  C   UNL A   1      44.573  26.860  36.763  1.00  0.00     0.198 A 
ATOM     68  F   UNL A   1      42.291  26.987  36.200  1.00  0.00    -0.203 F 
ATOM     69  F   UNL A   1      47.399  28.820  35.621  1.00  0.00    -0.200 F 
ATOM     70  C   UNL A   1      45.873  27.321  36.621  1.00  0.00     0.200 A 
ATOM     71  F   UNL A   1      44.313  25.830  37.580  1.00  0.00    -0.200 F 
ATOM     72  F   UNL A   1      46.873  26.724  37.285  1.00  0.00    -0.200 F 
ENDBRANCH  39  62
ENDBRANCH  13  14
ENDBRANCH   6   8
ENDBRANCH   3   4
ENDBRANCH   2   3
ENDBRANCH   1   2
BRANCH   1  73
ATOM     73  C   UNL A   1      33.320  29.885  26.121  1.00  0.00     0.116 C 
BRANCH  73  74
ATOM     74  N   UNL A   1      33.166  29.706  24.692  1.00  0.00    -0.356 N 
ATOM     75  C   UNL A   1      32.693  28.683  23.935  1.00  0.00     0.225 C 
ATOM     76  H   UNL A   1      33.466  30.481  24.164  1.00  0.00     0.163 HD
ATOM     77  O   UNL A   1      32.370  28.967  22.778  1.00  0.00    -0.275 OA
BRANCH  75  78
ATOM     78  C   UNL A   1      32.737  27.243  24.398  1.00  0.00     0.103 C 
ATOM     79  C   UNL A   1      32.764  26.208  23.223  1.00  0.00     0.040 C 
ATOM     80  C   UNL A   1      31.626  26.668  25.278  1.00  0.00     0.098 C 
ATOM     81  C   UNL A   1      31.789  25.110  23.707  1.00  0.00     0.086 C 
ATOM     82  C   UNL A   1      30.262  26.742  24.560  1.00  0.00     0.028 C 
ATOM     83  N   UNL A   1      31.914  25.258  25.137  1.00  0.00    -0.336 N 
ATOM     84  C   UNL A   1      30.357  25.614  23.508  1.00  0.00     0.027 C 
BRANCH  83  85
ATOM     85  C   UNL A   1      32.357  24.299  25.999  1.00  0.00     0.225 C 
ATOM     86  O   UNL A   1      31.571  23.569  26.604  1.00  0.00    -0.275 OA
BRANCH  85  87
ATOM     87  C   UNL A   1      33.853  24.175  26.219  1.00  0.00     0.132 C 
BRANCH  87  88
ATOM     88  C   UNL A   1      34.529  23.212  25.238  1.00  0.00     0.127 C 
ATOM     89  C   UNL A   1      35.578  23.936  24.383  1.00  0.00     0.033 C 
ATOM     90  O   UNL A   1      35.154  22.144  25.955  1.00  0.00    -0.378 OA
ATOM     91  C   UNL A   1      36.308  22.954  23.468  1.00  0.00     0.005 C 
ATOM     92  C   UNL A   1      35.711  21.152  25.098  1.00  0.00     0.160 C 
ATOM     93  C   UNL A   1      36.824  21.754  24.255  1.00  0.00     0.029 C 
ENDBRANCH  87  88
ENDBRANCH  85  87
ENDBRANCH  83  85
ENDBRANCH  75  78
ENDBRANCH  73  74
ENDBRANCH   1  73
TORSDOF 14
ENDMDL
