MODEL 1
REMARK VINA RESULT:     -13.5      0.000      0.000
REMARK SMILES NS(=O)(=O)c1ccc(C(=O)N2CC[C@H](c3ccccc3C(=O)NCCCCNC(=O)c3ccc(-c4c5nc(c(-c6c(F)c(F)c(F)c(F)c6F)c6ccc([nH]6)c(-c6c(F)c(F)c(F)c(F)c6F)c6nc(c(-c7c(F)c(F)c(F)c(F)c7F)c7ccc4[nH]7)C=C6)C=C5)cc3)C2)cc1
REMARK SMILES IDX 24 1 23 2 21 3 22 4 20 6 15 7 16 8 17 9 19 10 18 11 14 12
REMARK SMILES IDX 11 13 12 14 94 15 13 16 9 17 10 18 8 19 5 20 6 21 96 22 7 23
REMARK SMILES IDX 95 24 2 25 3 26 4 27 1 28 25 31 26 32 27 33 28 34 29 35
REMARK SMILES IDX 30 37 31 38 32 39 93 40 33 41 92 42 34 43 35 44 36 45 86 46
REMARK SMILES IDX 37 47 91 48 85 49 87 50 38 51 90 52 84 53 83 54 39 56 71 57
REMARK SMILES IDX 51 58 70 59 52 60 55 61 69 62 88 63 53 64 54 65 68 67 89 68
REMARK SMILES IDX 56 69 40 70 41 71 49 72 42 73 43 74 47 75 50 76 44 77 45 78
REMARK SMILES IDX 48 79 46 80 72 81 73 82 81 83 74 84 75 85 79 86 82 87 76 88
REMARK SMILES IDX 77 89 80 90 78 91 57 92 58 93 66 94 59 95 60 96 64 97 67 98
REMARK SMILES IDX 61 99 62 100 65 101 63 102
REMARK H PARENT 23 5 1 29 1 30 28 36 87 55 55 66
REMARK Flexibility Score: inf
ROOT
ATOM      1  C   UNL A   1      33.605  29.607  27.039  1.00  0.00     0.116 C 
ENDROOT
BRANCH   1   2
ATOM      2  N   UNL A   1      33.651  28.262  26.487  1.00  0.00    -0.352 N 
ATOM      3  C   UNL A   1      33.416  28.029  25.150  1.00  0.00     0.251 C 
ATOM      4  O   UNL A   1      34.169  28.444  24.277  1.00  0.00    -0.269 OA
ATOM      5  H   UNL A   1      33.855  27.503  27.081  1.00  0.00     0.163 HD
BRANCH   3   6
ATOM      6  C   UNL A   1      32.293  27.099  24.825  1.00  0.00     0.043 A 
ATOM      7  C   UNL A   1      32.315  25.698  25.057  1.00  0.00    -0.030 A 
ATOM      8  C   UNL A   1      31.173  24.960  24.698  1.00  0.00     0.005 A 
ATOM      9  C   UNL A   1      30.038  25.583  24.174  1.00  0.00     0.000 A 
ATOM     10  C   UNL A   1      31.141  27.716  24.309  1.00  0.00     0.014 A 
ATOM     11  C   UNL A   1      30.018  26.960  23.986  1.00  0.00     0.001 A 
BRANCH   7  12
ATOM     12  C   UNL A   1      33.492  25.029  25.726  1.00  0.00     0.041 C 
ATOM     13  N   UNL A   1      35.146  23.310  25.650  1.00  0.00    -0.338 N 
ATOM     14  C   UNL A   1      34.415  23.201  26.898  1.00  0.00     0.120 C 
ATOM     15  C   UNL A   1      34.705  24.494  24.914  1.00  0.00     0.128 C 
ATOM     16  C   UNL A   1      33.067  23.767  26.502  1.00  0.00     0.032 C 
BRANCH  13  17
ATOM     17  C   UNL A   1      35.903  22.349  25.000  1.00  0.00     0.253 C 
ATOM     18  O   UNL A   1      36.920  22.642  24.375  1.00  0.00    -0.269 OA
BRANCH  17  19
ATOM     19  C   UNL A   1      35.393  20.946  24.914  1.00  0.00     0.040 A 
ATOM     20  C   UNL A   1      34.470  18.338  24.465  1.00  0.00     0.082 A 
ATOM     21  C   UNL A   1      35.836  18.569  24.661  1.00  0.00     0.022 A 
ATOM     22  C   UNL A   1      33.566  19.394  24.483  1.00  0.00     0.022 A 
ATOM     23  C   UNL A   1      36.295  19.873  24.902  1.00  0.00     0.015 A 
ATOM     24  C   UNL A   1      34.039  20.689  24.656  1.00  0.00     0.015 A 
BRANCH  20  25
ATOM     25  S   UNL A   1      33.886  16.719  24.066  1.00  0.00     0.238 S 
ATOM     26  O   UNL A   1      34.478  15.781  24.971  1.00  0.00    -0.207 OA
ATOM     27  O   UNL A   1      33.912  16.564  22.621  1.00  0.00    -0.207 OA
BRANCH  25  28
ATOM     28  N   UNL A   1      32.248  16.786  24.462  1.00  0.00    -0.225 NA
ATOM     29  H   UNL A   1      31.760  16.004  24.024  1.00  0.00     0.137 HD
ATOM     30  H   UNL A   1      31.852  17.664  24.125  1.00  0.00     0.137 HD
ENDBRANCH  25  28
ENDBRANCH  20  25
ENDBRANCH  17  19
ENDBRANCH  13  17
ENDBRANCH   7  12
ENDBRANCH   3   6
ENDBRANCH   1   2
BRANCH   1  31
ATOM     31  C   UNL A   1      32.159  30.079  27.190  1.00  0.00     0.023 C 
BRANCH  31  32
ATOM     32  C   UNL A   1      31.952  31.539  26.804  1.00  0.00     0.023 C 
BRANCH  32  33
ATOM     33  C   UNL A   1      33.011  32.510  27.306  1.00  0.00     0.116 C 
BRANCH  33  34
ATOM     34  N   UNL A   1      32.510  33.841  27.615  1.00  0.00    -0.352 N 
ATOM     35  C   UNL A   1      33.035  34.754  28.507  1.00  0.00     0.251 C 
ATOM     36  H   UNL A   1      31.699  34.122  27.132  1.00  0.00     0.163 HD
ATOM     37  O   UNL A   1      32.499  35.839  28.696  1.00  0.00    -0.269 OA
BRANCH  35  38
ATOM     38  C   UNL A   1      34.225  34.369  29.297  1.00  0.00     0.039 A 
ATOM     39  C   UNL A   1      34.035  33.680  30.497  1.00  0.00     0.014 A 
ATOM     40  C   UNL A   1      35.510  34.561  28.783  1.00  0.00     0.014 A 
ATOM     41  C   UNL A   1      35.130  33.090  31.129  1.00  0.00     0.010 A 
ATOM     42  C   UNL A   1      36.584  33.898  29.368  1.00  0.00     0.010 A 
ATOM     43  C   UNL A   1      36.403  33.142  30.538  1.00  0.00    -0.014 A 
BRANCH  43  44
ATOM     44  C   UNL A   1      37.548  32.395  31.120  1.00  0.00     0.031 A 
ATOM     45  C   UNL A   1      38.050  32.732  32.495  1.00  0.00     0.074 A 
ATOM     46  C   UNL A   1      38.174  31.451  30.388  1.00  0.00     0.049 A 
ATOM     47  N   UNL A   1      39.053  32.217  33.161  1.00  0.00    -0.248 NA
ATOM     48  C   UNL A   1      37.350  33.814  33.202  1.00  0.00     0.031 C 
ATOM     49  C   UNL A   1      37.815  31.062  29.023  1.00  0.00     0.029 A 
ATOM     50  N   UNL A   1      39.244  30.645  30.690  1.00  0.00    -0.354 N 
ATOM     51  C   UNL A   1      39.105  32.916  34.359  1.00  0.00     0.074 A 
ATOM     52  C   UNL A   1      38.082  33.938  34.297  1.00  0.00     0.031 C 
ATOM     53  C   UNL A   1      38.620  30.064  28.623  1.00  0.00     0.029 A 
ATOM     54  C   UNL A   1      39.576  29.768  29.686  1.00  0.00     0.049 A 
ATOM     55  H   UNL A   1      39.727  30.691  31.547  1.00  0.00     0.167 HD
ATOM     56  C   UNL A   1      39.911  32.707  35.428  1.00  0.00     0.037 A 
ATOM     57  C   UNL A   1      40.539  28.827  29.632  1.00  0.00     0.037 A 
ATOM     58  C   UNL A   1      40.919  31.682  35.491  1.00  0.00     0.049 A 
ATOM     59  C   UNL A   1      41.445  28.635  30.819  1.00  0.00     0.074 A 
ATOM     60  C   UNL A   1      41.753  31.354  36.545  1.00  0.00     0.029 A 
ATOM     61  N   UNL A   1      41.235  30.821  34.449  1.00  0.00    -0.354 N 
ATOM     62  N   UNL A   1      41.437  29.252  31.976  1.00  0.00    -0.248 NA
ATOM     63  C   UNL A   1      42.494  27.615  30.690  1.00  0.00     0.031 C 
ATOM     64  C   UNL A   1      42.609  30.329  36.123  1.00  0.00     0.029 A 
ATOM     65  C   UNL A   1      42.272  29.982  34.825  1.00  0.00     0.049 A 
ATOM     66  H   UNL A   1      40.789  30.810  33.571  1.00  0.00     0.167 HD
ATOM     67  C   UNL A   1      42.452  28.671  32.724  1.00  0.00     0.074 A 
ATOM     68  C   UNL A   1      43.050  27.647  31.893  1.00  0.00     0.031 C 
ATOM     69  C   UNL A   1      42.851  28.960  33.988  1.00  0.00     0.037 A 
BRANCH  56  70
ATOM     70  C   UNL A   1      39.728  33.615  36.610  1.00  0.00     0.064 A 
ATOM     71  C   UNL A   1      38.887  33.271  37.682  1.00  0.00     0.173 A 
ATOM     72  C   UNL A   1      40.391  34.851  36.672  1.00  0.00     0.173 A 
ATOM     73  F   UNL A   1      38.219  32.106  37.668  1.00  0.00    -0.203 F 
ATOM     74  C   UNL A   1      38.678  34.149  38.742  1.00  0.00     0.198 A 
ATOM     75  C   UNL A   1      40.207  35.709  37.752  1.00  0.00     0.198 A 
ATOM     76  F   UNL A   1      41.211  35.228  35.680  1.00  0.00    -0.203 F 
ATOM     77  F   UNL A   1      37.813  33.827  39.715  1.00  0.00    -0.200 F 
ATOM     78  C   UNL A   1      39.341  35.365  38.779  1.00  0.00     0.200 A 
ATOM     79  F   UNL A   1      40.860  36.880  37.793  1.00  0.00    -0.200 F 
ATOM     80  F   UNL A   1      39.136  36.212  39.797  1.00  0.00    -0.200 F 
ENDBRANCH  56  70
BRANCH  57  81
ATOM     81  C   UNL A   1      40.664  27.957  28.433  1.00  0.00     0.064 A 
ATOM     82  C   UNL A   1      40.024  26.710  28.385  1.00  0.00     0.173 A 
ATOM     83  C   UNL A   1      41.420  28.345  27.316  1.00  0.00     0.173 A 
ATOM     84  F   UNL A   1      39.309  26.286  29.437  1.00  0.00    -0.203 F 
ATOM     85  C   UNL A   1      40.148  25.878  27.274  1.00  0.00     0.198 A 
ATOM     86  C   UNL A   1      41.519  27.523  26.195  1.00  0.00     0.198 A 
ATOM     87  F   UNL A   1      42.049  29.529  27.310  1.00  0.00    -0.203 F 
ATOM     88  F   UNL A   1      39.559  24.675  27.274  1.00  0.00    -0.200 F 
ATOM     89  C   UNL A   1      40.890  26.288  26.178  1.00  0.00     0.200 A 
ATOM     90  F   UNL A   1      42.227  27.928  25.132  1.00  0.00    -0.200 F 
ATOM     91  F   UNL A   1      41.002  25.490  25.107  1.00  0.00    -0.200 F 
ENDBRANCH  57  81
BRANCH  69  92
ATOM     92  C   UNL A   1      43.962  28.130  34.566  1.00  0.00     0.064 A 
ATOM     93  C   UNL A   1      45.300  28.545  34.510  1.00  0.00     0.173 A 
ATOM     94  C   UNL A   1      43.676  26.922  35.220  1.00  0.00     0.173 A 
ATOM     95  F   UNL A   1      45.629  29.685  33.882  1.00  0.00    -0.203 F 
ATOM     96  C   UNL A   1      46.314  27.768  35.062  1.00  0.00     0.198 A 
ATOM     97  C   UNL A   1      44.689  26.163  35.800  1.00  0.00     0.198 A 
ATOM     98  F   UNL A   1      42.412  26.482  35.307  1.00  0.00    -0.203 F 
ATOM     99  F   UNL A   1      47.591  28.159  34.953  1.00  0.00    -0.200 F 
ATOM    100  C   UNL A   1      46.007  26.582  35.715  1.00  0.00     0.200 A 
ATOM    101  F   UNL A   1      44.388  25.026  36.442  1.00  0.00    -0.200 F 
ATOM    102  F   UNL A   1      46.984  25.840  36.254  1.00  0.00    -0.200 F 
ENDBRANCH  69  92
ENDBRANCH  43  44
ENDBRANCH  35  38
ENDBRANCH  33  34
ENDBRANCH  32  33
ENDBRANCH  31  32
ENDBRANCH   1  31
TORSDOF 16
ENDMDL
MODEL 2
REMARK VINA RESULT:     -13.4      5.349     11.157
REMARK SMILES NS(=O)(=O)c1ccc(C(=O)N2CC[C@H](c3ccccc3C(=O)NCCCCNC(=O)c3ccc(-c4c5nc(c(-c6c(F)c(F)c(F)c(F)c6F)c6ccc([nH]6)c(-c6c(F)c(F)c(F)c(F)c6F)c6nc(c(-c7c(F)c(F)c(F)c(F)c7F)c7ccc4[nH]7)C=C6)C=C5)cc3)C2)cc1
REMARK SMILES IDX 24 1 23 2 21 3 22 4 20 6 15 7 16 8 17 9 19 10 18 11 14 12
REMARK SMILES IDX 11 13 12 14 94 15 13 16 9 17 10 18 8 19 5 20 6 21 96 22 7 23
REMARK SMILES IDX 95 24 2 25 3 26 4 27 1 28 25 31 26 32 27 33 28 34 29 35
REMARK SMILES IDX 30 37 31 38 32 39 93 40 33 41 92 42 34 43 35 44 36 45 86 46
REMARK SMILES IDX 37 47 91 48 85 49 87 50 38 51 90 52 84 53 83 54 39 56 71 57
REMARK SMILES IDX 51 58 70 59 52 60 55 61 69 62 88 63 53 64 54 65 68 67 89 68
REMARK SMILES IDX 56 69 40 70 41 71 49 72 42 73 43 74 47 75 50 76 44 77 45 78
REMARK SMILES IDX 48 79 46 80 72 81 73 82 81 83 74 84 75 85 79 86 82 87 76 88
REMARK SMILES IDX 77 89 80 90 78 91 57 92 58 93 66 94 59 95 60 96 64 97 67 98
REMARK SMILES IDX 61 99 62 100 65 101 63 102
REMARK H PARENT 23 5 1 29 1 30 28 36 87 55 55 66
REMARK Flexibility Score: inf
ROOT
ATOM      1  C   UNL A   1      37.311  22.544  25.677  1.00  0.00     0.116 C 
ENDROOT
BRANCH   1   2
ATOM      2  N   UNL A   1      35.915  22.950  25.705  1.00  0.00    -0.352 N 
ATOM      3  C   UNL A   1      34.907  22.031  25.896  1.00  0.00     0.251 C 
ATOM      4  O   UNL A   1      34.779  21.417  26.948  1.00  0.00    -0.269 OA
ATOM      5  H   UNL A   1      35.686  23.900  25.584  1.00  0.00     0.163 HD
BRANCH   3   6
ATOM      6  C   UNL A   1      33.874  21.945  24.820  1.00  0.00     0.043 A 
ATOM      7  C   UNL A   1      33.333  23.063  24.132  1.00  0.00    -0.030 A 
ATOM      8  C   UNL A   1      32.369  22.814  23.139  1.00  0.00     0.005 A 
ATOM      9  C   UNL A   1      31.986  21.512  22.806  1.00  0.00     0.000 A 
ATOM     10  C   UNL A   1      33.490  20.640  24.467  1.00  0.00     0.014 A 
ATOM     11  C   UNL A   1      32.551  20.425  23.462  1.00  0.00     0.001 A 
BRANCH   7  12
ATOM     12  C   UNL A   1      33.821  24.466  24.404  1.00  0.00     0.041 C 
ATOM     13  N   UNL A   1      33.273  26.710  25.005  1.00  0.00    -0.338 N 
ATOM     14  C   UNL A   1      34.016  26.728  23.760  1.00  0.00     0.120 C 
ATOM     15  C   UNL A   1      33.206  25.346  25.528  1.00  0.00     0.128 C 
ATOM     16  C   UNL A   1      33.646  25.380  23.175  1.00  0.00     0.032 C 
BRANCH  13  17
ATOM     17  C   UNL A   1      32.437  27.681  25.532  1.00  0.00     0.253 C 
ATOM     18  O   UNL A   1      32.471  27.986  26.723  1.00  0.00    -0.269 OA
BRANCH  17  19
ATOM     19  C   UNL A   1      31.356  28.262  24.678  1.00  0.00     0.040 A 
ATOM     20  C   UNL A   1      29.157  29.337  23.313  1.00  0.00     0.082 A 
ATOM     21  C   UNL A   1      30.045  30.187  23.981  1.00  0.00     0.022 A 
ATOM     22  C   UNL A   1      29.352  27.960  23.328  1.00  0.00     0.022 A 
ATOM     23  C   UNL A   1      31.155  29.648  24.651  1.00  0.00     0.015 A 
ATOM     24  C   UNL A   1      30.416  27.434  24.049  1.00  0.00     0.015 A 
BRANCH  20  25
ATOM     25  S   UNL A   1      27.704  29.987  22.546  1.00  0.00     0.238 S 
ATOM     26  O   UNL A   1      27.900  29.999  21.127  1.00  0.00    -0.207 OA
ATOM     27  O   UNL A   1      27.264  31.147  23.303  1.00  0.00    -0.207 OA
BRANCH  25  28
ATOM     28  N   UNL A   1      26.539  28.806  22.851  1.00  0.00    -0.225 NA
ATOM     29  H   UNL A   1      26.935  27.884  22.667  1.00  0.00     0.137 HD
ATOM     30  H   UNL A   1      25.734  28.958  22.243  1.00  0.00     0.137 HD
ENDBRANCH  25  28
ENDBRANCH  20  25
ENDBRANCH  17  19
ENDBRANCH  13  17
ENDBRANCH   7  12
ENDBRANCH   3   6
ENDBRANCH   1   2
BRANCH   1  31
ATOM     31  C   UNL A   1      37.542  21.475  24.609  1.00  0.00     0.023 C 
BRANCH  31  32
ATOM     32  C   UNL A   1      38.160  20.193  25.156  1.00  0.00     0.023 C 
BRANCH  32  33
ATOM     33  C   UNL A   1      39.476  20.361  25.902  1.00  0.00     0.116 C 
BRANCH  33  34
ATOM     34  N   UNL A   1      40.348  19.197  25.856  1.00  0.00    -0.352 N 
ATOM     35  C   UNL A   1      41.703  19.148  26.115  1.00  0.00     0.251 C 
ATOM     36  H   UNL A   1      39.922  18.345  25.609  1.00  0.00     0.163 HD
ATOM     37  O   UNL A   1      42.332  18.101  26.016  1.00  0.00    -0.269 OA
BRANCH  35  38
ATOM     38  C   UNL A   1      42.408  20.406  26.445  1.00  0.00     0.039 A 
ATOM     39  C   UNL A   1      42.866  21.208  25.398  1.00  0.00     0.014 A 
ATOM     40  C   UNL A   1      42.484  20.850  27.768  1.00  0.00     0.014 A 
ATOM     41  C   UNL A   1      43.305  22.505  25.669  1.00  0.00     0.010 A 
ATOM     42  C   UNL A   1      42.838  22.172  28.023  1.00  0.00     0.010 A 
ATOM     43  C   UNL A   1      43.236  23.017  26.975  1.00  0.00    -0.014 A 
BRANCH  43  44
ATOM     44  C   UNL A   1      43.559  24.441  27.256  1.00  0.00     0.031 A 
ATOM     45  C   UNL A   1      44.953  24.956  27.045  1.00  0.00     0.074 A 
ATOM     46  C   UNL A   1      42.609  25.257  27.756  1.00  0.00     0.049 A 
ATOM     47  N   UNL A   1      45.437  26.154  27.261  1.00  0.00    -0.248 NA
ATOM     48  C   UNL A   1      45.944  23.987  26.554  1.00  0.00     0.031 C 
ATOM     49  C   UNL A   1      41.228  24.868  28.051  1.00  0.00     0.029 A 
ATOM     50  N   UNL A   1      42.659  26.585  28.104  1.00  0.00    -0.354 N 
ATOM     51  C   UNL A   1      46.785  26.077  26.940  1.00  0.00     0.074 A 
ATOM     52  C   UNL A   1      47.057  24.701  26.584  1.00  0.00     0.031 C 
ATOM     53  C   UNL A   1      40.553  25.942  28.492  1.00  0.00     0.029 A 
ATOM     54  C   UNL A   1      41.459  27.085  28.549  1.00  0.00     0.049 A 
ATOM     55  H   UNL A   1      43.478  27.127  28.040  1.00  0.00     0.167 HD
ATOM     56  C   UNL A   1      47.707  27.069  26.912  1.00  0.00     0.037 A 
ATOM     57  C   UNL A   1      41.127  28.327  28.951  1.00  0.00     0.037 A 
ATOM     58  C   UNL A   1      47.431  28.439  27.255  1.00  0.00     0.049 A 
ATOM     59  C   UNL A   1      42.177  29.406  28.945  1.00  0.00     0.074 A 
ATOM     60  C   UNL A   1      48.280  29.529  27.212  1.00  0.00     0.029 A 
ATOM     61  N   UNL A   1      46.207  28.905  27.714  1.00  0.00    -0.354 N 
ATOM     62  N   UNL A   1      43.431  29.340  28.567  1.00  0.00    -0.248 NA
ATOM     63  C   UNL A   1      41.763  30.733  29.421  1.00  0.00     0.031 C 
ATOM     64  C   UNL A   1      47.586  30.645  27.694  1.00  0.00     0.029 A 
ATOM     65  C   UNL A   1      46.287  30.262  27.985  1.00  0.00     0.049 A 
ATOM     66  H   UNL A   1      45.400  28.353  27.831  1.00  0.00     0.167 HD
ATOM     67  C   UNL A   1      43.945  30.620  28.725  1.00  0.00     0.074 A 
ATOM     68  C   UNL A   1      42.864  31.445  29.225  1.00  0.00     0.031 C 
ATOM     69  C   UNL A   1      45.199  31.072  28.476  1.00  0.00     0.037 A 
BRANCH  56  70
ATOM     70  C   UNL A   1      49.102  26.694  26.499  1.00  0.00     0.064 A 
ATOM     71  C   UNL A   1      50.036  26.199  27.425  1.00  0.00     0.173 A 
ATOM     72  C   UNL A   1      49.518  26.840  25.167  1.00  0.00     0.173 A 
ATOM     73  F   UNL A   1      49.696  26.051  28.715  1.00  0.00    -0.203 F 
ATOM     74  C   UNL A   1      51.344  25.913  27.042  1.00  0.00     0.198 A 
ATOM     75  C   UNL A   1      50.816  26.518  24.782  1.00  0.00     0.198 A 
ATOM     76  F   UNL A   1      48.666  27.301  24.240  1.00  0.00    -0.203 F 
ATOM     77  F   UNL A   1      52.236  25.513  27.960  1.00  0.00    -0.200 F 
ATOM     78  C   UNL A   1      51.732  26.068  25.721  1.00  0.00     0.200 A 
ATOM     79  F   UNL A   1      51.186  26.656  23.500  1.00  0.00    -0.200 F 
ATOM     80  F   UNL A   1      52.992  25.799  25.354  1.00  0.00    -0.200 F 
ENDBRANCH  56  70
BRANCH  57  81
ATOM     81  C   UNL A   1      39.726  28.634  29.344  1.00  0.00     0.064 A 
ATOM     82  C   UNL A   1      39.295  28.430  30.663  1.00  0.00     0.173 A 
ATOM     83  C   UNL A   1      38.793  29.129  28.422  1.00  0.00     0.173 A 
ATOM     84  F   UNL A   1      40.144  27.936  31.576  1.00  0.00    -0.203 F 
ATOM     85  C   UNL A   1      37.981  28.697  31.041  1.00  0.00     0.198 A 
ATOM     86  C   UNL A   1      37.486  29.422  28.809  1.00  0.00     0.198 A 
ATOM     87  F   UNL A   1      39.156  29.344  27.150  1.00  0.00    -0.203 F 
ATOM     88  F   UNL A   1      37.586  28.455  32.298  1.00  0.00    -0.200 F 
ATOM     89  C   UNL A   1      37.079  29.199  30.115  1.00  0.00     0.200 A 
ATOM     90  F   UNL A   1      36.621  29.919  27.914  1.00  0.00    -0.200 F 
ATOM     91  F   UNL A   1      35.817  29.462  30.481  1.00  0.00    -0.200 F 
ENDBRANCH  57  81
BRANCH  69  92
ATOM     92  C   UNL A   1      45.462  32.533  28.701  1.00  0.00     0.064 A 
ATOM     93  C   UNL A   1      45.214  33.490  27.706  1.00  0.00     0.173 A 
ATOM     94  C   UNL A   1      45.932  32.985  29.944  1.00  0.00     0.173 A 
ATOM     95  F   UNL A   1      44.779  33.109  26.495  1.00  0.00    -0.203 F 
ATOM     96  C   UNL A   1      45.452  34.842  27.939  1.00  0.00     0.198 A 
ATOM     97  C   UNL A   1      46.138  34.341  30.183  1.00  0.00     0.198 A 
ATOM     98  F   UNL A   1      46.180  32.111  30.931  1.00  0.00    -0.203 F 
ATOM     99  F   UNL A   1      45.256  35.733  26.958  1.00  0.00    -0.200 F 
ATOM    100  C   UNL A   1      45.906  35.267  29.179  1.00  0.00     0.200 A 
ATOM    101  F   UNL A   1      46.562  34.750  31.387  1.00  0.00    -0.200 F 
ATOM    102  F   UNL A   1      46.126  36.570  29.404  1.00  0.00    -0.200 F 
ENDBRANCH  69  92
ENDBRANCH  43  44
ENDBRANCH  35  38
ENDBRANCH  33  34
ENDBRANCH  32  33
ENDBRANCH  31  32
ENDBRANCH   1  31
TORSDOF 16
ENDMDL
MODEL 3
REMARK VINA RESULT:     -13.3      5.521     10.394
REMARK SMILES NS(=O)(=O)c1ccc(C(=O)N2CC[C@H](c3ccccc3C(=O)NCCCCNC(=O)c3ccc(-c4c5nc(c(-c6c(F)c(F)c(F)c(F)c6F)c6ccc([nH]6)c(-c6c(F)c(F)c(F)c(F)c6F)c6nc(c(-c7c(F)c(F)c(F)c(F)c7F)c7ccc4[nH]7)C=C6)C=C5)cc3)C2)cc1
REMARK SMILES IDX 24 1 23 2 21 3 22 4 20 6 15 7 16 8 17 9 19 10 18 11 14 12
REMARK SMILES IDX 11 13 12 14 94 15 13 16 9 17 10 18 8 19 5 20 6 21 96 22 7 23
REMARK SMILES IDX 95 24 2 25 3 26 4 27 1 28 25 31 26 32 27 33 28 34 29 35
REMARK SMILES IDX 30 37 31 38 32 39 93 40 33 41 92 42 34 43 35 44 36 45 86 46
REMARK SMILES IDX 37 47 91 48 85 49 87 50 38 51 90 52 84 53 83 54 39 56 71 57
REMARK SMILES IDX 51 58 70 59 52 60 55 61 69 62 88 63 53 64 54 65 68 67 89 68
REMARK SMILES IDX 56 69 40 70 41 71 49 72 42 73 43 74 47 75 50 76 44 77 45 78
REMARK SMILES IDX 48 79 46 80 72 81 73 82 81 83 74 84 75 85 79 86 82 87 76 88
REMARK SMILES IDX 77 89 80 90 78 91 57 92 58 93 66 94 59 95 60 96 64 97 67 98
REMARK SMILES IDX 61 99 62 100 65 101 63 102
REMARK H PARENT 23 5 1 29 1 30 28 36 87 55 55 66
REMARK Flexibility Score: inf
ROOT
ATOM      1  C   UNL A   1      37.737  23.188  26.145  1.00  0.00     0.116 C 
ENDROOT
BRANCH   1   2
ATOM      2  N   UNL A   1      37.006  22.017  25.684  1.00  0.00    -0.352 N 
ATOM      3  C   UNL A   1      36.229  22.062  24.547  1.00  0.00     0.251 C 
ATOM      4  O   UNL A   1      36.716  22.231  23.436  1.00  0.00    -0.269 OA
ATOM      5  H   UNL A   1      37.067  21.178  26.195  1.00  0.00     0.163 HD
BRANCH   3   6
ATOM      6  C   UNL A   1      34.785  21.720  24.716  1.00  0.00     0.043 A 
ATOM      7  C   UNL A   1      33.746  22.673  24.879  1.00  0.00    -0.030 A 
ATOM      8  C   UNL A   1      32.433  22.189  25.021  1.00  0.00     0.005 A 
ATOM      9  C   UNL A   1      32.150  20.822  24.960  1.00  0.00     0.000 A 
ATOM     10  C   UNL A   1      34.486  20.349  24.642  1.00  0.00     0.014 A 
ATOM     11  C   UNL A   1      33.173  19.903  24.762  1.00  0.00     0.001 A 
BRANCH   7  12
ATOM     12  C   UNL A   1      34.024  24.157  24.835  1.00  0.00     0.041 C 
ATOM     13  N   UNL A   1      33.209  26.373  25.183  1.00  0.00    -0.338 N 
ATOM     14  C   UNL A   1      33.718  26.270  23.829  1.00  0.00     0.120 C 
ATOM     15  C   UNL A   1      33.465  25.130  25.911  1.00  0.00     0.128 C 
ATOM     16  C   UNL A   1      33.491  24.800  23.539  1.00  0.00     0.032 C 
BRANCH  13  17
ATOM     17  C   UNL A   1      32.319  27.296  25.709  1.00  0.00     0.253 C 
ATOM     18  O   UNL A   1      32.261  27.523  26.916  1.00  0.00    -0.269 OA
BRANCH  17  19
ATOM     19  C   UNL A   1      31.292  27.917  24.817  1.00  0.00     0.040 A 
ATOM     20  C   UNL A   1      29.201  29.112  23.383  1.00  0.00     0.082 A 
ATOM     21  C   UNL A   1      30.205  29.909  23.944  1.00  0.00     0.022 A 
ATOM     22  C   UNL A   1      29.228  27.730  23.537  1.00  0.00     0.022 A 
ATOM     23  C   UNL A   1      31.260  29.308  24.649  1.00  0.00     0.015 A 
ATOM     24  C   UNL A   1      30.241  27.152  24.292  1.00  0.00     0.015 A 
BRANCH  20  25
ATOM     25  S   UNL A   1      27.817  29.856  22.576  1.00  0.00     0.238 S 
ATOM     26  O   UNL A   1      28.064  29.878  21.166  1.00  0.00    -0.207 OA
ATOM     27  O   UNL A   1      27.416  31.027  23.337  1.00  0.00    -0.207 OA
BRANCH  25  28
ATOM     28  N   UNL A   1      26.576  28.739  22.819  1.00  0.00    -0.225 NA
ATOM     29  H   UNL A   1      26.799  28.154  23.625  1.00  0.00     0.137 HD
ATOM     30  H   UNL A   1      26.479  28.153  21.990  1.00  0.00     0.137 HD
ENDBRANCH  25  28
ENDBRANCH  20  25
ENDBRANCH  17  19
ENDBRANCH  13  17
ENDBRANCH   7  12
ENDBRANCH   3   6
ENDBRANCH   1   2
BRANCH   1  31
ATOM     31  C   UNL A   1      39.192  22.830  26.449  1.00  0.00     0.023 C 
BRANCH  31  32
ATOM     32  C   UNL A   1      39.650  21.536  25.787  1.00  0.00     0.023 C 
BRANCH  32  33
ATOM     33  C   UNL A   1      39.822  20.344  26.718  1.00  0.00     0.116 C 
BRANCH  33  34
ATOM     34  N   UNL A   1      40.673  19.287  26.192  1.00  0.00    -0.352 N 
ATOM     35  C   UNL A   1      42.046  19.301  26.051  1.00  0.00     0.251 C 
ATOM     36  H   UNL A   1      40.215  18.465  25.902  1.00  0.00     0.163 HD
ATOM     37  O   UNL A   1      42.645  18.349  25.567  1.00  0.00    -0.269 OA
BRANCH  35  38
ATOM     38  C   UNL A   1      42.784  20.527  26.426  1.00  0.00     0.039 A 
ATOM     39  C   UNL A   1      43.446  21.240  25.425  1.00  0.00     0.014 A 
ATOM     40  C   UNL A   1      42.700  21.036  27.725  1.00  0.00     0.014 A 
ATOM     41  C   UNL A   1      43.933  22.518  25.701  1.00  0.00     0.010 A 
ATOM     42  C   UNL A   1      43.107  22.343  27.972  1.00  0.00     0.010 A 
ATOM     43  C   UNL A   1      43.713  23.104  26.959  1.00  0.00    -0.014 A 
BRANCH  43  44
ATOM     44  C   UNL A   1      44.093  24.517  27.222  1.00  0.00     0.031 A 
ATOM     45  C   UNL A   1      43.050  25.514  27.635  1.00  0.00     0.074 A 
ATOM     46  C   UNL A   1      45.367  24.914  27.034  1.00  0.00     0.049 A 
ATOM     47  N   UNL A   1      43.177  26.795  27.880  1.00  0.00    -0.248 NA
ATOM     48  C   UNL A   1      41.673  25.013  27.761  1.00  0.00     0.031 C 
ATOM     49  C   UNL A   1      46.465  24.054  26.589  1.00  0.00     0.029 A 
ATOM     50  N   UNL A   1      45.956  26.145  27.194  1.00  0.00    -0.354 N 
ATOM     51  C   UNL A   1      41.900  27.248  28.180  1.00  0.00     0.074 A 
ATOM     52  C   UNL A   1      41.003  26.124  28.015  1.00  0.00     0.031 C 
ATOM     53  C   UNL A   1      47.601  24.772  26.555  1.00  0.00     0.029 A 
ATOM     54  C   UNL A   1      47.306  26.149  26.938  1.00  0.00     0.049 A 
ATOM     55  H   UNL A   1      45.457  26.948  27.469  1.00  0.00     0.167 HD
ATOM     56  C   UNL A   1      41.512  28.481  28.586  1.00  0.00     0.037 A 
ATOM     57  C   UNL A   1      48.204  27.151  27.009  1.00  0.00     0.037 A 
ATOM     58  C   UNL A   1      42.408  29.594  28.760  1.00  0.00     0.049 A 
ATOM     59  C   UNL A   1      47.744  28.521  27.429  1.00  0.00     0.074 A 
ATOM     60  C   UNL A   1      42.125  30.868  29.215  1.00  0.00     0.029 A 
ATOM     61  N   UNL A   1      43.767  29.563  28.477  1.00  0.00    -0.354 N 
ATOM     62  N   UNL A   1      46.547  28.921  27.783  1.00  0.00    -0.248 NA
ATOM     63  C   UNL A   1      48.763  29.579  27.461  1.00  0.00     0.031 C 
ATOM     64  C   UNL A   1      43.302  31.625  29.159  1.00  0.00     0.029 A 
ATOM     65  C   UNL A   1      44.330  30.806  28.720  1.00  0.00     0.049 A 
ATOM     66  H   UNL A   1      44.258  28.775  28.150  1.00  0.00     0.167 HD
ATOM     67  C   UNL A   1      46.675  30.263  28.113  1.00  0.00     0.074 A 
ATOM     68  C   UNL A   1      48.069  30.608  27.925  1.00  0.00     0.031 C 
ATOM     69  C   UNL A   1      45.723  31.132  28.536  1.00  0.00     0.037 A 
BRANCH  56  70
ATOM     70  C   UNL A   1      40.049  28.680  28.863  1.00  0.00     0.064 A 
ATOM     71  C   UNL A   1      39.167  29.137  27.870  1.00  0.00     0.173 A 
ATOM     72  C   UNL A   1      39.521  28.423  30.137  1.00  0.00     0.173 A 
ATOM     73  F   UNL A   1      39.622  29.410  26.636  1.00  0.00    -0.203 F 
ATOM     74  C   UNL A   1      37.826  29.377  28.155  1.00  0.00     0.198 A 
ATOM     75  C   UNL A   1      38.171  28.629  30.408  1.00  0.00     0.198 A 
ATOM     76  F   UNL A   1      40.315  27.979  31.122  1.00  0.00    -0.203 F 
ATOM     77  F   UNL A   1      37.021  29.884  27.210  1.00  0.00    -0.200 F 
ATOM     78  C   UNL A   1      37.327  29.119  29.422  1.00  0.00     0.200 A 
ATOM     79  F   UNL A   1      37.688  28.367  31.632  1.00  0.00    -0.200 F 
ATOM     80  F   UNL A   1      36.038  29.355  29.698  1.00  0.00    -0.200 F 
ENDBRANCH  56  70
BRANCH  57  81
ATOM     81  C   UNL A   1      49.639  26.886  26.725  1.00  0.00     0.064 A 
ATOM     82  C   UNL A   1      50.134  26.964  25.414  1.00  0.00     0.173 A 
ATOM     83  C   UNL A   1      50.543  26.549  27.743  1.00  0.00     0.173 A 
ATOM     84  F   UNL A   1      49.304  27.260  24.404  1.00  0.00    -0.203 F 
ATOM     85  C   UNL A   1      51.473  26.701  25.133  1.00  0.00     0.198 A 
ATOM     86  C   UNL A   1      51.887  26.314  27.463  1.00  0.00     0.198 A 
ATOM     87  F   UNL A   1      50.121  26.464  29.013  1.00  0.00    -0.203 F 
ATOM     88  F   UNL A   1      51.908  26.744  23.866  1.00  0.00    -0.200 F 
ATOM     89  C   UNL A   1      52.350  26.383  26.158  1.00  0.00     0.200 A 
ATOM     90  F   UNL A   1      52.735  26.019  28.458  1.00  0.00    -0.200 F 
ATOM     91  F   UNL A   1      53.639  26.137  25.886  1.00  0.00    -0.200 F 
ENDBRANCH  57  81
BRANCH  69  92
ATOM     92  C   UNL A   1      46.163  32.530  28.864  1.00  0.00     0.064 A 
ATOM     93  C   UNL A   1      46.719  32.856  30.109  1.00  0.00     0.173 A 
ATOM     94  C   UNL A   1      46.062  33.548  27.903  1.00  0.00     0.173 A 
ATOM     95  F   UNL A   1      46.823  31.923  31.068  1.00  0.00    -0.203 F 
ATOM     96  C   UNL A   1      47.132  34.156  30.390  1.00  0.00     0.198 A 
ATOM     97  C   UNL A   1      46.507  34.839  28.176  1.00  0.00     0.198 A 
ATOM     98  F   UNL A   1      45.542  33.288  26.694  1.00  0.00    -0.203 F 
ATOM     99  F   UNL A   1      47.614  34.456  31.604  1.00  0.00    -0.200 F 
ATOM    100  C   UNL A   1      47.034  35.143  29.421  1.00  0.00     0.200 A 
ATOM    101  F   UNL A   1      46.424  35.788  27.233  1.00  0.00    -0.200 F 
ATOM    102  F   UNL A   1      47.442  36.392  29.690  1.00  0.00    -0.200 F 
ENDBRANCH  69  92
ENDBRANCH  43  44
ENDBRANCH  35  38
ENDBRANCH  33  34
ENDBRANCH  32  33
ENDBRANCH  31  32
ENDBRANCH   1  31
TORSDOF 16
ENDMDL
