MODEL 1
REMARK VINA RESULT:     -12.4      0.000      0.000
REMARK SMILES Nc1ccc(F)cc1SCCOc1ccc(C(=O)NCCCCNC(=O)c2ccc(-c3c4nc(c(-c5c(F)c(F)c(F)c(F)c5F)c5ccc([nH]5)c(-c5c(F)c(F)c(F)c(F)c5F)c5nc(c(-c6c(F)c(F)c(F)c(F)c6F)c6ccc3[nH]6)C=C5)C=C4)cc2)cc1
REMARK SMILES IDX 17 1 18 2 19 3 16 5 13 6 14 7 91 8 15 9 90 10 12 11 11 12
REMARK SMILES IDX 10 13 9 14 8 15 2 16 3 17 4 18 7 19 5 20 6 21 1 22 20 25
REMARK SMILES IDX 21 26 22 27 23 28 24 29 25 30 26 32 27 33 28 34 89 35 29 36
REMARK SMILES IDX 88 37 30 38 31 39 32 40 82 41 33 42 87 43 81 44 83 45 34 46
REMARK SMILES IDX 86 47 80 48 79 49 35 51 67 52 47 53 66 54 48 55 51 56 65 57
REMARK SMILES IDX 84 58 49 59 50 60 64 62 85 63 52 64 36 65 37 66 45 67 38 68
REMARK SMILES IDX 39 69 43 70 46 71 40 72 41 73 44 74 42 75 68 76 69 77 77 78
REMARK SMILES IDX 70 79 71 80 75 81 78 82 72 83 73 84 76 85 74 86 53 87 54 88
REMARK SMILES IDX 62 89 55 90 56 91 60 92 63 93 57 94 58 95 61 96 59 97
REMARK H PARENT 19 4 1 23 1 24 24 31 83 50 51 61
REMARK Flexibility Score: inf
ROOT
ATOM      1  C   UNL A   1      33.031  26.594  22.021  1.00  0.00     0.251 C 
ATOM      2  O   UNL A   1      33.307  26.000  20.979  1.00  0.00    -0.269 OA
ATOM      3  N   UNL A   1      32.976  27.965  22.000  1.00  0.00    -0.352 N 
ATOM      4  H   UNL A   1      32.946  28.363  21.100  1.00  0.00     0.163 HD
ENDROOT
BRANCH   1   5
ATOM      5  C   UNL A   1      32.781  25.816  23.257  1.00  0.00     0.040 A 
ATOM      6  C   UNL A   1      32.056  24.665  25.712  1.00  0.00     0.119 A 
ATOM      7  C   UNL A   1      31.157  24.658  24.646  1.00  0.00     0.047 A 
ATOM      8  C   UNL A   1      33.349  25.146  25.513  1.00  0.00     0.047 A 
ATOM      9  C   UNL A   1      31.518  25.236  23.423  1.00  0.00     0.017 A 
ATOM     10  C   UNL A   1      33.691  25.772  24.314  1.00  0.00     0.017 A 
BRANCH   6  11
ATOM     11  O   UNL A   1      31.778  24.307  27.002  1.00  0.00    -0.493 OA
BRANCH  11  12
ATOM     12  C   UNL A   1      31.664  22.910  27.287  1.00  0.00     0.241 C 
BRANCH  12  13
ATOM     13  C   UNL A   1      32.908  22.281  27.933  1.00  0.00     0.116 C 
BRANCH  13  14
ATOM     14  S   UNL A   1      34.180  21.629  26.790  1.00  0.00    -0.120 SA
BRANCH  14  15
ATOM     15  C   UNL A   1      33.349  20.756  25.447  1.00  0.00     0.033 A 
ATOM     16  C   UNL A   1      32.924  19.408  25.393  1.00  0.00     0.045 A 
ATOM     17  C   UNL A   1      32.319  18.922  24.215  1.00  0.00     0.029 A 
ATOM     18  C   UNL A   1      32.153  19.731  23.095  1.00  0.00     0.041 A 
ATOM     19  C   UNL A   1      33.181  21.554  24.295  1.00  0.00     0.056 A 
ATOM     20  C   UNL A   1      32.587  21.043  23.146  1.00  0.00     0.124 A 
ATOM     21  F   UNL A   1      32.416  21.831  22.078  1.00  0.00    -0.207 F 
BRANCH  16  22
ATOM     22  N   UNL A   1      32.903  18.557  26.501  1.00  0.00    -0.398 N 
ATOM     23  H   UNL A   1      32.764  18.927  27.403  1.00  0.00     0.156 HD
ATOM     24  H   UNL A   1      33.027  17.588  26.381  1.00  0.00     0.156 HD
ENDBRANCH  16  22
ENDBRANCH  14  15
ENDBRANCH  13  14
ENDBRANCH  12  13
ENDBRANCH  11  12
ENDBRANCH   6  11
ENDBRANCH   1   5
BRANCH   3  25
ATOM     25  C   UNL A   1      32.954  28.918  23.090  1.00  0.00     0.116 C 
BRANCH  25  26
ATOM     26  C   UNL A   1      31.586  28.995  23.758  1.00  0.00     0.023 C 
BRANCH  26  27
ATOM     27  C   UNL A   1      31.612  28.824  25.275  1.00  0.00     0.023 C 
BRANCH  27  28
ATOM     28  C   UNL A   1      32.781  29.495  25.986  1.00  0.00     0.116 C 
BRANCH  28  29
ATOM     29  N   UNL A   1      32.488  30.828  26.498  1.00  0.00    -0.352 N 
ATOM     30  C   UNL A   1      33.304  31.645  27.251  1.00  0.00     0.251 C 
ATOM     31  H   UNL A   1      31.598  31.189  26.281  1.00  0.00     0.163 HD
ATOM     32  O   UNL A   1      32.928  32.740  27.638  1.00  0.00    -0.269 OA
BRANCH  30  33
ATOM     33  C   UNL A   1      34.629  31.123  27.635  1.00  0.00     0.039 A 
ATOM     34  C   UNL A   1      34.768  29.783  28.001  1.00  0.00     0.014 A 
ATOM     35  C   UNL A   1      35.684  32.024  27.783  1.00  0.00     0.014 A 
ATOM     36  C   UNL A   1      35.903  29.389  28.695  1.00  0.00     0.010 A 
ATOM     37  C   UNL A   1      36.856  31.603  28.410  1.00  0.00     0.010 A 
ATOM     38  C   UNL A   1      36.946  30.303  28.931  1.00  0.00    -0.014 A 
BRANCH  38  39
ATOM     39  C   UNL A   1      38.097  29.891  29.770  1.00  0.00     0.031 A 
ATOM     40  C   UNL A   1      39.157  28.975  29.218  1.00  0.00     0.074 A 
ATOM     41  C   UNL A   1      38.217  30.394  31.012  1.00  0.00     0.049 A 
ATOM     42  N   UNL A   1      40.221  28.492  29.810  1.00  0.00    -0.248 NA
ATOM     43  C   UNL A   1      39.005  28.540  27.820  1.00  0.00     0.031 C 
ATOM     44  C   UNL A   1      37.265  31.309  31.643  1.00  0.00     0.029 A 
ATOM     45  N   UNL A   1      39.199  30.231  31.954  1.00  0.00    -0.354 N 
ATOM     46  C   UNL A   1      40.843  27.678  28.873  1.00  0.00     0.074 A 
ATOM     47  C   UNL A   1      40.034  27.717  27.674  1.00  0.00     0.031 C 
ATOM     48  C   UNL A   1      37.733  31.665  32.847  1.00  0.00     0.029 A 
ATOM     49  C   UNL A   1      38.983  30.955  33.098  1.00  0.00     0.049 A 
ATOM     50  H   UNL A   1      39.984  29.650  31.821  1.00  0.00     0.167 HD
ATOM     51  C   UNL A   1      41.989  26.968  29.002  1.00  0.00     0.037 A 
ATOM     52  C   UNL A   1      39.703  31.026  34.233  1.00  0.00     0.037 A 
ATOM     53  C   UNL A   1      42.815  26.968  30.182  1.00  0.00     0.049 A 
ATOM     54  C   UNL A   1      40.960  30.216  34.354  1.00  0.00     0.074 A 
ATOM     55  C   UNL A   1      44.010  26.305  30.397  1.00  0.00     0.029 A 
ATOM     56  N   UNL A   1      42.534  27.675  31.341  1.00  0.00    -0.354 N 
ATOM     57  N   UNL A   1      41.525  29.432  33.469  1.00  0.00    -0.248 NA
ATOM     58  C   UNL A   1      41.672  30.287  35.638  1.00  0.00     0.031 C 
ATOM     59  C   UNL A   1      44.437  26.585  31.699  1.00  0.00     0.029 A 
ATOM     60  C   UNL A   1      43.526  27.450  32.282  1.00  0.00     0.049 A 
ATOM     61  H   UNL A   1      41.747  28.251  31.476  1.00  0.00     0.167 HD
ATOM     62  C   UNL A   1      42.654  28.913  34.086  1.00  0.00     0.074 A 
ATOM     63  C   UNL A   1      42.709  29.494  35.412  1.00  0.00     0.031 C 
ATOM     64  C   UNL A   1      43.556  28.027  33.601  1.00  0.00     0.037 A 
BRANCH  51  65
ATOM     65  C   UNL A   1      42.426  26.118  27.847  1.00  0.00     0.064 A 
ATOM     66  C   UNL A   1      41.859  24.860  27.602  1.00  0.00     0.173 A 
ATOM     67  C   UNL A   1      43.369  26.605  26.927  1.00  0.00     0.173 A 
ATOM     68  F   UNL A   1      40.963  24.346  28.458  1.00  0.00    -0.203 F 
ATOM     69  C   UNL A   1      42.223  24.116  26.483  1.00  0.00     0.198 A 
ATOM     70  C   UNL A   1      43.715  25.868  25.798  1.00  0.00     0.198 A 
ATOM     71  F   UNL A   1      43.937  27.805  27.115  1.00  0.00    -0.203 F 
ATOM     72  F   UNL A   1      41.685  22.906  26.279  1.00  0.00    -0.200 F 
ATOM     73  C   UNL A   1      43.143  24.625  25.577  1.00  0.00     0.200 A 
ATOM     74  F   UNL A   1      44.597  26.365  24.920  1.00  0.00    -0.200 F 
ATOM     75  F   UNL A   1      43.480  23.914  24.492  1.00  0.00    -0.200 F 
ENDBRANCH  51  65
BRANCH  52  76
ATOM     76  C   UNL A   1      39.232  31.893  35.340  1.00  0.00     0.064 A 
ATOM     77  C   UNL A   1      39.536  33.260  35.363  1.00  0.00     0.173 A 
ATOM     78  C   UNL A   1      38.434  31.380  36.373  1.00  0.00     0.173 A 
ATOM     79  F   UNL A   1      40.312  33.789  34.406  1.00  0.00    -0.203 F 
ATOM     80  C   UNL A   1      39.058  34.083  36.380  1.00  0.00     0.198 A 
ATOM     81  C   UNL A   1      37.936  32.208  37.375  1.00  0.00     0.198 A 
ATOM     82  F   UNL A   1      38.113  30.078  36.390  1.00  0.00    -0.203 F 
ATOM     83  F   UNL A   1      39.382  35.383  36.394  1.00  0.00    -0.200 F 
ATOM     84  C   UNL A   1      38.251  33.559  37.379  1.00  0.00     0.200 A 
ATOM     85  F   UNL A   1      37.142  31.702  38.329  1.00  0.00    -0.200 F 
ATOM     86  F   UNL A   1      37.778  34.355  38.348  1.00  0.00    -0.200 F 
ENDBRANCH  52  76
BRANCH  64  87
ATOM     87  C   UNL A   1      44.674  27.622  34.512  1.00  0.00     0.064 A 
ATOM     88  C   UNL A   1      45.862  28.362  34.573  1.00  0.00     0.173 A 
ATOM     89  C   UNL A   1      44.536  26.518  35.366  1.00  0.00     0.173 A 
ATOM     90  F   UNL A   1      46.044  29.417  33.765  1.00  0.00    -0.203 F 
ATOM     91  C   UNL A   1      46.883  28.002  35.449  1.00  0.00     0.198 A 
ATOM     92  C   UNL A   1      45.549  26.174  36.256  1.00  0.00     0.198 A 
ATOM     93  F   UNL A   1      43.414  25.783  35.346  1.00  0.00    -0.203 F 
ATOM     94  F   UNL A   1      48.025  28.703  35.469  1.00  0.00    -0.200 F 
ATOM     95  C   UNL A   1      46.722  26.913  36.294  1.00  0.00     0.200 A 
ATOM     96  F   UNL A   1      45.390  25.128  37.079  1.00  0.00    -0.200 F 
ATOM     97  F   UNL A   1      47.703  26.573  37.141  1.00  0.00    -0.200 F 
ENDBRANCH  64  87
ENDBRANCH  38  39
ENDBRANCH  30  33
ENDBRANCH  28  29
ENDBRANCH  27  28
ENDBRANCH  26  27
ENDBRANCH  25  26
ENDBRANCH   3  25
TORSDOF 17
ENDMDL
MODEL 2
REMARK VINA RESULT:     -12.2      1.100      2.354
REMARK SMILES Nc1ccc(F)cc1SCCOc1ccc(C(=O)NCCCCNC(=O)c2ccc(-c3c4nc(c(-c5c(F)c(F)c(F)c(F)c5F)c5ccc([nH]5)c(-c5c(F)c(F)c(F)c(F)c5F)c5nc(c(-c6c(F)c(F)c(F)c(F)c6F)c6ccc3[nH]6)C=C5)C=C4)cc2)cc1
REMARK SMILES IDX 17 1 18 2 19 3 16 5 13 6 14 7 91 8 15 9 90 10 12 11 11 12
REMARK SMILES IDX 10 13 9 14 8 15 2 16 3 17 4 18 7 19 5 20 6 21 1 22 20 25
REMARK SMILES IDX 21 26 22 27 23 28 24 29 25 30 26 32 27 33 28 34 89 35 29 36
REMARK SMILES IDX 88 37 30 38 31 39 32 40 82 41 33 42 87 43 81 44 83 45 34 46
REMARK SMILES IDX 86 47 80 48 79 49 35 51 67 52 47 53 66 54 48 55 51 56 65 57
REMARK SMILES IDX 84 58 49 59 50 60 64 62 85 63 52 64 36 65 37 66 45 67 38 68
REMARK SMILES IDX 39 69 43 70 46 71 40 72 41 73 44 74 42 75 68 76 69 77 77 78
REMARK SMILES IDX 70 79 71 80 75 81 78 82 72 83 73 84 76 85 74 86 53 87 54 88
REMARK SMILES IDX 62 89 55 90 56 91 60 92 63 93 57 94 58 95 61 96 59 97
REMARK H PARENT 19 4 1 23 1 24 24 31 83 50 51 61
REMARK Flexibility Score: inf
ROOT
ATOM      1  C   UNL A   1      33.262  26.971  22.312  1.00  0.00     0.251 C 
ATOM      2  O   UNL A   1      33.619  26.439  21.261  1.00  0.00    -0.269 OA
ATOM      3  N   UNL A   1      33.212  28.340  22.370  1.00  0.00    -0.352 N 
ATOM      4  H   UNL A   1      33.254  28.792  21.497  1.00  0.00     0.163 HD
ENDROOT
BRANCH   1   5
ATOM      5  C   UNL A   1      32.913  26.121  23.475  1.00  0.00     0.040 A 
ATOM      6  C   UNL A   1      31.959  24.807  25.765  1.00  0.00     0.119 A 
ATOM      7  C   UNL A   1      31.220  24.774  24.583  1.00  0.00     0.047 A 
ATOM      8  C   UNL A   1      33.221  25.400  25.766  1.00  0.00     0.047 A 
ATOM      9  C   UNL A   1      31.695  25.433  23.442  1.00  0.00     0.017 A 
ATOM     10  C   UNL A   1      33.669  26.104  24.648  1.00  0.00     0.017 A 
BRANCH   6  11
ATOM     11  O   UNL A   1      31.539  24.371  26.990  1.00  0.00    -0.493 OA
BRANCH  11  12
ATOM     12  C   UNL A   1      31.611  22.966  27.249  1.00  0.00     0.241 C 
BRANCH  12  13
ATOM     13  C   UNL A   1      32.904  22.503  27.937  1.00  0.00     0.116 C 
BRANCH  13  14
ATOM     14  S   UNL A   1      33.937  21.307  27.013  1.00  0.00    -0.120 SA
BRANCH  14  15
ATOM     15  C   UNL A   1      34.606  22.135  25.555  1.00  0.00     0.033 A 
ATOM     16  C   UNL A   1      34.099  22.156  24.235  1.00  0.00     0.045 A 
ATOM     17  C   UNL A   1      34.812  22.848  23.233  1.00  0.00     0.029 A 
ATOM     18  C   UNL A   1      36.016  23.489  23.508  1.00  0.00     0.041 A 
ATOM     19  C   UNL A   1      35.834  22.782  25.807  1.00  0.00     0.056 A 
ATOM     20  C   UNL A   1      36.517  23.450  24.796  1.00  0.00     0.124 A 
ATOM     21  F   UNL A   1      37.667  24.078  25.071  1.00  0.00    -0.207 F 
BRANCH  16  22
ATOM     22  N   UNL A   1      32.833  21.680  23.883  1.00  0.00    -0.398 N 
ATOM     23  H   UNL A   1      32.078  21.782  24.507  1.00  0.00     0.156 HD
ATOM     24  H   UNL A   1      32.695  21.244  23.012  1.00  0.00     0.156 HD
ENDBRANCH  16  22
ENDBRANCH  14  15
ENDBRANCH  13  14
ENDBRANCH  12  13
ENDBRANCH  11  12
ENDBRANCH   6  11
ENDBRANCH   1   5
BRANCH   3  25
ATOM     25  C   UNL A   1      33.106  29.226  23.511  1.00  0.00     0.116 C 
BRANCH  25  26
ATOM     26  C   UNL A   1      31.679  29.313  24.040  1.00  0.00     0.023 C 
BRANCH  26  27
ATOM     27  C   UNL A   1      31.519  28.901  25.501  1.00  0.00     0.023 C 
BRANCH  27  28
ATOM     28  C   UNL A   1      32.525  29.519  26.466  1.00  0.00     0.116 C 
BRANCH  28  29
ATOM     29  N   UNL A   1      32.285  30.925  26.763  1.00  0.00    -0.352 N 
ATOM     30  C   UNL A   1      33.161  31.836  27.315  1.00  0.00     0.251 C 
ATOM     31  H   UNL A   1      31.390  31.268  26.542  1.00  0.00     0.163 HD
ATOM     32  O   UNL A   1      32.828  32.990  27.533  1.00  0.00    -0.269 OA
BRANCH  30  33
ATOM     33  C   UNL A   1      34.501  31.351  27.699  1.00  0.00     0.039 A 
ATOM     34  C   UNL A   1      34.707  29.989  27.925  1.00  0.00     0.014 A 
ATOM     35  C   UNL A   1      35.491  32.289  27.990  1.00  0.00     0.014 A 
ATOM     36  C   UNL A   1      35.837  29.586  28.623  1.00  0.00     0.010 A 
ATOM     37  C   UNL A   1      36.662  31.870  28.621  1.00  0.00     0.010 A 
ATOM     38  C   UNL A   1      36.811  30.527  29.002  1.00  0.00    -0.014 A 
BRANCH  38  39
ATOM     39  C   UNL A   1      37.953  30.091  29.844  1.00  0.00     0.031 A 
ATOM     40  C   UNL A   1      39.022  29.196  29.277  1.00  0.00     0.074 A 
ATOM     41  C   UNL A   1      38.055  30.556  31.102  1.00  0.00     0.049 A 
ATOM     42  N   UNL A   1      40.080  28.697  29.868  1.00  0.00    -0.248 NA
ATOM     43  C   UNL A   1      38.889  28.804  27.864  1.00  0.00     0.031 C 
ATOM     44  C   UNL A   1      37.093  31.448  31.748  1.00  0.00     0.029 A 
ATOM     45  N   UNL A   1      39.025  30.366  32.051  1.00  0.00    -0.354 N 
ATOM     46  C   UNL A   1      40.715  27.913  28.914  1.00  0.00     0.074 A 
ATOM     47  C   UNL A   1      39.922  27.988  27.706  1.00  0.00     0.031 C 
ATOM     48  C   UNL A   1      37.544  31.768  32.969  1.00  0.00     0.029 A 
ATOM     49  C   UNL A   1      38.793  31.053  33.215  1.00  0.00     0.049 A 
ATOM     50  H   UNL A   1      39.813  29.791  31.911  1.00  0.00     0.167 HD
ATOM     51  C   UNL A   1      41.862  27.202  29.037  1.00  0.00     0.037 A 
ATOM     52  C   UNL A   1      39.497  31.091  34.360  1.00  0.00     0.037 A 
ATOM     53  C   UNL A   1      42.672  27.167  30.227  1.00  0.00     0.049 A 
ATOM     54  C   UNL A   1      40.755  30.279  34.473  1.00  0.00     0.074 A 
ATOM     55  C   UNL A   1      43.866  26.501  30.437  1.00  0.00     0.029 A 
ATOM     56  N   UNL A   1      42.374  27.837  31.403  1.00  0.00    -0.354 N 
ATOM     57  N   UNL A   1      41.333  29.525  33.571  1.00  0.00    -0.248 NA
ATOM     58  C   UNL A   1      41.450  30.312  35.767  1.00  0.00     0.031 C 
ATOM     59  C   UNL A   1      44.275  26.741  31.752  1.00  0.00     0.029 A 
ATOM     60  C   UNL A   1      43.354  27.585  32.350  1.00  0.00     0.049 A 
ATOM     61  H   UNL A   1      41.584  28.407  31.545  1.00  0.00     0.167 HD
ATOM     62  C   UNL A   1      42.455  28.989  34.186  1.00  0.00     0.074 A 
ATOM     63  C   UNL A   1      42.492  29.529  35.531  1.00  0.00     0.031 C 
ATOM     64  C   UNL A   1      43.366  28.120  33.685  1.00  0.00     0.037 A 
BRANCH  51  65
ATOM     65  C   UNL A   1      42.316  26.389  27.861  1.00  0.00     0.064 A 
ATOM     66  C   UNL A   1      43.239  26.889  26.932  1.00  0.00     0.173 A 
ATOM     67  C   UNL A   1      41.881  25.063  27.708  1.00  0.00     0.173 A 
ATOM     68  F   UNL A   1      43.675  28.155  27.029  1.00  0.00    -0.203 F 
ATOM     69  C   UNL A   1      43.706  26.094  25.889  1.00  0.00     0.198 A 
ATOM     70  C   UNL A   1      42.365  24.264  26.676  1.00  0.00     0.198 A 
ATOM     71  F   UNL A   1      41.001  24.537  28.573  1.00  0.00    -0.203 F 
ATOM     72  F   UNL A   1      44.571  26.599  24.999  1.00  0.00    -0.200 F 
ATOM     73  C   UNL A   1      43.277  24.780  25.767  1.00  0.00     0.200 A 
ATOM     74  F   UNL A   1      41.957  22.993  26.565  1.00  0.00    -0.200 F 
ATOM     75  F   UNL A   1      43.740  24.013  24.771  1.00  0.00    -0.200 F 
ENDBRANCH  51  65
BRANCH  52  76
ATOM     76  C   UNL A   1      39.010  31.922  35.488  1.00  0.00     0.064 A 
ATOM     77  C   UNL A   1      38.223  31.367  36.504  1.00  0.00     0.173 A 
ATOM     78  C   UNL A   1      39.359  33.277  35.593  1.00  0.00     0.173 A 
ATOM     79  F   UNL A   1      37.849  30.081  36.434  1.00  0.00    -0.203 F 
ATOM     80  C   UNL A   1      37.802  32.137  37.585  1.00  0.00     0.198 A 
ATOM     81  C   UNL A   1      38.960  34.039  36.687  1.00  0.00     0.198 A 
ATOM     82  F   UNL A   1      40.116  33.850  34.646  1.00  0.00    -0.203 F 
ATOM     83  F   UNL A   1      37.029  31.590  38.533  1.00  0.00    -0.200 F 
ATOM     84  C   UNL A   1      38.179  33.469  37.681  1.00  0.00     0.200 A 
ATOM     85  F   UNL A   1      39.340  35.320  36.784  1.00  0.00    -0.200 F 
ATOM     86  F   UNL A   1      37.787  34.205  38.730  1.00  0.00    -0.200 F 
ENDBRANCH  52  76
BRANCH  64  87
ATOM     87  C   UNL A   1      44.473  27.690  34.598  1.00  0.00     0.064 A 
ATOM     88  C   UNL A   1      44.355  26.539  35.388  1.00  0.00     0.173 A 
ATOM     89  C   UNL A   1      45.678  28.405  34.645  1.00  0.00     0.173 A 
ATOM     90  F   UNL A   1      43.214  25.832  35.386  1.00  0.00    -0.203 F 
ATOM     91  C   UNL A   1      45.401  26.124  36.207  1.00  0.00     0.198 A 
ATOM     92  C   UNL A   1      46.731  27.975  35.448  1.00  0.00     0.198 A 
ATOM     93  F   UNL A   1      45.840  29.510  33.903  1.00  0.00    -0.203 F 
ATOM     94  F   UNL A   1      45.256  25.039  36.980  1.00  0.00    -0.200 F 
ATOM     95  C   UNL A   1      46.591  26.839  36.230  1.00  0.00     0.200 A 
ATOM     96  F   UNL A   1      47.883  28.660  35.464  1.00  0.00    -0.200 F 
ATOM     97  F   UNL A   1      47.600  26.434  37.014  1.00  0.00    -0.200 F 
ENDBRANCH  64  87
ENDBRANCH  38  39
ENDBRANCH  30  33
ENDBRANCH  28  29
ENDBRANCH  27  28
ENDBRANCH  26  27
ENDBRANCH  25  26
ENDBRANCH   3  25
TORSDOF 17
ENDMDL
MODEL 3
REMARK VINA RESULT:     -12.1      4.421      7.514
REMARK SMILES Nc1ccc(F)cc1SCCOc1ccc(C(=O)NCCCCNC(=O)c2ccc(-c3c4nc(c(-c5c(F)c(F)c(F)c(F)c5F)c5ccc([nH]5)c(-c5c(F)c(F)c(F)c(F)c5F)c5nc(c(-c6c(F)c(F)c(F)c(F)c6F)c6ccc3[nH]6)C=C5)C=C4)cc2)cc1
REMARK SMILES IDX 17 1 18 2 19 3 16 5 13 6 14 7 91 8 15 9 90 10 12 11 11 12
REMARK SMILES IDX 10 13 9 14 8 15 2 16 3 17 4 18 7 19 5 20 6 21 1 22 20 25
REMARK SMILES IDX 21 26 22 27 23 28 24 29 25 30 26 32 27 33 28 34 89 35 29 36
REMARK SMILES IDX 88 37 30 38 31 39 32 40 82 41 33 42 87 43 81 44 83 45 34 46
REMARK SMILES IDX 86 47 80 48 79 49 35 51 67 52 47 53 66 54 48 55 51 56 65 57
REMARK SMILES IDX 84 58 49 59 50 60 64 62 85 63 52 64 36 65 37 66 45 67 38 68
REMARK SMILES IDX 39 69 43 70 46 71 40 72 41 73 44 74 42 75 68 76 69 77 77 78
REMARK SMILES IDX 70 79 71 80 75 81 78 82 72 83 73 84 76 85 74 86 53 87 54 88
REMARK SMILES IDX 62 89 55 90 56 91 60 92 63 93 57 94 58 95 61 96 59 97
REMARK H PARENT 19 4 1 23 1 24 24 31 83 50 51 61
REMARK Flexibility Score: inf
ROOT
ATOM      1  C   UNL A   1      32.628  20.099  25.586  1.00  0.00     0.251 C 
ATOM      2  O   UNL A   1      32.169  18.978  25.370  1.00  0.00    -0.269 OA
ATOM      3  N   UNL A   1      33.542  20.251  26.597  1.00  0.00    -0.352 N 
ATOM      4  H   UNL A   1      33.930  19.411  26.933  1.00  0.00     0.163 HD
ENDROOT
BRANCH   1   5
ATOM      5  C   UNL A   1      32.171  21.242  24.760  1.00  0.00     0.040 A 
ATOM      6  C   UNL A   1      31.694  23.565  23.259  1.00  0.00     0.119 A 
ATOM      7  C   UNL A   1      32.466  22.535  22.724  1.00  0.00     0.047 A 
ATOM      8  C   UNL A   1      31.073  23.383  24.494  1.00  0.00     0.047 A 
ATOM      9  C   UNL A   1      32.707  21.378  23.475  1.00  0.00     0.017 A 
ATOM     10  C   UNL A   1      31.357  22.257  25.266  1.00  0.00     0.017 A 
BRANCH   6  11
ATOM     11  O   UNL A   1      31.530  24.812  22.722  1.00  0.00    -0.493 OA
BRANCH  11  12
ATOM     12  C   UNL A   1      32.588  25.756  22.917  1.00  0.00     0.241 C 
BRANCH  12  13
ATOM     13  C   UNL A   1      32.486  27.024  22.056  1.00  0.00     0.116 C 
BRANCH  13  14
ATOM     14  S   UNL A   1      32.000  28.562  22.921  1.00  0.00    -0.120 SA
BRANCH  14  15
ATOM     15  C   UNL A   1      30.202  28.704  22.870  1.00  0.00     0.033 A 
ATOM     16  C   UNL A   1      29.409  29.756  22.358  1.00  0.00     0.045 A 
ATOM     17  C   UNL A   1      28.003  29.672  22.454  1.00  0.00     0.029 A 
ATOM     18  C   UNL A   1      27.380  28.588  23.065  1.00  0.00     0.041 A 
ATOM     19  C   UNL A   1      29.548  27.621  23.495  1.00  0.00     0.056 A 
ATOM     20  C   UNL A   1      28.161  27.570  23.581  1.00  0.00     0.124 A 
ATOM     21  F   UNL A   1      27.567  26.517  24.156  1.00  0.00    -0.207 F 
BRANCH  16  22
ATOM     22  N   UNL A   1      29.918  30.810  21.595  1.00  0.00    -0.398 N 
ATOM     23  H   UNL A   1      29.930  30.746  20.612  1.00  0.00     0.156 HD
ATOM     24  H   UNL A   1      30.266  31.618  22.039  1.00  0.00     0.156 HD
ENDBRANCH  16  22
ENDBRANCH  14  15
ENDBRANCH  13  14
ENDBRANCH  12  13
ENDBRANCH  11  12
ENDBRANCH   6  11
ENDBRANCH   1   5
BRANCH   3  25
ATOM     25  C   UNL A   1      34.028  21.451  27.247  1.00  0.00     0.116 C 
BRANCH  25  26
ATOM     26  C   UNL A   1      35.054  22.190  26.396  1.00  0.00     0.023 C 
BRANCH  26  27
ATOM     27  C   UNL A   1      35.990  21.282  25.602  1.00  0.00     0.023 C 
BRANCH  27  28
ATOM     28  C   UNL A   1      37.395  21.830  25.380  1.00  0.00     0.116 C 
BRANCH  28  29
ATOM     29  N   UNL A   1      38.456  20.844  25.543  1.00  0.00    -0.352 N 
ATOM     30  C   UNL A   1      39.646  20.985  26.225  1.00  0.00     0.251 C 
ATOM     31  H   UNL A   1      38.305  19.970  25.116  1.00  0.00     0.163 HD
ATOM     32  O   UNL A   1      40.465  20.082  26.270  1.00  0.00    -0.269 OA
BRANCH  30  33
ATOM     33  C   UNL A   1      39.928  22.294  26.844  1.00  0.00     0.039 A 
ATOM     34  C   UNL A   1      39.377  23.454  26.297  1.00  0.00     0.014 A 
ATOM     35  C   UNL A   1      40.878  22.358  27.864  1.00  0.00     0.014 A 
ATOM     36  C   UNL A   1      39.920  24.684  26.641  1.00  0.00     0.010 A 
ATOM     37  C   UNL A   1      41.364  23.602  28.265  1.00  0.00     0.010 A 
ATOM     38  C   UNL A   1      40.938  24.767  27.608  1.00  0.00    -0.014 A 
BRANCH  38  39
ATOM     39  C   UNL A   1      41.579  26.078  27.877  1.00  0.00     0.031 A 
ATOM     40  C   UNL A   1      42.943  26.390  27.320  1.00  0.00     0.074 A 
ATOM     41  C   UNL A   1      40.903  27.009  28.574  1.00  0.00     0.049 A 
ATOM     42  N   UNL A   1      43.668  27.471  27.469  1.00  0.00    -0.248 NA
ATOM     43  C   UNL A   1      43.581  25.355  26.490  1.00  0.00     0.031 C 
ATOM     44  C   UNL A   1      39.566  26.827  29.140  1.00  0.00     0.029 A 
ATOM     45  N   UNL A   1      41.233  28.298  28.900  1.00  0.00    -0.354 N 
ATOM     46  C   UNL A   1      44.852  27.234  26.783  1.00  0.00     0.074 A 
ATOM     47  C   UNL A   1      44.759  25.902  26.225  1.00  0.00     0.031 C 
ATOM     48  C   UNL A   1      39.169  27.977  29.702  1.00  0.00     0.029 A 
ATOM     49  C   UNL A   1      40.247  28.955  29.591  1.00  0.00     0.049 A 
ATOM     50  H   UNL A   1      42.094  28.712  28.663  1.00  0.00     0.167 HD
ATOM     51  C   UNL A   1      45.915  28.059  26.628  1.00  0.00     0.037 A 
ATOM     52  C   UNL A   1      40.220  30.201  30.096  1.00  0.00     0.037 A 
ATOM     53  C   UNL A   1      45.983  29.401  27.147  1.00  0.00     0.049 A 
ATOM     54  C   UNL A   1      41.418  31.088  29.924  1.00  0.00     0.074 A 
ATOM     55  C   UNL A   1      47.005  30.324  27.015  1.00  0.00     0.029 A 
ATOM     56  N   UNL A   1      44.983  30.012  27.887  1.00  0.00    -0.354 N 
ATOM     57  N   UNL A   1      42.540  30.843  29.291  1.00  0.00    -0.248 NA
ATOM     58  C   UNL A   1      41.355  32.416  30.548  1.00  0.00     0.031 C 
ATOM     59  C   UNL A   1      46.637  31.484  27.703  1.00  0.00     0.029 A 
ATOM     60  C   UNL A   1      45.371  31.296  28.234  1.00  0.00     0.049 A 
ATOM     61  H   UNL A   1      44.124  29.596  28.129  1.00  0.00     0.167 HD
ATOM     62  C   UNL A   1      43.317  31.982  29.444  1.00  0.00     0.074 A 
ATOM     63  C   UNL A   1      42.527  32.929  30.204  1.00  0.00     0.031 C 
ATOM     64  C   UNL A   1      44.577  32.217  29.002  1.00  0.00     0.037 A 
BRANCH  51  65
ATOM     65  C   UNL A   1      47.104  27.542  25.875  1.00  0.00     0.064 A 
ATOM     66  C   UNL A   1      47.217  27.690  24.486  1.00  0.00     0.173 A 
ATOM     67  C   UNL A   1      48.180  26.962  26.565  1.00  0.00     0.173 A 
ATOM     68  F   UNL A   1      46.211  28.227  23.780  1.00  0.00    -0.203 F 
ATOM     69  C   UNL A   1      48.362  27.271  23.813  1.00  0.00     0.198 A 
ATOM     70  C   UNL A   1      49.332  26.563  25.893  1.00  0.00     0.198 A 
ATOM     71  F   UNL A   1      48.122  26.802  27.896  1.00  0.00    -0.203 F 
ATOM     72  F   UNL A   1      48.441  27.401  22.482  1.00  0.00    -0.200 F 
ATOM     73  C   UNL A   1      49.422  26.717  24.517  1.00  0.00     0.200 A 
ATOM     74  F   UNL A   1      50.358  26.037  26.575  1.00  0.00    -0.200 F 
ATOM     75  F   UNL A   1      50.528  26.329  23.870  1.00  0.00    -0.200 F 
ENDBRANCH  51  65
BRANCH  52  76
ATOM     76  C   UNL A   1      39.012  30.667  30.821  1.00  0.00     0.064 A 
ATOM     77  C   UNL A   1      37.946  31.262  30.135  1.00  0.00     0.173 A 
ATOM     78  C   UNL A   1      38.884  30.487  32.206  1.00  0.00     0.173 A 
ATOM     79  F   UNL A   1      38.033  31.471  28.813  1.00  0.00    -0.203 F 
ATOM     80  C   UNL A   1      36.794  31.660  30.810  1.00  0.00     0.198 A 
ATOM     81  C   UNL A   1      37.722  30.862  32.875  1.00  0.00     0.198 A 
ATOM     82  F   UNL A   1      39.877  29.917  32.904  1.00  0.00    -0.203 F 
ATOM     83  F   UNL A   1      35.797  32.249  30.136  1.00  0.00    -0.200 F 
ATOM     84  C   UNL A   1      36.679  31.451  32.176  1.00  0.00     0.200 A 
ATOM     85  F   UNL A   1      37.608  30.643  34.192  1.00  0.00    -0.200 F 
ATOM     86  F   UNL A   1      35.564  31.820  32.821  1.00  0.00    -0.200 F 
ENDBRANCH  52  76
BRANCH  64  87
ATOM     87  C   UNL A   1      45.182  33.545  29.340  1.00  0.00     0.064 A 
ATOM     88  C   UNL A   1      44.979  34.664  28.521  1.00  0.00     0.173 A 
ATOM     89  C   UNL A   1      45.927  33.712  30.517  1.00  0.00     0.173 A 
ATOM     90  F   UNL A   1      44.285  34.547  27.379  1.00  0.00    -0.203 F 
ATOM     91  C   UNL A   1      45.513  35.903  28.860  1.00  0.00     0.198 A 
ATOM     92  C   UNL A   1      46.441  34.957  30.864  1.00  0.00     0.198 A 
ATOM     93  F   UNL A   1      46.143  32.671  31.334  1.00  0.00    -0.203 F 
ATOM     94  F   UNL A   1      45.336  36.953  28.047  1.00  0.00    -0.200 F 
ATOM     95  C   UNL A   1      46.238  36.050  30.035  1.00  0.00     0.200 A 
ATOM     96  F   UNL A   1      47.134  35.101  32.003  1.00  0.00    -0.200 F 
ATOM     97  F   UNL A   1      46.746  37.246  30.363  1.00  0.00    -0.200 F 
ENDBRANCH  64  87
ENDBRANCH  38  39
ENDBRANCH  30  33
ENDBRANCH  28  29
ENDBRANCH  27  28
ENDBRANCH  26  27
ENDBRANCH  25  26
ENDBRANCH   3  25
TORSDOF 17
ENDMDL
