MODEL 1
REMARK VINA RESULT:     -12.1      0.000      0.000
REMARK SMILES CC(C)c1cc(C(=O)NCCCCNC(=O)c2ccc(-c3c4nc(c(-c5c(F)c(F)c(F)c(F)c5F)c5ccc([nH]5)c(-c5c(F)c(F)c(F)c(F)c5F)c5nc(c(-c6c(F)c(F)c(F)c(F)c6F)c6ccc3[nH]6)C=C5)C=C4)cc2)ccc1[N+](=O)[O-]
REMARK SMILES IDX 12 1 11 2 10 3 9 4 7 5 8 6 6 8 4 9 5 10 82 11 81 12 80 13
REMARK SMILES IDX 2 14 1 15 3 16 83 17 84 18 85 19 13 20 14 21 15 22 16 24
REMARK SMILES IDX 17 25 18 26 79 27 19 28 78 29 20 30 21 31 22 32 72 33 23 34
REMARK SMILES IDX 77 35 71 36 73 37 24 38 76 39 70 40 69 41 25 43 57 44 37 45
REMARK SMILES IDX 56 46 38 47 41 48 55 49 74 50 39 51 40 52 54 54 75 55 42 56
REMARK SMILES IDX 26 57 27 58 35 59 28 60 29 61 33 62 36 63 30 64 31 65 34 66
REMARK SMILES IDX 32 67 58 68 59 69 67 70 60 71 61 72 65 73 68 74 62 75 63 76
REMARK SMILES IDX 66 77 64 78 43 79 44 80 52 81 45 82 46 83 50 84 53 85 47 86
REMARK SMILES IDX 48 87 51 88 49 89
REMARK H PARENT 9 7 14 23 73 42 41 53
REMARK Flexibility Score: inf
ROOT
ATOM      1  C   UNL A   1      31.344  32.152  26.601  1.00  0.00     0.023 C 
ENDROOT
BRANCH   1   2
ATOM      2  C   UNL A   1      31.563  30.721  26.123  1.00  0.00     0.023 C 
BRANCH   2   3
ATOM      3  C   UNL A   1      31.844  29.680  27.202  1.00  0.00     0.116 C 
BRANCH   3   4
ATOM      4  N   UNL A   1      33.243  29.561  27.574  1.00  0.00    -0.352 N 
ATOM      5  C   UNL A   1      34.288  28.938  26.929  1.00  0.00     0.251 C 
ATOM      6  O   UNL A   1      35.400  28.942  27.451  1.00  0.00    -0.269 OA
ATOM      7  H   UNL A   1      33.482  29.997  28.424  1.00  0.00     0.163 HD
BRANCH   5   8
ATOM      8  C   UNL A   1      34.086  28.203  25.652  1.00  0.00     0.040 A 
ATOM      9  C   UNL A   1      33.620  26.031  24.570  1.00  0.00     0.033 A 
ATOM     10  C   UNL A   1      33.961  26.803  25.707  1.00  0.00     0.025 A 
ATOM     11  C   UNL A   1      33.365  26.756  23.393  1.00  0.00     0.272 A 
ATOM     12  C   UNL A   1      33.596  28.138  23.295  1.00  0.00     0.087 A 
ATOM     13  C   UNL A   1      34.010  28.848  24.418  1.00  0.00     0.021 A 
BRANCH   9  14
ATOM     14  C   UNL A   1      33.597  24.516  24.750  1.00  0.00     0.020 C 
ATOM     15  C   UNL A   1      34.804  23.849  24.084  1.00  0.00     0.013 C 
ATOM     16  C   UNL A   1      33.416  23.965  26.168  1.00  0.00     0.013 C 
ENDBRANCH   9  14
BRANCH  11  17
ATOM     17  N   UNL A   1      32.740  26.154  22.232  1.00  0.00     0.063 N 
ATOM     18  O   UNL A   1      33.493  25.810  21.313  1.00  0.00    -0.258 OA
ATOM     19  O   UNL A   1      31.515  25.979  22.278  1.00  0.00    -0.258 OA
ENDBRANCH  11  17
ENDBRANCH   5   8
ENDBRANCH   3   4
ENDBRANCH   2   3
ENDBRANCH   1   2
BRANCH   1  20
ATOM     20  C   UNL A   1      32.540  32.830  27.258  1.00  0.00     0.116 C 
BRANCH  20  21
ATOM     21  N   UNL A   1      32.296  34.214  27.639  1.00  0.00    -0.352 N 
ATOM     22  C   UNL A   1      32.949  35.013  28.547  1.00  0.00     0.251 C 
ATOM     23  H   UNL A   1      31.545  34.645  27.173  1.00  0.00     0.163 HD
ATOM     24  O   UNL A   1      32.523  36.139  28.786  1.00  0.00    -0.269 OA
BRANCH  22  25
ATOM     25  C   UNL A   1      34.133  34.507  29.275  1.00  0.00     0.039 A 
ATOM     26  C   UNL A   1      33.945  33.893  30.517  1.00  0.00     0.014 A 
ATOM     27  C   UNL A   1      35.418  34.614  28.738  1.00  0.00     0.014 A 
ATOM     28  C   UNL A   1      35.028  33.302  31.171  1.00  0.00     0.010 A 
ATOM     29  C   UNL A   1      36.480  33.947  29.346  1.00  0.00     0.010 A 
ATOM     30  C   UNL A   1      36.295  33.276  30.564  1.00  0.00    -0.014 A 
BRANCH  30  31
ATOM     31  C   UNL A   1      37.422  32.524  31.176  1.00  0.00     0.031 A 
ATOM     32  C   UNL A   1      37.926  32.881  32.547  1.00  0.00     0.074 A 
ATOM     33  C   UNL A   1      38.037  31.558  30.465  1.00  0.00     0.049 A 
ATOM     34  N   UNL A   1      38.924  32.366  33.222  1.00  0.00    -0.248 NA
ATOM     35  C   UNL A   1      37.237  33.980  33.240  1.00  0.00     0.031 C 
ATOM     36  C   UNL A   1      37.685  31.158  29.100  1.00  0.00     0.029 A 
ATOM     37  N   UNL A   1      39.091  30.738  30.786  1.00  0.00    -0.354 N 
ATOM     38  C   UNL A   1      38.985  33.082  34.411  1.00  0.00     0.074 A 
ATOM     39  C   UNL A   1      37.965  34.106  34.340  1.00  0.00     0.031 C 
ATOM     40  C   UNL A   1      38.486  30.153  28.714  1.00  0.00     0.029 A 
ATOM     41  C   UNL A   1      39.434  29.862  29.785  1.00  0.00     0.049 A 
ATOM     42  H   UNL A   1      39.558  30.776  31.652  1.00  0.00     0.167 HD
ATOM     43  C   UNL A   1      39.801  32.886  35.475  1.00  0.00     0.037 A 
ATOM     44  C   UNL A   1      40.406  28.932  29.734  1.00  0.00     0.037 A 
ATOM     45  C   UNL A   1      40.802  31.855  35.550  1.00  0.00     0.049 A 
ATOM     46  C   UNL A   1      41.300  28.739  30.928  1.00  0.00     0.074 A 
ATOM     47  C   UNL A   1      41.634  31.535  36.609  1.00  0.00     0.029 A 
ATOM     48  N   UNL A   1      41.112  30.977  34.521  1.00  0.00    -0.354 N 
ATOM     49  N   UNL A   1      41.295  29.368  32.078  1.00  0.00    -0.248 NA
ATOM     50  C   UNL A   1      42.333  27.700  30.819  1.00  0.00     0.031 C 
ATOM     51  C   UNL A   1      42.483  30.500  36.203  1.00  0.00     0.029 A 
ATOM     52  C   UNL A   1      42.141  30.135  34.911  1.00  0.00     0.049 A 
ATOM     53  H   UNL A   1      40.667  30.957  33.643  1.00  0.00     0.167 HD
ATOM     54  C   UNL A   1      42.301  28.786  32.836  1.00  0.00     0.074 A 
ATOM     55  C   UNL A   1      42.882  27.737  32.024  1.00  0.00     0.031 C 
ATOM     56  C   UNL A   1      42.711  29.096  34.091  1.00  0.00     0.037 A 
BRANCH  43  57
ATOM     57  C   UNL A   1      39.639  33.807  36.652  1.00  0.00     0.064 A 
ATOM     58  C   UNL A   1      40.248  35.071  36.687  1.00  0.00     0.173 A 
ATOM     59  C   UNL A   1      38.831  33.439  37.738  1.00  0.00     0.173 A 
ATOM     60  F   UNL A   1      41.039  35.468  35.678  1.00  0.00    -0.203 F 
ATOM     61  C   UNL A   1      40.078  35.920  37.778  1.00  0.00     0.198 A 
ATOM     62  C   UNL A   1      38.638  34.304  38.813  1.00  0.00     0.198 A 
ATOM     63  F   UNL A   1      38.220  32.246  37.754  1.00  0.00    -0.203 F 
ATOM     64  F   UNL A   1      40.711  37.100  37.811  1.00  0.00    -0.200 F 
ATOM     65  C   UNL A   1      39.268  35.539  38.836  1.00  0.00     0.200 A 
ATOM     66  F   UNL A   1      37.842  33.941  39.829  1.00  0.00    -0.200 F 
ATOM     67  F   UNL A   1      39.098  36.361  39.881  1.00  0.00    -0.200 F 
ENDBRANCH  43  57
BRANCH  44  68
ATOM     68  C   UNL A   1      40.571  28.092  28.517  1.00  0.00     0.064 A 
ATOM     69  C   UNL A   1      41.346  28.535  27.435  1.00  0.00     0.173 A 
ATOM     70  C   UNL A   1      39.950  26.839  28.403  1.00  0.00     0.173 A 
ATOM     71  F   UNL A   1      41.943  29.735  27.487  1.00  0.00    -0.203 F 
ATOM     72  C   UNL A   1      41.472  27.770  26.277  1.00  0.00     0.198 A 
ATOM     73  C   UNL A   1      40.104  26.062  27.257  1.00  0.00     0.198 A 
ATOM     74  F   UNL A   1      39.203  26.366  29.410  1.00  0.00    -0.203 F 
ATOM     75  F   UNL A   1      42.175  28.243  25.239  1.00  0.00    -0.200 F 
ATOM     76  C   UNL A   1      40.856  26.532  26.192  1.00  0.00     0.200 A 
ATOM     77  F   UNL A   1      39.519  24.858  27.184  1.00  0.00    -0.200 F 
ATOM     78  F   UNL A   1      40.978  25.796  25.079  1.00  0.00    -0.200 F 
ENDBRANCH  44  68
BRANCH  56  79
ATOM     79  C   UNL A   1      43.823  28.270  34.671  1.00  0.00     0.064 A 
ATOM     80  C   UNL A   1      45.167  28.659  34.558  1.00  0.00     0.173 A 
ATOM     81  C   UNL A   1      43.541  27.084  35.369  1.00  0.00     0.173 A 
ATOM     82  F   UNL A   1      45.492  29.775  33.888  1.00  0.00    -0.203 F 
ATOM     83  C   UNL A   1      46.187  27.874  35.090  1.00  0.00     0.198 A 
ATOM     84  C   UNL A   1      44.561  26.321  35.929  1.00  0.00     0.198 A 
ATOM     85  F   UNL A   1      42.274  26.670  35.513  1.00  0.00    -0.203 F 
ATOM     86  F   UNL A   1      47.466  28.235  34.917  1.00  0.00    -0.200 F 
ATOM     87  C   UNL A   1      45.884  26.711  35.780  1.00  0.00     0.200 A 
ATOM     88  F   UNL A   1      44.264  25.205  36.609  1.00  0.00    -0.200 F 
ATOM     89  F   UNL A   1      46.866  25.959  36.294  1.00  0.00    -0.200 F 
ENDBRANCH  56  79
ENDBRANCH  30  31
ENDBRANCH  22  25
ENDBRANCH  20  21
ENDBRANCH   1  20
TORSDOF 13
ENDMDL
MODEL 2
REMARK VINA RESULT:     -12.1      0.069      1.631
REMARK SMILES CC(C)c1cc(C(=O)NCCCCNC(=O)c2ccc(-c3c4nc(c(-c5c(F)c(F)c(F)c(F)c5F)c5ccc([nH]5)c(-c5c(F)c(F)c(F)c(F)c5F)c5nc(c(-c6c(F)c(F)c(F)c(F)c6F)c6ccc3[nH]6)C=C5)C=C4)cc2)ccc1[N+](=O)[O-]
REMARK SMILES IDX 12 1 11 2 10 3 9 4 7 5 8 6 6 8 4 9 5 10 82 11 81 12 80 13
REMARK SMILES IDX 2 14 1 15 3 16 83 17 84 18 85 19 13 20 14 21 15 22 16 24
REMARK SMILES IDX 17 25 18 26 79 27 19 28 78 29 20 30 21 31 22 32 72 33 23 34
REMARK SMILES IDX 77 35 71 36 73 37 24 38 76 39 70 40 69 41 25 43 57 44 37 45
REMARK SMILES IDX 56 46 38 47 41 48 55 49 74 50 39 51 40 52 54 54 75 55 42 56
REMARK SMILES IDX 26 57 27 58 35 59 28 60 29 61 33 62 36 63 30 64 31 65 34 66
REMARK SMILES IDX 32 67 58 68 59 69 67 70 60 71 61 72 65 73 68 74 62 75 63 76
REMARK SMILES IDX 66 77 64 78 43 79 44 80 52 81 45 82 46 83 50 84 53 85 47 86
REMARK SMILES IDX 48 87 51 88 49 89
REMARK H PARENT 9 7 14 23 73 42 41 53
REMARK Flexibility Score: inf
ROOT
ATOM      1  C   UNL A   1      31.318  32.173  26.517  1.00  0.00     0.023 C 
ENDROOT
BRANCH   1   2
ATOM      2  C   UNL A   1      31.526  30.732  26.065  1.00  0.00     0.023 C 
BRANCH   2   3
ATOM      3  C   UNL A   1      31.789  29.707  27.163  1.00  0.00     0.116 C 
BRANCH   3   4
ATOM      4  N   UNL A   1      33.182  29.593  27.559  1.00  0.00    -0.352 N 
ATOM      5  C   UNL A   1      34.241  28.975  26.932  1.00  0.00     0.251 C 
ATOM      6  O   UNL A   1      35.344  28.982  27.473  1.00  0.00    -0.269 OA
ATOM      7  H   UNL A   1      33.405  30.029  28.413  1.00  0.00     0.163 HD
BRANCH   5   8
ATOM      8  C   UNL A   1      34.063  28.239  25.652  1.00  0.00     0.040 A 
ATOM      9  C   UNL A   1      33.625  26.065  24.562  1.00  0.00     0.033 A 
ATOM     10  C   UNL A   1      33.944  26.838  25.705  1.00  0.00     0.025 A 
ATOM     11  C   UNL A   1      33.387  26.789  23.381  1.00  0.00     0.272 A 
ATOM     12  C   UNL A   1      33.614  28.172  23.287  1.00  0.00     0.087 A 
ATOM     13  C   UNL A   1      34.005  28.883  24.417  1.00  0.00     0.021 A 
BRANCH   9  14
ATOM     14  C   UNL A   1      33.605  24.550  24.741  1.00  0.00     0.020 C 
ATOM     15  C   UNL A   1      34.770  23.878  24.007  1.00  0.00     0.013 C 
ATOM     16  C   UNL A   1      33.503  23.998  26.167  1.00  0.00     0.013 C 
ENDBRANCH   9  14
BRANCH  11  17
ATOM     17  N   UNL A   1      32.784  26.185  22.210  1.00  0.00     0.063 N 
ATOM     18  O   UNL A   1      33.559  25.778  21.334  1.00  0.00    -0.258 OA
ATOM     19  O   UNL A   1      31.552  26.071  22.204  1.00  0.00    -0.258 OA
ENDBRANCH  11  17
ENDBRANCH   5   8
ENDBRANCH   3   4
ENDBRANCH   2   3
ENDBRANCH   1   2
BRANCH   1  20
ATOM     20  C   UNL A   1      32.494  32.827  27.233  1.00  0.00     0.116 C 
BRANCH  20  21
ATOM     21  N   UNL A   1      32.254  34.212  27.614  1.00  0.00    -0.352 N 
ATOM     22  C   UNL A   1      32.911  35.010  28.520  1.00  0.00     0.251 C 
ATOM     23  H   UNL A   1      31.502  34.645  27.149  1.00  0.00     0.163 HD
ATOM     24  O   UNL A   1      32.488  36.138  28.759  1.00  0.00    -0.269 OA
BRANCH  22  25
ATOM     25  C   UNL A   1      34.095  34.502  29.246  1.00  0.00     0.039 A 
ATOM     26  C   UNL A   1      33.908  33.893  30.490  1.00  0.00     0.014 A 
ATOM     27  C   UNL A   1      35.378  34.601  28.704  1.00  0.00     0.014 A 
ATOM     28  C   UNL A   1      34.992  33.300  31.143  1.00  0.00     0.010 A 
ATOM     29  C   UNL A   1      36.440  33.932  29.310  1.00  0.00     0.010 A 
ATOM     30  C   UNL A   1      36.256  33.266  30.531  1.00  0.00    -0.014 A 
BRANCH  30  31
ATOM     31  C   UNL A   1      37.382  32.512  31.142  1.00  0.00     0.031 A 
ATOM     32  C   UNL A   1      37.885  32.865  32.514  1.00  0.00     0.074 A 
ATOM     33  C   UNL A   1      37.997  31.547  30.429  1.00  0.00     0.049 A 
ATOM     34  N   UNL A   1      38.882  32.347  33.190  1.00  0.00    -0.248 NA
ATOM     35  C   UNL A   1      37.197  33.962  33.211  1.00  0.00     0.031 C 
ATOM     36  C   UNL A   1      37.645  31.152  29.063  1.00  0.00     0.029 A 
ATOM     37  N   UNL A   1      39.050  30.726  30.749  1.00  0.00    -0.354 N 
ATOM     38  C   UNL A   1      38.943  33.060  34.380  1.00  0.00     0.074 A 
ATOM     39  C   UNL A   1      37.924  34.085  34.312  1.00  0.00     0.031 C 
ATOM     40  C   UNL A   1      38.446  30.147  28.675  1.00  0.00     0.029 A 
ATOM     41  C   UNL A   1      39.393  29.852  29.746  1.00  0.00     0.049 A 
ATOM     42  H   UNL A   1      39.516  30.760  31.616  1.00  0.00     0.167 HD
ATOM     43  C   UNL A   1      39.758  32.860  35.444  1.00  0.00     0.037 A 
ATOM     44  C   UNL A   1      40.364  28.921  29.693  1.00  0.00     0.037 A 
ATOM     45  C   UNL A   1      40.758  31.828  35.518  1.00  0.00     0.049 A 
ATOM     46  C   UNL A   1      41.257  28.725  30.887  1.00  0.00     0.074 A 
ATOM     47  C   UNL A   1      41.589  31.505  36.576  1.00  0.00     0.029 A 
ATOM     48  N   UNL A   1      41.068  30.953  34.486  1.00  0.00    -0.354 N 
ATOM     49  N   UNL A   1      41.251  29.350  32.039  1.00  0.00    -0.248 NA
ATOM     50  C   UNL A   1      42.290  27.685  30.776  1.00  0.00     0.031 C 
ATOM     51  C   UNL A   1      42.437  30.470  36.168  1.00  0.00     0.029 A 
ATOM     52  C   UNL A   1      42.096  30.109  34.875  1.00  0.00     0.049 A 
ATOM     53  H   UNL A   1      40.624  30.935  33.608  1.00  0.00     0.167 HD
ATOM     54  C   UNL A   1      42.257  28.765  32.796  1.00  0.00     0.074 A 
ATOM     55  C   UNL A   1      42.837  27.718  31.982  1.00  0.00     0.031 C 
ATOM     56  C   UNL A   1      42.666  29.071  34.052  1.00  0.00     0.037 A 
BRANCH  43  57
ATOM     57  C   UNL A   1      39.596  33.777  36.624  1.00  0.00     0.064 A 
ATOM     58  C   UNL A   1      38.804  33.424  37.728  1.00  0.00     0.173 A 
ATOM     59  C   UNL A   1      40.274  35.004  36.672  1.00  0.00     0.173 A 
ATOM     60  F   UNL A   1      38.125  32.266  37.729  1.00  0.00    -0.203 F 
ATOM     61  C   UNL A   1      38.674  34.277  38.821  1.00  0.00     0.198 A 
ATOM     62  C   UNL A   1      40.167  35.840  37.780  1.00  0.00     0.198 A 
ATOM     63  F   UNL A   1      41.050  35.389  35.647  1.00  0.00    -0.203 F 
ATOM     64  F   UNL A   1      37.871  33.940  39.839  1.00  0.00    -0.200 F 
ATOM     65  C   UNL A   1      39.361  35.480  38.850  1.00  0.00     0.200 A 
ATOM     66  F   UNL A   1      40.845  36.996  37.814  1.00  0.00    -0.200 F 
ATOM     67  F   UNL A   1      39.243  36.296  39.906  1.00  0.00    -0.200 F 
ENDBRANCH  43  57
BRANCH  44  68
ATOM     68  C   UNL A   1      40.530  28.084  28.474  1.00  0.00     0.064 A 
ATOM     69  C   UNL A   1      39.905  26.833  28.367  1.00  0.00     0.173 A 
ATOM     70  C   UNL A   1      41.325  28.509  27.398  1.00  0.00     0.173 A 
ATOM     71  F   UNL A   1      39.152  26.374  29.378  1.00  0.00    -0.203 F 
ATOM     72  C   UNL A   1      40.089  26.029  27.245  1.00  0.00     0.198 A 
ATOM     73  C   UNL A   1      41.481  27.717  26.263  1.00  0.00     0.198 A 
ATOM     74  F   UNL A   1      41.940  29.699  27.446  1.00  0.00    -0.203 F 
ATOM     75  F   UNL A   1      39.523  24.815  27.193  1.00  0.00    -0.200 F 
ATOM     76  C   UNL A   1      40.872  26.474  26.191  1.00  0.00     0.200 A 
ATOM     77  F   UNL A   1      42.227  28.157  25.239  1.00  0.00    -0.200 F 
ATOM     78  F   UNL A   1      41.048  25.701  25.111  1.00  0.00    -0.200 F 
ENDBRANCH  44  68
BRANCH  56  79
ATOM     79  C   UNL A   1      43.777  28.243  34.631  1.00  0.00     0.064 A 
ATOM     80  C   UNL A   1      45.121  28.631  34.519  1.00  0.00     0.173 A 
ATOM     81  C   UNL A   1      43.493  27.056  35.326  1.00  0.00     0.173 A 
ATOM     82  F   UNL A   1      45.448  29.748  33.852  1.00  0.00    -0.203 F 
ATOM     83  C   UNL A   1      46.140  27.844  35.050  1.00  0.00     0.198 A 
ATOM     84  C   UNL A   1      44.512  26.291  35.885  1.00  0.00     0.198 A 
ATOM     85  F   UNL A   1      42.225  26.643  35.469  1.00  0.00    -0.203 F 
ATOM     86  F   UNL A   1      47.420  28.203  34.878  1.00  0.00    -0.200 F 
ATOM     87  C   UNL A   1      45.835  26.679  35.737  1.00  0.00     0.200 A 
ATOM     88  F   UNL A   1      44.214  25.173  36.562  1.00  0.00    -0.200 F 
ATOM     89  F   UNL A   1      46.817  25.924  36.250  1.00  0.00    -0.200 F 
ENDBRANCH  56  79
ENDBRANCH  30  31
ENDBRANCH  22  25
ENDBRANCH  20  21
ENDBRANCH   1  20
TORSDOF 13
ENDMDL
MODEL 3
REMARK VINA RESULT:     -12.0      0.595      7.509
REMARK SMILES CC(C)c1cc(C(=O)NCCCCNC(=O)c2ccc(-c3c4nc(c(-c5c(F)c(F)c(F)c(F)c5F)c5ccc([nH]5)c(-c5c(F)c(F)c(F)c(F)c5F)c5nc(c(-c6c(F)c(F)c(F)c(F)c6F)c6ccc3[nH]6)C=C5)C=C4)cc2)ccc1[N+](=O)[O-]
REMARK SMILES IDX 12 1 11 2 10 3 9 4 7 5 8 6 6 8 4 9 5 10 82 11 81 12 80 13
REMARK SMILES IDX 2 14 1 15 3 16 83 17 84 18 85 19 13 20 14 21 15 22 16 24
REMARK SMILES IDX 17 25 18 26 79 27 19 28 78 29 20 30 21 31 22 32 72 33 23 34
REMARK SMILES IDX 77 35 71 36 73 37 24 38 76 39 70 40 69 41 25 43 57 44 37 45
REMARK SMILES IDX 56 46 38 47 41 48 55 49 74 50 39 51 40 52 54 54 75 55 42 56
REMARK SMILES IDX 26 57 27 58 35 59 28 60 29 61 33 62 36 63 30 64 31 65 34 66
REMARK SMILES IDX 32 67 58 68 59 69 67 70 60 71 61 72 65 73 68 74 62 75 63 76
REMARK SMILES IDX 66 77 64 78 43 79 44 80 52 81 45 82 46 83 50 84 53 85 47 86
REMARK SMILES IDX 48 87 51 88 49 89
REMARK H PARENT 9 7 14 23 73 42 41 53
REMARK Flexibility Score: inf
ROOT
ATOM      1  C   UNL A   1      31.378  32.135  26.675  1.00  0.00     0.023 C 
ENDROOT
BRANCH   1   2
ATOM      2  C   UNL A   1      31.669  30.734  26.149  1.00  0.00     0.023 C 
BRANCH   2   3
ATOM      3  C   UNL A   1      31.916  29.653  27.195  1.00  0.00     0.116 C 
BRANCH   3   4
ATOM      4  N   UNL A   1      33.310  29.487  27.571  1.00  0.00    -0.352 N 
ATOM      5  C   UNL A   1      34.340  28.847  26.919  1.00  0.00     0.251 C 
ATOM      6  O   UNL A   1      35.449  28.808  27.445  1.00  0.00    -0.269 OA
ATOM      7  H   UNL A   1      33.557  29.898  28.430  1.00  0.00     0.163 HD
BRANCH   5   8
ATOM      8  C   UNL A   1      34.123  28.143  25.627  1.00  0.00     0.040 A 
ATOM      9  C   UNL A   1      33.585  26.010  24.501  1.00  0.00     0.033 A 
ATOM     10  C   UNL A   1      33.943  26.747  25.655  1.00  0.00     0.025 A 
ATOM     11  C   UNL A   1      33.371  26.765  23.334  1.00  0.00     0.272 A 
ATOM     12  C   UNL A   1      33.658  28.138  23.264  1.00  0.00     0.087 A 
ATOM     13  C   UNL A   1      34.086  28.811  24.404  1.00  0.00     0.021 A 
BRANCH   9  14
ATOM     14  C   UNL A   1      33.501  24.494  24.653  1.00  0.00     0.020 C 
ATOM     15  C   UNL A   1      34.449  23.982  25.741  1.00  0.00     0.013 C 
ATOM     16  C   UNL A   1      32.115  23.867  24.835  1.00  0.00     0.013 C 
ENDBRANCH   9  14
BRANCH  11  17
ATOM     17  N   UNL A   1      32.736  26.209  22.157  1.00  0.00     0.063 N 
ATOM     18  O   UNL A   1      31.508  26.336  22.076  1.00  0.00    -0.258 OA
ATOM     19  O   UNL A   1      33.476  25.706  21.301  1.00  0.00    -0.258 OA
ENDBRANCH  11  17
ENDBRANCH   5   8
ENDBRANCH   3   4
ENDBRANCH   2   3
ENDBRANCH   1   2
BRANCH   1  20
ATOM     20  C   UNL A   1      32.537  32.845  27.365  1.00  0.00     0.116 C 
BRANCH  20  21
ATOM     21  N   UNL A   1      32.271  34.244  27.670  1.00  0.00    -0.352 N 
ATOM     22  C   UNL A   1      32.904  35.098  28.542  1.00  0.00     0.251 C 
ATOM     23  H   UNL A   1      31.520  34.641  27.174  1.00  0.00     0.163 HD
ATOM     24  O   UNL A   1      32.462  36.230  28.717  1.00  0.00    -0.269 OA
BRANCH  22  25
ATOM     25  C   UNL A   1      34.087  34.647  29.308  1.00  0.00     0.039 A 
ATOM     26  C   UNL A   1      33.905  34.208  30.623  1.00  0.00     0.014 A 
ATOM     27  C   UNL A   1      35.361  34.632  28.737  1.00  0.00     0.014 A 
ATOM     28  C   UNL A   1      34.983  33.667  31.328  1.00  0.00     0.010 A 
ATOM     29  C   UNL A   1      36.412  34.011  29.407  1.00  0.00     0.010 A 
ATOM     30  C   UNL A   1      36.233  33.512  30.706  1.00  0.00    -0.014 A 
BRANCH  30  31
ATOM     31  C   UNL A   1      37.346  32.804  31.391  1.00  0.00     0.031 A 
ATOM     32  C   UNL A   1      38.018  31.626  30.742  1.00  0.00     0.074 A 
ATOM     33  C   UNL A   1      37.709  33.185  32.632  1.00  0.00     0.049 A 
ATOM     34  N   UNL A   1      38.975  30.860  31.205  1.00  0.00    -0.248 NA
ATOM     35  C   UNL A   1      37.534  31.238  29.409  1.00  0.00     0.031 C 
ATOM     36  C   UNL A   1      37.094  34.273  33.396  1.00  0.00     0.029 A 
ATOM     37  N   UNL A   1      38.679  32.699  33.474  1.00  0.00    -0.354 N 
ATOM     38  C   UNL A   1      39.199  29.900  30.227  1.00  0.00     0.074 A 
ATOM     39  C   UNL A   1      38.238  30.141  29.172  1.00  0.00     0.031 C 
ATOM     40  C   UNL A   1      37.719  34.391  34.578  1.00  0.00     0.029 A 
ATOM     41  C   UNL A   1      38.752  33.363  34.674  1.00  0.00     0.049 A 
ATOM     42  H   UNL A   1      39.267  31.944  33.239  1.00  0.00     0.167 HD
ATOM     43  C   UNL A   1      40.137  28.923  30.200  1.00  0.00     0.037 A 
ATOM     44  C   UNL A   1      39.557  33.165  35.735  1.00  0.00     0.037 A 
ATOM     45  C   UNL A   1      41.104  28.697  31.242  1.00  0.00     0.049 A 
ATOM     46  C   UNL A   1      40.586  32.069  35.679  1.00  0.00     0.074 A 
ATOM     47  C   UNL A   1      42.134  27.774  31.279  1.00  0.00     0.029 A 
ATOM     48  N   UNL A   1      41.155  29.398  32.438  1.00  0.00    -0.354 N 
ATOM     49  N   UNL A   1      40.842  31.220  34.714  1.00  0.00    -0.248 NA
ATOM     50  C   UNL A   1      41.445  31.909  36.860  1.00  0.00     0.031 C 
ATOM     51  C   UNL A   1      42.776  27.881  32.517  1.00  0.00     0.029 A 
ATOM     52  C   UNL A   1      42.182  28.910  33.230  1.00  0.00     0.049 A 
ATOM     53  H   UNL A   1      40.550  30.135  32.688  1.00  0.00     0.167 HD
ATOM     54  C   UNL A   1      41.904  30.445  35.158  1.00  0.00     0.074 A 
ATOM     55  C   UNL A   1      42.260  30.939  36.471  1.00  0.00     0.031 C 
ATOM     56  C   UNL A   1      42.525  29.412  34.537  1.00  0.00     0.037 A 
BRANCH  43  57
ATOM     57  C   UNL A   1      40.168  28.024  28.996  1.00  0.00     0.064 A 
ATOM     58  C   UNL A   1      40.896  28.361  27.844  1.00  0.00     0.173 A 
ATOM     59  C   UNL A   1      39.499  26.791  29.009  1.00  0.00     0.173 A 
ATOM     60  F   UNL A   1      41.546  29.532  27.775  1.00  0.00    -0.203 F 
ATOM     61  C   UNL A   1      40.927  27.512  26.740  1.00  0.00     0.198 A 
ATOM     62  C   UNL A   1      39.559  25.930  27.916  1.00  0.00     0.198 A 
ATOM     63  F   UNL A   1      38.793  26.416  30.086  1.00  0.00    -0.203 F 
ATOM     64  F   UNL A   1      41.587  27.879  25.634  1.00  0.00    -0.200 F 
ATOM     65  C   UNL A   1      40.266  26.294  26.780  1.00  0.00     0.200 A 
ATOM     66  F   UNL A   1      38.931  24.746  27.961  1.00  0.00    -0.200 F 
ATOM     67  F   UNL A   1      40.305  25.474  25.721  1.00  0.00    -0.200 F 
ENDBRANCH  43  57
BRANCH  44  68
ATOM     68  C   UNL A   1      39.440  34.038  36.934  1.00  0.00     0.064 A 
ATOM     69  C   UNL A   1      40.091  35.279  36.988  1.00  0.00     0.173 A 
ATOM     70  C   UNL A   1      38.690  33.646  38.053  1.00  0.00     0.173 A 
ATOM     71  F   UNL A   1      40.838  35.688  35.951  1.00  0.00    -0.203 F 
ATOM     72  C   UNL A   1      40.018  36.083  38.124  1.00  0.00     0.198 A 
ATOM     73  C   UNL A   1      38.591  34.466  39.175  1.00  0.00     0.198 A 
ATOM     74  F   UNL A   1      38.044  32.472  38.051  1.00  0.00    -0.203 F 
ATOM     75  F   UNL A   1      40.693  37.239  38.168  1.00  0.00    -0.200 F 
ATOM     76  C   UNL A   1      39.263  35.678  39.214  1.00  0.00     0.200 A 
ATOM     77  F   UNL A   1      37.849  34.079  40.221  1.00  0.00    -0.200 F 
ATOM     78  F   UNL A   1      39.191  36.452  40.306  1.00  0.00    -0.200 F 
ENDBRANCH  44  68
BRANCH  56  79
ATOM     79  C   UNL A   1      43.673  28.768  35.260  1.00  0.00     0.064 A 
ATOM     80  C   UNL A   1      43.482  27.677  36.122  1.00  0.00     0.173 A 
ATOM     81  C   UNL A   1      44.984  29.234  35.073  1.00  0.00     0.173 A 
ATOM     82  F   UNL A   1      42.247  27.203  36.348  1.00  0.00    -0.203 F 
ATOM     83  C   UNL A   1      44.555  27.100  36.797  1.00  0.00     0.198 A 
ATOM     84  C   UNL A   1      46.059  28.631  35.722  1.00  0.00     0.198 A 
ATOM     85  F   UNL A   1      45.224  30.268  34.254  1.00  0.00    -0.203 F 
ATOM     86  F   UNL A   1      44.341  26.099  37.661  1.00  0.00    -0.200 F 
ATOM     87  C   UNL A   1      45.842  27.573  36.591  1.00  0.00     0.200 A 
ATOM     88  F   UNL A   1      47.303  29.080  35.510  1.00  0.00    -0.200 F 
ATOM     89  F   UNL A   1      46.875  27.015  37.238  1.00  0.00    -0.200 F 
ENDBRANCH  56  79
ENDBRANCH  30  31
ENDBRANCH  22  25
ENDBRANCH  20  21
ENDBRANCH   1  20
TORSDOF 13
ENDMDL
