MODEL 1
REMARK VINA RESULT:     -13.0      0.000      0.000
REMARK SMILES CC1CCN(S(=O)(=O)N2CCC[C@H](c3cccc(C(=O)NCCCCNC(=O)c4ccc(-c5c6nc(c(-c7c(F)c(F)c(F)c(F)c7F)c7ccc([nH]7)c(-c7c(F)c(F)c(F)c(F)c7F)c7nc(c(-c8c(F)c(F)c(F)c(F)c8F)c8ccc5[nH]8)C=C7)C=C6)cc4)c3)C2)CC1
REMARK SMILES IDX 23 1 22 2 21 3 19 4 20 5 18 7 14 8 15 9 92 10 16 11 17 12
REMARK SMILES IDX 13 13 9 14 10 15 93 16 11 17 12 18 6 19 7 20 8 21 5 22 1 23
REMARK SMILES IDX 2 24 3 25 95 26 4 27 94 28 24 29 25 30 26 31 27 32 28 34
REMARK SMILES IDX 29 35 30 36 91 37 31 38 90 39 32 40 33 41 34 42 84 43 35 44
REMARK SMILES IDX 89 45 83 46 85 47 36 48 88 49 82 50 81 51 37 53 69 54 49 55
REMARK SMILES IDX 68 56 50 57 53 58 67 59 86 60 51 61 52 62 66 64 87 65 54 66
REMARK SMILES IDX 38 67 39 68 47 69 40 70 41 71 45 72 48 73 42 74 43 75 46 76
REMARK SMILES IDX 44 77 70 78 71 79 79 80 72 81 73 82 77 83 80 84 74 85 75 86
REMARK SMILES IDX 78 87 76 88 55 89 56 90 64 91 57 92 58 93 62 94 65 95 59 96
REMARK SMILES IDX 60 97 63 98 61 99
REMARK H PARENT 21 6 26 33 85 52 53 63
REMARK Flexibility Score: inf
ROOT
ATOM      1  C   UNL A   1      36.505  21.101  25.307  1.00  0.00     0.023 C 
ENDROOT
BRANCH   1   2
ATOM      2  C   UNL A   1      36.164  22.327  26.141  1.00  0.00     0.116 C 
BRANCH   2   3
ATOM      3  N   UNL A   1      35.103  22.143  27.125  1.00  0.00    -0.352 N 
ATOM      4  C   UNL A   1      33.784  22.566  27.138  1.00  0.00     0.251 C 
ATOM      5  O   UNL A   1      33.083  22.284  28.107  1.00  0.00    -0.269 OA
ATOM      6  H   UNL A   1      35.372  21.627  27.920  1.00  0.00     0.163 HD
BRANCH   4   7
ATOM      7  C   UNL A   1      33.223  23.412  26.049  1.00  0.00     0.040 A 
ATOM      8  C   UNL A   1      32.376  25.593  25.396  1.00  0.00    -0.043 A 
ATOM      9  C   UNL A   1      31.701  24.988  24.327  1.00  0.00     0.004 A 
ATOM     10  C   UNL A   1      33.263  24.799  26.128  1.00  0.00     0.017 A 
ATOM     11  C   UNL A   1      31.834  23.615  24.087  1.00  0.00     0.001 A 
ATOM     12  C   UNL A   1      32.551  22.817  24.980  1.00  0.00     0.014 A 
BRANCH   8  13
ATOM     13  C   UNL A   1      32.000  26.953  25.979  1.00  0.00     0.034 C 
ATOM     14  N   UNL A   1      31.627  28.397  24.000  1.00  0.00    -0.188 NA
ATOM     15  C   UNL A   1      32.824  29.218  24.260  1.00  0.00     0.103 C 
ATOM     16  C   UNL A   1      30.993  27.785  25.183  1.00  0.00     0.111 C 
ATOM     17  C   UNL A   1      33.831  28.441  25.108  1.00  0.00     0.017 C 
ATOM     18  C   UNL A   1      33.173  27.877  26.359  1.00  0.00     0.011 C 
BRANCH  14  19
ATOM     19  S   UNL A   1      30.655  28.813  22.703  1.00  0.00     0.281 S 
ATOM     20  O   UNL A   1      30.337  27.601  21.986  1.00  0.00    -0.195 OA
ATOM     21  O   UNL A   1      31.281  29.923  22.015  1.00  0.00    -0.195 OA
BRANCH  19  22
ATOM     22  N   UNL A   1      29.240  29.425  23.420  1.00  0.00    -0.189 NA
ATOM     23  C   UNL A   1      28.091  32.177  20.373  1.00  0.00     0.008 C 
ATOM     24  C   UNL A   1      27.982  31.468  21.722  1.00  0.00    -0.012 C 
ATOM     25  C   UNL A   1      29.213  31.778  22.597  1.00  0.00     0.020 C 
ATOM     26  C   UNL A   1      27.762  29.962  21.509  1.00  0.00     0.020 C 
ATOM     27  C   UNL A   1      29.353  30.862  23.815  1.00  0.00     0.104 C 
ATOM     28  C   UNL A   1      27.908  29.207  22.819  1.00  0.00     0.104 C 
ENDBRANCH  19  22
ENDBRANCH  14  19
ENDBRANCH   8  13
ENDBRANCH   4   7
ENDBRANCH   2   3
ENDBRANCH   1   2
BRANCH   1  29
ATOM     29  C   UNL A   1      37.951  20.980  24.855  1.00  0.00     0.023 C 
BRANCH  29  30
ATOM     30  C   UNL A   1      38.983  20.867  25.969  1.00  0.00     0.116 C 
BRANCH  30  31
ATOM     31  N   UNL A   1      39.827  19.681  25.875  1.00  0.00    -0.352 N 
ATOM     32  C   UNL A   1      41.184  19.551  26.066  1.00  0.00     0.251 C 
ATOM     33  H   UNL A   1      39.356  18.850  25.638  1.00  0.00     0.163 HD
ATOM     34  O   UNL A   1      41.743  18.482  25.846  1.00  0.00    -0.269 OA
BRANCH  32  35
ATOM     35  C   UNL A   1      41.974  20.725  26.491  1.00  0.00     0.039 A 
ATOM     36  C   UNL A   1      42.399  21.640  25.524  1.00  0.00     0.014 A 
ATOM     37  C   UNL A   1      42.226  20.960  27.844  1.00  0.00     0.014 A 
ATOM     38  C   UNL A   1      42.969  22.849  25.925  1.00  0.00     0.010 A 
ATOM     39  C   UNL A   1      42.712  22.200  28.245  1.00  0.00     0.010 A 
ATOM     40  C   UNL A   1      43.065  23.167  27.290  1.00  0.00    -0.014 A 
BRANCH  40  41
ATOM     41  C   UNL A   1      43.475  24.521  27.743  1.00  0.00     0.031 A 
ATOM     42  C   UNL A   1      42.441  25.563  28.058  1.00  0.00     0.074 A 
ATOM     43  C   UNL A   1      44.786  24.837  27.781  1.00  0.00     0.049 A 
ATOM     44  N   UNL A   1      42.604  26.824  28.368  1.00  0.00    -0.248 NA
ATOM     45  C   UNL A   1      41.035  25.137  27.990  1.00  0.00     0.031 C 
ATOM     46  C   UNL A   1      45.886  23.927  27.453  1.00  0.00     0.029 A 
ATOM     47  N   UNL A   1      45.417  26.016  28.093  1.00  0.00    -0.354 N 
ATOM     48  C   UNL A   1      41.326  27.342  28.523  1.00  0.00     0.074 A 
ATOM     49  C   UNL A   1      40.397  26.275  28.219  1.00  0.00     0.031 C 
ATOM     50  C   UNL A   1      47.053  24.573  27.602  1.00  0.00     0.029 A 
ATOM     51  C   UNL A   1      46.785  25.956  27.982  1.00  0.00     0.049 A 
ATOM     52  H   UNL A   1      44.934  26.828  28.372  1.00  0.00     0.167 HD
ATOM     53  C   UNL A   1      40.963  28.590  28.904  1.00  0.00     0.037 A 
ATOM     54  C   UNL A   1      47.720  26.913  28.146  1.00  0.00     0.037 A 
ATOM     55  C   UNL A   1      41.892  29.645  29.214  1.00  0.00     0.049 A 
ATOM     56  C   UNL A   1      47.284  28.303  28.525  1.00  0.00     0.074 A 
ATOM     57  C   UNL A   1      41.624  30.923  29.670  1.00  0.00     0.029 A 
ATOM     58  N   UNL A   1      43.270  29.549  29.084  1.00  0.00    -0.354 N 
ATOM     59  N   UNL A   1      46.076  28.761  28.749  1.00  0.00    -0.248 NA
ATOM     60  C   UNL A   1      48.344  29.312  28.672  1.00  0.00     0.031 C 
ATOM     61  C   UNL A   1      42.834  31.621  29.753  1.00  0.00     0.029 A 
ATOM     62  C   UNL A   1      43.862  30.758  29.411  1.00  0.00     0.049 A 
ATOM     63  H   UNL A   1      43.756  28.739  28.801  1.00  0.00     0.167 HD
ATOM     64  C   UNL A   1      46.230  30.100  29.082  1.00  0.00     0.074 A 
ATOM     65  C   UNL A   1      47.652  30.376  29.055  1.00  0.00     0.031 C 
ATOM     66  C   UNL A   1      45.280  31.020  29.377  1.00  0.00     0.037 A 
BRANCH  53  67
ATOM     67  C   UNL A   1      39.493  28.887  29.005  1.00  0.00     0.064 A 
ATOM     68  C   UNL A   1      38.802  28.787  30.224  1.00  0.00     0.173 A 
ATOM     69  C   UNL A   1      38.775  29.319  27.880  1.00  0.00     0.173 A 
ATOM     70  F   UNL A   1      39.438  28.369  31.329  1.00  0.00    -0.203 F 
ATOM     71  C   UNL A   1      37.443  29.077  30.303  1.00  0.00     0.198 A 
ATOM     72  C   UNL A   1      37.424  29.641  27.971  1.00  0.00     0.198 A 
ATOM     73  F   UNL A   1      39.388  29.439  26.692  1.00  0.00    -0.203 F 
ATOM     74  F   UNL A   1      36.794  28.923  31.465  1.00  0.00    -0.200 F 
ATOM     75  C   UNL A   1      36.757  29.513  29.179  1.00  0.00     0.200 A 
ATOM     76  F   UNL A   1      36.767  30.077  26.887  1.00  0.00    -0.200 F 
ATOM     77  F   UNL A   1      35.451  29.802  29.260  1.00  0.00    -0.200 F 
ENDBRANCH  53  67
BRANCH  54  78
ATOM     78  C   UNL A   1      49.160  26.593  27.951  1.00  0.00     0.064 A 
ATOM     79  C   UNL A   1      49.998  26.342  29.047  1.00  0.00     0.173 A 
ATOM     80  C   UNL A   1      49.731  26.543  26.671  1.00  0.00     0.173 A 
ATOM     81  F   UNL A   1      49.504  26.399  30.292  1.00  0.00    -0.203 F 
ATOM     82  C   UNL A   1      51.354  26.077  28.871  1.00  0.00     0.198 A 
ATOM     83  C   UNL A   1      51.081  26.246  26.494  1.00  0.00     0.198 A 
ATOM     84  F   UNL A   1      48.974  26.772  25.587  1.00  0.00    -0.203 F 
ATOM     85  F   UNL A   1      52.142  25.893  29.940  1.00  0.00    -0.200 F 
ATOM     86  C   UNL A   1      51.894  26.023  27.594  1.00  0.00     0.200 A 
ATOM     87  F   UNL A   1      51.593  26.177  25.258  1.00  0.00    -0.200 F 
ATOM     88  F   UNL A   1      53.197  25.763  27.426  1.00  0.00    -0.200 F 
ENDBRANCH  54  78
BRANCH  66  89
ATOM     89  C   UNL A   1      45.743  32.409  29.711  1.00  0.00     0.064 A 
ATOM     90  C   UNL A   1      45.844  33.406  28.728  1.00  0.00     0.173 A 
ATOM     91  C   UNL A   1      46.045  32.762  31.035  1.00  0.00     0.173 A 
ATOM     92  F   UNL A   1      45.583  33.117  27.445  1.00  0.00    -0.203 F 
ATOM     93  C   UNL A   1      46.252  34.696  29.057  1.00  0.00     0.198 A 
ATOM     94  C   UNL A   1      46.418  34.062  31.364  1.00  0.00     0.198 A 
ATOM     95  F   UNL A   1      45.959  31.849  32.015  1.00  0.00    -0.203 F 
ATOM     96  F   UNL A   1      46.387  35.618  28.093  1.00  0.00    -0.200 F 
ATOM     97  C   UNL A   1      46.529  35.026  30.374  1.00  0.00     0.200 A 
ATOM     98  F   UNL A   1      46.669  34.382  32.641  1.00  0.00    -0.200 F 
ATOM     99  F   UNL A   1      46.908  36.272  30.689  1.00  0.00    -0.200 F 
ENDBRANCH  66  89
ENDBRANCH  40  41
ENDBRANCH  32  35
ENDBRANCH  30  31
ENDBRANCH  29  30
ENDBRANCH   1  29
TORSDOF 14
ENDMDL
MODEL 2
REMARK VINA RESULT:     -12.9      1.753      2.585
REMARK SMILES CC1CCN(S(=O)(=O)N2CCC[C@H](c3cccc(C(=O)NCCCCNC(=O)c4ccc(-c5c6nc(c(-c7c(F)c(F)c(F)c(F)c7F)c7ccc([nH]7)c(-c7c(F)c(F)c(F)c(F)c7F)c7nc(c(-c8c(F)c(F)c(F)c(F)c8F)c8ccc5[nH]8)C=C7)C=C6)cc4)c3)C2)CC1
REMARK SMILES IDX 23 1 22 2 21 3 19 4 20 5 18 7 14 8 15 9 92 10 16 11 17 12
REMARK SMILES IDX 13 13 9 14 10 15 93 16 11 17 12 18 6 19 7 20 8 21 5 22 1 23
REMARK SMILES IDX 2 24 3 25 95 26 4 27 94 28 24 29 25 30 26 31 27 32 28 34
REMARK SMILES IDX 29 35 30 36 91 37 31 38 90 39 32 40 33 41 34 42 84 43 35 44
REMARK SMILES IDX 89 45 83 46 85 47 36 48 88 49 82 50 81 51 37 53 69 54 49 55
REMARK SMILES IDX 68 56 50 57 53 58 67 59 86 60 51 61 52 62 66 64 87 65 54 66
REMARK SMILES IDX 38 67 39 68 47 69 40 70 41 71 45 72 48 73 42 74 43 75 46 76
REMARK SMILES IDX 44 77 70 78 71 79 79 80 72 81 73 82 77 83 80 84 74 85 75 86
REMARK SMILES IDX 78 87 76 88 55 89 56 90 64 91 57 92 58 93 62 94 65 95 59 96
REMARK SMILES IDX 60 97 63 98 61 99
REMARK H PARENT 21 6 26 33 85 52 53 63
REMARK Flexibility Score: inf
ROOT
ATOM      1  C   UNL A   1      35.249  20.406  25.019  1.00  0.00     0.023 C 
ENDROOT
BRANCH   1   2
ATOM      2  C   UNL A   1      33.815  20.267  25.507  1.00  0.00     0.116 C 
BRANCH   2   3
ATOM      3  N   UNL A   1      33.516  20.922  26.776  1.00  0.00    -0.352 N 
ATOM      4  C   UNL A   1      32.910  22.135  27.058  1.00  0.00     0.251 C 
ATOM      5  O   UNL A   1      32.779  22.471  28.233  1.00  0.00    -0.269 OA
ATOM      6  H   UNL A   1      33.793  20.411  27.572  1.00  0.00     0.163 HD
BRANCH   4   7
ATOM      7  C   UNL A   1      32.484  23.067  25.978  1.00  0.00     0.040 A 
ATOM      8  C   UNL A   1      31.963  25.356  25.352  1.00  0.00    -0.043 A 
ATOM      9  C   UNL A   1      31.218  24.869  24.270  1.00  0.00     0.004 A 
ATOM     10  C   UNL A   1      32.721  24.433  26.078  1.00  0.00     0.017 A 
ATOM     11  C   UNL A   1      31.155  23.494  24.010  1.00  0.00     0.001 A 
ATOM     12  C   UNL A   1      31.744  22.589  24.896  1.00  0.00     0.014 A 
BRANCH   8  13
ATOM     13  C   UNL A   1      31.781  26.747  25.953  1.00  0.00     0.034 C 
ATOM     14  N   UNL A   1      31.594  28.252  23.993  1.00  0.00    -0.188 NA
ATOM     15  C   UNL A   1      32.893  28.899  24.251  1.00  0.00     0.103 C 
ATOM     16  C   UNL A   1      30.890  27.718  25.175  1.00  0.00     0.111 C 
ATOM     17  C   UNL A   1      33.791  27.982  25.082  1.00  0.00     0.017 C 
ATOM     18  C   UNL A   1      33.071  27.498  26.333  1.00  0.00     0.011 C 
BRANCH  14  19
ATOM     19  S   UNL A   1      30.678  28.812  22.709  1.00  0.00     0.281 S 
ATOM     20  O   UNL A   1      30.332  27.676  21.889  1.00  0.00    -0.195 OA
ATOM     21  O   UNL A   1      31.369  29.945  22.130  1.00  0.00    -0.195 OA
BRANCH  19  22
ATOM     22  N   UNL A   1      29.269  29.425  23.437  1.00  0.00    -0.189 NA
ATOM     23  C   UNL A   1      28.082  32.154  20.383  1.00  0.00     0.008 C 
ATOM     24  C   UNL A   1      27.988  31.454  21.738  1.00  0.00    -0.012 C 
ATOM     25  C   UNL A   1      29.228  31.773  22.598  1.00  0.00     0.020 C 
ATOM     26  C   UNL A   1      27.770  29.946  21.537  1.00  0.00     0.020 C 
ATOM     27  C   UNL A   1      29.382  30.865  23.821  1.00  0.00     0.104 C 
ATOM     28  C   UNL A   1      27.931  29.200  22.850  1.00  0.00     0.104 C 
ENDBRANCH  19  22
ENDBRANCH  14  19
ENDBRANCH   8  13
ENDBRANCH   4   7
ENDBRANCH   2   3
ENDBRANCH   1   2
BRANCH   1  29
ATOM     29  C   UNL A   1      35.672  21.797  24.573  1.00  0.00     0.023 C 
BRANCH  29  30
ATOM     30  C   UNL A   1      37.001  22.291  25.130  1.00  0.00     0.116 C 
BRANCH  30  31
ATOM     31  N   UNL A   1      37.973  21.230  25.369  1.00  0.00    -0.352 N 
ATOM     32  C   UNL A   1      39.180  21.277  26.027  1.00  0.00     0.251 C 
ATOM     33  H   UNL A   1      37.727  20.348  25.006  1.00  0.00     0.163 HD
ATOM     34  O   UNL A   1      39.917  20.295  26.046  1.00  0.00    -0.269 OA
BRANCH  32  35
ATOM     35  C   UNL A   1      39.611  22.536  26.668  1.00  0.00     0.039 A 
ATOM     36  C   UNL A   1      40.617  22.492  27.637  1.00  0.00     0.014 A 
ATOM     37  C   UNL A   1      39.080  23.760  26.258  1.00  0.00     0.014 A 
ATOM     38  C   UNL A   1      41.175  23.683  28.104  1.00  0.00     0.010 A 
ATOM     39  C   UNL A   1      39.695  24.943  26.658  1.00  0.00     0.010 A 
ATOM     40  C   UNL A   1      40.765  24.915  27.566  1.00  0.00    -0.014 A 
BRANCH  40  41
ATOM     41  C   UNL A   1      41.476  26.177  27.892  1.00  0.00     0.031 A 
ATOM     42  C   UNL A   1      40.762  27.290  28.603  1.00  0.00     0.074 A 
ATOM     43  C   UNL A   1      42.742  26.353  27.463  1.00  0.00     0.049 A 
ATOM     44  N   UNL A   1      41.181  28.497  28.882  1.00  0.00    -0.248 NA
ATOM     45  C   UNL A   1      39.382  27.017  29.035  1.00  0.00     0.031 C 
ATOM     46  C   UNL A   1      43.529  25.366  26.720  1.00  0.00     0.029 A 
ATOM     47  N   UNL A   1      43.586  27.431  27.570  1.00  0.00    -0.354 N 
ATOM     48  C   UNL A   1      40.119  29.129  29.513  1.00  0.00     0.074 A 
ATOM     49  C   UNL A   1      39.016  28.192  29.527  1.00  0.00     0.031 C 
ATOM     50  C   UNL A   1      44.743  25.874  26.460  1.00  0.00     0.029 A 
ATOM     51  C   UNL A   1      44.805  27.241  26.966  1.00  0.00     0.049 A 
ATOM     52  H   UNL A   1      43.340  28.262  28.038  1.00  0.00     0.167 HD
ATOM     53  C   UNL A   1      40.075  30.372  30.050  1.00  0.00     0.037 A 
ATOM     54  C   UNL A   1      45.849  28.080  26.817  1.00  0.00     0.037 A 
ATOM     55  C   UNL A   1      41.179  31.297  30.042  1.00  0.00     0.049 A 
ATOM     56  C   UNL A   1      45.755  29.471  27.384  1.00  0.00     0.074 A 
ATOM     57  C   UNL A   1      41.253  32.554  30.615  1.00  0.00     0.029 A 
ATOM     58  N   UNL A   1      42.395  31.071  29.415  1.00  0.00    -0.354 N 
ATOM     59  N   UNL A   1      44.775  30.030  28.050  1.00  0.00    -0.248 NA
ATOM     60  C   UNL A   1      46.915  30.351  27.175  1.00  0.00     0.031 C 
ATOM     61  C   UNL A   1      42.490  33.114  30.280  1.00  0.00     0.029 A 
ATOM     62  C   UNL A   1      43.212  32.182  29.553  1.00  0.00     0.049 A 
ATOM     63  H   UNL A   1      42.642  30.242  28.943  1.00  0.00     0.167 HD
ATOM     64  C   UNL A   1      45.204  31.315  28.357  1.00  0.00     0.074 A 
ATOM     65  C   UNL A   1      46.545  31.444  27.826  1.00  0.00     0.031 C 
ATOM     66  C   UNL A   1      44.545  32.299  29.015  1.00  0.00     0.037 A 
BRANCH  53  67
ATOM     67  C   UNL A   1      38.788  30.808  30.691  1.00  0.00     0.064 A 
ATOM     68  C   UNL A   1      38.587  30.719  32.078  1.00  0.00     0.173 A 
ATOM     69  C   UNL A   1      37.759  31.364  29.916  1.00  0.00     0.173 A 
ATOM     70  F   UNL A   1      39.534  30.186  32.865  1.00  0.00    -0.203 F 
ATOM     71  C   UNL A   1      37.393  31.138  32.658  1.00  0.00     0.198 A 
ATOM     72  C   UNL A   1      36.581  31.815  30.504  1.00  0.00     0.198 A 
ATOM     73  F   UNL A   1      37.901  31.480  28.587  1.00  0.00    -0.203 F 
ATOM     74  F   UNL A   1      37.204  30.994  33.977  1.00  0.00    -0.200 F 
ATOM     75  C   UNL A   1      36.394  31.695  31.872  1.00  0.00     0.200 A 
ATOM     76  F   UNL A   1      35.623  32.366  29.745  1.00  0.00    -0.200 F 
ATOM     77  F   UNL A   1      35.250  32.108  32.434  1.00  0.00    -0.200 F 
ENDBRANCH  53  67
BRANCH  54  78
ATOM     78  C   UNL A   1      47.072  27.631  26.098  1.00  0.00     0.064 A 
ATOM     79  C   UNL A   1      47.145  27.681  24.699  1.00  0.00     0.173 A 
ATOM     80  C   UNL A   1      48.185  27.131  26.791  1.00  0.00     0.173 A 
ATOM     81  F   UNL A   1      46.099  28.130  23.990  1.00  0.00    -0.203 F 
ATOM     82  C   UNL A   1      48.275  27.228  24.020  1.00  0.00     0.198 A 
ATOM     83  C   UNL A   1      49.327  26.709  26.112  1.00  0.00     0.198 A 
ATOM     84  F   UNL A   1      48.169  27.064  28.130  1.00  0.00    -0.203 F 
ATOM     85  F   UNL A   1      48.297  27.239  22.680  1.00  0.00    -0.200 F 
ATOM     86  C   UNL A   1      49.367  26.749  24.727  1.00  0.00     0.200 A 
ATOM     87  F   UNL A   1      50.386  26.264  26.801  1.00  0.00    -0.200 F 
ATOM     88  F   UNL A   1      50.455  26.318  24.073  1.00  0.00    -0.200 F 
ENDBRANCH  54  78
BRANCH  66  89
ATOM     89  C   UNL A   1      45.267  33.602  29.212  1.00  0.00     0.064 A 
ATOM     90  C   UNL A   1      45.138  34.659  28.299  1.00  0.00     0.173 A 
ATOM     91  C   UNL A   1      46.060  33.812  30.351  1.00  0.00     0.173 A 
ATOM     92  F   UNL A   1      44.405  34.504  27.186  1.00  0.00    -0.203 F 
ATOM     93  C   UNL A   1      45.794  35.869  28.508  1.00  0.00     0.198 A 
ATOM     94  C   UNL A   1      46.686  35.036  30.573  1.00  0.00     0.198 A 
ATOM     95  F   UNL A   1      46.212  32.837  31.259  1.00  0.00    -0.203 F 
ATOM     96  F   UNL A   1      45.695  36.847  27.597  1.00  0.00    -0.200 F 
ATOM     97  C   UNL A   1      46.559  36.060  29.648  1.00  0.00     0.200 A 
ATOM     98  F   UNL A   1      47.411  35.223  31.684  1.00  0.00    -0.200 F 
ATOM     99  F   UNL A   1      47.179  37.230  29.852  1.00  0.00    -0.200 F 
ENDBRANCH  66  89
ENDBRANCH  40  41
ENDBRANCH  32  35
ENDBRANCH  30  31
ENDBRANCH  29  30
ENDBRANCH   1  29
TORSDOF 14
ENDMDL
MODEL 3
REMARK VINA RESULT:     -12.9      1.761      2.867
REMARK SMILES CC1CCN(S(=O)(=O)N2CCC[C@H](c3cccc(C(=O)NCCCCNC(=O)c4ccc(-c5c6nc(c(-c7c(F)c(F)c(F)c(F)c7F)c7ccc([nH]7)c(-c7c(F)c(F)c(F)c(F)c7F)c7nc(c(-c8c(F)c(F)c(F)c(F)c8F)c8ccc5[nH]8)C=C7)C=C6)cc4)c3)C2)CC1
REMARK SMILES IDX 23 1 22 2 21 3 19 4 20 5 18 7 14 8 15 9 92 10 16 11 17 12
REMARK SMILES IDX 13 13 9 14 10 15 93 16 11 17 12 18 6 19 7 20 8 21 5 22 1 23
REMARK SMILES IDX 2 24 3 25 95 26 4 27 94 28 24 29 25 30 26 31 27 32 28 34
REMARK SMILES IDX 29 35 30 36 91 37 31 38 90 39 32 40 33 41 34 42 84 43 35 44
REMARK SMILES IDX 89 45 83 46 85 47 36 48 88 49 82 50 81 51 37 53 69 54 49 55
REMARK SMILES IDX 68 56 50 57 53 58 67 59 86 60 51 61 52 62 66 64 87 65 54 66
REMARK SMILES IDX 38 67 39 68 47 69 40 70 41 71 45 72 48 73 42 74 43 75 46 76
REMARK SMILES IDX 44 77 70 78 71 79 79 80 72 81 73 82 77 83 80 84 74 85 75 86
REMARK SMILES IDX 78 87 76 88 55 89 56 90 64 91 57 92 58 93 62 94 65 95 59 96
REMARK SMILES IDX 60 97 63 98 61 99
REMARK H PARENT 21 6 26 33 85 52 53 63
REMARK Flexibility Score: inf
ROOT
ATOM      1  C   UNL A   1      36.772  20.047  24.996  1.00  0.00     0.023 C 
ENDROOT
BRANCH   1   2
ATOM      2  C   UNL A   1      35.363  20.573  25.222  1.00  0.00     0.116 C 
BRANCH   2   3
ATOM      3  N   UNL A   1      34.303  19.571  25.186  1.00  0.00    -0.352 N 
ATOM      4  C   UNL A   1      32.955  19.677  24.887  1.00  0.00     0.251 C 
ATOM      5  O   UNL A   1      32.258  18.665  24.937  1.00  0.00    -0.269 OA
ATOM      6  H   UNL A   1      34.599  18.659  25.414  1.00  0.00     0.163 HD
BRANCH   4   7
ATOM      7  C   UNL A   1      32.321  20.989  24.581  1.00  0.00     0.040 A 
ATOM      8  C   UNL A   1      32.481  23.100  23.389  1.00  0.00    -0.043 A 
ATOM      9  C   UNL A   1      31.574  23.659  24.299  1.00  0.00     0.004 A 
ATOM     10  C   UNL A   1      32.695  21.720  23.460  1.00  0.00     0.017 A 
ATOM     11  C   UNL A   1      31.000  22.873  25.306  1.00  0.00     0.001 A 
ATOM     12  C   UNL A   1      31.414  21.552  25.481  1.00  0.00     0.014 A 
BRANCH   8  13
ATOM     13  C   UNL A   1      33.445  23.920  22.535  1.00  0.00     0.034 C 
ATOM     14  N   UNL A   1      33.256  26.225  23.423  1.00  0.00    -0.188 NA
ATOM     15  C   UNL A   1      32.595  26.736  22.209  1.00  0.00     0.103 C 
ATOM     16  C   UNL A   1      34.163  25.077  23.233  1.00  0.00     0.111 C 
ATOM     17  C   UNL A   1      31.917  25.595  21.449  1.00  0.00     0.017 C 
ATOM     18  C   UNL A   1      32.889  24.450  21.200  1.00  0.00     0.011 C 
BRANCH  14  19
ATOM     19  S   UNL A   1      33.597  27.312  24.648  1.00  0.00     0.281 S 
ATOM     20  O   UNL A   1      34.110  28.515  24.038  1.00  0.00    -0.195 OA
ATOM     21  O   UNL A   1      34.373  26.619  25.656  1.00  0.00    -0.195 OA
BRANCH  19  22
ATOM     22  N   UNL A   1      32.083  27.644  25.347  1.00  0.00    -0.189 NA
ATOM     23  C   UNL A   1      33.090  31.221  27.439  1.00  0.00     0.008 C 
ATOM     24  C   UNL A   1      32.180  30.075  26.997  1.00  0.00    -0.012 C 
ATOM     25  C   UNL A   1      32.728  28.725  27.500  1.00  0.00     0.020 C 
ATOM     26  C   UNL A   1      31.988  30.114  25.473  1.00  0.00     0.020 C 
ATOM     27  C   UNL A   1      32.078  27.508  26.836  1.00  0.00     0.104 C 
ATOM     28  C   UNL A   1      31.307  28.848  24.985  1.00  0.00     0.104 C 
ENDBRANCH  19  22
ENDBRANCH  14  19
ENDBRANCH   8  13
ENDBRANCH   4   7
ENDBRANCH   2   3
ENDBRANCH   1   2
BRANCH   1  29
ATOM     29  C   UNL A   1      37.881  21.087  24.984  1.00  0.00     0.023 C 
BRANCH  29  30
ATOM     30  C   UNL A   1      38.936  20.938  26.072  1.00  0.00     0.116 C 
BRANCH  30  31
ATOM     31  N   UNL A   1      39.777  19.755  25.921  1.00  0.00    -0.352 N 
ATOM     32  C   UNL A   1      41.139  19.623  26.063  1.00  0.00     0.251 C 
ATOM     33  H   UNL A   1      39.298  18.929  25.681  1.00  0.00     0.163 HD
ATOM     34  O   UNL A   1      41.692  18.559  25.799  1.00  0.00    -0.269 OA
BRANCH  32  35
ATOM     35  C   UNL A   1      41.944  20.787  26.487  1.00  0.00     0.039 A 
ATOM     36  C   UNL A   1      42.420  21.670  25.516  1.00  0.00     0.014 A 
ATOM     37  C   UNL A   1      42.158  21.045  27.843  1.00  0.00     0.014 A 
ATOM     38  C   UNL A   1      43.005  22.875  25.909  1.00  0.00     0.010 A 
ATOM     39  C   UNL A   1      42.660  22.283  28.233  1.00  0.00     0.010 A 
ATOM     40  C   UNL A   1      43.066  23.221  27.270  1.00  0.00    -0.014 A 
BRANCH  40  41
ATOM     41  C   UNL A   1      43.493  24.574  27.707  1.00  0.00     0.031 A 
ATOM     42  C   UNL A   1      42.472  25.627  28.028  1.00  0.00     0.074 A 
ATOM     43  C   UNL A   1      44.806  24.880  27.725  1.00  0.00     0.049 A 
ATOM     44  N   UNL A   1      42.649  26.889  28.326  1.00  0.00    -0.248 NA
ATOM     45  C   UNL A   1      41.061  25.212  27.982  1.00  0.00     0.031 C 
ATOM     46  C   UNL A   1      45.894  23.959  27.389  1.00  0.00     0.029 A 
ATOM     47  N   UNL A   1      45.451  26.056  28.020  1.00  0.00    -0.354 N 
ATOM     48  C   UNL A   1      41.378  27.419  28.494  1.00  0.00     0.074 A 
ATOM     49  C   UNL A   1      40.435  26.358  28.211  1.00  0.00     0.031 C 
ATOM     50  C   UNL A   1      47.068  24.596  27.518  1.00  0.00     0.029 A 
ATOM     51  C   UNL A   1      46.818  25.984  27.891  1.00  0.00     0.049 A 
ATOM     52  H   UNL A   1      44.979  26.873  28.298  1.00  0.00     0.167 HD
ATOM     53  C   UNL A   1      41.029  28.672  28.871  1.00  0.00     0.037 A 
ATOM     54  C   UNL A   1      47.762  26.934  28.035  1.00  0.00     0.037 A 
ATOM     55  C   UNL A   1      41.972  29.722  29.160  1.00  0.00     0.049 A 
ATOM     56  C   UNL A   1      47.342  28.331  28.410  1.00  0.00     0.074 A 
ATOM     57  C   UNL A   1      41.720  31.006  29.610  1.00  0.00     0.029 A 
ATOM     58  N   UNL A   1      43.347  29.614  29.012  1.00  0.00    -0.354 N 
ATOM     59  N   UNL A   1      46.142  28.800  28.646  1.00  0.00    -0.248 NA
ATOM     60  C   UNL A   1      48.413  29.331  28.535  1.00  0.00     0.031 C 
ATOM     61  C   UNL A   1      42.936  31.694  29.672  1.00  0.00     0.029 A 
ATOM     62  C   UNL A   1      43.953  30.820  29.322  1.00  0.00     0.049 A 
ATOM     63  H   UNL A   1      43.822  28.798  28.729  1.00  0.00     0.167 HD
ATOM     64  C   UNL A   1      46.311  30.140  28.966  1.00  0.00     0.074 A 
ATOM     65  C   UNL A   1      47.735  30.404  28.919  1.00  0.00     0.031 C 
ATOM     66  C   UNL A   1      45.373  31.070  29.268  1.00  0.00     0.037 A 
BRANCH  53  67
ATOM     67  C   UNL A   1      39.564  28.982  28.989  1.00  0.00     0.064 A 
ATOM     68  C   UNL A   1      38.801  29.376  27.878  1.00  0.00     0.173 A 
ATOM     69  C   UNL A   1      38.904  28.842  30.220  1.00  0.00     0.173 A 
ATOM     70  F   UNL A   1      39.383  29.534  26.680  1.00  0.00    -0.203 F 
ATOM     71  C   UNL A   1      37.441  29.648  28.002  1.00  0.00     0.198 A 
ATOM     72  C   UNL A   1      37.538  29.082  30.332  1.00  0.00     0.198 A 
ATOM     73  F   UNL A   1      39.584  28.462  31.312  1.00  0.00    -0.203 F 
ATOM     74  F   UNL A   1      36.745  30.073  26.939  1.00  0.00    -0.200 F 
ATOM     75  C   UNL A   1      36.808  29.492  29.227  1.00  0.00     0.200 A 
ATOM     76  F   UNL A   1      36.925  28.916  31.513  1.00  0.00    -0.200 F 
ATOM     77  F   UNL A   1      35.498  29.744  29.342  1.00  0.00    -0.200 F 
ENDBRANCH  53  67
BRANCH  54  78
ATOM     78  C   UNL A   1      49.196  26.600  27.824  1.00  0.00     0.064 A 
ATOM     79  C   UNL A   1      49.727  26.484  26.531  1.00  0.00     0.173 A 
ATOM     80  C   UNL A   1      50.063  26.378  28.905  1.00  0.00     0.173 A 
ATOM     81  F   UNL A   1      48.934  26.664  25.465  1.00  0.00    -0.203 F 
ATOM     82  C   UNL A   1      51.060  26.136  26.328  1.00  0.00     0.198 A 
ATOM     83  C   UNL A   1      51.405  26.063  28.700  1.00  0.00     0.198 A 
ATOM     84  F   UNL A   1      49.609  26.480  30.163  1.00  0.00    -0.203 F 
ATOM     85  F   UNL A   1      51.527  25.980  25.081  1.00  0.00    -0.200 F 
ATOM     86  C   UNL A   1      51.901  25.932  27.413  1.00  0.00     0.200 A 
ATOM     87  F   UNL A   1      52.216  25.884  29.751  1.00  0.00    -0.200 F 
ATOM     88  F   UNL A   1      53.184  25.603  27.216  1.00  0.00    -0.200 F 
ENDBRANCH  54  78
BRANCH  66  89
ATOM     89  C   UNL A   1      45.852  32.458  29.585  1.00  0.00     0.064 A 
ATOM     90  C   UNL A   1      45.953  33.444  28.592  1.00  0.00     0.173 A 
ATOM     91  C   UNL A   1      46.168  32.820  30.903  1.00  0.00     0.173 A 
ATOM     92  F   UNL A   1      45.678  33.146  27.313  1.00  0.00    -0.203 F 
ATOM     93  C   UNL A   1      46.376  34.734  28.905  1.00  0.00     0.198 A 
ATOM     94  C   UNL A   1      46.556  34.119  31.217  1.00  0.00     0.198 A 
ATOM     95  F   UNL A   1      46.081  31.917  31.891  1.00  0.00    -0.203 F 
ATOM     96  F   UNL A   1      46.512  35.646  27.932  1.00  0.00    -0.200 F 
ATOM     97  C   UNL A   1      46.667  35.073  30.217  1.00  0.00     0.200 A 
ATOM     98  F   UNL A   1      46.821  34.448  32.489  1.00  0.00    -0.200 F 
ATOM     99  F   UNL A   1      47.061  36.318  30.517  1.00  0.00    -0.200 F 
ENDBRANCH  66  89
ENDBRANCH  40  41
ENDBRANCH  32  35
ENDBRANCH  30  31
ENDBRANCH  29  30
ENDBRANCH   1  29
TORSDOF 14
ENDMDL
