MODEL 1
REMARK VINA RESULT:     -13.8      0.000      0.000
REMARK SMILES O=C(NCCCCNC(=O)C1(c2ccccc2)CCN(S(=O)(=O)c2cccs2)CC1)c1ccc(-c2c3nc(c(-c4c(F)c(F)c(F)c(F)c4F)c4ccc([nH]4)c(-c4c(F)c(F)c(F)c(F)c4F)c4nc(c(-c5c(F)c(F)c(F)c(F)c5F)c5ccc2[nH]5)C=C4)C=C3)cc1
REMARK SMILES IDX 5 1 4 2 3 3 1 4 2 5 31 7 32 8 93 9 33 10 92 11 34 12 35 13
REMARK SMILES IDX 36 14 86 15 37 16 91 17 85 18 87 19 38 20 90 21 84 22 83 23
REMARK SMILES IDX 39 25 71 26 51 27 70 28 52 29 55 30 69 31 88 32 53 33 54 34
REMARK SMILES IDX 68 36 89 37 56 38 40 39 41 40 49 41 42 42 43 43 47 44 50 45
REMARK SMILES IDX 44 46 45 47 48 48 46 49 72 50 73 51 81 52 74 53 75 54 79 55
REMARK SMILES IDX 82 56 76 57 77 58 80 59 78 60 57 61 58 62 66 63 59 64 60 65
REMARK SMILES IDX 64 66 67 67 61 68 62 69 65 70 63 71 6 72 7 73 8 74 9 75
REMARK SMILES IDX 10 77 11 78 18 79 30 80 19 81 29 82 20 83 12 84 13 85 17 86
REMARK SMILES IDX 14 87 16 88 15 89 21 90 22 91 23 92 24 93 25 94 28 95 26 96
REMARK SMILES IDX 27 97
REMARK H PARENT 3 6 87 24 55 35 8 76
REMARK Flexibility Score: inf
ROOT
ATOM      1  C   UNL A   1      31.764  31.991  26.907  1.00  0.00     0.023 C 
ENDROOT
BRANCH   1   2
ATOM      2  C   UNL A   1      32.925  32.907  27.283  1.00  0.00     0.116 C 
BRANCH   2   3
ATOM      3  N   UNL A   1      32.512  34.222  27.761  1.00  0.00    -0.352 N 
ATOM      4  O   UNL A   1      32.540  36.067  29.064  1.00  0.00    -0.269 OA
ATOM      5  C   UNL A   1      33.066  35.007  28.745  1.00  0.00     0.251 C 
ATOM      6  H   UNL A   1      31.722  34.602  27.314  1.00  0.00     0.163 HD
BRANCH   5   7
ATOM      7  C   UNL A   1      34.273  34.532  29.446  1.00  0.00     0.039 A 
ATOM      8  C   UNL A   1      35.539  34.748  28.894  1.00  0.00     0.014 A 
ATOM      9  C   UNL A   1      34.127  33.806  30.629  1.00  0.00     0.014 A 
ATOM     10  C   UNL A   1      36.641  34.096  29.434  1.00  0.00     0.010 A 
ATOM     11  C   UNL A   1      35.249  33.227  31.220  1.00  0.00     0.010 A 
ATOM     12  C   UNL A   1      36.509  33.334  30.605  1.00  0.00    -0.014 A 
BRANCH  12  13
ATOM     13  C   UNL A   1      37.696  32.691  31.214  1.00  0.00     0.031 A 
ATOM     14  C   UNL A   1      38.400  31.559  30.521  1.00  0.00     0.074 A 
ATOM     15  C   UNL A   1      38.113  33.111  32.422  1.00  0.00     0.049 A 
ATOM     16  N   UNL A   1      39.372  30.798  30.957  1.00  0.00    -0.248 NA
ATOM     17  C   UNL A   1      37.942  31.231  29.163  1.00  0.00     0.031 C 
ATOM     18  C   UNL A   1      37.511  34.207  33.182  1.00  0.00     0.029 A 
ATOM     19  N   UNL A   1      39.124  32.658  33.229  1.00  0.00    -0.354 N 
ATOM     20  C   UNL A   1      39.623  29.883  29.943  1.00  0.00     0.074 A 
ATOM     21  C   UNL A   1      38.685  30.171  28.877  1.00  0.00     0.031 C 
ATOM     22  C   UNL A   1      38.163  34.344  34.344  1.00  0.00     0.029 A 
ATOM     23  C   UNL A   1      39.176  33.300  34.441  1.00  0.00     0.049 A 
ATOM     24  H   UNL A   1      39.749  31.945  32.967  1.00  0.00     0.167 HD
ATOM     25  C   UNL A   1      40.552  28.896  29.911  1.00  0.00     0.037 A 
ATOM     26  C   UNL A   1      39.919  33.046  35.534  1.00  0.00     0.037 A 
ATOM     27  C   UNL A   1      41.478  28.627  30.982  1.00  0.00     0.049 A 
ATOM     28  C   UNL A   1      40.905  31.916  35.498  1.00  0.00     0.074 A 
ATOM     29  C   UNL A   1      42.485  27.679  31.036  1.00  0.00     0.029 A 
ATOM     30  N   UNL A   1      41.498  29.300  32.198  1.00  0.00    -0.354 N 
ATOM     31  N   UNL A   1      41.156  31.073  34.526  1.00  0.00    -0.248 NA
ATOM     32  C   UNL A   1      41.710  31.699  36.706  1.00  0.00     0.031 C 
ATOM     33  C   UNL A   1      43.067  27.732  32.306  1.00  0.00     0.029 A 
ATOM     34  C   UNL A   1      42.476  28.763  33.020  1.00  0.00     0.049 A 
ATOM     35  H   UNL A   1      40.904  30.047  32.440  1.00  0.00     0.167 HD
ATOM     36  C   UNL A   1      42.169  30.246  34.990  1.00  0.00     0.074 A 
ATOM     37  C   UNL A   1      42.484  30.689  36.334  1.00  0.00     0.031 C 
ATOM     38  C   UNL A   1      42.785  29.220  34.353  1.00  0.00     0.037 A 
BRANCH  25  39
ATOM     39  C   UNL A   1      40.578  28.003  28.700  1.00  0.00     0.064 A 
ATOM     40  C   UNL A   1      41.327  28.319  27.555  1.00  0.00     0.173 A 
ATOM     41  C   UNL A   1      39.847  26.805  28.689  1.00  0.00     0.173 A 
ATOM     42  F   UNL A   1      42.040  29.455  27.506  1.00  0.00    -0.203 F 
ATOM     43  C   UNL A   1      41.303  27.496  26.431  1.00  0.00     0.198 A 
ATOM     44  C   UNL A   1      39.856  25.965  27.577  1.00  0.00     0.198 A 
ATOM     45  F   UNL A   1      39.123  26.443  29.758  1.00  0.00    -0.203 F 
ATOM     46  F   UNL A   1      41.971  27.855  25.326  1.00  0.00    -0.200 F 
ATOM     47  C   UNL A   1      40.572  26.318  26.445  1.00  0.00     0.200 A 
ATOM     48  F   UNL A   1      39.162  24.819  27.599  1.00  0.00    -0.200 F 
ATOM     49  F   UNL A   1      40.548  25.529  25.361  1.00  0.00    -0.200 F 
ENDBRANCH  25  39
BRANCH  26  50
ATOM     50  C   UNL A   1      39.724  33.881  36.745  1.00  0.00     0.064 A 
ATOM     51  C   UNL A   1      40.316  35.144  36.853  1.00  0.00     0.173 A 
ATOM     52  C   UNL A   1      38.879  33.461  37.785  1.00  0.00     0.173 A 
ATOM     53  F   UNL A   1      41.139  35.584  35.889  1.00  0.00    -0.203 F 
ATOM     54  C   UNL A   1      40.073  35.958  37.958  1.00  0.00     0.198 A 
ATOM     55  C   UNL A   1      38.614  34.286  38.874  1.00  0.00     0.198 A 
ATOM     56  F   UNL A   1      38.277  32.263  37.719  1.00  0.00    -0.203 F 
ATOM     57  F   UNL A   1      40.669  37.153  38.051  1.00  0.00    -0.200 F 
ATOM     58  C   UNL A   1      39.214  35.533  38.962  1.00  0.00     0.200 A 
ATOM     59  F   UNL A   1      37.764  33.881  39.828  1.00  0.00    -0.200 F 
ATOM     60  F   UNL A   1      38.963  36.325  40.013  1.00  0.00    -0.200 F 
ENDBRANCH  26  50
BRANCH  38  61
ATOM     61  C   UNL A   1      43.907  28.530  35.075  1.00  0.00     0.064 A 
ATOM     62  C   UNL A   1      43.693  27.386  35.856  1.00  0.00     0.173 A 
ATOM     63  C   UNL A   1      45.226  28.979  34.912  1.00  0.00     0.173 A 
ATOM     64  F   UNL A   1      42.449  26.927  36.058  1.00  0.00    -0.203 F 
ATOM     65  C   UNL A   1      44.762  26.721  36.454  1.00  0.00     0.198 A 
ATOM     66  C   UNL A   1      46.293  28.295  35.485  1.00  0.00     0.198 A 
ATOM     67  F   UNL A   1      45.483  30.069  34.171  1.00  0.00    -0.203 F 
ATOM     68  F   UNL A   1      44.533  25.647  37.223  1.00  0.00    -0.200 F 
ATOM     69  C   UNL A   1      46.060  27.167  36.258  1.00  0.00     0.200 A 
ATOM     70  F   UNL A   1      47.548  28.719  35.280  1.00  0.00    -0.200 F 
ATOM     71  F   UNL A   1      47.087  26.513  36.815  1.00  0.00    -0.200 F 
ENDBRANCH  38  61
ENDBRANCH  12  13
ENDBRANCH   5   7
ENDBRANCH   2   3
ENDBRANCH   1   2
BRANCH   1  72
ATOM     72  C   UNL A   1      32.112  30.526  26.662  1.00  0.00     0.023 C 
BRANCH  72  73
ATOM     73  C   UNL A   1      31.559  29.920  25.382  1.00  0.00     0.116 C 
BRANCH  73  74
ATOM     74  N   UNL A   1      32.541  29.370  24.472  1.00  0.00    -0.355 N 
ATOM     75  C   UNL A   1      32.423  28.620  23.339  1.00  0.00     0.230 C 
ATOM     76  H   UNL A   1      33.471  29.578  24.717  1.00  0.00     0.163 HD
ATOM     77  O   UNL A   1      33.416  28.662  22.596  1.00  0.00    -0.274 OA
BRANCH  75  78
ATOM     78  C   UNL A   1      31.229  27.658  22.979  1.00  0.00     0.077 C 
ATOM     79  C   UNL A   1      30.923  26.779  24.242  1.00  0.00     0.038 C 
ATOM     80  C   UNL A   1      31.453  26.595  21.891  1.00  0.00     0.038 C 
ATOM     81  C   UNL A   1      32.065  25.822  24.600  1.00  0.00     0.104 C 
ATOM     82  C   UNL A   1      32.634  25.697  22.186  1.00  0.00     0.104 C 
ATOM     83  N   UNL A   1      32.499  24.961  23.451  1.00  0.00    -0.197 NA
BRANCH  78  84
ATOM     84  C   UNL A   1      30.002  28.563  22.655  1.00  0.00    -0.032 A 
ATOM     85  C   UNL A   1      30.111  29.755  21.916  1.00  0.00     0.005 A 
ATOM     86  C   UNL A   1      28.721  28.236  23.147  1.00  0.00     0.005 A 
ATOM     87  C   UNL A   1      28.992  30.551  21.642  1.00  0.00     0.000 A 
ATOM     88  C   UNL A   1      27.602  29.030  22.872  1.00  0.00     0.000 A 
ATOM     89  C   UNL A   1      27.737  30.185  22.113  1.00  0.00     0.000 A 
ENDBRANCH  78  84
BRANCH  83  90
ATOM     90  S   UNL A   1      33.958  24.091  23.859  1.00  0.00     0.252 S 
ATOM     91  O   UNL A   1      34.785  24.091  22.663  1.00  0.00    -0.206 OA
ATOM     92  O   UNL A   1      34.450  24.591  25.117  1.00  0.00    -0.206 OA
BRANCH  90  93
ATOM     93  C   UNL A   1      33.561  22.352  24.047  1.00  0.00     0.135 A 
ATOM     94  C   UNL A   1      32.466  21.629  23.596  1.00  0.00     0.033 A 
ATOM     95  S   UNL A   1      34.651  21.361  24.905  1.00  0.00    -0.131 S 
ATOM     96  C   UNL A   1      32.520  20.259  23.971  1.00  0.00     0.013 A 
ATOM     97  C   UNL A   1      33.673  19.971  24.667  1.00  0.00     0.066 A 
ENDBRANCH  90  93
ENDBRANCH  83  90
ENDBRANCH  75  78
ENDBRANCH  73  74
ENDBRANCH  72  73
ENDBRANCH   1  72
TORSDOF 14
ENDMDL
MODEL 2
REMARK VINA RESULT:     -13.8      0.273      1.579
REMARK SMILES O=C(NCCCCNC(=O)C1(c2ccccc2)CCN(S(=O)(=O)c2cccs2)CC1)c1ccc(-c2c3nc(c(-c4c(F)c(F)c(F)c(F)c4F)c4ccc([nH]4)c(-c4c(F)c(F)c(F)c(F)c4F)c4nc(c(-c5c(F)c(F)c(F)c(F)c5F)c5ccc2[nH]5)C=C4)C=C3)cc1
REMARK SMILES IDX 5 1 4 2 3 3 1 4 2 5 31 7 32 8 93 9 33 10 92 11 34 12 35 13
REMARK SMILES IDX 36 14 86 15 37 16 91 17 85 18 87 19 38 20 90 21 84 22 83 23
REMARK SMILES IDX 39 25 71 26 51 27 70 28 52 29 55 30 69 31 88 32 53 33 54 34
REMARK SMILES IDX 68 36 89 37 56 38 40 39 41 40 49 41 42 42 43 43 47 44 50 45
REMARK SMILES IDX 44 46 45 47 48 48 46 49 72 50 73 51 81 52 74 53 75 54 79 55
REMARK SMILES IDX 82 56 76 57 77 58 80 59 78 60 57 61 58 62 66 63 59 64 60 65
REMARK SMILES IDX 64 66 67 67 61 68 62 69 65 70 63 71 6 72 7 73 8 74 9 75
REMARK SMILES IDX 10 77 11 78 18 79 30 80 19 81 29 82 20 83 12 84 13 85 17 86
REMARK SMILES IDX 14 87 16 88 15 89 21 90 22 91 23 92 24 93 25 94 28 95 26 96
REMARK SMILES IDX 27 97
REMARK H PARENT 3 6 87 24 55 35 8 76
REMARK Flexibility Score: inf
ROOT
ATOM      1  C   UNL A   1      31.734  32.002  26.918  1.00  0.00     0.023 C 
ENDROOT
BRANCH   1   2
ATOM      2  C   UNL A   1      32.891  32.933  27.266  1.00  0.00     0.116 C 
BRANCH   2   3
ATOM      3  N   UNL A   1      32.472  34.253  27.725  1.00  0.00    -0.352 N 
ATOM      4  O   UNL A   1      32.484  36.112  29.010  1.00  0.00    -0.269 OA
ATOM      5  C   UNL A   1      33.013  35.048  28.708  1.00  0.00     0.251 C 
ATOM      6  H   UNL A   1      31.689  34.629  27.264  1.00  0.00     0.163 HD
BRANCH   5   7
ATOM      7  C   UNL A   1      34.211  34.579  29.430  1.00  0.00     0.039 A 
ATOM      8  C   UNL A   1      35.482  34.761  28.878  1.00  0.00     0.014 A 
ATOM      9  C   UNL A   1      34.050  33.894  30.635  1.00  0.00     0.014 A 
ATOM     10  C   UNL A   1      36.573  34.113  29.444  1.00  0.00     0.010 A 
ATOM     11  C   UNL A   1      35.162  33.319  31.249  1.00  0.00     0.010 A 
ATOM     12  C   UNL A   1      36.425  33.390  30.638  1.00  0.00    -0.014 A 
BRANCH  12  13
ATOM     13  C   UNL A   1      37.602  32.750  31.273  1.00  0.00     0.031 A 
ATOM     14  C   UNL A   1      38.296  31.592  30.617  1.00  0.00     0.074 A 
ATOM     15  C   UNL A   1      38.015  33.200  32.471  1.00  0.00     0.049 A 
ATOM     16  N   UNL A   1      39.257  30.832  31.080  1.00  0.00    -0.248 NA
ATOM     17  C   UNL A   1      37.843  31.231  29.265  1.00  0.00     0.031 C 
ATOM     18  C   UNL A   1      37.421  34.324  33.196  1.00  0.00     0.029 A 
ATOM     19  N   UNL A   1      39.015  32.759  33.298  1.00  0.00    -0.354 N 
ATOM     20  C   UNL A   1      39.503  29.887  30.094  1.00  0.00     0.074 A 
ATOM     21  C   UNL A   1      38.576  30.155  29.015  1.00  0.00     0.031 C 
ATOM     22  C   UNL A   1      38.067  34.486  34.358  1.00  0.00     0.029 A 
ATOM     23  C   UNL A   1      39.067  33.434  34.491  1.00  0.00     0.049 A 
ATOM     24  H   UNL A   1      39.634  32.031  33.060  1.00  0.00     0.167 HD
ATOM     25  C   UNL A   1      40.421  28.888  30.096  1.00  0.00     0.037 A 
ATOM     26  C   UNL A   1      39.800  33.202  35.596  1.00  0.00     0.037 A 
ATOM     27  C   UNL A   1      41.337  28.639  31.181  1.00  0.00     0.049 A 
ATOM     28  C   UNL A   1      40.773  32.061  35.599  1.00  0.00     0.074 A 
ATOM     29  C   UNL A   1      42.333  27.682  31.268  1.00  0.00     0.029 A 
ATOM     30  N   UNL A   1      41.357  29.346  32.378  1.00  0.00    -0.354 N 
ATOM     31  N   UNL A   1      41.021  31.188  34.652  1.00  0.00    -0.248 NA
ATOM     32  C   UNL A   1      41.568  31.869  36.818  1.00  0.00     0.031 C 
ATOM     33  C   UNL A   1      42.907  27.764  32.541  1.00  0.00     0.029 A 
ATOM     34  C   UNL A   1      42.324  28.821  33.221  1.00  0.00     0.049 A 
ATOM     35  H   UNL A   1      40.771  30.106  32.594  1.00  0.00     0.167 HD
ATOM     36  C   UNL A   1      42.021  30.363  35.147  1.00  0.00     0.074 A 
ATOM     37  C   UNL A   1      42.332  30.840  36.479  1.00  0.00     0.031 C 
ATOM     38  C   UNL A   1      42.630  29.313  34.543  1.00  0.00     0.037 A 
BRANCH  25  39
ATOM     39  C   UNL A   1      40.445  27.962  28.911  1.00  0.00     0.064 A 
ATOM     40  C   UNL A   1      41.218  28.228  27.770  1.00  0.00     0.173 A 
ATOM     41  C   UNL A   1      39.687  26.780  28.922  1.00  0.00     0.173 A 
ATOM     42  F   UNL A   1      41.958  29.346  27.701  1.00  0.00    -0.203 F 
ATOM     43  C   UNL A   1      41.192  27.374  26.669  1.00  0.00     0.198 A 
ATOM     44  C   UNL A   1      39.693  25.910  27.834  1.00  0.00     0.198 A 
ATOM     45  F   UNL A   1      38.938  26.466  29.989  1.00  0.00    -0.203 F 
ATOM     46  F   UNL A   1      41.885  27.687  25.565  1.00  0.00    -0.200 F 
ATOM     47  C   UNL A   1      40.434  26.214  26.704  1.00  0.00     0.200 A 
ATOM     48  F   UNL A   1      38.972  24.781  27.877  1.00  0.00    -0.200 F 
ATOM     49  F   UNL A   1      40.408  25.396  25.643  1.00  0.00    -0.200 F 
ENDBRANCH  25  39
BRANCH  26  50
ATOM     50  C   UNL A   1      39.606  34.073  36.782  1.00  0.00     0.064 A 
ATOM     51  C   UNL A   1      38.794  33.670  37.848  1.00  0.00     0.173 A 
ATOM     52  C   UNL A   1      40.291  35.293  36.903  1.00  0.00     0.173 A 
ATOM     53  F   UNL A   1      38.112  32.518  37.773  1.00  0.00    -0.203 F 
ATOM     54  C   UNL A   1      38.672  34.456  38.992  1.00  0.00     0.198 A 
ATOM     55  C   UNL A   1      40.191  36.062  38.058  1.00  0.00     0.198 A 
ATOM     56  F   UNL A   1      41.093  35.714  35.912  1.00  0.00    -0.203 F 
ATOM     57  F   UNL A   1      37.870  34.061  39.991  1.00  0.00    -0.200 F 
ATOM     58  C   UNL A   1      39.378  35.645  39.102  1.00  0.00     0.200 A 
ATOM     59  F   UNL A   1      40.895  37.197  38.168  1.00  0.00    -0.200 F 
ATOM     60  F   UNL A   1      39.278  36.388  40.212  1.00  0.00    -0.200 F 
ENDBRANCH  26  50
BRANCH  38  61
ATOM     61  C   UNL A   1      43.739  28.630  35.291  1.00  0.00     0.064 A 
ATOM     62  C   UNL A   1      45.077  29.020  35.151  1.00  0.00     0.173 A 
ATOM     63  C   UNL A   1      43.440  27.625  36.223  1.00  0.00     0.173 A 
ATOM     64  F   UNL A   1      45.418  29.964  34.260  1.00  0.00    -0.203 F 
ATOM     65  C   UNL A   1      46.079  28.422  35.913  1.00  0.00     0.198 A 
ATOM     66  C   UNL A   1      44.438  27.051  37.004  1.00  0.00     0.198 A 
ATOM     67  F   UNL A   1      42.172  27.218  36.396  1.00  0.00    -0.203 F 
ATOM     68  F   UNL A   1      47.357  28.787  35.741  1.00  0.00    -0.200 F 
ATOM     69  C   UNL A   1      45.757  27.448  36.847  1.00  0.00     0.200 A 
ATOM     70  F   UNL A   1      44.122  26.122  37.917  1.00  0.00    -0.200 F 
ATOM     71  F   UNL A   1      46.719  26.890  37.594  1.00  0.00    -0.200 F 
ENDBRANCH  38  61
ENDBRANCH  12  13
ENDBRANCH   5   7
ENDBRANCH   2   3
ENDBRANCH   1   2
BRANCH   1  72
ATOM     72  C   UNL A   1      32.095  30.543  26.661  1.00  0.00     0.023 C 
BRANCH  72  73
ATOM     73  C   UNL A   1      31.540  29.939  25.381  1.00  0.00     0.116 C 
BRANCH  73  74
ATOM     74  N   UNL A   1      32.521  29.407  24.460  1.00  0.00    -0.355 N 
ATOM     75  C   UNL A   1      32.404  28.665  23.321  1.00  0.00     0.230 C 
ATOM     76  H   UNL A   1      33.451  29.622  24.700  1.00  0.00     0.163 HD
ATOM     77  O   UNL A   1      33.392  28.723  22.572  1.00  0.00    -0.274 OA
BRANCH  75  78
ATOM     78  C   UNL A   1      31.217  27.695  22.961  1.00  0.00     0.077 C 
ATOM     79  C   UNL A   1      30.920  26.809  24.221  1.00  0.00     0.038 C 
ATOM     80  C   UNL A   1      31.447  26.637  21.869  1.00  0.00     0.038 C 
ATOM     81  C   UNL A   1      32.071  25.860  24.575  1.00  0.00     0.104 C 
ATOM     82  C   UNL A   1      32.637  25.747  22.159  1.00  0.00     0.104 C 
ATOM     83  N   UNL A   1      32.510  25.006  23.422  1.00  0.00    -0.197 NA
BRANCH  78  84
ATOM     84  C   UNL A   1      29.982  28.591  22.642  1.00  0.00    -0.032 A 
ATOM     85  C   UNL A   1      30.072  29.760  21.865  1.00  0.00     0.005 A 
ATOM     86  C   UNL A   1      28.715  28.279  23.176  1.00  0.00     0.005 A 
ATOM     87  C   UNL A   1      28.946  30.549  21.597  1.00  0.00     0.000 A 
ATOM     88  C   UNL A   1      27.589  29.066  22.906  1.00  0.00     0.000 A 
ATOM     89  C   UNL A   1      27.704  30.198  22.110  1.00  0.00     0.000 A 
ENDBRANCH  78  84
BRANCH  83  90
ATOM     90  S   UNL A   1      33.976  24.147  23.824  1.00  0.00     0.252 S 
ATOM     91  O   UNL A   1      34.793  24.141  22.621  1.00  0.00    -0.206 OA
ATOM     92  O   UNL A   1      34.477  24.661  25.074  1.00  0.00    -0.206 OA
BRANCH  90  93
ATOM     93  C   UNL A   1      33.589  22.408  24.031  1.00  0.00     0.135 A 
ATOM     94  C   UNL A   1      32.575  21.643  23.474  1.00  0.00     0.033 A 
ATOM     95  S   UNL A   1      34.576  21.476  25.063  1.00  0.00    -0.131 S 
ATOM     96  C   UNL A   1      32.604  20.290  23.909  1.00  0.00     0.013 A 
ATOM     97  C   UNL A   1      33.662  20.056  24.758  1.00  0.00     0.066 A 
ENDBRANCH  90  93
ENDBRANCH  83  90
ENDBRANCH  75  78
ENDBRANCH  73  74
ENDBRANCH  72  73
ENDBRANCH   1  72
TORSDOF 14
ENDMDL
MODEL 3
REMARK VINA RESULT:     -13.8      0.168      1.567
REMARK SMILES O=C(NCCCCNC(=O)C1(c2ccccc2)CCN(S(=O)(=O)c2cccs2)CC1)c1ccc(-c2c3nc(c(-c4c(F)c(F)c(F)c(F)c4F)c4ccc([nH]4)c(-c4c(F)c(F)c(F)c(F)c4F)c4nc(c(-c5c(F)c(F)c(F)c(F)c5F)c5ccc2[nH]5)C=C4)C=C3)cc1
REMARK SMILES IDX 5 1 4 2 3 3 1 4 2 5 31 7 32 8 93 9 33 10 92 11 34 12 35 13
REMARK SMILES IDX 36 14 86 15 37 16 91 17 85 18 87 19 38 20 90 21 84 22 83 23
REMARK SMILES IDX 39 25 71 26 51 27 70 28 52 29 55 30 69 31 88 32 53 33 54 34
REMARK SMILES IDX 68 36 89 37 56 38 40 39 41 40 49 41 42 42 43 43 47 44 50 45
REMARK SMILES IDX 44 46 45 47 48 48 46 49 72 50 73 51 81 52 74 53 75 54 79 55
REMARK SMILES IDX 82 56 76 57 77 58 80 59 78 60 57 61 58 62 66 63 59 64 60 65
REMARK SMILES IDX 64 66 67 67 61 68 62 69 65 70 63 71 6 72 7 73 8 74 9 75
REMARK SMILES IDX 10 77 11 78 18 79 30 80 19 81 29 82 20 83 12 84 13 85 17 86
REMARK SMILES IDX 14 87 16 88 15 89 21 90 22 91 23 92 24 93 25 94 28 95 26 96
REMARK SMILES IDX 27 97
REMARK H PARENT 3 6 87 24 55 35 8 76
REMARK Flexibility Score: inf
ROOT
ATOM      1  C   UNL A   1      31.699  32.123  26.748  1.00  0.00     0.023 C 
ENDROOT
BRANCH   1   2
ATOM      2  C   UNL A   1      32.845  32.953  27.319  1.00  0.00     0.116 C 
BRANCH   2   3
ATOM      3  N   UNL A   1      32.447  34.283  27.768  1.00  0.00    -0.352 N 
ATOM      4  O   UNL A   1      32.500  36.158  29.028  1.00  0.00    -0.269 OA
ATOM      5  C   UNL A   1      33.014  35.085  28.731  1.00  0.00     0.251 C 
ATOM      6  H   UNL A   1      31.659  34.661  27.316  1.00  0.00     0.163 HD
BRANCH   5   7
ATOM      7  C   UNL A   1      34.220  34.614  29.437  1.00  0.00     0.039 A 
ATOM      8  C   UNL A   1      35.482  34.772  28.858  1.00  0.00     0.014 A 
ATOM      9  C   UNL A   1      34.074  33.951  30.657  1.00  0.00     0.014 A 
ATOM     10  C   UNL A   1      36.576  34.119  29.414  1.00  0.00     0.010 A 
ATOM     11  C   UNL A   1      35.190  33.373  31.259  1.00  0.00     0.010 A 
ATOM     12  C   UNL A   1      36.442  33.418  30.622  1.00  0.00    -0.014 A 
BRANCH  12  13
ATOM     13  C   UNL A   1      37.623  32.775  31.246  1.00  0.00     0.031 A 
ATOM     14  C   UNL A   1      38.316  31.623  30.576  1.00  0.00     0.074 A 
ATOM     15  C   UNL A   1      38.043  33.215  32.445  1.00  0.00     0.049 A 
ATOM     16  N   UNL A   1      39.280  30.861  31.028  1.00  0.00    -0.248 NA
ATOM     17  C   UNL A   1      37.856  31.273  29.224  1.00  0.00     0.031 C 
ATOM     18  C   UNL A   1      37.451  34.333  33.183  1.00  0.00     0.029 A 
ATOM     19  N   UNL A   1      39.048  32.769  33.263  1.00  0.00    -0.354 N 
ATOM     20  C   UNL A   1      39.523  29.925  30.032  1.00  0.00     0.074 A 
ATOM     21  C   UNL A   1      38.589  30.200  28.960  1.00  0.00     0.031 C 
ATOM     22  C   UNL A   1      38.103  34.486  34.342  1.00  0.00     0.029 A 
ATOM     23  C   UNL A   1      39.105  33.434  34.462  1.00  0.00     0.049 A 
ATOM     24  H   UNL A   1      39.667  32.044  33.015  1.00  0.00     0.167 HD
ATOM     25  C   UNL A   1      40.442  28.927  30.021  1.00  0.00     0.037 A 
ATOM     26  C   UNL A   1      39.845  33.194  35.560  1.00  0.00     0.037 A 
ATOM     27  C   UNL A   1      41.364  28.671  31.098  1.00  0.00     0.049 A 
ATOM     28  C   UNL A   1      40.820  32.054  35.548  1.00  0.00     0.074 A 
ATOM     29  C   UNL A   1      42.362  27.714  31.173  1.00  0.00     0.029 A 
ATOM     30  N   UNL A   1      41.390  29.367  32.301  1.00  0.00    -0.354 N 
ATOM     31  N   UNL A   1      41.064  31.190  34.593  1.00  0.00    -0.248 NA
ATOM     32  C   UNL A   1      41.622  31.854  36.761  1.00  0.00     0.031 C 
ATOM     33  C   UNL A   1      42.943  27.787  32.442  1.00  0.00     0.029 A 
ATOM     34  C   UNL A   1      42.362  28.837  33.135  1.00  0.00     0.049 A 
ATOM     35  H   UNL A   1      40.804  30.125  32.527  1.00  0.00     0.167 HD
ATOM     36  C   UNL A   1      42.067  30.362  35.075  1.00  0.00     0.074 A 
ATOM     37  C   UNL A   1      42.386  30.828  36.409  1.00  0.00     0.031 C 
ATOM     38  C   UNL A   1      42.675  29.318  34.459  1.00  0.00     0.037 A 
BRANCH  25  39
ATOM     39  C   UNL A   1      40.460  28.010  28.828  1.00  0.00     0.064 A 
ATOM     40  C   UNL A   1      39.734  26.810  28.798  1.00  0.00     0.173 A 
ATOM     41  C   UNL A   1      41.213  28.345  27.691  1.00  0.00     0.173 A 
ATOM     42  F   UNL A   1      39.002  26.435  29.858  1.00  0.00    -0.203 F 
ATOM     43  C   UNL A   1      39.800  25.959  27.696  1.00  0.00     0.198 A 
ATOM     44  C   UNL A   1      41.246  27.510  26.577  1.00  0.00     0.198 A 
ATOM     45  F   UNL A   1      41.917  29.486  27.657  1.00  0.00    -0.203 F 
ATOM     46  F   UNL A   1      39.152  24.785  27.720  1.00  0.00    -0.200 F 
ATOM     47  C   UNL A   1      40.551  26.311  26.586  1.00  0.00     0.200 A 
ATOM     48  F   UNL A   1      41.959  27.861  25.498  1.00  0.00    -0.200 F 
ATOM     49  F   UNL A   1      40.616  25.489  25.529  1.00  0.00    -0.200 F 
ENDBRANCH  25  39
BRANCH  26  50
ATOM     50  C   UNL A   1      39.657  34.055  36.754  1.00  0.00     0.064 A 
ATOM     51  C   UNL A   1      38.839  33.648  37.815  1.00  0.00     0.173 A 
ATOM     52  C   UNL A   1      40.352  35.268  36.888  1.00  0.00     0.173 A 
ATOM     53  F   UNL A   1      38.147  32.503  37.727  1.00  0.00    -0.203 F 
ATOM     54  C   UNL A   1      38.722  34.424  38.967  1.00  0.00     0.198 A 
ATOM     55  C   UNL A   1      40.256  36.026  38.051  1.00  0.00     0.198 A 
ATOM     56  F   UNL A   1      41.159  35.692  35.904  1.00  0.00    -0.203 F 
ATOM     57  F   UNL A   1      37.915  34.025  39.960  1.00  0.00    -0.200 F 
ATOM     58  C   UNL A   1      39.438  35.606  39.089  1.00  0.00     0.200 A 
ATOM     59  F   UNL A   1      40.970  37.154  38.173  1.00  0.00    -0.200 F 
ATOM     60  F   UNL A   1      39.342  36.339  40.206  1.00  0.00    -0.200 F 
ENDBRANCH  26  50
BRANCH  38  61
ATOM     61  C   UNL A   1      43.788  28.631  35.195  1.00  0.00     0.064 A 
ATOM     62  C   UNL A   1      43.552  27.555  36.061  1.00  0.00     0.173 A 
ATOM     63  C   UNL A   1      45.119  29.010  34.964  1.00  0.00     0.173 A 
ATOM     64  F   UNL A   1      42.297  27.165  36.329  1.00  0.00    -0.203 F 
ATOM     65  C   UNL A   1      44.610  26.886  36.674  1.00  0.00     0.198 A 
ATOM     66  C   UNL A   1      46.175  28.321  35.553  1.00  0.00     0.198 A 
ATOM     67  F   UNL A   1      45.398  30.034  34.141  1.00  0.00    -0.203 F 
ATOM     68  F   UNL A   1      44.361  25.879  37.522  1.00  0.00    -0.200 F 
ATOM     69  C   UNL A   1      45.919  27.261  36.410  1.00  0.00     0.200 A 
ATOM     70  F   UNL A   1      47.438  28.675  35.284  1.00  0.00    -0.200 F 
ATOM     71  F   UNL A   1      46.935  26.602  36.983  1.00  0.00    -0.200 F 
ENDBRANCH  38  61
ENDBRANCH  12  13
ENDBRANCH   5   7
ENDBRANCH   2   3
ENDBRANCH   1   2
BRANCH   1  72
ATOM     72  C   UNL A   1      31.948  30.624  26.624  1.00  0.00     0.023 C 
BRANCH  72  73
ATOM     73  C   UNL A   1      31.445  29.973  25.345  1.00  0.00     0.116 C 
BRANCH  73  74
ATOM     74  N   UNL A   1      32.463  29.407  24.486  1.00  0.00    -0.355 N 
ATOM     75  C   UNL A   1      32.391  28.642  23.359  1.00  0.00     0.230 C 
ATOM     76  H   UNL A   1      33.382  29.614  24.768  1.00  0.00     0.163 HD
ATOM     77  O   UNL A   1      33.415  28.670  22.660  1.00  0.00    -0.274 OA
BRANCH  75  78
ATOM     78  C   UNL A   1      31.209  27.681  22.961  1.00  0.00     0.077 C 
ATOM     79  C   UNL A   1      30.885  26.775  24.201  1.00  0.00     0.038 C 
ATOM     80  C   UNL A   1      31.457  26.640  21.856  1.00  0.00     0.038 C 
ATOM     81  C   UNL A   1      32.028  25.818  24.560  1.00  0.00     0.104 C 
ATOM     82  C   UNL A   1      32.638  25.742  22.154  1.00  0.00     0.104 C 
ATOM     83  N   UNL A   1      32.486  24.982  23.403  1.00  0.00    -0.197 NA
BRANCH  78  84
ATOM     84  C   UNL A   1      29.982  28.585  22.633  1.00  0.00    -0.032 A 
ATOM     85  C   UNL A   1      30.085  29.752  21.855  1.00  0.00     0.005 A 
ATOM     86  C   UNL A   1      28.709  28.284  23.160  1.00  0.00     0.005 A 
ATOM     87  C   UNL A   1      28.966  30.549  21.579  1.00  0.00     0.000 A 
ATOM     88  C   UNL A   1      27.590  29.078  22.882  1.00  0.00     0.000 A 
ATOM     89  C   UNL A   1      27.719  30.208  22.085  1.00  0.00     0.000 A 
ENDBRANCH  78  84
BRANCH  83  90
ATOM     90  S   UNL A   1      33.942  24.112  23.818  1.00  0.00     0.252 S 
ATOM     91  O   UNL A   1      34.776  24.112  22.627  1.00  0.00    -0.206 OA
ATOM     92  O   UNL A   1      34.428  24.613  25.079  1.00  0.00    -0.206 OA
BRANCH  90  93
ATOM     93  C   UNL A   1      33.544  22.373  24.005  1.00  0.00     0.135 A 
ATOM     94  C   UNL A   1      32.505  21.629  23.466  1.00  0.00     0.033 A 
ATOM     95  S   UNL A   1      34.553  21.412  24.988  1.00  0.00    -0.131 S 
ATOM     96  C   UNL A   1      32.534  20.267  23.874  1.00  0.00     0.013 A 
ATOM     97  C   UNL A   1      33.615  20.007  24.687  1.00  0.00     0.066 A 
ENDBRANCH  90  93
ENDBRANCH  83  90
ENDBRANCH  75  78
ENDBRANCH  73  74
ENDBRANCH  72  73
ENDBRANCH   1  72
TORSDOF 14
ENDMDL
