MODEL 1
REMARK VINA RESULT:      -9.7      0.000      0.000
REMARK SMILES COc1cc([C@H]2CC(c3ccc(S(C)(=O)=O)cc3)=NN2c2ccc(C(=O)NCCCCNC(=O)c3ccc(-c4c5nc(c(-c6c(F)c(F)c(F)c(F)c6F)c6ccc([nH]6)c(-c6c(F)c(F)c(F)c(F)c6F)c6nc(c(-c7c(F)c(F)c(F)c(F)c7F)c7ccc4[nH]7)C=C6)C=C5)cc3)cc2)cc(OC)c1OC
REMARK SMILES IDX 29 1 28 2 27 3 25 4 26 5 24 7 21 8 22 9 99 10 23 11 98 12
REMARK SMILES IDX 20 13 6 14 7 15 8 16 19 17 5 18 3 19 4 20 104 21 101 22
REMARK SMILES IDX 100 23 2 24 1 25 105 26 106 27 102 28 103 29 9 30 10 31
REMARK SMILES IDX 18 32 11 33 17 34 12 35 13 36 14 37 15 38 16 39 30 40 31 41
REMARK SMILES IDX 32 42 33 43 34 45 35 46 36 47 97 48 37 49 96 50 38 51 39 52
REMARK SMILES IDX 40 53 90 54 41 55 95 56 89 57 91 58 42 59 94 60 88 61 87 62
REMARK SMILES IDX 43 64 75 65 55 66 74 67 56 68 59 69 73 70 92 71 57 72 58 73
REMARK SMILES IDX 72 75 93 76 60 77 44 78 45 79 53 80 46 81 47 82 51 83 54 84
REMARK SMILES IDX 48 85 49 86 52 87 50 88 76 89 77 90 85 91 78 92 79 93 83 94
REMARK SMILES IDX 86 95 80 96 81 97 84 98 82 99 61 100 62 101 70 102 63 103
REMARK SMILES IDX 64 104 68 105 71 106 65 107 66 108 69 109 67 110
REMARK H PARENT 27 6 32 44 91 63 59 74
REMARK Flexibility Score: inf
ROOT
ATOM      1  C   UNL A   1      35.583  33.731  30.754  1.00  0.00     0.023 C 
ENDROOT
BRANCH   1   2
ATOM      2  C   UNL A   1      36.556  32.959  31.649  1.00  0.00     0.116 C 
BRANCH   2   3
ATOM      3  N   UNL A   1      36.898  33.753  32.810  1.00  0.00    -0.352 N 
ATOM      4  C   UNL A   1      38.042  34.434  33.140  1.00  0.00     0.251 C 
ATOM      5  O   UNL A   1      38.060  35.023  34.222  1.00  0.00    -0.269 OA
ATOM      6  H   UNL A   1      36.182  33.815  33.482  1.00  0.00     0.163 HD
BRANCH   4   7
ATOM      7  C   UNL A   1      39.209  34.546  32.222  1.00  0.00     0.039 A 
ATOM      8  C   UNL A   1      41.305  34.544  30.339  1.00  0.00     0.060 A 
ATOM      9  C   UNL A   1      39.972  34.615  29.922  1.00  0.00     0.029 A 
ATOM     10  C   UNL A   1      41.581  34.564  31.702  1.00  0.00     0.029 A 
ATOM     11  C   UNL A   1      38.932  34.596  30.852  1.00  0.00     0.016 A 
ATOM     12  C   UNL A   1      40.544  34.608  32.635  1.00  0.00     0.016 A 
BRANCH   8  13
ATOM     13  N   UNL A   1      42.314  34.451  29.400  1.00  0.00    -0.257 N 
ATOM     14  C   UNL A   1      42.590  35.459  28.374  1.00  0.00     0.144 C 
ATOM     15  C   UNL A   1      43.778  34.818  27.627  1.00  0.00     0.091 C 
ATOM     16  C   UNL A   1      43.732  33.428  28.212  1.00  0.00     0.071 C 
ATOM     17  N   UNL A   1      42.908  33.256  29.195  1.00  0.00    -0.176 NA
BRANCH  14  18
ATOM     18  C   UNL A   1      42.850  36.817  29.014  1.00  0.00    -0.015 A 
ATOM     19  C   UNL A   1      44.181  38.252  30.492  1.00  0.00     0.164 A 
ATOM     20  C   UNL A   1      43.789  36.972  30.047  1.00  0.00     0.056 A 
ATOM     21  C   UNL A   1      43.656  39.418  29.902  1.00  0.00     0.203 A 
ATOM     22  C   UNL A   1      42.691  39.263  28.886  1.00  0.00     0.164 A 
ATOM     23  C   UNL A   1      42.295  37.980  28.470  1.00  0.00     0.056 A 
BRANCH  19  24
ATOM     24  O   UNL A   1      45.224  38.296  31.385  1.00  0.00    -0.493 OA
ATOM     25  C   UNL A   1      46.486  38.060  30.759  1.00  0.00     0.278 C 
ENDBRANCH  19  24
BRANCH  21  26
ATOM     26  O   UNL A   1      44.029  40.703  30.178  1.00  0.00    -0.490 OA
ATOM     27  C   UNL A   1      45.087  41.337  29.486  1.00  0.00     0.278 C 
ENDBRANCH  21  26
BRANCH  22  28
ATOM     28  O   UNL A   1      42.035  40.239  28.174  1.00  0.00    -0.493 OA
ATOM     29  C   UNL A   1      40.837  40.789  28.700  1.00  0.00     0.278 C 
ENDBRANCH  22  28
ENDBRANCH  14  18
BRANCH  16  30
ATOM     30  C   UNL A   1      44.560  32.324  27.708  1.00  0.00    -0.002 A 
ATOM     31  C   UNL A   1      45.299  32.525  26.534  1.00  0.00     0.011 A 
ATOM     32  C   UNL A   1      44.530  31.074  28.326  1.00  0.00     0.011 A 
ATOM     33  C   UNL A   1      46.030  31.473  25.982  1.00  0.00     0.021 A 
ATOM     34  C   UNL A   1      45.241  30.011  27.759  1.00  0.00     0.021 A 
ATOM     35  C   UNL A   1      45.984  30.215  26.590  1.00  0.00     0.067 A 
BRANCH  35  36
ATOM     36  S   UNL A   1      46.906  28.871  25.877  1.00  0.00     0.175 S 
ATOM     37  C   UNL A   1      46.213  27.412  26.610  1.00  0.00     0.163 C 
ATOM     38  O   UNL A   1      46.595  28.863  24.458  1.00  0.00    -0.224 OA
ATOM     39  O   UNL A   1      48.273  28.985  26.339  1.00  0.00    -0.224 OA
ENDBRANCH  35  36
ENDBRANCH  16  30
ENDBRANCH   8  13
ENDBRANCH   4   7
ENDBRANCH   2   3
ENDBRANCH   1   2
BRANCH   1  40
ATOM     40  C   UNL A   1      34.572  32.838  30.034  1.00  0.00     0.023 C 
BRANCH  40  41
ATOM     41  C   UNL A   1      34.971  32.462  28.615  1.00  0.00     0.116 C 
BRANCH  41  42
ATOM     42  N   UNL A   1      34.322  31.248  28.138  1.00  0.00    -0.352 N 
ATOM     43  C   UNL A   1      34.869  29.994  28.015  1.00  0.00     0.251 C 
ATOM     44  H   UNL A   1      33.379  31.337  27.871  1.00  0.00     0.163 HD
ATOM     45  O   UNL A   1      34.245  29.076  27.498  1.00  0.00    -0.269 OA
BRANCH  43  46
ATOM     46  C   UNL A   1      36.251  29.789  28.485  1.00  0.00     0.039 A 
ATOM     47  C   UNL A   1      36.464  29.316  29.780  1.00  0.00     0.014 A 
ATOM     48  C   UNL A   1      37.319  29.973  27.604  1.00  0.00     0.014 A 
ATOM     49  C   UNL A   1      37.753  28.954  30.173  1.00  0.00     0.010 A 
ATOM     50  C   UNL A   1      38.587  29.541  27.971  1.00  0.00     0.010 A 
ATOM     51  C   UNL A   1      38.815  29.024  29.256  1.00  0.00    -0.014 A 
BRANCH  51  52
ATOM     52  C   UNL A   1      40.182  28.569  29.608  1.00  0.00     0.031 A 
ATOM     53  C   UNL A   1      41.058  29.445  30.457  1.00  0.00     0.074 A 
ATOM     54  C   UNL A   1      40.664  27.422  29.090  1.00  0.00     0.049 A 
ATOM     55  N   UNL A   1      42.323  29.309  30.759  1.00  0.00    -0.248 NA
ATOM     56  C   UNL A   1      40.434  30.657  31.011  1.00  0.00     0.031 C 
ATOM     57  C   UNL A   1      39.921  26.505  28.226  1.00  0.00     0.029 A 
ATOM     58  N   UNL A   1      41.905  26.845  29.197  1.00  0.00    -0.354 N 
ATOM     59  C   UNL A   1      42.650  30.425  31.517  1.00  0.00     0.074 A 
ATOM     60  C   UNL A   1      41.466  31.254  31.586  1.00  0.00     0.031 C 
ATOM     61  C   UNL A   1      40.714  25.475  27.891  1.00  0.00     0.029 A 
ATOM     62  C   UNL A   1      42.036  25.683  28.476  1.00  0.00     0.049 A 
ATOM     63  H   UNL A   1      42.631  27.228  29.740  1.00  0.00     0.167 HD
ATOM     64  C   UNL A   1      43.826  30.720  32.119  1.00  0.00     0.037 A 
ATOM     65  C   UNL A   1      43.108  24.889  28.293  1.00  0.00     0.037 A 
ATOM     66  C   UNL A   1      44.990  29.876  32.068  1.00  0.00     0.049 A 
ATOM     67  C   UNL A   1      44.412  25.250  28.955  1.00  0.00     0.074 A 
ATOM     68  C   UNL A   1      46.211  30.055  32.694  1.00  0.00     0.029 A 
ATOM     69  N   UNL A   1      45.078  28.695  31.346  1.00  0.00    -0.354 N 
ATOM     70  N   UNL A   1      44.693  26.276  29.722  1.00  0.00    -0.248 NA
ATOM     71  C   UNL A   1      45.547  24.345  28.726  1.00  0.00     0.031 C 
ATOM     72  C   UNL A   1      47.055  29.011  32.307  1.00  0.00     0.029 A 
ATOM     73  C   UNL A   1      46.342  28.147  31.490  1.00  0.00     0.049 A 
ATOM     74  H   UNL A   1      44.350  28.304  30.811  1.00  0.00     0.167 HD
ATOM     75  C   UNL A   1      46.021  26.121  30.096  1.00  0.00     0.074 A 
ATOM     76  C   UNL A   1      46.489  24.898  29.477  1.00  0.00     0.031 C 
ATOM     77  C   UNL A   1      46.784  26.917  30.883  1.00  0.00     0.037 A 
BRANCH  64  78
ATOM     78  C   UNL A   1      43.912  32.010  32.882  1.00  0.00     0.064 A 
ATOM     79  C   UNL A   1      44.584  33.129  32.367  1.00  0.00     0.173 A 
ATOM     80  C   UNL A   1      43.284  32.140  34.130  1.00  0.00     0.173 A 
ATOM     81  F   UNL A   1      45.210  33.055  31.183  1.00  0.00    -0.203 F 
ATOM     82  C   UNL A   1      44.651  34.319  33.087  1.00  0.00     0.198 A 
ATOM     83  C   UNL A   1      43.324  33.341  34.832  1.00  0.00     0.198 A 
ATOM     84  F   UNL A   1      42.624  31.102  34.668  1.00  0.00    -0.203 F 
ATOM     85  F   UNL A   1      45.344  35.357  32.599  1.00  0.00    -0.200 F 
ATOM     86  C   UNL A   1      44.015  34.428  34.314  1.00  0.00     0.200 A 
ATOM     87  F   UNL A   1      42.698  33.448  36.012  1.00  0.00    -0.200 F 
ATOM     88  F   UNL A   1      44.073  35.575  35.002  1.00  0.00    -0.200 F 
ENDBRANCH  64  78
BRANCH  65  89
ATOM     89  C   UNL A   1      42.995  23.665  27.456  1.00  0.00     0.064 A 
ATOM     90  C   UNL A   1      42.502  22.468  27.995  1.00  0.00     0.173 A 
ATOM     91  C   UNL A   1      43.385  23.660  26.108  1.00  0.00     0.173 A 
ATOM     92  F   UNL A   1      42.135  22.417  29.284  1.00  0.00    -0.203 F 
ATOM     93  C   UNL A   1      42.425  21.308  27.226  1.00  0.00     0.198 A 
ATOM     94  C   UNL A   1      43.280  22.507  25.332  1.00  0.00     0.198 A 
ATOM     95  F   UNL A   1      43.860  24.778  25.541  1.00  0.00    -0.203 F 
ATOM     96  F   UNL A   1      41.997  20.167  27.782  1.00  0.00    -0.200 F 
ATOM     97  C   UNL A   1      42.809  21.329  25.895  1.00  0.00     0.200 A 
ATOM     98  F   UNL A   1      43.638  22.535  24.041  1.00  0.00    -0.200 F 
ATOM     99  F   UNL A   1      42.733  20.214  25.155  1.00  0.00    -0.200 F 
ENDBRANCH  65  89
BRANCH  77 100
ATOM    100  C   UNL A   1      48.189  26.473  31.172  1.00  0.00     0.064 A 
ATOM    101  C   UNL A   1      48.499  25.673  32.280  1.00  0.00     0.173 A 
ATOM    102  C   UNL A   1      49.227  26.799  30.284  1.00  0.00     0.173 A 
ATOM    103  F   UNL A   1      47.545  25.347  33.167  1.00  0.00    -0.203 F 
ATOM    104  C   UNL A   1      49.800  25.226  32.497  1.00  0.00     0.198 A 
ATOM    105  C   UNL A   1      50.518  26.325  30.487  1.00  0.00     0.198 A 
ATOM    106  F   UNL A   1      48.980  27.557  29.205  1.00  0.00    -0.203 F 
ATOM    107  F   UNL A   1      50.082  24.493  33.583  1.00  0.00    -0.200 F 
ATOM    108  C   UNL A   1      50.805  25.543  31.595  1.00  0.00     0.200 A 
ATOM    109  F   UNL A   1      51.485  26.617  29.605  1.00  0.00    -0.200 F 
ATOM    110  F   UNL A   1      52.053  25.096  31.796  1.00  0.00    -0.200 F 
ENDBRANCH  77 100
ENDBRANCH  51  52
ENDBRANCH  43  46
ENDBRANCH  41  42
ENDBRANCH  40  41
ENDBRANCH   1  40
TORSDOF 18
ENDMDL
MODEL 2
REMARK VINA RESULT:      -9.3      5.630     10.937
REMARK SMILES COc1cc([C@H]2CC(c3ccc(S(C)(=O)=O)cc3)=NN2c2ccc(C(=O)NCCCCNC(=O)c3ccc(-c4c5nc(c(-c6c(F)c(F)c(F)c(F)c6F)c6ccc([nH]6)c(-c6c(F)c(F)c(F)c(F)c6F)c6nc(c(-c7c(F)c(F)c(F)c(F)c7F)c7ccc4[nH]7)C=C6)C=C5)cc3)cc2)cc(OC)c1OC
REMARK SMILES IDX 29 1 28 2 27 3 25 4 26 5 24 7 21 8 22 9 99 10 23 11 98 12
REMARK SMILES IDX 20 13 6 14 7 15 8 16 19 17 5 18 3 19 4 20 104 21 101 22
REMARK SMILES IDX 100 23 2 24 1 25 105 26 106 27 102 28 103 29 9 30 10 31
REMARK SMILES IDX 18 32 11 33 17 34 12 35 13 36 14 37 15 38 16 39 30 40 31 41
REMARK SMILES IDX 32 42 33 43 34 45 35 46 36 47 97 48 37 49 96 50 38 51 39 52
REMARK SMILES IDX 40 53 90 54 41 55 95 56 89 57 91 58 42 59 94 60 88 61 87 62
REMARK SMILES IDX 43 64 75 65 55 66 74 67 56 68 59 69 73 70 92 71 57 72 58 73
REMARK SMILES IDX 72 75 93 76 60 77 44 78 45 79 53 80 46 81 47 82 51 83 54 84
REMARK SMILES IDX 48 85 49 86 52 87 50 88 76 89 77 90 85 91 78 92 79 93 83 94
REMARK SMILES IDX 86 95 80 96 81 97 84 98 82 99 61 100 62 101 70 102 63 103
REMARK SMILES IDX 64 104 68 105 71 106 65 107 66 108 69 109 67 110
REMARK H PARENT 27 6 32 44 91 63 59 74
REMARK Flexibility Score: inf
ROOT
ATOM      1  C   UNL A   1      36.874  21.826  24.745  1.00  0.00     0.023 C 
ENDROOT
BRANCH   1   2
ATOM      2  C   UNL A   1      35.739  21.235  25.585  1.00  0.00     0.116 C 
BRANCH   2   3
ATOM      3  N   UNL A   1      34.623  20.883  24.732  1.00  0.00    -0.352 N 
ATOM      4  C   UNL A   1      33.551  21.618  24.289  1.00  0.00     0.251 C 
ATOM      5  O   UNL A   1      32.729  21.046  23.571  1.00  0.00    -0.269 OA
ATOM      6  H   UNL A   1      34.635  19.953  24.412  1.00  0.00     0.163 HD
BRANCH   4   7
ATOM      7  C   UNL A   1      33.391  23.069  24.579  1.00  0.00     0.039 A 
ATOM      8  C   UNL A   1      33.355  25.849  25.043  1.00  0.00     0.060 A 
ATOM      9  C   UNL A   1      33.756  25.337  23.804  1.00  0.00     0.029 A 
ATOM     10  C   UNL A   1      32.890  24.965  26.012  1.00  0.00     0.029 A 
ATOM     11  C   UNL A   1      33.793  23.961  23.578  1.00  0.00     0.016 A 
ATOM     12  C   UNL A   1      32.868  23.592  25.766  1.00  0.00     0.016 A 
BRANCH   8  13
ATOM     13  N   UNL A   1      33.432  27.206  25.282  1.00  0.00    -0.257 N 
ATOM     14  C   UNL A   1      33.159  28.243  24.284  1.00  0.00     0.144 C 
ATOM     15  C   UNL A   1      33.420  29.528  25.097  1.00  0.00     0.091 C 
ATOM     16  C   UNL A   1      34.081  28.933  26.316  1.00  0.00     0.071 C 
ATOM     17  N   UNL A   1      34.072  27.641  26.389  1.00  0.00    -0.176 NA
BRANCH  14  18
ATOM     18  C   UNL A   1      31.755  28.080  23.713  1.00  0.00    -0.015 A 
ATOM     19  C   UNL A   1      29.490  27.154  23.872  1.00  0.00     0.164 A 
ATOM     20  C   UNL A   1      30.847  27.157  24.257  1.00  0.00     0.056 A 
ATOM     21  C   UNL A   1      28.997  28.088  22.940  1.00  0.00     0.203 A 
ATOM     22  C   UNL A   1      29.915  28.996  22.372  1.00  0.00     0.164 A 
ATOM     23  C   UNL A   1      31.268  28.970  22.751  1.00  0.00     0.056 A 
BRANCH  19  24
ATOM     24  O   UNL A   1      28.654  26.327  24.582  1.00  0.00    -0.493 OA
ATOM     25  C   UNL A   1      29.350  25.578  25.579  1.00  0.00     0.278 C 
ENDBRANCH  19  24
BRANCH  21  26
ATOM     26  O   UNL A   1      27.693  28.246  22.565  1.00  0.00    -0.490 OA
ATOM     27  C   UNL A   1      26.767  28.953  23.366  1.00  0.00     0.278 C 
ENDBRANCH  21  26
BRANCH  22  28
ATOM     28  O   UNL A   1      29.678  29.984  21.446  1.00  0.00    -0.493 OA
ATOM     29  C   UNL A   1      29.149  31.226  21.884  1.00  0.00     0.278 C 
ENDBRANCH  22  28
ENDBRANCH  14  18
BRANCH  16  30
ATOM     30  C   UNL A   1      34.705  29.751  27.364  1.00  0.00    -0.002 A 
ATOM     31  C   UNL A   1      34.159  31.013  27.639  1.00  0.00     0.011 A 
ATOM     32  C   UNL A   1      35.873  29.327  27.996  1.00  0.00     0.011 A 
ATOM     33  C   UNL A   1      34.775  31.851  28.569  1.00  0.00     0.021 A 
ATOM     34  C   UNL A   1      36.507  30.177  28.909  1.00  0.00     0.021 A 
ATOM     35  C   UNL A   1      35.957  31.434  29.188  1.00  0.00     0.067 A 
BRANCH  35  36
ATOM     36  S   UNL A   1      36.748  32.509  30.363  1.00  0.00     0.175 S 
ATOM     37  C   UNL A   1      35.739  32.404  31.819  1.00  0.00     0.163 C 
ATOM     38  O   UNL A   1      38.042  31.917  30.659  1.00  0.00    -0.224 OA
ATOM     39  O   UNL A   1      36.646  33.862  29.858  1.00  0.00    -0.224 OA
ENDBRANCH  35  36
ENDBRANCH  16  30
ENDBRANCH   8  13
ENDBRANCH   4   7
ENDBRANCH   2   3
ENDBRANCH   1   2
BRANCH   1  40
ATOM     40  C   UNL A   1      37.665  22.917  25.466  1.00  0.00     0.023 C 
BRANCH  40  41
ATOM     41  C   UNL A   1      38.958  22.432  26.106  1.00  0.00     0.116 C 
BRANCH  41  42
ATOM     42  N   UNL A   1      39.212  21.015  25.886  1.00  0.00    -0.352 N 
ATOM     43  C   UNL A   1      40.389  20.332  26.076  1.00  0.00     0.251 C 
ATOM     44  H   UNL A   1      38.449  20.483  25.564  1.00  0.00     0.163 HD
ATOM     45  O   UNL A   1      40.501  19.156  25.752  1.00  0.00    -0.269 OA
BRANCH  43  46
ATOM     46  C   UNL A   1      41.535  21.065  26.643  1.00  0.00     0.039 A 
ATOM     47  C   UNL A   1      42.734  21.105  25.932  1.00  0.00     0.014 A 
ATOM     48  C   UNL A   1      41.379  21.789  27.827  1.00  0.00     0.014 A 
ATOM     49  C   UNL A   1      43.764  21.937  26.374  1.00  0.00     0.010 A 
ATOM     50  C   UNL A   1      42.374  22.673  28.222  1.00  0.00     0.010 A 
ATOM     51  C   UNL A   1      43.574  22.758  27.498  1.00  0.00    -0.014 A 
BRANCH  51  52
ATOM     52  C   UNL A   1      44.611  23.718  27.948  1.00  0.00     0.031 A 
ATOM     53  C   UNL A   1      44.741  24.034  29.411  1.00  0.00     0.074 A 
ATOM     54  C   UNL A   1      45.363  24.372  27.041  1.00  0.00     0.049 A 
ATOM     55  N   UNL A   1      45.474  24.943  30.000  1.00  0.00    -0.248 NA
ATOM     56  C   UNL A   1      43.907  23.243  30.330  1.00  0.00     0.031 C 
ATOM     57  C   UNL A   1      45.303  24.175  25.592  1.00  0.00     0.029 A 
ATOM     58  N   UNL A   1      46.311  25.351  27.204  1.00  0.00    -0.354 N 
ATOM     59  C   UNL A   1      45.172  24.847  31.352  1.00  0.00     0.074 A 
ATOM     60  C   UNL A   1      44.154  23.829  31.490  1.00  0.00     0.031 C 
ATOM     61  C   UNL A   1      46.183  24.999  25.000  1.00  0.00     0.029 A 
ATOM     62  C   UNL A   1      46.834  25.814  26.022  1.00  0.00     0.049 A 
ATOM     63  H   UNL A   1      46.588  25.690  28.086  1.00  0.00     0.167 HD
ATOM     64  C   UNL A   1      45.714  25.533  32.387  1.00  0.00     0.037 A 
ATOM     65  C   UNL A   1      47.723  26.799  25.790  1.00  0.00     0.037 A 
ATOM     66  C   UNL A   1      46.746  26.524  32.242  1.00  0.00     0.049 A 
ATOM     67  C   UNL A   1      48.293  27.563  26.956  1.00  0.00     0.074 A 
ATOM     68  C   UNL A   1      47.404  27.232  33.232  1.00  0.00     0.029 A 
ATOM     69  N   UNL A   1      47.268  26.951  31.030  1.00  0.00    -0.354 N 
ATOM     70  N   UNL A   1      48.048  27.422  28.236  1.00  0.00    -0.248 NA
ATOM     71  C   UNL A   1      49.263  28.622  26.646  1.00  0.00     0.031 C 
ATOM     72  C   UNL A   1      48.284  28.126  32.617  1.00  0.00     0.029 A 
ATOM     73  C   UNL A   1      48.222  27.931  31.246  1.00  0.00     0.049 A 
ATOM     74  H   UNL A   1      47.000  26.607  30.147  1.00  0.00     0.167 HD
ATOM     75  C   UNL A   1      48.858  28.346  28.884  1.00  0.00     0.074 A 
ATOM     76  C   UNL A   1      49.607  29.038  27.856  1.00  0.00     0.031 C 
ATOM     77  C   UNL A   1      48.973  28.595  30.211  1.00  0.00     0.037 A 
BRANCH  64  78
ATOM     78  C   UNL A   1      45.196  25.235  33.765  1.00  0.00     0.064 A 
ATOM     79  C   UNL A   1      45.796  24.269  34.586  1.00  0.00     0.173 A 
ATOM     80  C   UNL A   1      44.107  25.951  34.283  1.00  0.00     0.173 A 
ATOM     81  F   UNL A   1      46.834  23.550  34.135  1.00  0.00    -0.203 F 
ATOM     82  C   UNL A   1      45.306  24.009  35.862  1.00  0.00     0.198 A 
ATOM     83  C   UNL A   1      43.639  25.712  35.572  1.00  0.00     0.198 A 
ATOM     84  F   UNL A   1      43.497  26.889  33.541  1.00  0.00    -0.203 F 
ATOM     85  F   UNL A   1      45.861  23.044  36.608  1.00  0.00    -0.200 F 
ATOM     86  C   UNL A   1      44.233  24.735  36.358  1.00  0.00     0.200 A 
ATOM     87  F   UNL A   1      42.611  26.424  36.054  1.00  0.00    -0.200 F 
ATOM     88  F   UNL A   1      43.767  24.489  37.589  1.00  0.00    -0.200 F 
ENDBRANCH  64  78
BRANCH  65  89
ATOM     89  C   UNL A   1      48.140  27.115  24.397  1.00  0.00     0.064 A 
ATOM     90  C   UNL A   1      49.398  26.724  23.917  1.00  0.00     0.173 A 
ATOM     91  C   UNL A   1      47.300  27.821  23.523  1.00  0.00     0.173 A 
ATOM     92  F   UNL A   1      50.245  26.064  24.721  1.00  0.00    -0.203 F 
ATOM     93  C   UNL A   1      49.808  27.045  22.625  1.00  0.00     0.198 A 
ATOM     94  C   UNL A   1      47.700  28.116  22.221  1.00  0.00     0.198 A 
ATOM     95  F   UNL A   1      46.084  28.216  23.930  1.00  0.00    -0.203 F 
ATOM     96  F   UNL A   1      51.036  26.703  22.211  1.00  0.00    -0.200 F 
ATOM     97  C   UNL A   1      48.959  27.737  21.776  1.00  0.00     0.200 A 
ATOM     98  F   UNL A   1      46.869  28.772  21.399  1.00  0.00    -0.200 F 
ATOM     99  F   UNL A   1      49.353  28.045  20.533  1.00  0.00    -0.200 F 
ENDBRANCH  65  89
BRANCH  77 100
ATOM    100  C   UNL A   1      49.980  29.622  30.643  1.00  0.00     0.064 A 
ATOM    101  C   UNL A   1      49.637  30.971  30.808  1.00  0.00     0.173 A 
ATOM    102  C   UNL A   1      51.291  29.231  30.961  1.00  0.00     0.173 A 
ATOM    103  F   UNL A   1      48.402  31.396  30.502  1.00  0.00    -0.203 F 
ATOM    104  C   UNL A   1      50.574  31.895  31.263  1.00  0.00     0.198 A 
ATOM    105  C   UNL A   1      52.215  30.152  31.445  1.00  0.00     0.198 A 
ATOM    106  F   UNL A   1      51.668  27.951  30.825  1.00  0.00    -0.203 F 
ATOM    107  F   UNL A   1      50.236  33.187  31.379  1.00  0.00    -0.200 F 
ATOM    108  C   UNL A   1      51.857  31.484  31.592  1.00  0.00     0.200 A 
ATOM    109  F   UNL A   1      53.449  29.749  31.779  1.00  0.00    -0.200 F 
ATOM    110  F   UNL A   1      52.752  32.372  32.047  1.00  0.00    -0.200 F 
ENDBRANCH  77 100
ENDBRANCH  51  52
ENDBRANCH  43  46
ENDBRANCH  41  42
ENDBRANCH  40  41
ENDBRANCH   1  40
TORSDOF 18
ENDMDL
MODEL 3
REMARK VINA RESULT:      -9.3      3.249      8.584
REMARK SMILES COc1cc([C@H]2CC(c3ccc(S(C)(=O)=O)cc3)=NN2c2ccc(C(=O)NCCCCNC(=O)c3ccc(-c4c5nc(c(-c6c(F)c(F)c(F)c(F)c6F)c6ccc([nH]6)c(-c6c(F)c(F)c(F)c(F)c6F)c6nc(c(-c7c(F)c(F)c(F)c(F)c7F)c7ccc4[nH]7)C=C6)C=C5)cc3)cc2)cc(OC)c1OC
REMARK SMILES IDX 29 1 28 2 27 3 25 4 26 5 24 7 21 8 22 9 99 10 23 11 98 12
REMARK SMILES IDX 20 13 6 14 7 15 8 16 19 17 5 18 3 19 4 20 104 21 101 22
REMARK SMILES IDX 100 23 2 24 1 25 105 26 106 27 102 28 103 29 9 30 10 31
REMARK SMILES IDX 18 32 11 33 17 34 12 35 13 36 14 37 15 38 16 39 30 40 31 41
REMARK SMILES IDX 32 42 33 43 34 45 35 46 36 47 97 48 37 49 96 50 38 51 39 52
REMARK SMILES IDX 40 53 90 54 41 55 95 56 89 57 91 58 42 59 94 60 88 61 87 62
REMARK SMILES IDX 43 64 75 65 55 66 74 67 56 68 59 69 73 70 92 71 57 72 58 73
REMARK SMILES IDX 72 75 93 76 60 77 44 78 45 79 53 80 46 81 47 82 51 83 54 84
REMARK SMILES IDX 48 85 49 86 52 87 50 88 76 89 77 90 85 91 78 92 79 93 83 94
REMARK SMILES IDX 86 95 80 96 81 97 84 98 82 99 61 100 62 101 70 102 63 103
REMARK SMILES IDX 64 104 68 105 71 106 65 107 66 108 69 109 67 110
REMARK H PARENT 27 6 32 44 91 63 59 74
REMARK Flexibility Score: inf
ROOT
ATOM      1  C   UNL A   1      34.636  33.168  31.135  1.00  0.00     0.023 C 
ENDROOT
BRANCH   1   2
ATOM      2  C   UNL A   1      34.586  34.635  30.700  1.00  0.00     0.116 C 
BRANCH   2   3
ATOM      3  N   UNL A   1      34.296  35.480  31.838  1.00  0.00    -0.352 N 
ATOM      4  C   UNL A   1      34.863  35.550  33.086  1.00  0.00     0.251 C 
ATOM      5  O   UNL A   1      34.396  36.371  33.877  1.00  0.00    -0.269 OA
ATOM      6  H   UNL A   1      33.562  36.120  31.691  1.00  0.00     0.163 HD
BRANCH   4   7
ATOM      7  C   UNL A   1      36.045  34.737  33.483  1.00  0.00     0.039 A 
ATOM      8  C   UNL A   1      38.221  33.265  34.503  1.00  0.00     0.060 A 
ATOM      9  C   UNL A   1      36.926  33.054  34.990  1.00  0.00     0.029 A 
ATOM     10  C   UNL A   1      38.401  34.151  33.445  1.00  0.00     0.029 A 
ATOM     11  C   UNL A   1      35.850  33.796  34.500  1.00  0.00     0.016 A 
ATOM     12  C   UNL A   1      37.316  34.848  32.912  1.00  0.00     0.016 A 
BRANCH   8  13
ATOM     13  N   UNL A   1      39.287  32.602  35.078  1.00  0.00    -0.257 N 
ATOM     14  C   UNL A   1      40.288  33.230  35.943  1.00  0.00     0.144 C 
ATOM     15  C   UNL A   1      41.216  32.038  36.256  1.00  0.00     0.091 C 
ATOM     16  C   UNL A   1      40.700  31.040  35.249  1.00  0.00     0.071 C 
ATOM     17  N   UNL A   1      39.628  31.382  34.610  1.00  0.00    -0.176 NA
BRANCH  14  18
ATOM     18  C   UNL A   1      39.619  33.896  37.140  1.00  0.00    -0.015 A 
ATOM     19  C   UNL A   1      38.531  33.732  39.332  1.00  0.00     0.164 A 
ATOM     20  C   UNL A   1      38.963  33.141  38.126  1.00  0.00     0.056 A 
ATOM     21  C   UNL A   1      38.760  35.096  39.595  1.00  0.00     0.203 A 
ATOM     22  C   UNL A   1      39.393  35.861  38.594  1.00  0.00     0.164 A 
ATOM     23  C   UNL A   1      39.796  35.261  37.388  1.00  0.00     0.056 A 
BRANCH  19  24
ATOM     24  O   UNL A   1      38.053  32.877  40.294  1.00  0.00    -0.493 OA
ATOM     25  C   UNL A   1      36.641  32.685  40.199  1.00  0.00     0.278 C 
ENDBRANCH  19  24
BRANCH  21  26
ATOM     26  O   UNL A   1      38.479  35.754  40.759  1.00  0.00    -0.490 OA
ATOM     27  C   UNL A   1      39.372  35.745  41.855  1.00  0.00     0.278 C 
ENDBRANCH  21  26
BRANCH  22  28
ATOM     28  O   UNL A   1      39.714  37.198  38.614  1.00  0.00    -0.493 OA
ATOM     29  C   UNL A   1      40.987  37.594  39.100  1.00  0.00     0.278 C 
ENDBRANCH  22  28
ENDBRANCH  14  18
BRANCH  16  30
ATOM     30  C   UNL A   1      41.363  29.754  34.991  1.00  0.00    -0.002 A 
ATOM     31  C   UNL A   1      41.879  29.038  36.081  1.00  0.00     0.011 A 
ATOM     32  C   UNL A   1      41.565  29.307  33.685  1.00  0.00     0.011 A 
ATOM     33  C   UNL A   1      42.587  27.856  35.865  1.00  0.00     0.021 A 
ATOM     34  C   UNL A   1      42.297  28.136  33.466  1.00  0.00     0.021 A 
ATOM     35  C   UNL A   1      42.806  27.419  34.555  1.00  0.00     0.067 A 
BRANCH  35  36
ATOM     36  S   UNL A   1      43.720  25.917  34.282  1.00  0.00     0.175 S 
ATOM     37  C   UNL A   1      42.736  24.649  35.036  1.00  0.00     0.163 C 
ATOM     38  O   UNL A   1      43.732  25.696  32.847  1.00  0.00    -0.224 OA
ATOM     39  O   UNL A   1      44.956  26.014  35.031  1.00  0.00    -0.224 OA
ENDBRANCH  35  36
ENDBRANCH  16  30
ENDBRANCH   8  13
ENDBRANCH   4   7
ENDBRANCH   2   3
ENDBRANCH   1   2
BRANCH   1  40
ATOM     40  C   UNL A   1      35.688  32.345  30.392  1.00  0.00     0.023 C 
BRANCH  40  41
ATOM     41  C   UNL A   1      35.518  32.333  28.880  1.00  0.00     0.116 C 
BRANCH  41  42
ATOM     42  N   UNL A   1      34.626  31.282  28.410  1.00  0.00    -0.352 N 
ATOM     43  C   UNL A   1      34.958  30.003  28.034  1.00  0.00     0.251 C 
ATOM     44  H   UNL A   1      33.672  31.516  28.354  1.00  0.00     0.163 HD
ATOM     45  O   UNL A   1      34.124  29.245  27.554  1.00  0.00    -0.269 OA
BRANCH  43  46
ATOM     46  C   UNL A   1      36.361  29.575  28.185  1.00  0.00     0.039 A 
ATOM     47  C   UNL A   1      37.260  29.820  27.147  1.00  0.00     0.014 A 
ATOM     48  C   UNL A   1      36.793  29.026  29.394  1.00  0.00     0.014 A 
ATOM     49  C   UNL A   1      38.620  29.579  27.349  1.00  0.00     0.010 A 
ATOM     50  C   UNL A   1      38.153  28.858  29.619  1.00  0.00     0.010 A 
ATOM     51  C   UNL A   1      39.079  29.137  28.601  1.00  0.00    -0.014 A 
BRANCH  51  52
ATOM     52  C   UNL A   1      40.523  28.951  28.882  1.00  0.00     0.031 A 
ATOM     53  C   UNL A   1      41.202  27.681  28.454  1.00  0.00     0.074 A 
ATOM     54  C   UNL A   1      41.194  29.873  29.599  1.00  0.00     0.049 A 
ATOM     55  N   UNL A   1      42.408  27.254  28.725  1.00  0.00    -0.248 NA
ATOM     56  C   UNL A   1      40.402  26.750  27.642  1.00  0.00     0.031 C 
ATOM     57  C   UNL A   1      40.634  31.129  30.098  1.00  0.00     0.029 A 
ATOM     58  N   UNL A   1      42.490  29.885  30.052  1.00  0.00    -0.354 N 
ATOM     59  C   UNL A   1      42.503  26.001  28.137  1.00  0.00     0.074 A 
ATOM     60  C   UNL A   1      41.217  25.713  27.540  1.00  0.00     0.031 C 
ATOM     61  C   UNL A   1      41.582  31.795  30.778  1.00  0.00     0.029 A 
ATOM     62  C   UNL A   1      42.801  30.992  30.803  1.00  0.00     0.049 A 
ATOM     63  H   UNL A   1      43.134  29.167  29.856  1.00  0.00     0.167 HD
ATOM     64  C   UNL A   1      43.574  25.174  28.082  1.00  0.00     0.037 A 
ATOM     65  C   UNL A   1      43.936  31.310  31.456  1.00  0.00     0.037 A 
ATOM     66  C   UNL A   1      44.857  25.481  28.655  1.00  0.00     0.049 A 
ATOM     67  C   UNL A   1      45.106  30.363  31.399  1.00  0.00     0.074 A 
ATOM     68  C   UNL A   1      46.023  24.738  28.603  1.00  0.00     0.029 A 
ATOM     69  N   UNL A   1      45.141  26.622  29.390  1.00  0.00    -0.354 N 
ATOM     70  N   UNL A   1      45.205  29.208  30.786  1.00  0.00    -0.248 NA
ATOM     71  C   UNL A   1      46.320  30.763  32.122  1.00  0.00     0.031 C 
ATOM     72  C   UNL A   1      46.997  25.403  29.352  1.00  0.00     0.029 A 
ATOM     73  C   UNL A   1      46.458  26.592  29.819  1.00  0.00     0.049 A 
ATOM     74  H   UNL A   1      44.501  27.347  29.579  1.00  0.00     0.167 HD
ATOM     75  C   UNL A   1      46.500  28.762  31.019  1.00  0.00     0.074 A 
ATOM     76  C   UNL A   1      47.151  29.775  31.824  1.00  0.00     0.031 C 
ATOM     77  C   UNL A   1      47.096  27.619  30.602  1.00  0.00     0.037 A 
BRANCH  64  78
ATOM     78  C   UNL A   1      43.401  23.858  27.380  1.00  0.00     0.064 A 
ATOM     79  C   UNL A   1      42.801  22.757  28.011  1.00  0.00     0.173 A 
ATOM     80  C   UNL A   1      43.809  23.706  26.047  1.00  0.00     0.173 A 
ATOM     81  F   UNL A   1      42.403  22.847  29.289  1.00  0.00    -0.203 F 
ATOM     82  C   UNL A   1      42.646  21.546  27.345  1.00  0.00     0.198 A 
ATOM     83  C   UNL A   1      43.622  22.503  25.372  1.00  0.00     0.198 A 
ATOM     84  F   UNL A   1      44.385  24.727  25.393  1.00  0.00    -0.203 F 
ATOM     85  F   UNL A   1      42.120  20.493  27.986  1.00  0.00    -0.200 F 
ATOM     86  C   UNL A   1      43.048  21.421  26.024  1.00  0.00     0.200 A 
ATOM     87  F   UNL A   1      43.999  22.388  24.091  1.00  0.00    -0.200 F 
ATOM     88  F   UNL A   1      42.891  20.257  25.380  1.00  0.00    -0.200 F 
ENDBRANCH  64  78
BRANCH  65  89
ATOM     89  C   UNL A   1      44.029  32.588  32.210  1.00  0.00     0.064 A 
ATOM     90  C   UNL A   1      43.991  32.600  33.612  1.00  0.00     0.173 A 
ATOM     91  C   UNL A   1      44.146  33.821  31.552  1.00  0.00     0.173 A 
ATOM     92  F   UNL A   1      43.860  31.448  34.287  1.00  0.00    -0.203 F 
ATOM     93  C   UNL A   1      44.043  33.795  34.325  1.00  0.00     0.198 A 
ATOM     94  C   UNL A   1      44.227  35.014  32.267  1.00  0.00     0.198 A 
ATOM     95  F   UNL A   1      44.191  33.867  30.213  1.00  0.00    -0.203 F 
ATOM     96  F   UNL A   1      43.953  33.780  35.662  1.00  0.00    -0.200 F 
ATOM     97  C   UNL A   1      44.166  35.002  33.653  1.00  0.00     0.200 A 
ATOM     98  F   UNL A   1      44.362  36.177  31.614  1.00  0.00    -0.200 F 
ATOM     99  F   UNL A   1      44.217  36.151  34.339  1.00  0.00    -0.200 F 
ENDBRANCH  65  89
BRANCH  77 100
ATOM    100  C   UNL A   1      48.541  27.417  30.956  1.00  0.00     0.064 A 
ATOM    101  C   UNL A   1      48.929  26.737  32.119  1.00  0.00     0.173 A 
ATOM    102  C   UNL A   1      49.549  27.852  30.080  1.00  0.00     0.173 A 
ATOM    103  F   UNL A   1      48.006  26.315  32.995  1.00  0.00    -0.203 F 
ATOM    104  C   UNL A   1      50.275  26.512  32.398  1.00  0.00     0.198 A 
ATOM    105  C   UNL A   1      50.889  27.598  30.347  1.00  0.00     0.198 A 
ATOM    106  F   UNL A   1      49.228  28.503  28.951  1.00  0.00    -0.203 F 
ATOM    107  F   UNL A   1      50.626  25.892  33.534  1.00  0.00    -0.200 F 
ATOM    108  C   UNL A   1      51.252  26.932  31.508  1.00  0.00     0.200 A 
ATOM    109  F   UNL A   1      51.831  27.989  29.477  1.00  0.00    -0.200 F 
ATOM    110  F   UNL A   1      52.546  26.698  31.771  1.00  0.00    -0.200 F 
ENDBRANCH  77 100
ENDBRANCH  51  52
ENDBRANCH  43  46
ENDBRANCH  41  42
ENDBRANCH  40  41
ENDBRANCH   1  40
TORSDOF 18
ENDMDL
