MODEL 1
REMARK VINA RESULT:     -13.2      0.000      0.000
REMARK SMILES C[NH+]1CCN(c2nc3c(cc2F)c(=O)c(C(=O)NCCCCNC(=O)c2ccc(-c4c5nc(c(-c6c(F)c(F)c(F)c(F)c6F)c6ccc([nH]6)c(-c6c(F)c(F)c(F)c(F)c6F)c6nc(c(-c7c(F)c(F)c(F)c(F)c7F)c7ccc4[nH]7)C=C6)C=C5)cc2)cn3-c2ccc(F)cc2F)CC1
REMARK SMILES IDX 21 1 20 2 19 3 18 4 16 5 17 6 15 8 6 9 7 10 11 11 8 12 10 13
REMARK SMILES IDX 12 14 9 15 90 16 13 17 89 18 14 19 5 20 1 21 2 22 3 23
REMARK SMILES IDX 100 24 4 26 99 27 91 28 92 29 97 30 93 31 96 32 98 33 94 34
REMARK SMILES IDX 95 35 22 36 23 37 24 38 25 40 26 41 27 42 88 43 28 44 87 45
REMARK SMILES IDX 29 46 30 47 31 48 81 49 32 50 86 51 80 52 82 53 33 54 85 55
REMARK SMILES IDX 79 56 78 57 34 59 66 60 46 61 65 62 47 63 50 64 64 65 83 66
REMARK SMILES IDX 48 67 49 68 63 70 84 71 51 72 35 73 36 74 44 75 37 76 38 77
REMARK SMILES IDX 42 78 45 79 39 80 40 81 43 82 41 83 67 84 68 85 76 86 69 87
REMARK SMILES IDX 70 88 74 89 77 90 71 91 72 92 75 93 73 94 52 95 53 96 61 97
REMARK SMILES IDX 54 98 55 99 59 100 62 101 56 102 57 103 60 104 58 105
REMARK H PARENT 18 7 2 25 23 39 82 58 50 69
REMARK Flexibility Score: inf
ROOT
ATOM      1  C   UNL A   1      32.890  28.102  26.451  1.00  0.00     0.023 C 
ENDROOT
BRANCH   1   2
ATOM      2  C   UNL A   1      33.222  27.289  25.204  1.00  0.00     0.023 C 
BRANCH   2   3
ATOM      3  C   UNL A   1      32.102  27.216  24.164  1.00  0.00     0.116 C 
BRANCH   3   4
ATOM      4  N   UNL A   1      32.641  27.055  22.828  1.00  0.00    -0.352 N 
ATOM      5  C   UNL A   1      33.192  25.986  22.195  1.00  0.00     0.256 C 
ATOM      6  O   UNL A   1      33.554  26.175  21.029  1.00  0.00    -0.269 OA
ATOM      7  H   UNL A   1      32.601  27.871  22.279  1.00  0.00     0.163 HD
BRANCH   5   8
ATOM      8  C   UNL A   1      33.300  24.628  22.801  1.00  0.00     0.104 A 
ATOM      9  C   UNL A   1      33.449  19.744  24.212  1.00  0.00     0.167 A 
ATOM     10  N   UNL A   1      34.251  20.815  24.438  1.00  0.00    -0.209 NA
ATOM     11  C   UNL A   1      32.276  19.872  23.463  1.00  0.00     0.166 A 
ATOM     12  C   UNL A   1      33.926  22.029  23.924  1.00  0.00     0.151 A 
ATOM     13  C   UNL A   1      31.890  21.111  22.994  1.00  0.00     0.059 A 
ATOM     14  F   UNL A   1      31.470  18.822  23.246  1.00  0.00    -0.203 F 
ATOM     15  C   UNL A   1      32.724  22.201  23.241  1.00  0.00     0.069 A 
ATOM     16  N   UNL A   1      34.798  23.156  24.076  1.00  0.00    -0.297 N 
ATOM     17  C   UNL A   1      32.293  23.547  22.848  1.00  0.00     0.203 A 
ATOM     18  C   UNL A   1      34.444  24.353  23.454  1.00  0.00     0.111 A 
ATOM     19  O   UNL A   1      31.100  23.705  22.628  1.00  0.00    -0.288 OA
BRANCH   9  20
ATOM     20  N   UNL A   1      33.823  18.553  24.773  1.00  0.00    -0.343 N 
ATOM     21  C   UNL A   1      32.606  14.521  25.310  1.00  0.00     0.332 C 
ATOM     22  N   UNL A   1      33.364  15.767  25.384  1.00  0.00    -0.334 N 
ATOM     23  C   UNL A   1      32.559  16.842  26.013  1.00  0.00     0.283 C 
ATOM     24  C   UNL A   1      33.785  16.196  24.031  1.00  0.00     0.283 C 
ATOM     25  H   UNL A   1      34.190  15.596  25.959  1.00  0.00     0.347 HD
ATOM     26  C   UNL A   1      33.316  18.193  26.094  1.00  0.00     0.179 C 
ATOM     27  C   UNL A   1      34.563  17.528  24.047  1.00  0.00     0.179 C 
ENDBRANCH   9  20
BRANCH  16  28
ATOM     28  C   UNL A   1      36.037  23.075  24.784  1.00  0.00     0.083 A 
ATOM     29  C   UNL A   1      36.956  22.044  24.518  1.00  0.00     0.033 A 
ATOM     30  C   UNL A   1      36.383  24.030  25.760  1.00  0.00     0.150 A 
ATOM     31  C   UNL A   1      38.172  21.980  25.203  1.00  0.00     0.041 A 
ATOM     32  C   UNL A   1      37.587  23.966  26.453  1.00  0.00     0.080 A 
ATOM     33  F   UNL A   1      35.529  25.021  26.060  1.00  0.00    -0.205 F 
ATOM     34  C   UNL A   1      38.473  22.939  26.164  1.00  0.00     0.126 A 
ATOM     35  F   UNL A   1      39.637  22.868  26.822  1.00  0.00    -0.207 F 
ENDBRANCH  16  28
ENDBRANCH   5   8
ENDBRANCH   3   4
ENDBRANCH   2   3
ENDBRANCH   1   2
BRANCH   1  36
ATOM     36  C   UNL A   1      34.102  28.586  27.233  1.00  0.00     0.116 C 
BRANCH  36  37
ATOM     37  N   UNL A   1      33.951  29.932  27.767  1.00  0.00    -0.352 N 
ATOM     38  C   UNL A   1      34.893  30.681  28.428  1.00  0.00     0.251 C 
ATOM     39  H   UNL A   1      33.071  30.356  27.638  1.00  0.00     0.163 HD
ATOM     40  O   UNL A   1      34.630  31.784  28.888  1.00  0.00    -0.269 OA
BRANCH  38  41
ATOM     41  C   UNL A   1      36.232  30.095  28.612  1.00  0.00     0.039 A 
ATOM     42  C   UNL A   1      37.194  30.292  27.620  1.00  0.00     0.014 A 
ATOM     43  C   UNL A   1      36.551  29.448  29.810  1.00  0.00     0.014 A 
ATOM     44  C   UNL A   1      38.507  29.890  27.855  1.00  0.00     0.010 A 
ATOM     45  C   UNL A   1      37.870  29.095  30.064  1.00  0.00     0.010 A 
ATOM     46  C   UNL A   1      38.855  29.316  29.089  1.00  0.00    -0.014 A 
BRANCH  46  47
ATOM     47  C   UNL A   1      40.248  28.906  29.367  1.00  0.00     0.031 A 
ATOM     48  C   UNL A   1      41.132  29.808  30.174  1.00  0.00     0.074 A 
ATOM     49  C   UNL A   1      40.723  27.755  28.857  1.00  0.00     0.049 A 
ATOM     50  N   UNL A   1      42.392  29.661  30.492  1.00  0.00    -0.248 NA
ATOM     51  C   UNL A   1      40.523  31.051  30.673  1.00  0.00     0.031 C 
ATOM     52  C   UNL A   1      39.960  26.815  28.034  1.00  0.00     0.029 A 
ATOM     53  N   UNL A   1      41.965  27.181  28.955  1.00  0.00    -0.354 N 
ATOM     54  C   UNL A   1      42.724  30.789  31.228  1.00  0.00     0.074 A 
ATOM     55  C   UNL A   1      41.552  31.637  31.265  1.00  0.00     0.031 C 
ATOM     56  C   UNL A   1      40.746  25.772  27.719  1.00  0.00     0.029 A 
ATOM     57  C   UNL A   1      42.071  25.982  28.297  1.00  0.00     0.049 A 
ATOM     58  H   UNL A   1      42.710  27.593  29.450  1.00  0.00     0.167 HD
ATOM     59  C   UNL A   1      43.894  31.077  31.842  1.00  0.00     0.037 A 
ATOM     60  C   UNL A   1      43.121  25.148  28.180  1.00  0.00     0.037 A 
ATOM     61  C   UNL A   1      45.050  30.225  31.818  1.00  0.00     0.049 A 
ATOM     62  C   UNL A   1      44.420  25.504  28.850  1.00  0.00     0.074 A 
ATOM     63  C   UNL A   1      46.271  30.408  32.439  1.00  0.00     0.029 A 
ATOM     64  N   UNL A   1      45.122  29.019  31.135  1.00  0.00    -0.354 N 
ATOM     65  N   UNL A   1      44.712  26.552  29.582  1.00  0.00    -0.248 NA
ATOM     66  C   UNL A   1      45.535  24.562  28.679  1.00  0.00     0.031 C 
ATOM     67  C   UNL A   1      47.095  29.328  32.109  1.00  0.00     0.029 A 
ATOM     68  C   UNL A   1      46.375  28.455  31.308  1.00  0.00     0.049 A 
ATOM     69  H   UNL A   1      44.392  28.624  30.606  1.00  0.00     0.167 HD
ATOM     70  C   UNL A   1      46.031  26.387  29.975  1.00  0.00     0.074 A 
ATOM     71  C   UNL A   1      46.484  25.133  29.409  1.00  0.00     0.031 C 
ATOM     72  C   UNL A   1      46.799  27.202  30.740  1.00  0.00     0.037 A 
BRANCH  59  73
ATOM     73  C   UNL A   1      43.969  32.362  32.605  1.00  0.00     0.064 A 
ATOM     74  C   UNL A   1      43.669  32.412  33.975  1.00  0.00     0.173 A 
ATOM     75  C   UNL A   1      44.365  33.549  31.973  1.00  0.00     0.173 A 
ATOM     76  F   UNL A   1      43.268  31.306  34.618  1.00  0.00    -0.203 F 
ATOM     77  C   UNL A   1      43.744  33.610  34.680  1.00  0.00     0.198 A 
ATOM     78  C   UNL A   1      44.461  34.740  32.686  1.00  0.00     0.198 A 
ATOM     79  F   UNL A   1      44.660  33.552  30.664  1.00  0.00    -0.203 F 
ATOM     80  F   UNL A   1      43.416  33.642  35.979  1.00  0.00    -0.200 F 
ATOM     81  C   UNL A   1      44.147  34.770  34.037  1.00  0.00     0.200 A 
ATOM     82  F   UNL A   1      44.855  35.862  32.066  1.00  0.00    -0.200 F 
ATOM     83  F   UNL A   1      44.222  35.922  34.719  1.00  0.00    -0.200 F 
ENDBRANCH  59  73
BRANCH  60  84
ATOM     84  C   UNL A   1      42.974  23.875  27.433  1.00  0.00     0.064 A 
ATOM     85  C   UNL A   1      43.279  23.811  26.067  1.00  0.00     0.173 A 
ATOM     86  C   UNL A   1      42.539  22.701  28.063  1.00  0.00     0.173 A 
ATOM     87  F   UNL A   1      43.679  24.915  25.419  1.00  0.00    -0.203 F 
ATOM     88  C   UNL A   1      43.146  22.621  25.354  1.00  0.00     0.198 A 
ATOM     89  C   UNL A   1      42.423  21.506  27.354  1.00  0.00     0.198 A 
ATOM     90  F   UNL A   1      42.236  22.712  29.369  1.00  0.00    -0.203 F 
ATOM     91  F   UNL A   1      43.416  22.594  24.043  1.00  0.00    -0.200 F 
ATOM     92  C   UNL A   1      42.723  21.468  26.000  1.00  0.00     0.200 A 
ATOM     93  F   UNL A   1      42.022  20.393  27.981  1.00  0.00    -0.200 F 
ATOM     94  F   UNL A   1      42.599  20.323  25.316  1.00  0.00    -0.200 F 
ENDBRANCH  60  84
BRANCH  72  95
ATOM     95  C   UNL A   1      48.201  26.761  31.025  1.00  0.00     0.064 A 
ATOM     96  C   UNL A   1      48.495  25.916  32.105  1.00  0.00     0.173 A 
ATOM     97  C   UNL A   1      49.249  27.123  30.165  1.00  0.00     0.173 A 
ATOM     98  F   UNL A   1      47.526  25.555  32.960  1.00  0.00    -0.203 F 
ATOM     99  C   UNL A   1      49.789  25.455  32.317  1.00  0.00     0.198 A 
ATOM    100  C   UNL A   1      50.539  26.643  30.368  1.00  0.00     0.198 A 
ATOM    101  F   UNL A   1      49.014  27.925  29.115  1.00  0.00    -0.203 F 
ATOM    102  F   UNL A   1      50.054  24.666  33.368  1.00  0.00    -0.200 F 
ATOM    103  C   UNL A   1      50.808  25.810  31.444  1.00  0.00     0.200 A 
ATOM    104  F   UNL A   1      51.519  26.978  29.519  1.00  0.00    -0.200 F 
ATOM    105  F   UNL A   1      52.051  25.351  31.642  1.00  0.00    -0.200 F 
ENDBRANCH  72  95
ENDBRANCH  46  47
ENDBRANCH  38  41
ENDBRANCH  36  37
ENDBRANCH   1  36
TORSDOF 13
ENDMDL
MODEL 2
REMARK VINA RESULT:     -13.0      4.714     11.384
REMARK SMILES C[NH+]1CCN(c2nc3c(cc2F)c(=O)c(C(=O)NCCCCNC(=O)c2ccc(-c4c5nc(c(-c6c(F)c(F)c(F)c(F)c6F)c6ccc([nH]6)c(-c6c(F)c(F)c(F)c(F)c6F)c6nc(c(-c7c(F)c(F)c(F)c(F)c7F)c7ccc4[nH]7)C=C6)C=C5)cc2)cn3-c2ccc(F)cc2F)CC1
REMARK SMILES IDX 21 1 20 2 19 3 18 4 16 5 17 6 15 8 6 9 7 10 11 11 8 12 10 13
REMARK SMILES IDX 12 14 9 15 90 16 13 17 89 18 14 19 5 20 1 21 2 22 3 23
REMARK SMILES IDX 100 24 4 26 99 27 91 28 92 29 97 30 93 31 96 32 98 33 94 34
REMARK SMILES IDX 95 35 22 36 23 37 24 38 25 40 26 41 27 42 88 43 28 44 87 45
REMARK SMILES IDX 29 46 30 47 31 48 81 49 32 50 86 51 80 52 82 53 33 54 85 55
REMARK SMILES IDX 79 56 78 57 34 59 66 60 46 61 65 62 47 63 50 64 64 65 83 66
REMARK SMILES IDX 48 67 49 68 63 70 84 71 51 72 35 73 36 74 44 75 37 76 38 77
REMARK SMILES IDX 42 78 45 79 39 80 40 81 43 82 41 83 67 84 68 85 76 86 69 87
REMARK SMILES IDX 70 88 74 89 77 90 71 91 72 92 75 93 73 94 52 95 53 96 61 97
REMARK SMILES IDX 54 98 55 99 59 100 62 101 56 102 57 103 60 104 58 105
REMARK H PARENT 18 7 2 25 23 39 82 58 50 69
REMARK Flexibility Score: inf
ROOT
ATOM      1  C   UNL A   1      41.540  22.037  26.148  1.00  0.00     0.023 C 
ENDROOT
BRANCH   1   2
ATOM      2  C   UNL A   1      42.545  22.806  27.000  1.00  0.00     0.023 C 
BRANCH   2   3
ATOM      3  C   UNL A   1      43.994  22.331  26.875  1.00  0.00     0.116 C 
BRANCH   3   4
ATOM      4  N   UNL A   1      44.419  22.313  25.489  1.00  0.00    -0.352 N 
ATOM      5  C   UNL A   1      44.786  23.308  24.640  1.00  0.00     0.256 C 
ATOM      6  O   UNL A   1      45.110  22.957  23.500  1.00  0.00    -0.269 OA
ATOM      7  H   UNL A   1      44.447  21.414  25.090  1.00  0.00     0.163 HD
BRANCH   5   8
ATOM      8  C   UNL A   1      44.884  24.743  25.036  1.00  0.00     0.104 A 
ATOM      9  C   UNL A   1      44.684  29.481  26.873  1.00  0.00     0.167 A 
ATOM     10  N   UNL A   1      45.697  28.656  26.500  1.00  0.00    -0.209 NA
ATOM     11  C   UNL A   1      43.352  29.079  26.756  1.00  0.00     0.166 A 
ATOM     12  C   UNL A   1      45.421  27.417  26.019  1.00  0.00     0.151 A 
ATOM     13  C   UNL A   1      43.049  27.852  26.201  1.00  0.00     0.059 A 
ATOM     14  F   UNL A   1      42.345  29.892  27.109  1.00  0.00    -0.203 F 
ATOM     15  C   UNL A   1      44.101  27.021  25.819  1.00  0.00     0.069 A 
ATOM     16  N   UNL A   1      46.472  26.497  25.699  1.00  0.00    -0.297 N 
ATOM     17  C   UNL A   1      43.813  25.757  25.132  1.00  0.00     0.203 A 
ATOM     18  C   UNL A   1      46.120  25.211  25.287  1.00  0.00     0.111 A 
ATOM     19  O   UNL A   1      42.704  25.640  24.628  1.00  0.00    -0.288 OA
BRANCH   9  20
ATOM     20  N   UNL A   1      45.028  30.724  27.333  1.00  0.00    -0.343 N 
ATOM     21  C   UNL A   1      43.764  34.775  27.435  1.00  0.00     0.332 C 
ATOM     22  N   UNL A   1      44.551  33.559  27.614  1.00  0.00    -0.334 N 
ATOM     23  C   UNL A   1      44.904  32.958  26.305  1.00  0.00     0.283 C 
ATOM     24  C   UNL A   1      43.800  32.571  28.422  1.00  0.00     0.283 C 
ATOM     25  H   UNL A   1      45.412  33.813  28.100  1.00  0.00     0.347 HD
ATOM     26  C   UNL A   1      45.725  31.649  26.444  1.00  0.00     0.179 C 
ATOM     27  C   UNL A   1      44.575  31.252  28.615  1.00  0.00     0.179 C 
ENDBRANCH   9  20
BRANCH  16  28
ATOM     28  C   UNL A   1      47.854  26.830  25.849  1.00  0.00     0.083 A 
ATOM     29  C   UNL A   1      48.584  27.383  24.782  1.00  0.00     0.033 A 
ATOM     30  C   UNL A   1      48.523  26.629  27.071  1.00  0.00     0.150 A 
ATOM     31  C   UNL A   1      49.931  27.721  24.941  1.00  0.00     0.041 A 
ATOM     32  C   UNL A   1      49.866  26.953  27.233  1.00  0.00     0.080 A 
ATOM     33  F   UNL A   1      47.871  26.087  28.112  1.00  0.00    -0.205 F 
ATOM     34  C   UNL A   1      50.557  27.500  26.163  1.00  0.00     0.126 A 
ATOM     35  F   UNL A   1      51.849  27.819  26.307  1.00  0.00    -0.207 F 
ENDBRANCH  16  28
ENDBRANCH   5   8
ENDBRANCH   3   4
ENDBRANCH   2   3
ENDBRANCH   1   2
BRANCH   1  36
ATOM     36  C   UNL A   1      40.220  21.738  26.840  1.00  0.00     0.116 C 
BRANCH  36  37
ATOM     37  N   UNL A   1      39.053  22.150  26.072  1.00  0.00    -0.352 N 
ATOM     38  C   UNL A   1      38.447  23.381  26.065  1.00  0.00     0.251 C 
ATOM     39  H   UNL A   1      38.651  21.465  25.489  1.00  0.00     0.163 HD
ATOM     40  O   UNL A   1      37.427  23.593  25.422  1.00  0.00    -0.269 OA
BRANCH  38  41
ATOM     41  C   UNL A   1      39.036  24.443  26.899  1.00  0.00     0.039 A 
ATOM     42  C   UNL A   1      39.812  25.427  26.285  1.00  0.00     0.014 A 
ATOM     43  C   UNL A   1      38.729  24.510  28.262  1.00  0.00     0.014 A 
ATOM     44  C   UNL A   1      40.234  26.526  27.031  1.00  0.00     0.010 A 
ATOM     45  C   UNL A   1      39.106  25.631  28.991  1.00  0.00     0.010 A 
ATOM     46  C   UNL A   1      39.858  26.645  28.379  1.00  0.00    -0.014 A 
BRANCH  46  47
ATOM     47  C   UNL A   1      40.276  27.815  29.181  1.00  0.00     0.031 A 
ATOM     48  C   UNL A   1      41.650  27.842  29.779  1.00  0.00     0.074 A 
ATOM     49  C   UNL A   1      39.409  28.820  29.404  1.00  0.00     0.049 A 
ATOM     50  N   UNL A   1      42.198  28.746  30.549  1.00  0.00    -0.248 NA
ATOM     51  C   UNL A   1      42.517  26.689  29.489  1.00  0.00     0.031 C 
ATOM     52  C   UNL A   1      38.039  28.883  28.895  1.00  0.00     0.029 A 
ATOM     53  N   UNL A   1      39.554  29.979  30.121  1.00  0.00    -0.354 N 
ATOM     54  C   UNL A   1      43.470  28.272  30.833  1.00  0.00     0.074 A 
ATOM     55  C   UNL A   1      43.596  26.978  30.199  1.00  0.00     0.031 C 
ATOM     56  C   UNL A   1      37.475  30.034  29.300  1.00  0.00     0.029 A 
ATOM     57  C   UNL A   1      38.435  30.774  30.115  1.00  0.00     0.049 A 
ATOM     58  H   UNL A   1      40.382  30.218  30.597  1.00  0.00     0.167 HD
ATOM     59  C   UNL A   1      44.454  28.877  31.536  1.00  0.00     0.037 A 
ATOM     60  C   UNL A   1      38.216  31.967  30.700  1.00  0.00     0.037 A 
ATOM     61  C   UNL A   1      44.331  30.170  32.150  1.00  0.00     0.049 A 
ATOM     62  C   UNL A   1      39.318  32.605  31.499  1.00  0.00     0.074 A 
ATOM     63  C   UNL A   1      45.282  30.886  32.853  1.00  0.00     0.029 A 
ATOM     64  N   UNL A   1      43.179  30.943  32.127  1.00  0.00    -0.354 N 
ATOM     65  N   UNL A   1      40.534  32.171  31.725  1.00  0.00    -0.248 NA
ATOM     66  C   UNL A   1      39.019  33.902  32.124  1.00  0.00     0.031 C 
ATOM     67  C   UNL A   1      44.698  32.082  33.282  1.00  0.00     0.029 A 
ATOM     68  C   UNL A   1      43.392  32.124  32.818  1.00  0.00     0.049 A 
ATOM     69  H   UNL A   1      42.336  30.690  31.686  1.00  0.00     0.167 HD
ATOM     70  C   UNL A   1      41.150  33.144  32.497  1.00  0.00     0.074 A 
ATOM     71  C   UNL A   1      40.178  34.199  32.695  1.00  0.00     0.031 C 
ATOM     72  C   UNL A   1      42.411  33.162  32.996  1.00  0.00     0.037 A 
BRANCH  59  73
ATOM     73  C   UNL A   1      45.755  28.147  31.661  1.00  0.00     0.064 A 
ATOM     74  C   UNL A   1      45.922  27.117  32.599  1.00  0.00     0.173 A 
ATOM     75  C   UNL A   1      46.835  28.459  30.824  1.00  0.00     0.173 A 
ATOM     76  F   UNL A   1      44.922  26.796  33.434  1.00  0.00    -0.203 F 
ATOM     77  C   UNL A   1      47.133  26.439  32.708  1.00  0.00     0.198 A 
ATOM     78  C   UNL A   1      48.037  27.763  30.920  1.00  0.00     0.198 A 
ATOM     79  F   UNL A   1      46.724  29.438  29.912  1.00  0.00    -0.203 F 
ATOM     80  F   UNL A   1      47.283  25.486  33.638  1.00  0.00    -0.200 F 
ATOM     81  C   UNL A   1      48.186  26.758  31.864  1.00  0.00     0.200 A 
ATOM     82  F   UNL A   1      49.054  28.068  30.101  1.00  0.00    -0.200 F 
ATOM     83  F   UNL A   1      49.350  26.101  31.968  1.00  0.00    -0.200 F 
ENDBRANCH  59  73
BRANCH  60  84
ATOM     84  C   UNL A   1      36.913  32.651  30.515  1.00  0.00     0.064 A 
ATOM     85  C   UNL A   1      35.929  32.591  31.509  1.00  0.00     0.173 A 
ATOM     86  C   UNL A   1      36.629  33.386  29.355  1.00  0.00     0.173 A 
ATOM     87  F   UNL A   1      36.150  31.883  32.627  1.00  0.00    -0.203 F 
ATOM     88  C   UNL A   1      34.701  33.231  31.348  1.00  0.00     0.198 A 
ATOM     89  C   UNL A   1      35.409  34.041  29.201  1.00  0.00     0.198 A 
ATOM     90  F   UNL A   1      37.541  33.474  28.376  1.00  0.00    -0.203 F 
ATOM     91  F   UNL A   1      33.766  33.133  32.301  1.00  0.00    -0.200 F 
ATOM     92  C   UNL A   1      34.445  33.960  30.196  1.00  0.00     0.200 A 
ATOM     93  F   UNL A   1      35.166  34.751  28.091  1.00  0.00    -0.200 F 
ATOM     94  F   UNL A   1      33.267  34.579  30.042  1.00  0.00    -0.200 F 
ENDBRANCH  60  84
BRANCH  72  95
ATOM     95  C   UNL A   1      42.821  34.364  33.790  1.00  0.00     0.064 A 
ATOM     96  C   UNL A   1      43.261  35.537  33.161  1.00  0.00     0.173 A 
ATOM     97  C   UNL A   1      42.699  34.367  35.187  1.00  0.00     0.173 A 
ATOM     98  F   UNL A   1      43.405  35.575  31.828  1.00  0.00    -0.203 F 
ATOM     99  C   UNL A   1      43.571  36.671  33.905  1.00  0.00     0.198 A 
ATOM    100  C   UNL A   1      42.989  35.509  35.927  1.00  0.00     0.198 A 
ATOM    101  F   UNL A   1      42.277  33.269  35.831  1.00  0.00    -0.203 F 
ATOM    102  F   UNL A   1      44.011  37.777  33.289  1.00  0.00    -0.200 F 
ATOM    103  C   UNL A   1      43.426  36.660  35.286  1.00  0.00     0.200 A 
ATOM    104  F   UNL A   1      42.839  35.501  37.258  1.00  0.00    -0.200 F 
ATOM    105  F   UNL A   1      43.709  37.758  35.999  1.00  0.00    -0.200 F 
ENDBRANCH  72  95
ENDBRANCH  46  47
ENDBRANCH  38  41
ENDBRANCH  36  37
ENDBRANCH   1  36
TORSDOF 13
ENDMDL
MODEL 3
REMARK VINA RESULT:     -12.9      4.757     11.265
REMARK SMILES C[NH+]1CCN(c2nc3c(cc2F)c(=O)c(C(=O)NCCCCNC(=O)c2ccc(-c4c5nc(c(-c6c(F)c(F)c(F)c(F)c6F)c6ccc([nH]6)c(-c6c(F)c(F)c(F)c(F)c6F)c6nc(c(-c7c(F)c(F)c(F)c(F)c7F)c7ccc4[nH]7)C=C6)C=C5)cc2)cn3-c2ccc(F)cc2F)CC1
REMARK SMILES IDX 21 1 20 2 19 3 18 4 16 5 17 6 15 8 6 9 7 10 11 11 8 12 10 13
REMARK SMILES IDX 12 14 9 15 90 16 13 17 89 18 14 19 5 20 1 21 2 22 3 23
REMARK SMILES IDX 100 24 4 26 99 27 91 28 92 29 97 30 93 31 96 32 98 33 94 34
REMARK SMILES IDX 95 35 22 36 23 37 24 38 25 40 26 41 27 42 88 43 28 44 87 45
REMARK SMILES IDX 29 46 30 47 31 48 81 49 32 50 86 51 80 52 82 53 33 54 85 55
REMARK SMILES IDX 79 56 78 57 34 59 66 60 46 61 65 62 47 63 50 64 64 65 83 66
REMARK SMILES IDX 48 67 49 68 63 70 84 71 51 72 35 73 36 74 44 75 37 76 38 77
REMARK SMILES IDX 42 78 45 79 39 80 40 81 43 82 41 83 67 84 68 85 76 86 69 87
REMARK SMILES IDX 70 88 74 89 77 90 71 91 72 92 75 93 73 94 52 95 53 96 61 97
REMARK SMILES IDX 54 98 55 99 59 100 62 101 56 102 57 103 60 104 58 105
REMARK H PARENT 18 7 2 25 23 39 82 58 50 69
REMARK Flexibility Score: inf
ROOT
ATOM      1  C   UNL A   1      41.621  21.948  26.159  1.00  0.00     0.023 C 
ENDROOT
BRANCH   1   2
ATOM      2  C   UNL A   1      42.575  22.843  26.944  1.00  0.00     0.023 C 
BRANCH   2   3
ATOM      3  C   UNL A   1      44.050  22.439  26.865  1.00  0.00     0.116 C 
BRANCH   3   4
ATOM      4  N   UNL A   1      44.507  22.399  25.490  1.00  0.00    -0.352 N 
ATOM      5  C   UNL A   1      44.880  23.383  24.629  1.00  0.00     0.256 C 
ATOM      6  O   UNL A   1      45.234  23.013  23.505  1.00  0.00    -0.269 OA
ATOM      7  H   UNL A   1      44.555  21.493  25.110  1.00  0.00     0.163 HD
BRANCH   5   8
ATOM      8  C   UNL A   1      44.949  24.826  24.999  1.00  0.00     0.104 A 
ATOM      9  C   UNL A   1      44.676  29.587  26.766  1.00  0.00     0.167 A 
ATOM     10  N   UNL A   1      45.698  28.786  26.370  1.00  0.00    -0.209 NA
ATOM     11  C   UNL A   1      43.352  29.144  26.703  1.00  0.00     0.166 A 
ATOM     12  C   UNL A   1      45.442  27.531  25.919  1.00  0.00     0.151 A 
ATOM     13  C   UNL A   1      43.066  27.900  26.179  1.00  0.00     0.059 A 
ATOM     14  F   UNL A   1      42.335  29.934  27.079  1.00  0.00    -0.203 F 
ATOM     15  C   UNL A   1      44.128  27.094  25.773  1.00  0.00     0.069 A 
ATOM     16  N   UNL A   1      46.507  26.636  25.576  1.00  0.00    -0.297 N 
ATOM     17  C   UNL A   1      43.854  25.810  25.116  1.00  0.00     0.203 A 
ATOM     18  C   UNL A   1      46.179  25.334  25.198  1.00  0.00     0.111 A 
ATOM     19  O   UNL A   1      42.731  25.653  24.655  1.00  0.00    -0.288 OA
BRANCH   9  20
ATOM     20  N   UNL A   1      44.999  30.847  27.193  1.00  0.00    -0.343 N 
ATOM     21  C   UNL A   1      43.418  34.744  27.774  1.00  0.00     0.332 C 
ATOM     22  N   UNL A   1      44.337  33.611  27.710  1.00  0.00    -0.334 N 
ATOM     23  C   UNL A   1      44.429  33.081  26.328  1.00  0.00     0.283 C 
ATOM     24  C   UNL A   1      43.891  32.532  28.621  1.00  0.00     0.283 C 
ATOM     25  H   UNL A   1      45.259  33.940  27.998  1.00  0.00     0.347 HD
ATOM     26  C   UNL A   1      45.379  31.860  26.213  1.00  0.00     0.179 C 
ATOM     27  C   UNL A   1      44.809  31.294  28.568  1.00  0.00     0.179 C 
ENDBRANCH   9  20
BRANCH  16  28
ATOM     28  C   UNL A   1      47.883  27.012  25.671  1.00  0.00     0.083 A 
ATOM     29  C   UNL A   1      48.556  26.989  26.905  1.00  0.00     0.033 A 
ATOM     30  C   UNL A   1      48.612  27.403  24.531  1.00  0.00     0.150 A 
ATOM     31  C   UNL A   1      49.905  27.343  26.987  1.00  0.00     0.041 A 
ATOM     32  C   UNL A   1      49.952  27.768  24.607  1.00  0.00     0.080 A 
ATOM     33  F   UNL A   1      48.007  27.457  23.333  1.00  0.00    -0.205 F 
ATOM     34  C   UNL A   1      50.587  27.730  25.839  1.00  0.00     0.126 A 
ATOM     35  F   UNL A   1      51.878  28.075  25.925  1.00  0.00    -0.207 F 
ENDBRANCH  16  28
ENDBRANCH   5   8
ENDBRANCH   3   4
ENDBRANCH   2   3
ENDBRANCH   1   2
BRANCH   1  36
ATOM     36  C   UNL A   1      40.293  21.680  26.849  1.00  0.00     0.116 C 
BRANCH  36  37
ATOM     37  N   UNL A   1      39.136  22.091  26.066  1.00  0.00    -0.352 N 
ATOM     38  C   UNL A   1      38.540  23.327  26.038  1.00  0.00     0.251 C 
ATOM     39  H   UNL A   1      38.733  21.401  25.489  1.00  0.00     0.163 HD
ATOM     40  O   UNL A   1      37.528  23.538  25.382  1.00  0.00    -0.269 OA
BRANCH  38  41
ATOM     41  C   UNL A   1      39.131  24.395  26.862  1.00  0.00     0.039 A 
ATOM     42  C   UNL A   1      39.877  25.394  26.234  1.00  0.00     0.014 A 
ATOM     43  C   UNL A   1      38.854  24.452  28.232  1.00  0.00     0.014 A 
ATOM     44  C   UNL A   1      40.298  26.496  26.975  1.00  0.00     0.010 A 
ATOM     45  C   UNL A   1      39.229  25.576  28.957  1.00  0.00     0.010 A 
ATOM     46  C   UNL A   1      39.952  26.605  28.332  1.00  0.00    -0.014 A 
BRANCH  46  47
ATOM     47  C   UNL A   1      40.369  27.779  29.128  1.00  0.00     0.031 A 
ATOM     48  C   UNL A   1      41.744  27.810  29.724  1.00  0.00     0.074 A 
ATOM     49  C   UNL A   1      39.501  28.782  29.349  1.00  0.00     0.049 A 
ATOM     50  N   UNL A   1      42.291  28.718  30.489  1.00  0.00    -0.248 NA
ATOM     51  C   UNL A   1      42.613  26.658  29.436  1.00  0.00     0.031 C 
ATOM     52  C   UNL A   1      38.129  28.842  28.842  1.00  0.00     0.029 A 
ATOM     53  N   UNL A   1      39.644  29.945  30.062  1.00  0.00    -0.354 N 
ATOM     54  C   UNL A   1      43.565  28.247  30.772  1.00  0.00     0.074 A 
ATOM     55  C   UNL A   1      43.692  26.951  30.143  1.00  0.00     0.031 C 
ATOM     56  C   UNL A   1      37.564  29.992  29.245  1.00  0.00     0.029 A 
ATOM     57  C   UNL A   1      38.524  30.738  30.055  1.00  0.00     0.049 A 
ATOM     58  H   UNL A   1      40.473  30.187  30.535  1.00  0.00     0.167 HD
ATOM     59  C   UNL A   1      44.549  28.857  31.471  1.00  0.00     0.037 A 
ATOM     60  C   UNL A   1      38.304  31.932  30.636  1.00  0.00     0.037 A 
ATOM     61  C   UNL A   1      44.425  30.151  32.080  1.00  0.00     0.049 A 
ATOM     62  C   UNL A   1      39.406  32.575  31.431  1.00  0.00     0.074 A 
ATOM     63  C   UNL A   1      45.376  30.872  32.779  1.00  0.00     0.029 A 
ATOM     64  N   UNL A   1      43.272  30.922  32.057  1.00  0.00    -0.354 N 
ATOM     65  N   UNL A   1      40.623  32.144  31.656  1.00  0.00    -0.248 NA
ATOM     66  C   UNL A   1      39.106  33.874  32.051  1.00  0.00     0.031 C 
ATOM     67  C   UNL A   1      44.791  32.068  33.205  1.00  0.00     0.029 A 
ATOM     68  C   UNL A   1      43.484  32.107  32.743  1.00  0.00     0.049 A 
ATOM     69  H   UNL A   1      42.429  30.666  31.619  1.00  0.00     0.167 HD
ATOM     70  C   UNL A   1      41.240  33.121  32.423  1.00  0.00     0.074 A 
ATOM     71  C   UNL A   1      40.266  34.175  32.619  1.00  0.00     0.031 C 
ATOM     72  C   UNL A   1      42.501  33.144  32.919  1.00  0.00     0.037 A 
BRANCH  59  73
ATOM     73  C   UNL A   1      45.852  28.129  31.596  1.00  0.00     0.064 A 
ATOM     74  C   UNL A   1      46.037  27.134  32.568  1.00  0.00     0.173 A 
ATOM     75  C   UNL A   1      46.915  28.409  30.726  1.00  0.00     0.173 A 
ATOM     76  F   UNL A   1      45.054  26.846  33.434  1.00  0.00    -0.203 F 
ATOM     77  C   UNL A   1      47.249  26.459  32.677  1.00  0.00     0.198 A 
ATOM     78  C   UNL A   1      48.118  27.715  30.824  1.00  0.00     0.198 A 
ATOM     79  F   UNL A   1      46.786  29.353  29.782  1.00  0.00    -0.203 F 
ATOM     80  F   UNL A   1      47.418  25.540  33.638  1.00  0.00    -0.200 F 
ATOM     81  C   UNL A   1      48.285  26.744  31.801  1.00  0.00     0.200 A 
ATOM     82  F   UNL A   1      49.118  27.987  29.974  1.00  0.00    -0.200 F 
ATOM     83  F   UNL A   1      49.450  26.090  31.905  1.00  0.00    -0.200 F 
ENDBRANCH  59  73
BRANCH  60  84
ATOM     84  C   UNL A   1      37.000  32.613  30.451  1.00  0.00     0.064 A 
ATOM     85  C   UNL A   1      36.751  33.378  29.304  1.00  0.00     0.173 A 
ATOM     86  C   UNL A   1      35.976  32.508  31.404  1.00  0.00     0.173 A 
ATOM     87  F   UNL A   1      37.709  33.523  28.376  1.00  0.00    -0.203 F 
ATOM     88  C   UNL A   1      35.529  34.022  29.119  1.00  0.00     0.198 A 
ATOM     89  C   UNL A   1      34.748  33.137  31.210  1.00  0.00     0.198 A 
ATOM     90  F   UNL A   1      36.167  31.786  32.517  1.00  0.00    -0.203 F 
ATOM     91  F   UNL A   1      35.327  34.771  28.027  1.00  0.00    -0.200 F 
ATOM     92  C   UNL A   1      34.526  33.896  30.070  1.00  0.00     0.200 A 
ATOM     93  F   UNL A   1      33.779  33.008  32.126  1.00  0.00    -0.200 F 
ATOM     94  F   UNL A   1      33.350  34.512  29.890  1.00  0.00    -0.200 F 
ENDBRANCH  60  84
BRANCH  72  95
ATOM     95  C   UNL A   1      42.911  34.349  33.708  1.00  0.00     0.064 A 
ATOM     96  C   UNL A   1      42.811  34.374  35.106  1.00  0.00     0.173 A 
ATOM     97  C   UNL A   1      43.480  35.458  33.066  1.00  0.00     0.173 A 
ATOM     98  F   UNL A   1      42.260  33.340  35.761  1.00  0.00    -0.203 F 
ATOM     99  C   UNL A   1      43.261  35.470  35.834  1.00  0.00     0.198 A 
ATOM    100  C   UNL A   1      43.949  36.544  33.797  1.00  0.00     0.198 A 
ATOM    101  F   UNL A   1      43.601  35.477  31.729  1.00  0.00    -0.203 F 
ATOM    102  F   UNL A   1      43.137  35.485  37.168  1.00  0.00    -0.200 F 
ATOM    103  C   UNL A   1      43.839  36.550  35.180  1.00  0.00     0.200 A 
ATOM    104  F   UNL A   1      44.516  37.582  33.167  1.00  0.00    -0.200 F 
ATOM    105  F   UNL A   1      44.287  37.598  35.884  1.00  0.00    -0.200 F 
ENDBRANCH  72  95
ENDBRANCH  46  47
ENDBRANCH  38  41
ENDBRANCH  36  37
ENDBRANCH   1  36
TORSDOF 13
ENDMDL
