MODEL 1
REMARK VINA RESULT:     -12.6      0.000      0.000
REMARK SMILES Cc1cc(C)cc(-c2ccc([C@@H](C)C(=O)NCCCCNC(=O)c3ccc(-c4c5nc(c(-c6c(F)c(F)c(F)c(F)c6F)c6ccc([nH]6)c(-c6c(F)c(F)c(F)c(F)c6F)c6nc(c(-c7c(F)c(F)c(F)c(F)c7F)c7ccc4[nH]7)C=C6)C=C5)cc3)cc2F)c1
REMARK SMILES IDX 18 1 17 2 16 3 14 4 15 5 12 7 13 8 11 9 8 10 9 11 88 12
REMARK SMILES IDX 10 13 87 14 89 15 7 16 1 17 2 18 3 19 90 20 4 21 5 22 6 23
REMARK SMILES IDX 19 24 20 25 21 26 22 27 23 29 24 30 25 31 86 32 26 33 85 34
REMARK SMILES IDX 27 35 28 36 29 37 79 38 30 39 84 40 78 41 80 42 31 43 83 44
REMARK SMILES IDX 77 45 76 46 32 48 64 49 44 50 63 51 45 52 48 53 62 54 81 55
REMARK SMILES IDX 46 56 47 57 61 59 82 60 49 61 33 62 34 63 42 64 35 65 36 66
REMARK SMILES IDX 40 67 43 68 37 69 38 70 41 71 39 72 65 73 66 74 74 75 67 76
REMARK SMILES IDX 68 77 72 78 75 79 69 80 70 81 73 82 71 83 50 84 51 85 59 86
REMARK SMILES IDX 52 87 53 88 57 89 60 90 54 91 55 92 58 93 56 94
REMARK H PARENT 16 6 21 28 80 47 48 58
REMARK Flexibility Score: inf
ROOT
ATOM      1  C   UNL A   1      32.729  29.628  25.148  1.00  0.00     0.023 C 
ENDROOT
BRANCH   1   2
ATOM      2  C   UNL A   1      31.213  29.602  24.948  1.00  0.00     0.116 C 
BRANCH   2   3
ATOM      3  N   UNL A   1      30.838  29.867  23.575  1.00  0.00    -0.356 N 
ATOM      4  C   UNL A   1      30.327  29.057  22.607  1.00  0.00     0.227 C 
ATOM      5  O   UNL A   1      30.172  29.566  21.490  1.00  0.00    -0.274 OA
ATOM      6  H   UNL A   1      30.977  30.800  23.290  1.00  0.00     0.163 HD
BRANCH   4   7
ATOM      7  C   UNL A   1      29.938  27.588  22.840  1.00  0.00     0.105 C 
ATOM      8  C   UNL A   1      28.604  27.409  23.564  1.00  0.00     0.023 C 
BRANCH   7   9
ATOM      9  C   UNL A   1      31.094  26.732  23.335  1.00  0.00    -0.033 A 
ATOM     10  C   UNL A   1      33.144  24.938  24.233  1.00  0.00     0.017 A 
ATOM     11  C   UNL A   1      33.315  25.759  23.104  1.00  0.00     0.012 A 
ATOM     12  C   UNL A   1      31.931  25.079  24.922  1.00  0.00     0.131 A 
ATOM     13  C   UNL A   1      32.327  26.660  22.683  1.00  0.00     0.005 A 
ATOM     14  C   UNL A   1      30.919  25.938  24.477  1.00  0.00     0.044 A 
ATOM     15  F   UNL A   1      31.695  24.381  26.044  1.00  0.00    -0.206 F 
BRANCH  10  16
ATOM     16  C   UNL A   1      34.193  23.965  24.627  1.00  0.00    -0.015 A 
ATOM     17  C   UNL A   1      37.688  23.926  26.199  1.00  0.00     0.044 C 
ATOM     18  C   UNL A   1      36.385  23.459  25.617  1.00  0.00    -0.050 A 
ATOM     19  C   UNL A   1      36.136  22.090  25.481  1.00  0.00     0.006 A 
ATOM     20  C   UNL A   1      35.412  24.378  25.198  1.00  0.00     0.012 A 
ATOM     21  C   UNL A   1      34.937  21.639  24.926  1.00  0.00    -0.050 A 
ATOM     22  C   UNL A   1      34.672  20.168  24.801  1.00  0.00     0.044 C 
ATOM     23  C   UNL A   1      33.991  22.577  24.487  1.00  0.00     0.012 A 
ENDBRANCH  10  16
ENDBRANCH   7   9
ENDBRANCH   4   7
ENDBRANCH   2   3
ENDBRANCH   1   2
BRANCH   1  24
ATOM     24  C   UNL A   1      33.305  28.417  25.880  1.00  0.00     0.023 C 
BRANCH  24  25
ATOM     25  C   UNL A   1      33.705  28.657  27.332  1.00  0.00     0.116 C 
BRANCH  25  26
ATOM     26  N   UNL A   1      33.737  30.061  27.717  1.00  0.00    -0.352 N 
ATOM     27  C   UNL A   1      34.786  30.775  28.250  1.00  0.00     0.251 C 
ATOM     28  H   UNL A   1      32.900  30.563  27.581  1.00  0.00     0.163 HD
ATOM     29  O   UNL A   1      34.644  31.943  28.588  1.00  0.00    -0.269 OA
BRANCH  27  30
ATOM     30  C   UNL A   1      36.079  30.093  28.461  1.00  0.00     0.039 A 
ATOM     31  C   UNL A   1      37.045  30.156  27.453  1.00  0.00     0.014 A 
ATOM     32  C   UNL A   1      36.363  29.465  29.676  1.00  0.00     0.014 A 
ATOM     33  C   UNL A   1      38.331  29.674  27.702  1.00  0.00     0.010 A 
ATOM     34  C   UNL A   1      37.660  29.045  29.946  1.00  0.00     0.010 A 
ATOM     35  C   UNL A   1      38.660  29.164  28.968  1.00  0.00    -0.014 A 
BRANCH  35  36
ATOM     36  C   UNL A   1      40.053  28.788  29.311  1.00  0.00     0.031 A 
ATOM     37  C   UNL A   1      40.917  29.731  30.098  1.00  0.00     0.074 A 
ATOM     38  C   UNL A   1      40.568  27.641  28.828  1.00  0.00     0.049 A 
ATOM     39  N   UNL A   1      42.188  29.638  30.389  1.00  0.00    -0.248 NA
ATOM     40  C   UNL A   1      40.272  30.954  30.600  1.00  0.00     0.031 C 
ATOM     41  C   UNL A   1      39.845  26.668  28.008  1.00  0.00     0.029 A 
ATOM     42  N   UNL A   1      41.828  27.105  28.943  1.00  0.00    -0.354 N 
ATOM     43  C   UNL A   1      42.500  30.796  31.086  1.00  0.00     0.074 A 
ATOM     44  C   UNL A   1      41.296  31.596  31.144  1.00  0.00     0.031 C 
ATOM     45  C   UNL A   1      40.664  25.648  27.710  1.00  0.00     0.029 A 
ATOM     46  C   UNL A   1      41.980  25.911  28.284  1.00  0.00     0.049 A 
ATOM     47  H   UNL A   1      42.553  27.538  29.449  1.00  0.00     0.167 HD
ATOM     48  C   UNL A   1      43.681  31.148  31.645  1.00  0.00     0.037 A 
ATOM     49  C   UNL A   1      43.062  25.119  28.149  1.00  0.00     0.037 A 
ATOM     50  C   UNL A   1      44.864  30.331  31.626  1.00  0.00     0.049 A 
ATOM     51  C   UNL A   1      44.359  25.529  28.791  1.00  0.00     0.074 A 
ATOM     52  C   UNL A   1      46.083  30.567  32.234  1.00  0.00     0.029 A 
ATOM     53  N   UNL A   1      44.973  29.116  30.966  1.00  0.00    -0.354 N 
ATOM     54  N   UNL A   1      44.626  26.601  29.494  1.00  0.00    -0.248 NA
ATOM     55  C   UNL A   1      45.503  24.622  28.618  1.00  0.00     0.031 C 
ATOM     56  C   UNL A   1      46.942  29.512  31.916  1.00  0.00     0.029 A 
ATOM     57  C   UNL A   1      46.246  28.600  31.138  1.00  0.00     0.049 A 
ATOM     58  H   UNL A   1      44.253  28.685  30.451  1.00  0.00     0.167 HD
ATOM     59  C   UNL A   1      45.961  26.492  29.862  1.00  0.00     0.074 A 
ATOM     60  C   UNL A   1      46.446  25.244  29.313  1.00  0.00     0.031 C 
ATOM     61  C   UNL A   1      46.713  27.353  30.588  1.00  0.00     0.037 A 
BRANCH  48  62
ATOM     62  C   UNL A   1      43.754  32.472  32.344  1.00  0.00     0.064 A 
ATOM     63  C   UNL A   1      43.418  32.580  33.701  1.00  0.00     0.173 A 
ATOM     64  C   UNL A   1      44.093  33.645  31.653  1.00  0.00     0.173 A 
ATOM     65  F   UNL A   1      43.082  31.488  34.404  1.00  0.00    -0.203 F 
ATOM     66  C   UNL A   1      43.411  33.817  34.339  1.00  0.00     0.198 A 
ATOM     67  C   UNL A   1      44.108  34.877  32.300  1.00  0.00     0.198 A 
ATOM     68  F   UNL A   1      44.434  33.590  30.356  1.00  0.00    -0.203 F 
ATOM     69  F   UNL A   1      43.063  33.901  35.630  1.00  0.00    -0.200 F 
ATOM     70  C   UNL A   1      43.758  34.963  33.639  1.00  0.00     0.200 A 
ATOM     71  F   UNL A   1      44.465  35.980  31.629  1.00  0.00    -0.200 F 
ATOM     72  F   UNL A   1      43.761  36.152  34.258  1.00  0.00    -0.200 F 
ENDBRANCH  48  62
BRANCH  49  73
ATOM     73  C   UNL A   1      42.951  23.847  27.393  1.00  0.00     0.064 A 
ATOM     74  C   UNL A   1      42.526  22.662  28.013  1.00  0.00     0.173 A 
ATOM     75  C   UNL A   1      43.300  23.788  26.037  1.00  0.00     0.173 A 
ATOM     76  F   UNL A   1      42.187  22.667  29.310  1.00  0.00    -0.203 F 
ATOM     77  C   UNL A   1      42.469  21.463  27.305  1.00  0.00     0.198 A 
ATOM     78  C   UNL A   1      43.222  22.593  25.327  1.00  0.00     0.198 A 
ATOM     79  F   UNL A   1      43.693  24.900  25.400  1.00  0.00    -0.203 F 
ATOM     80  F   UNL A   1      42.086  20.339  27.926  1.00  0.00    -0.200 F 
ATOM     81  C   UNL A   1      42.814  21.430  25.962  1.00  0.00     0.200 A 
ATOM     82  F   UNL A   1      43.537  22.569  24.024  1.00  0.00    -0.200 F 
ATOM     83  F   UNL A   1      42.750  20.278  25.280  1.00  0.00    -0.200 F 
ENDBRANCH  49  73
BRANCH  61  84
ATOM     84  C   UNL A   1      48.140  26.981  30.847  1.00  0.00     0.064 A 
ATOM     85  C   UNL A   1      49.154  27.398  29.972  1.00  0.00     0.173 A 
ATOM     86  C   UNL A   1      48.489  26.136  31.910  1.00  0.00     0.173 A 
ATOM     87  F   UNL A   1      48.866  28.202  28.937  1.00  0.00    -0.203 F 
ATOM     88  C   UNL A   1      50.466  26.965  30.141  1.00  0.00     0.198 A 
ATOM     89  C   UNL A   1      49.806  25.722  32.088  1.00  0.00     0.198 A 
ATOM     90  F   UNL A   1      47.555  25.723  32.779  1.00  0.00    -0.203 F 
ATOM     91  F   UNL A   1      51.413  27.348  29.274  1.00  0.00    -0.200 F 
ATOM     92  C   UNL A   1      50.790  26.129  31.198  1.00  0.00     0.200 A 
ATOM     93  F   UNL A   1      50.123  24.929  33.120  1.00  0.00    -0.200 F 
ATOM     94  F   UNL A   1      52.054  25.712  31.359  1.00  0.00    -0.200 F 
ENDBRANCH  61  84
ENDBRANCH  35  36
ENDBRANCH  27  30
ENDBRANCH  25  26
ENDBRANCH  24  25
ENDBRANCH   1  24
TORSDOF 13
ENDMDL
MODEL 2
REMARK VINA RESULT:     -12.5      3.627      5.373
REMARK SMILES Cc1cc(C)cc(-c2ccc([C@@H](C)C(=O)NCCCCNC(=O)c3ccc(-c4c5nc(c(-c6c(F)c(F)c(F)c(F)c6F)c6ccc([nH]6)c(-c6c(F)c(F)c(F)c(F)c6F)c6nc(c(-c7c(F)c(F)c(F)c(F)c7F)c7ccc4[nH]7)C=C6)C=C5)cc3)cc2F)c1
REMARK SMILES IDX 18 1 17 2 16 3 14 4 15 5 12 7 13 8 11 9 8 10 9 11 88 12
REMARK SMILES IDX 10 13 87 14 89 15 7 16 1 17 2 18 3 19 90 20 4 21 5 22 6 23
REMARK SMILES IDX 19 24 20 25 21 26 22 27 23 29 24 30 25 31 86 32 26 33 85 34
REMARK SMILES IDX 27 35 28 36 29 37 79 38 30 39 84 40 78 41 80 42 31 43 83 44
REMARK SMILES IDX 77 45 76 46 32 48 64 49 44 50 63 51 45 52 48 53 62 54 81 55
REMARK SMILES IDX 46 56 47 57 61 59 82 60 49 61 33 62 34 63 42 64 35 65 36 66
REMARK SMILES IDX 40 67 43 68 37 69 38 70 41 71 39 72 65 73 66 74 74 75 67 76
REMARK SMILES IDX 68 77 72 78 75 79 69 80 70 81 73 82 71 83 50 84 51 85 59 86
REMARK SMILES IDX 52 87 53 88 57 89 60 90 54 91 55 92 58 93 56 94
REMARK H PARENT 16 6 21 28 80 47 48 58
REMARK Flexibility Score: inf
ROOT
ATOM      1  C   UNL A   1      31.788  30.547  26.846  1.00  0.00     0.023 C 
ENDROOT
BRANCH   1   2
ATOM      2  C   UNL A   1      32.613  29.848  25.766  1.00  0.00     0.116 C 
BRANCH   2   3
ATOM      3  N   UNL A   1      31.780  29.192  24.780  1.00  0.00    -0.356 N 
ATOM      4  C   UNL A   1      32.089  28.354  23.753  1.00  0.00     0.227 C 
ATOM      5  O   UNL A   1      31.149  28.005  23.027  1.00  0.00    -0.274 OA
ATOM      6  H   UNL A   1      30.818  29.386  24.869  1.00  0.00     0.163 HD
BRANCH   4   7
ATOM      7  C   UNL A   1      33.507  27.832  23.472  1.00  0.00     0.105 C 
ATOM      8  C   UNL A   1      34.091  28.314  22.144  1.00  0.00     0.023 C 
BRANCH   7   9
ATOM      9  C   UNL A   1      33.677  26.353  23.787  1.00  0.00    -0.033 A 
ATOM     10  C   UNL A   1      34.177  23.567  24.246  1.00  0.00     0.017 A 
ATOM     11  C   UNL A   1      34.223  24.513  25.286  1.00  0.00     0.012 A 
ATOM     12  C   UNL A   1      33.829  24.057  22.979  1.00  0.00     0.131 A 
ATOM     13  C   UNL A   1      33.946  25.870  25.069  1.00  0.00     0.005 A 
ATOM     14  C   UNL A   1      33.603  25.418  22.745  1.00  0.00     0.044 A 
ATOM     15  F   UNL A   1      33.703  23.225  21.934  1.00  0.00    -0.206 F 
BRANCH  10  16
ATOM     16  C   UNL A   1      34.516  22.144  24.501  1.00  0.00    -0.015 A 
ATOM     17  C   UNL A   1      32.771  18.749  24.836  1.00  0.00     0.044 C 
ATOM     18  C   UNL A   1      33.847  19.792  24.752  1.00  0.00    -0.050 A 
ATOM     19  C   UNL A   1      35.189  19.419  24.873  1.00  0.00     0.006 A 
ATOM     20  C   UNL A   1      33.526  21.145  24.560  1.00  0.00     0.012 A 
ATOM     21  C   UNL A   1      36.200  20.379  24.815  1.00  0.00    -0.050 A 
ATOM     22  C   UNL A   1      37.638  19.965  24.928  1.00  0.00     0.044 C 
ATOM     23  C   UNL A   1      35.854  21.729  24.651  1.00  0.00     0.012 A 
ENDBRANCH  10  16
ENDBRANCH   7   9
ENDBRANCH   4   7
ENDBRANCH   2   3
ENDBRANCH   1   2
BRANCH   1  24
ATOM     24  C   UNL A   1      31.711  32.068  26.718  1.00  0.00     0.023 C 
BRANCH  24  25
ATOM     25  C   UNL A   1      32.802  32.843  27.449  1.00  0.00     0.116 C 
BRANCH  25  26
ATOM     26  N   UNL A   1      32.448  34.220  27.763  1.00  0.00    -0.352 N 
ATOM     27  C   UNL A   1      33.033  35.064  28.680  1.00  0.00     0.251 C 
ATOM     28  H   UNL A   1      31.692  34.595  27.254  1.00  0.00     0.163 HD
ATOM     29  O   UNL A   1      32.582  36.184  28.881  1.00  0.00    -0.269 OA
BRANCH  27  30
ATOM     30  C   UNL A   1      34.187  34.576  29.462  1.00  0.00     0.039 A 
ATOM     31  C   UNL A   1      33.958  34.017  30.722  1.00  0.00     0.014 A 
ATOM     32  C   UNL A   1      35.474  34.598  28.920  1.00  0.00     0.014 A 
ATOM     33  C   UNL A   1      35.007  33.391  31.398  1.00  0.00     0.010 A 
ATOM     34  C   UNL A   1      36.502  33.918  29.563  1.00  0.00     0.010 A 
ATOM     35  C   UNL A   1      36.272  33.292  30.798  1.00  0.00    -0.014 A 
BRANCH  35  36
ATOM     36  C   UNL A   1      37.362  32.501  31.420  1.00  0.00     0.031 A 
ATOM     37  C   UNL A   1      37.872  32.862  32.784  1.00  0.00     0.074 A 
ATOM     38  C   UNL A   1      37.956  31.520  30.713  1.00  0.00     0.049 A 
ATOM     39  N   UNL A   1      38.891  32.373  33.441  1.00  0.00    -0.248 NA
ATOM     40  C   UNL A   1      37.157  33.935  33.493  1.00  0.00     0.031 C 
ATOM     41  C   UNL A   1      37.584  31.110  29.357  1.00  0.00     0.029 A 
ATOM     42  N   UNL A   1      39.010  30.698  31.029  1.00  0.00    -0.354 N 
ATOM     43  C   UNL A   1      38.955  33.092  34.626  1.00  0.00     0.074 A 
ATOM     44  C   UNL A   1      37.895  34.076  34.585  1.00  0.00     0.031 C 
ATOM     45  C   UNL A   1      38.384  30.105  28.967  1.00  0.00     0.029 A 
ATOM     46  C   UNL A   1      39.348  29.824  30.026  1.00  0.00     0.049 A 
ATOM     47  H   UNL A   1      39.480  30.735  31.894  1.00  0.00     0.167 HD
ATOM     48  C   UNL A   1      39.810  32.929  35.663  1.00  0.00     0.037 A 
ATOM     49  C   UNL A   1      40.331  28.905  29.963  1.00  0.00     0.037 A 
ATOM     50  C   UNL A   1      40.833  31.921  35.720  1.00  0.00     0.049 A 
ATOM     51  C   UNL A   1      41.258  28.736  31.134  1.00  0.00     0.074 A 
ATOM     52  C   UNL A   1      41.693  31.626  36.762  1.00  0.00     0.029 A 
ATOM     53  N   UNL A   1      41.131  31.039  34.692  1.00  0.00    -0.354 N 
ATOM     54  N   UNL A   1      41.273  29.385  32.272  1.00  0.00    -0.248 NA
ATOM     55  C   UNL A   1      42.306  27.712  31.012  1.00  0.00     0.031 C 
ATOM     56  C   UNL A   1      42.535  30.588  36.354  1.00  0.00     0.029 A 
ATOM     57  C   UNL A   1      42.175  30.211  35.070  1.00  0.00     0.049 A 
ATOM     58  H   UNL A   1      40.669  31.006  33.823  1.00  0.00     0.167 HD
ATOM     59  C   UNL A   1      42.317  28.840  33.008  1.00  0.00     0.074 A 
ATOM     60  C   UNL A   1      42.905  27.799  32.192  1.00  0.00     0.031 C 
ATOM     61  C   UNL A   1      42.747  29.177  34.247  1.00  0.00     0.037 A 
BRANCH  48  62
ATOM     62  C   UNL A   1      39.668  33.853  36.834  1.00  0.00     0.064 A 
ATOM     63  C   UNL A   1      38.860  33.499  37.925  1.00  0.00     0.173 A 
ATOM     64  C   UNL A   1      40.279  35.115  36.848  1.00  0.00     0.173 A 
ATOM     65  F   UNL A   1      38.250  32.305  37.957  1.00  0.00    -0.203 F 
ATOM     66  C   UNL A   1      38.663  34.382  38.983  1.00  0.00     0.198 A 
ATOM     67  C   UNL A   1      40.098  35.985  37.919  1.00  0.00     0.198 A 
ATOM     68  F   UNL A   1      41.070  35.493  35.832  1.00  0.00    -0.203 F 
ATOM     69  F   UNL A   1      37.867  34.034  40.004  1.00  0.00    -0.200 F 
ATOM     70  C   UNL A   1      39.284  35.622  38.981  1.00  0.00     0.200 A 
ATOM     71  F   UNL A   1      40.716  37.174  37.925  1.00  0.00    -0.200 F 
ATOM     72  F   UNL A   1      39.100  36.467  40.005  1.00  0.00    -0.200 F 
ENDBRANCH  48  62
BRANCH  49  73
ATOM     73  C   UNL A   1      40.466  28.057  28.752  1.00  0.00     0.064 A 
ATOM     74  C   UNL A   1      41.233  28.469  27.652  1.00  0.00     0.173 A 
ATOM     75  C   UNL A   1      39.801  26.827  28.663  1.00  0.00     0.173 A 
ATOM     76  F   UNL A   1      41.884  29.640  27.688  1.00  0.00    -0.203 F 
ATOM     77  C   UNL A   1      41.317  27.686  26.503  1.00  0.00     0.198 A 
ATOM     78  C   UNL A   1      39.903  26.036  27.521  1.00  0.00     0.198 A 
ATOM     79  F   UNL A   1      39.072  26.385  29.698  1.00  0.00    -0.203 F 
ATOM     80  F   UNL A   1      42.034  28.114  25.454  1.00  0.00    -0.200 F 
ATOM     81  C   UNL A   1      40.654  26.469  26.439  1.00  0.00     0.200 A 
ATOM     82  F   UNL A   1      39.277  24.851  27.472  1.00  0.00    -0.200 F 
ATOM     83  F   UNL A   1      40.743  25.713  25.336  1.00  0.00    -0.200 F 
ENDBRANCH  49  73
BRANCH  61  84
ATOM     84  C   UNL A   1      43.902  28.411  34.814  1.00  0.00     0.064 A 
ATOM     85  C   UNL A   1      45.218  28.844  34.594  1.00  0.00     0.173 A 
ATOM     86  C   UNL A   1      43.709  27.201  35.495  1.00  0.00     0.173 A 
ATOM     87  F   UNL A   1      45.452  29.993  33.941  1.00  0.00    -0.203 F 
ATOM     88  C   UNL A   1      46.302  28.081  35.019  1.00  0.00     0.198 A 
ATOM     89  C   UNL A   1      44.795  26.451  35.937  1.00  0.00     0.198 A 
ATOM     90  F   UNL A   1      42.468  26.755  35.738  1.00  0.00    -0.203 F 
ATOM     91  F   UNL A   1      47.551  28.496  34.769  1.00  0.00    -0.200 F 
ATOM     92  C   UNL A   1      46.089  26.887  35.690  1.00  0.00     0.200 A 
ATOM     93  F   UNL A   1      44.590  25.306  36.601  1.00  0.00    -0.200 F 
ATOM     94  F   UNL A   1      47.133  26.152  36.099  1.00  0.00    -0.200 F 
ENDBRANCH  61  84
ENDBRANCH  35  36
ENDBRANCH  27  30
ENDBRANCH  25  26
ENDBRANCH  24  25
ENDBRANCH   1  24
TORSDOF 13
ENDMDL
MODEL 3
REMARK VINA RESULT:     -12.5      3.842      8.820
REMARK SMILES Cc1cc(C)cc(-c2ccc([C@@H](C)C(=O)NCCCCNC(=O)c3ccc(-c4c5nc(c(-c6c(F)c(F)c(F)c(F)c6F)c6ccc([nH]6)c(-c6c(F)c(F)c(F)c(F)c6F)c6nc(c(-c7c(F)c(F)c(F)c(F)c7F)c7ccc4[nH]7)C=C6)C=C5)cc3)cc2F)c1
REMARK SMILES IDX 18 1 17 2 16 3 14 4 15 5 12 7 13 8 11 9 8 10 9 11 88 12
REMARK SMILES IDX 10 13 87 14 89 15 7 16 1 17 2 18 3 19 90 20 4 21 5 22 6 23
REMARK SMILES IDX 19 24 20 25 21 26 22 27 23 29 24 30 25 31 86 32 26 33 85 34
REMARK SMILES IDX 27 35 28 36 29 37 79 38 30 39 84 40 78 41 80 42 31 43 83 44
REMARK SMILES IDX 77 45 76 46 32 48 64 49 44 50 63 51 45 52 48 53 62 54 81 55
REMARK SMILES IDX 46 56 47 57 61 59 82 60 49 61 33 62 34 63 42 64 35 65 36 66
REMARK SMILES IDX 40 67 43 68 37 69 38 70 41 71 39 72 65 73 66 74 74 75 67 76
REMARK SMILES IDX 68 77 72 78 75 79 69 80 70 81 73 82 71 83 50 84 51 85 59 86
REMARK SMILES IDX 52 87 53 88 57 89 60 90 54 91 55 92 58 93 56 94
REMARK H PARENT 16 6 21 28 80 47 48 58
REMARK Flexibility Score: inf
ROOT
ATOM      1  C   UNL A   1      32.076  30.393  26.912  1.00  0.00     0.023 C 
ENDROOT
BRANCH   1   2
ATOM      2  C   UNL A   1      32.805  29.842  25.686  1.00  0.00     0.116 C 
BRANCH   2   3
ATOM      3  N   UNL A   1      31.908  29.163  24.776  1.00  0.00    -0.356 N 
ATOM      4  C   UNL A   1      32.147  28.299  23.751  1.00  0.00     0.227 C 
ATOM      5  O   UNL A   1      31.161  27.933  23.099  1.00  0.00    -0.274 OA
ATOM      6  H   UNL A   1      30.954  29.360  24.925  1.00  0.00     0.163 HD
BRANCH   4   7
ATOM      7  C   UNL A   1      33.544  27.770  23.388  1.00  0.00     0.105 C 
ATOM      8  C   UNL A   1      34.052  28.249  22.028  1.00  0.00     0.023 C 
BRANCH   7   9
ATOM      9  C   UNL A   1      33.724  26.290  23.692  1.00  0.00    -0.033 A 
ATOM     10  C   UNL A   1      34.230  23.499  24.116  1.00  0.00     0.017 A 
ATOM     11  C   UNL A   1      34.374  24.447  25.145  1.00  0.00     0.012 A 
ATOM     12  C   UNL A   1      33.780  23.989  22.883  1.00  0.00     0.131 A 
ATOM     13  C   UNL A   1      34.095  25.806  24.948  1.00  0.00     0.005 A 
ATOM     14  C   UNL A   1      33.551  25.353  22.663  1.00  0.00     0.044 A 
ATOM     15  F   UNL A   1      33.557  23.156  21.854  1.00  0.00    -0.206 F 
BRANCH  10  16
ATOM     16  C   UNL A   1      34.573  22.073  24.347  1.00  0.00    -0.015 A 
ATOM     17  C   UNL A   1      37.653  19.884  24.980  1.00  0.00     0.044 C 
ATOM     18  C   UNL A   1      36.226  20.313  24.806  1.00  0.00    -0.050 A 
ATOM     19  C   UNL A   1      35.200  19.368  24.903  1.00  0.00     0.006 A 
ATOM     20  C   UNL A   1      35.902  21.652  24.538  1.00  0.00     0.012 A 
ATOM     21  C   UNL A   1      33.867  19.747  24.726  1.00  0.00    -0.050 A 
ATOM     22  C   UNL A   1      32.773  18.729  24.851  1.00  0.00     0.044 C 
ATOM     23  C   UNL A   1      33.571  21.086  24.431  1.00  0.00     0.012 A 
ENDBRANCH  10  16
ENDBRANCH   7   9
ENDBRANCH   4   7
ENDBRANCH   2   3
ENDBRANCH   1   2
BRANCH   1  24
ATOM     24  C   UNL A   1      31.790  31.893  26.874  1.00  0.00     0.023 C 
BRANCH  24  25
ATOM     25  C   UNL A   1      32.851  32.780  27.515  1.00  0.00     0.116 C 
BRANCH  25  26
ATOM     26  N   UNL A   1      32.416  34.146  27.767  1.00  0.00    -0.352 N 
ATOM     27  C   UNL A   1      32.969  35.074  28.621  1.00  0.00     0.251 C 
ATOM     28  H   UNL A   1      31.623  34.443  27.263  1.00  0.00     0.163 HD
ATOM     29  O   UNL A   1      32.450  36.172  28.776  1.00  0.00    -0.269 OA
BRANCH  27  30
ATOM     30  C   UNL A   1      34.174  34.705  29.391  1.00  0.00     0.039 A 
ATOM     31  C   UNL A   1      34.027  34.325  30.727  1.00  0.00     0.014 A 
ATOM     32  C   UNL A   1      35.426  34.658  28.774  1.00  0.00     0.014 A 
ATOM     33  C   UNL A   1      35.122  33.804  31.418  1.00  0.00     0.010 A 
ATOM     34  C   UNL A   1      36.499  34.079  29.441  1.00  0.00     0.010 A 
ATOM     35  C   UNL A   1      36.351  33.629  30.762  1.00  0.00    -0.014 A 
BRANCH  35  36
ATOM     36  C   UNL A   1      37.486  32.937  31.420  1.00  0.00     0.031 A 
ATOM     37  C   UNL A   1      38.139  31.760  30.757  1.00  0.00     0.074 A 
ATOM     38  C   UNL A   1      37.862  33.311  32.659  1.00  0.00     0.049 A 
ATOM     39  N   UNL A   1      39.057  30.953  31.223  1.00  0.00    -0.248 NA
ATOM     40  C   UNL A   1      37.680  31.429  29.399  1.00  0.00     0.031 C 
ATOM     41  C   UNL A   1      37.268  34.406  33.429  1.00  0.00     0.029 A 
ATOM     42  N   UNL A   1      38.822  32.799  33.498  1.00  0.00    -0.354 N 
ATOM     43  C   UNL A   1      39.267  30.008  30.229  1.00  0.00     0.074 A 
ATOM     44  C   UNL A   1      38.357  30.317  29.148  1.00  0.00     0.031 C 
ATOM     45  C   UNL A   1      37.888  34.496  34.615  1.00  0.00     0.029 A 
ATOM     46  C   UNL A   1      38.896  33.443  34.708  1.00  0.00     0.049 A 
ATOM     47  H   UNL A   1      39.401  32.041  33.254  1.00  0.00     0.167 HD
ATOM     48  C   UNL A   1      40.156  28.987  30.215  1.00  0.00     0.037 A 
ATOM     49  C   UNL A   1      39.680  33.206  35.777  1.00  0.00     0.037 A 
ATOM     50  C   UNL A   1      41.091  28.710  31.272  1.00  0.00     0.049 A 
ATOM     51  C   UNL A   1      40.668  32.073  35.728  1.00  0.00     0.074 A 
ATOM     52  C   UNL A   1      42.084  27.749  31.311  1.00  0.00     0.029 A 
ATOM     53  N   UNL A   1      41.150  29.399  32.474  1.00  0.00    -0.354 N 
ATOM     54  N   UNL A   1      40.896  31.221  34.761  1.00  0.00    -0.248 NA
ATOM     55  C   UNL A   1      41.505  31.868  36.920  1.00  0.00     0.031 C 
ATOM     56  C   UNL A   1      42.724  27.833  32.551  1.00  0.00     0.029 A 
ATOM     57  C   UNL A   1      42.152  28.871  33.270  1.00  0.00     0.049 A 
ATOM     58  H   UNL A   1      40.567  30.151  32.725  1.00  0.00     0.167 HD
ATOM     59  C   UNL A   1      41.909  30.388  35.217  1.00  0.00     0.074 A 
ATOM     60  C   UNL A   1      42.261  30.845  36.544  1.00  0.00     0.031 C 
ATOM     61  C   UNL A   1      42.492  29.339  34.588  1.00  0.00     0.037 A 
BRANCH  48  62
ATOM     62  C   UNL A   1      40.176  28.098  29.009  1.00  0.00     0.064 A 
ATOM     63  C   UNL A   1      39.506  26.866  29.022  1.00  0.00     0.173 A 
ATOM     64  C   UNL A   1      40.914  28.436  27.865  1.00  0.00     0.173 A 
ATOM     65  F   UNL A   1      38.791  26.496  30.096  1.00  0.00    -0.203 F 
ATOM     66  C   UNL A   1      39.581  26.000  27.935  1.00  0.00     0.198 A 
ATOM     67  C   UNL A   1      40.967  27.577  26.770  1.00  0.00     0.198 A 
ATOM     68  F   UNL A   1      41.562  29.608  27.801  1.00  0.00    -0.203 F 
ATOM     69  F   UNL A   1      38.953  24.817  27.978  1.00  0.00    -0.200 F 
ATOM     70  C   UNL A   1      40.309  26.358  26.809  1.00  0.00     0.200 A 
ATOM     71  F   UNL A   1      41.651  27.934  25.675  1.00  0.00    -0.200 F 
ATOM     72  F   UNL A   1      40.372  25.527  25.760  1.00  0.00    -0.200 F 
ENDBRANCH  48  62
BRANCH  49  73
ATOM     73  C   UNL A   1      39.577  34.080  36.972  1.00  0.00     0.064 A 
ATOM     74  C   UNL A   1      40.266  35.300  37.048  1.00  0.00     0.173 A 
ATOM     75  C   UNL A   1      38.807  33.693  38.076  1.00  0.00     0.173 A 
ATOM     76  F   UNL A   1      41.019  35.711  36.018  1.00  0.00    -0.203 F 
ATOM     77  C   UNL A   1      40.198  36.092  38.192  1.00  0.00     0.198 A 
ATOM     78  C   UNL A   1      38.724  34.495  39.211  1.00  0.00     0.198 A 
ATOM     79  F   UNL A   1      38.117  32.543  38.039  1.00  0.00    -0.203 F 
ATOM     80  F   UNL A   1      40.886  37.240  38.252  1.00  0.00    -0.200 F 
ATOM     81  C   UNL A   1      39.425  35.690  39.272  1.00  0.00     0.200 A 
ATOM     82  F   UNL A   1      37.960  34.113  40.245  1.00  0.00    -0.200 F 
ATOM     83  F   UNL A   1      39.353  36.457  40.369  1.00  0.00    -0.200 F 
ENDBRANCH  49  73
BRANCH  61  84
ATOM     84  C   UNL A   1      43.581  28.612  35.315  1.00  0.00     0.064 A 
ATOM     85  C   UNL A   1      44.927  28.921  35.072  1.00  0.00     0.173 A 
ATOM     86  C   UNL A   1      43.293  27.548  36.181  1.00  0.00     0.173 A 
ATOM     87  F   UNL A   1      45.251  29.928  34.245  1.00  0.00    -0.203 F 
ATOM     88  C   UNL A   1      45.948  28.177  35.656  1.00  0.00     0.198 A 
ATOM     89  C   UNL A   1      44.316  26.819  36.780  1.00  0.00     0.198 A 
ATOM     90  F   UNL A   1      42.019  27.225  36.452  1.00  0.00    -0.203 F 
ATOM     91  F   UNL A   1      47.228  28.468  35.384  1.00  0.00    -0.200 F 
ATOM     92  C   UNL A   1      45.641  27.128  36.509  1.00  0.00     0.200 A 
ATOM     93  F   UNL A   1      44.020  25.817  37.618  1.00  0.00    -0.200 F 
ATOM     94  F   UNL A   1      46.626  26.411  37.070  1.00  0.00    -0.200 F 
ENDBRANCH  61  84
ENDBRANCH  35  36
ENDBRANCH  27  30
ENDBRANCH  25  26
ENDBRANCH  24  25
ENDBRANCH   1  24
TORSDOF 13
ENDMDL
