MODEL 1
REMARK VINA RESULT:     -12.0      0.000      0.000
REMARK SMILES C#CC[N@@H+](CC(=O)NCCCCNC(=O)c1ccc(-c2c3nc(c(-c4c(F)c(F)c(F)c(F)c4F)c4ccc([nH]4)c(-c4c(F)c(F)c(F)c(F)c4F)c4nc(c(-c5c(F)c(F)c(F)c(F)c5F)c5ccc2[nH]5)C=C4)C=C3)cc1)[C@H]1CC[C@@H](c2ccccc2)CC1
REMARK SMILES IDX 10 1 9 2 8 3 6 4 7 5 5 7 4 8 3 10 2 11 1 12 79 13 90 14
REMARK SMILES IDX 80 15 89 16 81 17 82 18 83 19 84 20 88 21 85 22 87 23 86 24
REMARK SMILES IDX 11 25 12 26 13 27 14 28 15 30 16 31 17 32 78 33 18 34 77 35
REMARK SMILES IDX 19 36 20 37 21 38 71 39 22 40 76 41 70 42 72 43 23 44 75 45
REMARK SMILES IDX 69 46 68 47 24 49 56 50 36 51 55 52 37 53 40 54 54 55 73 56
REMARK SMILES IDX 38 57 39 58 53 60 74 61 41 62 25 63 26 64 34 65 27 66 28 67
REMARK SMILES IDX 32 68 35 69 29 70 30 71 33 72 31 73 57 74 58 75 66 76 59 77
REMARK SMILES IDX 60 78 64 79 67 80 61 81 62 82 65 83 63 84 42 85 43 86 51 87
REMARK SMILES IDX 44 88 45 89 49 90 52 91 46 92 47 93 50 94 48 95
REMARK H PARENT 8 6 4 9 13 29 72 48 40 59
REMARK Flexibility Score: inf
ROOT
ATOM      1  C   UNL A   1      34.993  21.077  24.757  1.00  0.00     0.023 C 
ENDROOT
BRANCH   1   2
ATOM      2  C   UNL A   1      33.647  20.342  24.924  1.00  0.00     0.116 C 
BRANCH   2   3
ATOM      3  N   UNL A   1      32.843  20.364  23.712  1.00  0.00    -0.351 N 
ATOM      4  C   UNL A   1      32.159  21.350  23.057  1.00  0.00     0.275 C 
ATOM      5  O   UNL A   1      31.743  21.044  21.934  1.00  0.00    -0.269 OA
ATOM      6  H   UNL A   1      32.778  19.485  23.272  1.00  0.00     0.163 HD
BRANCH   4   7
ATOM      7  C   UNL A   1      31.941  22.780  23.586  1.00  0.00     0.364 C 
BRANCH   7   8
ATOM      8  N   UNL A   1      32.198  23.930  22.666  1.00  0.00    -0.315 N 
ATOM      9  H   UNL A   1      32.025  23.599  21.717  1.00  0.00     0.349 HD
BRANCH   8  10
ATOM     10  C   UNL A   1      33.578  24.323  22.840  1.00  0.00     0.354 C 
BRANCH  10  11
ATOM     11  C   UNL A   1      34.048  24.796  24.205  1.00  0.00    -0.047 C 
ATOM     12  C   UNL A   1      34.451  25.202  25.377  1.00  0.00     0.010 C 
ENDBRANCH  10  11
ENDBRANCH   8  10
BRANCH   8  13
ATOM     13  C   UNL A   1      31.237  25.066  22.694  1.00  0.00     0.185 C 
ATOM     14  C   UNL A   1      30.460  25.116  24.024  1.00  0.00     0.066 C 
ATOM     15  C   UNL A   1      31.776  26.442  22.238  1.00  0.00     0.066 C 
ATOM     16  C   UNL A   1      29.528  26.332  24.136  1.00  0.00     0.014 C 
ATOM     17  C   UNL A   1      30.778  27.585  22.425  1.00  0.00     0.014 C 
ATOM     18  C   UNL A   1      30.260  27.667  23.876  1.00  0.00     0.019 C 
BRANCH  18  19
ATOM     19  C   UNL A   1      31.331  28.046  24.904  1.00  0.00    -0.045 A 
ATOM     20  C   UNL A   1      31.375  27.471  26.186  1.00  0.00     0.004 A 
ATOM     21  C   UNL A   1      32.315  29.004  24.601  1.00  0.00     0.004 A 
ATOM     22  C   UNL A   1      32.412  27.755  27.080  1.00  0.00     0.000 A 
ATOM     23  C   UNL A   1      33.349  29.297  25.496  1.00  0.00     0.000 A 
ATOM     24  C   UNL A   1      33.407  28.658  26.730  1.00  0.00     0.000 A 
ENDBRANCH  18  19
ENDBRANCH   8  13
ENDBRANCH   7   8
ENDBRANCH   4   7
ENDBRANCH   2   3
ENDBRANCH   1   2
BRANCH   1  25
ATOM     25  C   UNL A   1      35.625  21.680  25.981  1.00  0.00     0.023 C 
BRANCH  25  26
ATOM     26  C   UNL A   1      36.992  22.257  25.749  1.00  0.00     0.116 C 
BRANCH  26  27
ATOM     27  N   UNL A   1      38.075  21.279  25.713  1.00  0.00    -0.352 N 
ATOM     28  C   UNL A   1      39.349  21.438  26.222  1.00  0.00     0.251 C 
ATOM     29  H   UNL A   1      37.877  20.417  25.281  1.00  0.00     0.163 HD
ATOM     30  O   UNL A   1      40.206  20.577  26.108  1.00  0.00    -0.269 OA
BRANCH  28  31
ATOM     31  C   UNL A   1      39.647  22.735  26.860  1.00  0.00     0.039 A 
ATOM     32  C   UNL A   1      40.656  22.799  27.820  1.00  0.00     0.014 A 
ATOM     33  C   UNL A   1      39.098  23.892  26.306  1.00  0.00     0.014 A 
ATOM     34  C   UNL A   1      41.183  24.044  28.161  1.00  0.00     0.010 A 
ATOM     35  C   UNL A   1      39.733  25.101  26.527  1.00  0.00     0.010 A 
ATOM     36  C   UNL A   1      40.762  25.196  27.478  1.00  0.00    -0.014 A 
BRANCH  36  37
ATOM     37  C   UNL A   1      41.314  26.537  27.783  1.00  0.00     0.031 A 
ATOM     38  C   UNL A   1      42.703  26.864  27.303  1.00  0.00     0.074 A 
ATOM     39  C   UNL A   1      40.627  27.410  28.543  1.00  0.00     0.049 A 
ATOM     40  N   UNL A   1      43.450  27.904  27.565  1.00  0.00    -0.248 NA
ATOM     41  C   UNL A   1      43.368  25.848  26.466  1.00  0.00     0.031 C 
ATOM     42  C   UNL A   1      39.306  27.178  29.132  1.00  0.00     0.029 A 
ATOM     43  N   UNL A   1      40.954  28.676  28.959  1.00  0.00    -0.354 N 
ATOM     44  C   UNL A   1      44.677  27.636  26.971  1.00  0.00     0.074 A 
ATOM     45  C   UNL A   1      44.606  26.309  26.409  1.00  0.00     0.031 C 
ATOM     46  C   UNL A   1      38.919  28.281  29.796  1.00  0.00     0.029 A 
ATOM     47  C   UNL A   1      39.976  29.283  29.708  1.00  0.00     0.049 A 
ATOM     48  H   UNL A   1      41.811  29.110  28.741  1.00  0.00     0.167 HD
ATOM     49  C   UNL A   1      45.754  28.446  26.858  1.00  0.00     0.037 A 
ATOM     50  C   UNL A   1      39.942  30.515  30.250  1.00  0.00     0.037 A 
ATOM     51  C   UNL A   1      45.781  29.799  27.336  1.00  0.00     0.049 A 
ATOM     52  C   UNL A   1      41.121  31.430  30.044  1.00  0.00     0.074 A 
ATOM     53  C   UNL A   1      46.778  30.744  27.197  1.00  0.00     0.029 A 
ATOM     54  N   UNL A   1      44.741  30.404  28.026  1.00  0.00    -0.354 N 
ATOM     55  N   UNL A   1      42.251  31.193  29.421  1.00  0.00    -0.248 NA
ATOM     56  C   UNL A   1      41.017  32.784  30.605  1.00  0.00     0.031 C 
ATOM     57  C   UNL A   1      46.350  31.920  27.823  1.00  0.00     0.029 A 
ATOM     58  C   UNL A   1      45.073  31.713  28.323  1.00  0.00     0.049 A 
ATOM     59  H   UNL A   1      43.893  29.966  28.269  1.00  0.00     0.167 HD
ATOM     60  C   UNL A   1      42.981  32.372  29.494  1.00  0.00     0.074 A 
ATOM     61  C   UNL A   1      42.158  33.328  30.207  1.00  0.00     0.031 C 
ATOM     62  C   UNL A   1      44.221  32.642  29.018  1.00  0.00     0.037 A 
BRANCH  49  63
ATOM     63  C   UNL A   1      46.962  27.893  26.164  1.00  0.00     0.064 A 
ATOM     64  C   UNL A   1      47.057  27.865  24.763  1.00  0.00     0.173 A 
ATOM     65  C   UNL A   1      48.034  27.376  26.904  1.00  0.00     0.173 A 
ATOM     66  F   UNL A   1      46.048  28.327  24.008  1.00  0.00    -0.203 F 
ATOM     67  C   UNL A   1      48.163  27.304  24.130  1.00  0.00     0.198 A 
ATOM     68  C   UNL A   1      49.154  26.847  26.268  1.00  0.00     0.198 A 
ATOM     69  F   UNL A   1      47.993  27.377  28.245  1.00  0.00    -0.203 F 
ATOM     70  F   UNL A   1      48.200  27.228  22.793  1.00  0.00    -0.200 F 
ATOM     71  C   UNL A   1      49.213  26.801  24.883  1.00  0.00     0.200 A 
ATOM     72  F   UNL A   1      50.172  26.367  26.995  1.00  0.00    -0.200 F 
ATOM     73  F   UNL A   1      50.277  26.261  24.272  1.00  0.00    -0.200 F 
ENDBRANCH  49  63
BRANCH  50  74
ATOM     74  C   UNL A   1      38.737  30.979  30.985  1.00  0.00     0.064 A 
ATOM     75  C   UNL A   1      37.662  31.565  30.300  1.00  0.00     0.173 A 
ATOM     76  C   UNL A   1      38.631  30.853  32.377  1.00  0.00     0.173 A 
ATOM     77  F   UNL A   1      37.723  31.724  28.970  1.00  0.00    -0.203 F 
ATOM     78  C   UNL A   1      36.538  32.027  30.982  1.00  0.00     0.198 A 
ATOM     79  C   UNL A   1      37.495  31.295  33.055  1.00  0.00     0.198 A 
ATOM     80  F   UNL A   1      39.627  30.293  33.079  1.00  0.00    -0.203 F 
ATOM     81  F   UNL A   1      35.545  32.622  30.306  1.00  0.00    -0.200 F 
ATOM     82  C   UNL A   1      36.454  31.889  32.359  1.00  0.00     0.200 A 
ATOM     83  F   UNL A   1      37.412  31.148  34.385  1.00  0.00    -0.200 F 
ATOM     84  F   UNL A   1      35.372  32.333  33.013  1.00  0.00    -0.200 F 
ENDBRANCH  50  74
BRANCH  62  85
ATOM     85  C   UNL A   1      44.746  34.029  29.222  1.00  0.00     0.064 A 
ATOM     86  C   UNL A   1      44.487  35.052  28.298  1.00  0.00     0.173 A 
ATOM     87  C   UNL A   1      45.463  34.352  30.383  1.00  0.00     0.173 A 
ATOM     88  F   UNL A   1      43.816  34.784  27.167  1.00  0.00    -0.203 F 
ATOM     89  C   UNL A   1      44.945  36.346  28.521  1.00  0.00     0.198 A 
ATOM     90  C   UNL A   1      45.896  35.653  30.615  1.00  0.00     0.198 A 
ATOM     91  F   UNL A   1      45.726  33.407  31.299  1.00  0.00    -0.203 F 
ATOM     92  F   UNL A   1      44.719  37.300  27.608  1.00  0.00    -0.200 F 
ATOM     93  C   UNL A   1      45.642  36.647  29.682  1.00  0.00     0.200 A 
ATOM     94  F   UNL A   1      46.558  35.945  31.743  1.00  0.00    -0.200 F 
ATOM     95  F   UNL A   1      46.073  37.897  29.901  1.00  0.00    -0.200 F 
ENDBRANCH  62  85
ENDBRANCH  36  37
ENDBRANCH  28  31
ENDBRANCH  26  27
ENDBRANCH  25  26
ENDBRANCH   1  25
TORSDOF 16
ENDMDL
MODEL 2
REMARK VINA RESULT:     -11.9      4.701     10.029
REMARK SMILES C#CC[N@@H+](CC(=O)NCCCCNC(=O)c1ccc(-c2c3nc(c(-c4c(F)c(F)c(F)c(F)c4F)c4ccc([nH]4)c(-c4c(F)c(F)c(F)c(F)c4F)c4nc(c(-c5c(F)c(F)c(F)c(F)c5F)c5ccc2[nH]5)C=C4)C=C3)cc1)[C@H]1CC[C@@H](c2ccccc2)CC1
REMARK SMILES IDX 10 1 9 2 8 3 6 4 7 5 5 7 4 8 3 10 2 11 1 12 79 13 90 14
REMARK SMILES IDX 80 15 89 16 81 17 82 18 83 19 84 20 88 21 85 22 87 23 86 24
REMARK SMILES IDX 11 25 12 26 13 27 14 28 15 30 16 31 17 32 78 33 18 34 77 35
REMARK SMILES IDX 19 36 20 37 21 38 71 39 22 40 76 41 70 42 72 43 23 44 75 45
REMARK SMILES IDX 69 46 68 47 24 49 56 50 36 51 55 52 37 53 40 54 54 55 73 56
REMARK SMILES IDX 38 57 39 58 53 60 74 61 41 62 25 63 26 64 34 65 27 66 28 67
REMARK SMILES IDX 32 68 35 69 29 70 30 71 33 72 31 73 57 74 58 75 66 76 59 77
REMARK SMILES IDX 60 78 64 79 67 80 61 81 62 82 65 83 63 84 42 85 43 86 51 87
REMARK SMILES IDX 44 88 45 89 49 90 52 91 46 92 47 93 50 94 48 95
REMARK H PARENT 8 6 4 9 13 29 72 48 40 59
REMARK Flexibility Score: inf
ROOT
ATOM      1  C   UNL A   1      31.930  30.500  26.825  1.00  0.00     0.023 C 
ENDROOT
BRANCH   1   2
ATOM      2  C   UNL A   1      32.243  29.893  25.442  1.00  0.00     0.116 C 
BRANCH   2   3
ATOM      3  N   UNL A   1      31.088  29.886  24.560  1.00  0.00    -0.351 N 
ATOM      4  C   UNL A   1      30.599  28.981  23.659  1.00  0.00     0.275 C 
ATOM      5  O   UNL A   1      29.469  29.230  23.222  1.00  0.00    -0.269 OA
ATOM      6  H   UNL A   1      30.544  30.705  24.623  1.00  0.00     0.163 HD
BRANCH   4   7
ATOM      7  C   UNL A   1      31.315  27.689  23.223  1.00  0.00     0.364 C 
BRANCH   7   8
ATOM      8  N   UNL A   1      30.834  26.384  23.773  1.00  0.00    -0.315 N 
ATOM      9  H   UNL A   1      29.830  26.338  23.602  1.00  0.00     0.349 HD
BRANCH   8  10
ATOM     10  C   UNL A   1      31.124  26.380  25.190  1.00  0.00     0.354 C 
BRANCH  10  11
ATOM     11  C   UNL A   1      32.572  26.377  25.650  1.00  0.00    -0.047 C 
ATOM     12  C   UNL A   1      33.815  26.375  26.045  1.00  0.00     0.010 C 
ENDBRANCH  10  11
ENDBRANCH   8  10
BRANCH   8  13
ATOM     13  C   UNL A   1      31.247  25.141  23.067  1.00  0.00     0.185 C 
ATOM     14  C   UNL A   1      32.609  25.315  22.366  1.00  0.00     0.066 C 
ATOM     15  C   UNL A   1      31.122  23.819  23.860  1.00  0.00     0.066 C 
ATOM     16  C   UNL A   1      33.120  24.026  21.708  1.00  0.00     0.014 C 
ATOM     17  C   UNL A   1      31.693  22.606  23.124  1.00  0.00     0.014 C 
ATOM     18  C   UNL A   1      33.155  22.832  22.687  1.00  0.00     0.019 C 
BRANCH  18  19
ATOM     19  C   UNL A   1      34.145  22.958  23.850  1.00  0.00    -0.045 A 
ATOM     20  C   UNL A   1      35.413  23.543  23.693  1.00  0.00     0.004 A 
ATOM     21  C   UNL A   1      33.818  22.477  25.131  1.00  0.00     0.004 A 
ATOM     22  C   UNL A   1      36.269  23.736  24.782  1.00  0.00     0.000 A 
ATOM     23  C   UNL A   1      34.675  22.661  26.221  1.00  0.00     0.000 A 
ATOM     24  C   UNL A   1      35.894  23.309  26.049  1.00  0.00     0.000 A 
ENDBRANCH  18  19
ENDBRANCH   8  13
ENDBRANCH   7   8
ENDBRANCH   4   7
ENDBRANCH   2   3
ENDBRANCH   1   2
BRANCH   1  25
ATOM     25  C   UNL A   1      31.461  31.928  26.881  1.00  0.00     0.023 C 
BRANCH  25  26
ATOM     26  C   UNL A   1      32.565  32.943  26.816  1.00  0.00     0.116 C 
BRANCH  26  27
ATOM     27  N   UNL A   1      32.397  34.094  27.697  1.00  0.00    -0.352 N 
ATOM     28  C   UNL A   1      33.252  34.495  28.705  1.00  0.00     0.251 C 
ATOM     29  H   UNL A   1      31.590  34.641  27.559  1.00  0.00     0.163 HD
ATOM     30  O   UNL A   1      33.008  35.450  29.422  1.00  0.00    -0.269 OA
BRANCH  28  31
ATOM     31  C   UNL A   1      34.456  33.667  28.916  1.00  0.00     0.039 A 
ATOM     32  C   UNL A   1      35.713  34.256  28.785  1.00  0.00     0.014 A 
ATOM     33  C   UNL A   1      34.303  32.403  29.489  1.00  0.00     0.014 A 
ATOM     34  C   UNL A   1      36.822  33.603  29.320  1.00  0.00     0.010 A 
ATOM     35  C   UNL A   1      35.377  31.841  30.156  1.00  0.00     0.010 A 
ATOM     36  C   UNL A   1      36.653  32.418  30.054  1.00  0.00    -0.014 A 
BRANCH  36  37
ATOM     37  C   UNL A   1      37.797  31.703  30.668  1.00  0.00     0.031 A 
ATOM     38  C   UNL A   1      38.188  32.058  32.078  1.00  0.00     0.074 A 
ATOM     39  C   UNL A   1      38.523  30.821  29.955  1.00  0.00     0.049 A 
ATOM     40  N   UNL A   1      39.229  31.680  32.772  1.00  0.00    -0.248 NA
ATOM     41  C   UNL A   1      37.323  33.024  32.779  1.00  0.00     0.031 C 
ATOM     42  C   UNL A   1      38.290  30.453  28.557  1.00  0.00     0.029 A 
ATOM     43  N   UNL A   1      39.617  30.075  30.314  1.00  0.00    -0.354 N 
ATOM     44  C   UNL A   1      39.164  32.401  33.958  1.00  0.00     0.074 A 
ATOM     45  C   UNL A   1      38.037  33.296  33.858  1.00  0.00     0.031 C 
ATOM     46  C   UNL A   1      39.187  29.521  28.191  1.00  0.00     0.029 A 
ATOM     47  C   UNL A   1      40.076  29.251  29.316  1.00  0.00     0.049 A 
ATOM     48  H   UNL A   1      40.035  30.126  31.204  1.00  0.00     0.167 HD
ATOM     49  C   UNL A   1      39.945  32.290  35.056  1.00  0.00     0.037 A 
ATOM     50  C   UNL A   1      41.095  28.371  29.322  1.00  0.00     0.037 A 
ATOM     51  C   UNL A   1      41.004  31.329  35.181  1.00  0.00     0.049 A 
ATOM     52  C   UNL A   1      41.903  28.207  30.583  1.00  0.00     0.074 A 
ATOM     53  C   UNL A   1      41.800  31.061  36.277  1.00  0.00     0.029 A 
ATOM     54  N   UNL A   1      41.391  30.460  34.174  1.00  0.00    -0.354 N 
ATOM     55  N   UNL A   1      41.792  28.844  31.724  1.00  0.00    -0.248 NA
ATOM     56  C   UNL A   1      42.969  27.196  30.561  1.00  0.00     0.031 C 
ATOM     57  C   UNL A   1      42.689  30.039  35.925  1.00  0.00     0.029 A 
ATOM     58  C   UNL A   1      42.420  29.651  34.621  1.00  0.00     0.049 A 
ATOM     59  H   UNL A   1      40.994  30.423  33.274  1.00  0.00     0.167 HD
ATOM     60  C   UNL A   1      42.753  28.297  32.562  1.00  0.00     0.074 A 
ATOM     61  C   UNL A   1      43.429  27.265  31.803  1.00  0.00     0.031 C 
ATOM     62  C   UNL A   1      43.056  28.620  33.843  1.00  0.00     0.037 A 
BRANCH  49  63
ATOM     63  C   UNL A   1      39.651  33.207  36.205  1.00  0.00     0.064 A 
ATOM     64  C   UNL A   1      38.731  32.860  37.207  1.00  0.00     0.173 A 
ATOM     65  C   UNL A   1      40.289  34.452  36.303  1.00  0.00     0.173 A 
ATOM     66  F   UNL A   1      38.076  31.690  37.146  1.00  0.00    -0.203 F 
ATOM     67  C   UNL A   1      38.430  33.741  38.242  1.00  0.00     0.198 A 
ATOM     68  C   UNL A   1      40.012  35.317  37.360  1.00  0.00     0.198 A 
ATOM     69  F   UNL A   1      41.176  34.834  35.372  1.00  0.00    -0.203 F 
ATOM     70  F   UNL A   1      37.498  33.414  39.148  1.00  0.00    -0.200 F 
ATOM     71  C   UNL A   1      39.076  34.965  38.321  1.00  0.00     0.200 A 
ATOM     72  F   UNL A   1      40.640  36.497  37.439  1.00  0.00    -0.200 F 
ATOM     73  F   UNL A   1      38.785  35.813  39.318  1.00  0.00    -0.200 F 
ENDBRANCH  49  63
BRANCH  50  74
ATOM     74  C   UNL A   1      41.375  27.538  28.124  1.00  0.00     0.064 A 
ATOM     75  C   UNL A   1      40.759  26.289  27.960  1.00  0.00     0.173 A 
ATOM     76  C   UNL A   1      42.260  27.964  27.122  1.00  0.00     0.173 A 
ATOM     77  F   UNL A   1      39.919  25.830  28.899  1.00  0.00    -0.203 F 
ATOM     78  C   UNL A   1      41.034  25.488  26.854  1.00  0.00     0.198 A 
ATOM     79  C   UNL A   1      42.516  27.171  26.004  1.00  0.00     0.198 A 
ATOM     80  F   UNL A   1      42.870  29.154  27.226  1.00  0.00    -0.203 F 
ATOM     81  F   UNL A   1      40.464  24.280  26.747  1.00  0.00    -0.200 F 
ATOM     82  C   UNL A   1      41.910  25.931  25.874  1.00  0.00     0.200 A 
ATOM     83  F   UNL A   1      43.353  27.608  25.053  1.00  0.00    -0.200 F 
ATOM     84  F   UNL A   1      42.173  25.160  24.811  1.00  0.00    -0.200 F 
ENDBRANCH  50  74
BRANCH  62  85
ATOM     85  C   UNL A   1      44.136  27.828  34.512  1.00  0.00     0.064 A 
ATOM     86  C   UNL A   1      45.468  28.266  34.516  1.00  0.00     0.173 A 
ATOM     87  C   UNL A   1      43.824  26.651  35.208  1.00  0.00     0.173 A 
ATOM     88  F   UNL A   1      45.813  29.381  33.853  1.00  0.00    -0.203 F 
ATOM     89  C   UNL A   1      46.454  27.542  35.178  1.00  0.00     0.198 A 
ATOM     90  C   UNL A   1      44.808  25.944  35.891  1.00  0.00     0.198 A 
ATOM     91  F   UNL A   1      42.561  26.198  35.238  1.00  0.00    -0.203 F 
ATOM     92  F   UNL A   1      47.727  27.958  35.140  1.00  0.00    -0.200 F 
ATOM     93  C   UNL A   1      46.122  26.387  35.871  1.00  0.00     0.200 A 
ATOM     94  F   UNL A   1      44.484  24.835  36.570  1.00  0.00    -0.200 F 
ATOM     95  F   UNL A   1      47.072  25.697  36.518  1.00  0.00    -0.200 F 
ENDBRANCH  62  85
ENDBRANCH  36  37
ENDBRANCH  28  31
ENDBRANCH  26  27
ENDBRANCH  25  26
ENDBRANCH   1  25
TORSDOF 16
ENDMDL
MODEL 3
REMARK VINA RESULT:     -11.9      5.617     10.905
REMARK SMILES C#CC[N@@H+](CC(=O)NCCCCNC(=O)c1ccc(-c2c3nc(c(-c4c(F)c(F)c(F)c(F)c4F)c4ccc([nH]4)c(-c4c(F)c(F)c(F)c(F)c4F)c4nc(c(-c5c(F)c(F)c(F)c(F)c5F)c5ccc2[nH]5)C=C4)C=C3)cc1)[C@H]1CC[C@@H](c2ccccc2)CC1
REMARK SMILES IDX 10 1 9 2 8 3 6 4 7 5 5 7 4 8 3 10 2 11 1 12 79 13 90 14
REMARK SMILES IDX 80 15 89 16 81 17 82 18 83 19 84 20 88 21 85 22 87 23 86 24
REMARK SMILES IDX 11 25 12 26 13 27 14 28 15 30 16 31 17 32 78 33 18 34 77 35
REMARK SMILES IDX 19 36 20 37 21 38 71 39 22 40 76 41 70 42 72 43 23 44 75 45
REMARK SMILES IDX 69 46 68 47 24 49 56 50 36 51 55 52 37 53 40 54 54 55 73 56
REMARK SMILES IDX 38 57 39 58 53 60 74 61 41 62 25 63 26 64 34 65 27 66 28 67
REMARK SMILES IDX 32 68 35 69 29 70 30 71 33 72 31 73 57 74 58 75 66 76 59 77
REMARK SMILES IDX 60 78 64 79 67 80 61 81 62 82 65 83 63 84 42 85 43 86 51 87
REMARK SMILES IDX 44 88 45 89 49 90 52 91 46 92 47 93 50 94 48 95
REMARK H PARENT 8 6 4 9 13 29 72 48 40 59
REMARK Flexibility Score: inf
ROOT
ATOM      1  C   UNL A   1      35.386  33.978  28.272  1.00  0.00     0.023 C 
ENDROOT
BRANCH   1   2
ATOM      2  C   UNL A   1      34.891  32.535  28.045  1.00  0.00     0.116 C 
BRANCH   2   3
ATOM      3  N   UNL A   1      35.982  31.590  27.873  1.00  0.00    -0.351 N 
ATOM      4  C   UNL A   1      36.032  30.254  27.586  1.00  0.00     0.275 C 
ATOM      5  O   UNL A   1      37.156  29.814  27.319  1.00  0.00    -0.269 OA
ATOM      6  H   UNL A   1      36.872  31.997  27.989  1.00  0.00     0.163 HD
BRANCH   4   7
ATOM      7  C   UNL A   1      34.811  29.318  27.512  1.00  0.00     0.364 C 
BRANCH   7   8
ATOM      8  N   UNL A   1      33.872  29.455  26.356  1.00  0.00    -0.315 N 
ATOM      9  H   UNL A   1      34.181  30.261  25.814  1.00  0.00     0.349 HD
BRANCH   8  10
ATOM     10  C   UNL A   1      32.548  29.665  26.898  1.00  0.00     0.354 C 
BRANCH  10  11
ATOM     11  C   UNL A   1      31.856  30.997  26.670  1.00  0.00    -0.047 C 
ATOM     12  C   UNL A   1      31.261  32.141  26.474  1.00  0.00     0.010 C 
ENDBRANCH  10  11
ENDBRANCH   8  10
BRANCH   8  13
ATOM     13  C   UNL A   1      33.934  28.420  25.289  1.00  0.00     0.185 C 
ATOM     14  C   UNL A   1      33.096  27.179  25.656  1.00  0.00     0.066 C 
ATOM     15  C   UNL A   1      33.716  28.908  23.837  1.00  0.00     0.066 C 
ATOM     16  C   UNL A   1      33.050  26.127  24.539  1.00  0.00     0.014 C 
ATOM     17  C   UNL A   1      33.654  27.774  22.812  1.00  0.00     0.014 C 
ATOM     18  C   UNL A   1      32.595  26.716  23.186  1.00  0.00     0.019 C 
BRANCH  18  19
ATOM     19  C   UNL A   1      31.152  27.230  23.139  1.00  0.00    -0.045 A 
ATOM     20  C   UNL A   1      30.083  26.509  23.698  1.00  0.00     0.004 A 
ATOM     21  C   UNL A   1      30.841  28.452  22.517  1.00  0.00     0.004 A 
ATOM     22  C   UNL A   1      28.786  27.031  23.732  1.00  0.00     0.000 A 
ATOM     23  C   UNL A   1      29.543  28.974  22.541  1.00  0.00     0.000 A 
ATOM     24  C   UNL A   1      28.519  28.271  23.166  1.00  0.00     0.000 A 
ENDBRANCH  18  19
ENDBRANCH   8  13
ENDBRANCH   7   8
ENDBRANCH   4   7
ENDBRANCH   2   3
ENDBRANCH   1   2
BRANCH   1  25
ATOM     25  C   UNL A   1      34.417  34.977  28.840  1.00  0.00     0.023 C 
BRANCH  25  26
ATOM     26  C   UNL A   1      33.421  34.394  29.800  1.00  0.00     0.116 C 
BRANCH  26  27
ATOM     27  N   UNL A   1      32.660  35.373  30.571  1.00  0.00    -0.352 N 
ATOM     28  C   UNL A   1      32.880  35.742  31.883  1.00  0.00     0.251 C 
ATOM     29  H   UNL A   1      31.913  35.815  30.107  1.00  0.00     0.163 HD
ATOM     30  O   UNL A   1      32.164  36.542  32.461  1.00  0.00    -0.269 OA
BRANCH  28  31
ATOM     31  C   UNL A   1      33.994  35.069  32.579  1.00  0.00     0.039 A 
ATOM     32  C   UNL A   1      33.818  33.761  33.030  1.00  0.00     0.014 A 
ATOM     33  C   UNL A   1      35.259  35.657  32.537  1.00  0.00     0.014 A 
ATOM     34  C   UNL A   1      34.942  33.004  33.357  1.00  0.00     0.010 A 
ATOM     35  C   UNL A   1      36.372  34.853  32.706  1.00  0.00     0.010 A 
ATOM     36  C   UNL A   1      36.227  33.528  33.146  1.00  0.00    -0.014 A 
BRANCH  36  37
ATOM     37  C   UNL A   1      37.453  32.751  33.448  1.00  0.00     0.031 A 
ATOM     38  C   UNL A   1      38.172  33.027  34.742  1.00  0.00     0.074 A 
ATOM     39  C   UNL A   1      37.960  31.885  32.552  1.00  0.00     0.049 A 
ATOM     40  N   UNL A   1      39.329  32.587  35.161  1.00  0.00    -0.248 NA
ATOM     41  C   UNL A   1      37.529  33.983  35.663  1.00  0.00     0.031 C 
ATOM     42  C   UNL A   1      37.397  31.591  31.232  1.00  0.00     0.029 A 
ATOM     43  N   UNL A   1      39.078  31.092  32.617  1.00  0.00    -0.354 N 
ATOM     44  C   UNL A   1      39.566  33.251  36.357  1.00  0.00     0.074 A 
ATOM     45  C   UNL A   1      38.482  34.182  36.557  1.00  0.00     0.031 C 
ATOM     46  C   UNL A   1      38.149  30.652  30.631  1.00  0.00     0.029 A 
ATOM     47  C   UNL A   1      39.262  30.303  31.507  1.00  0.00     0.049 A 
ATOM     48  H   UNL A   1      39.691  31.088  33.387  1.00  0.00     0.167 HD
ATOM     49  C   UNL A   1      40.575  33.066  37.239  1.00  0.00     0.037 A 
ATOM     50  C   UNL A   1      40.221  29.396  31.242  1.00  0.00     0.037 A 
ATOM     51  C   UNL A   1      41.596  32.071  37.077  1.00  0.00     0.049 A 
ATOM     52  C   UNL A   1      41.290  29.149  32.273  1.00  0.00     0.074 A 
ATOM     53  C   UNL A   1      42.613  31.728  37.946  1.00  0.00     0.029 A 
ATOM     54  N   UNL A   1      41.707  31.240  35.972  1.00  0.00    -0.354 N 
ATOM     55  N   UNL A   1      41.470  29.733  33.434  1.00  0.00    -0.248 NA
ATOM     56  C   UNL A   1      42.283  28.110  31.965  1.00  0.00     0.031 C 
ATOM     57  C   UNL A   1      43.356  30.699  37.357  1.00  0.00     0.029 A 
ATOM     58  C   UNL A   1      42.779  30.382  36.136  1.00  0.00     0.049 A 
ATOM     59  H   UNL A   1      41.112  31.258  35.189  1.00  0.00     0.167 HD
ATOM     60  C   UNL A   1      42.577  29.120  34.004  1.00  0.00     0.074 A 
ATOM     61  C   UNL A   1      43.018  28.106  33.068  1.00  0.00     0.031 C 
ATOM     62  C   UNL A   1      43.178  29.372  35.191  1.00  0.00     0.037 A 
BRANCH  49  63
ATOM     63  C   UNL A   1      40.589  33.935  38.460  1.00  0.00     0.064 A 
ATOM     64  C   UNL A   1      39.875  33.588  39.619  1.00  0.00     0.173 A 
ATOM     65  C   UNL A   1      41.318  35.133  38.473  1.00  0.00     0.173 A 
ATOM     66  F   UNL A   1      39.143  32.464  39.649  1.00  0.00    -0.203 F 
ATOM     67  C   UNL A   1      39.857  34.428  40.728  1.00  0.00     0.198 A 
ATOM     68  C   UNL A   1      41.325  35.954  39.599  1.00  0.00     0.198 A 
ATOM     69  F   UNL A   1      42.016  35.512  37.393  1.00  0.00    -0.203 F 
ATOM     70  F   UNL A   1      39.113  34.108  41.796  1.00  0.00    -0.200 F 
ATOM     71  C   UNL A   1      40.587  35.606  40.720  1.00  0.00     0.200 A 
ATOM     72  F   UNL A   1      42.036  37.089  39.592  1.00  0.00    -0.200 F 
ATOM     73  F   UNL A   1      40.569  36.414  41.790  1.00  0.00    -0.200 F 
ENDBRANCH  49  63
BRANCH  50  74
ATOM     74  C   UNL A   1      40.185  28.614  29.979  1.00  0.00     0.064 A 
ATOM     75  C   UNL A   1      39.509  27.386  29.916  1.00  0.00     0.173 A 
ATOM     76  C   UNL A   1      40.822  29.067  28.815  1.00  0.00     0.173 A 
ATOM     77  F   UNL A   1      38.900  26.901  31.008  1.00  0.00    -0.203 F 
ATOM     78  C   UNL A   1      39.491  26.632  28.745  1.00  0.00     0.198 A 
ATOM     79  C   UNL A   1      40.783  28.322  27.637  1.00  0.00     0.198 A 
ATOM     80  F   UNL A   1      41.475  30.238  28.819  1.00  0.00    -0.203 F 
ATOM     81  F   UNL A   1      38.874  25.442  28.727  1.00  0.00    -0.200 F 
ATOM     82  C   UNL A   1      40.125  27.101  27.604  1.00  0.00     0.200 A 
ATOM     83  F   UNL A   1      41.385  28.785  26.533  1.00  0.00    -0.200 F 
ATOM     84  F   UNL A   1      40.106  26.375  26.478  1.00  0.00    -0.200 F 
ENDBRANCH  50  74
BRANCH  62  85
ATOM     85  C   UNL A   1      44.352  28.518  35.560  1.00  0.00     0.064 A 
ATOM     86  C   UNL A   1      45.659  28.882  35.206  1.00  0.00     0.173 A 
ATOM     87  C   UNL A   1      44.172  27.358  36.326  1.00  0.00     0.173 A 
ATOM     88  F   UNL A   1      45.877  29.977  34.463  1.00  0.00    -0.203 F 
ATOM     89  C   UNL A   1      46.744  28.101  35.591  1.00  0.00     0.198 A 
ATOM     90  C   UNL A   1      45.261  26.594  36.732  1.00  0.00     0.198 A 
ATOM     91  F   UNL A   1      42.939  26.976  36.695  1.00  0.00    -0.203 F 
ATOM     92  F   UNL A   1      47.982  28.446  35.213  1.00  0.00    -0.200 F 
ATOM     93  C   UNL A   1      46.545  26.963  36.360  1.00  0.00     0.200 A 
ATOM     94  F   UNL A   1      45.068  25.503  37.485  1.00  0.00    -0.200 F 
ATOM     95  F   UNL A   1      47.593  26.219  36.740  1.00  0.00    -0.200 F 
ENDBRANCH  62  85
ENDBRANCH  36  37
ENDBRANCH  28  31
ENDBRANCH  26  27
ENDBRANCH  25  26
ENDBRANCH   1  25
TORSDOF 16
ENDMDL
