MODEL 1
REMARK VINA RESULT:     -12.2      0.000      0.000
REMARK SMILES COC[C@H]1CCN(C(=O)N2CC[C@H](C(=O)NCCCCNC(=O)c3ccc(-c4c5nc(c(-c6c(F)c(F)c(F)c(F)c6F)c6ccc([nH]6)c(-c6c(F)c(F)c(F)c(F)c6F)c6nc(c(-c7c(F)c(F)c(F)c(F)c7F)c7ccc4[nH]7)C=C6)C=C5)cc3)[C@@H]2C)C1
REMARK SMILES IDX 17 1 16 2 14 3 15 4 13 6 10 7 11 8 87 9 12 10 88 11 8 12
REMARK SMILES IDX 9 13 7 14 4 15 5 16 89 17 6 18 3 19 2 20 1 21 18 22 19 23
REMARK SMILES IDX 20 24 21 25 22 26 23 28 24 29 25 30 86 31 26 32 85 33 27 34
REMARK SMILES IDX 28 35 29 36 79 37 30 38 84 39 78 40 80 41 31 42 83 43 77 44
REMARK SMILES IDX 76 45 32 47 64 48 44 49 63 50 45 51 48 52 62 53 81 54 46 55
REMARK SMILES IDX 47 56 61 58 82 59 49 60 33 61 34 62 42 63 35 64 36 65 40 66
REMARK SMILES IDX 43 67 37 68 38 69 41 70 39 71 65 72 66 73 74 74 67 75 68 76
REMARK SMILES IDX 72 77 75 78 69 79 70 80 73 81 71 82 50 83 51 84 59 85 52 86
REMARK SMILES IDX 53 87 57 88 60 89 54 90 55 91 58 92 56 93
REMARK H PARENT 16 5 21 27 80 46 48 57
REMARK Flexibility Score: inf
ROOT
ATOM      1  C   UNL A   1      32.524  29.791  25.664  1.00  0.00     0.116 C 
ENDROOT
BRANCH   1   2
ATOM      2  N   UNL A   1      31.746  29.727  24.447  1.00  0.00    -0.356 N 
ATOM      3  C   UNL A   1      31.127  28.675  23.845  1.00  0.00     0.225 C 
ATOM      4  O   UNL A   1      30.444  28.930  22.848  1.00  0.00    -0.275 OA
ATOM      5  H   UNL A   1      31.648  30.586  23.975  1.00  0.00     0.163 HD
BRANCH   3   6
ATOM      6  C   UNL A   1      31.253  27.232  24.326  1.00  0.00     0.102 C 
ATOM      7  N   UNL A   1      31.967  25.444  22.970  1.00  0.00    -0.321 N 
ATOM      8  C   UNL A   1      30.660  25.050  23.463  1.00  0.00     0.122 C 
ATOM      9  C   UNL A   1      32.507  26.444  23.887  1.00  0.00     0.096 C 
ATOM     10  C   UNL A   1      30.045  26.354  23.940  1.00  0.00     0.037 C 
ATOM     11  C   UNL A   1      33.675  27.266  23.354  1.00  0.00     0.032 C 
BRANCH   7  12
ATOM     12  C   UNL A   1      32.760  24.617  22.215  1.00  0.00     0.320 C 
ATOM     13  O   UNL A   1      33.011  24.858  21.036  1.00  0.00    -0.248 OA
BRANCH  12  14
ATOM     14  N   UNL A   1      33.198  23.464  22.824  1.00  0.00    -0.324 N 
ATOM     15  C   UNL A   1      34.599  22.017  24.087  1.00  0.00     0.036 C 
ATOM     16  C   UNL A   1      33.160  21.501  24.043  1.00  0.00     0.029 C 
ATOM     17  C   UNL A   1      34.505  23.418  23.459  1.00  0.00     0.127 C 
ATOM     18  C   UNL A   1      32.632  22.128  22.771  1.00  0.00     0.122 C 
BRANCH  15  19
ATOM     19  C   UNL A   1      35.263  22.048  25.461  1.00  0.00     0.165 C 
BRANCH  19  20
ATOM     20  O   UNL A   1      36.336  21.118  25.589  1.00  0.00    -0.384 OA
ATOM     21  C   UNL A   1      37.582  21.607  25.102  1.00  0.00     0.194 C 
ENDBRANCH  19  20
ENDBRANCH  15  19
ENDBRANCH  12  14
ENDBRANCH   7  12
ENDBRANCH   3   6
ENDBRANCH   1   2
BRANCH   1  22
ATOM     22  C   UNL A   1      31.775  30.436  26.822  1.00  0.00     0.023 C 
BRANCH  22  23
ATOM     23  C   UNL A   1      31.630  31.952  26.722  1.00  0.00     0.023 C 
BRANCH  23  24
ATOM     24  C   UNL A   1      32.771  32.760  27.333  1.00  0.00     0.116 C 
BRANCH  24  25
ATOM     25  N   UNL A   1      32.411  34.137  27.635  1.00  0.00    -0.352 N 
ATOM     26  C   UNL A   1      32.963  34.995  28.560  1.00  0.00     0.251 C 
ATOM     27  H   UNL A   1      31.669  34.508  27.104  1.00  0.00     0.163 HD
ATOM     28  O   UNL A   1      32.469  36.093  28.762  1.00  0.00    -0.269 OA
BRANCH  26  29
ATOM     29  C   UNL A   1      34.141  34.554  29.336  1.00  0.00     0.039 A 
ATOM     30  C   UNL A   1      33.946  34.012  30.609  1.00  0.00     0.014 A 
ATOM     31  C   UNL A   1      35.424  34.631  28.790  1.00  0.00     0.014 A 
ATOM     32  C   UNL A   1      35.031  33.471  31.301  1.00  0.00     0.010 A 
ATOM     33  C   UNL A   1      36.489  34.024  29.446  1.00  0.00     0.010 A 
ATOM     34  C   UNL A   1      36.302  33.432  30.705  1.00  0.00    -0.014 A 
BRANCH  34  35
ATOM     35  C   UNL A   1      37.448  32.767  31.374  1.00  0.00     0.031 A 
ATOM     36  C   UNL A   1      38.146  31.616  30.706  1.00  0.00     0.074 A 
ATOM     37  C   UNL A   1      37.809  33.147  32.616  1.00  0.00     0.049 A 
ATOM     38  N   UNL A   1      39.107  30.852  31.161  1.00  0.00    -0.248 NA
ATOM     39  C   UNL A   1      37.682  31.256  29.357  1.00  0.00     0.031 C 
ATOM     40  C   UNL A   1      37.175  34.214  33.391  1.00  0.00     0.029 A 
ATOM     41  N   UNL A   1      38.788  32.669  33.449  1.00  0.00    -0.354 N 
ATOM     42  C   UNL A   1      39.347  29.914  30.166  1.00  0.00     0.074 A 
ATOM     43  C   UNL A   1      38.398  30.171  29.104  1.00  0.00     0.031 C 
ATOM     44  C   UNL A   1      37.793  34.322  34.578  1.00  0.00     0.029 A 
ATOM     45  C   UNL A   1      38.841  33.310  34.663  1.00  0.00     0.049 A 
ATOM     46  H   UNL A   1      39.397  31.935  33.201  1.00  0.00     0.167 HD
ATOM     47  C   UNL A   1      40.289  28.943  30.131  1.00  0.00     0.037 A 
ATOM     48  C   UNL A   1      39.639  33.100  35.727  1.00  0.00     0.037 A 
ATOM     49  C   UNL A   1      41.251  28.709  31.176  1.00  0.00     0.049 A 
ATOM     50  C   UNL A   1      40.682  32.016  35.659  1.00  0.00     0.074 A 
ATOM     51  C   UNL A   1      42.289  27.794  31.205  1.00  0.00     0.029 A 
ATOM     52  N   UNL A   1      41.291  29.399  32.379  1.00  0.00    -0.354 N 
ATOM     53  N   UNL A   1      40.948  31.183  34.683  1.00  0.00    -0.248 NA
ATOM     54  C   UNL A   1      41.541  31.849  36.840  1.00  0.00     0.031 C 
ATOM     55  C   UNL A   1      42.930  27.900  32.444  1.00  0.00     0.029 A 
ATOM     56  C   UNL A   1      42.324  28.915  33.166  1.00  0.00     0.049 A 
ATOM     57  H   UNL A   1      40.678  30.124  32.636  1.00  0.00     0.167 HD
ATOM     58  C   UNL A   1      42.020  30.414  35.118  1.00  0.00     0.074 A 
ATOM     59  C   UNL A   1      42.364  30.889  36.442  1.00  0.00     0.031 C 
ATOM     60  C   UNL A   1      42.660  29.406  34.478  1.00  0.00     0.037 A 
BRANCH  47  61
ATOM     61  C   UNL A   1      40.330  28.061  28.917  1.00  0.00     0.064 A 
ATOM     62  C   UNL A   1      41.078  28.409  27.781  1.00  0.00     0.173 A 
ATOM     63  C   UNL A   1      39.644  26.838  28.902  1.00  0.00     0.173 A 
ATOM     64  F   UNL A   1      41.742  29.574  27.741  1.00  0.00    -0.203 F 
ATOM     65  C   UNL A   1      41.111  27.578  26.664  1.00  0.00     0.198 A 
ATOM     66  C   UNL A   1      39.705  25.995  27.795  1.00  0.00     0.198 A 
ATOM     67  F   UNL A   1      38.920  26.454  29.963  1.00  0.00    -0.203 F 
ATOM     68  F   UNL A   1      41.790  27.956  25.572  1.00  0.00    -0.200 F 
ATOM     69  C   UNL A   1      40.431  26.370  26.674  1.00  0.00     0.200 A 
ATOM     70  F   UNL A   1      39.059  24.822  27.810  1.00  0.00    -0.200 F 
ATOM     71  F   UNL A   1      40.471  25.569  25.600  1.00  0.00    -0.200 F 
ENDBRANCH  47  61
BRANCH  48  72
ATOM     72  C   UNL A   1      39.503  33.948  36.938  1.00  0.00     0.064 A 
ATOM     73  C   UNL A   1      38.751  33.515  38.040  1.00  0.00     0.173 A 
ATOM     74  C   UNL A   1      40.114  35.209  37.021  1.00  0.00     0.173 A 
ATOM     75  F   UNL A   1      38.132  32.326  37.999  1.00  0.00    -0.203 F 
ATOM     76  C   UNL A   1      38.598  34.317  39.168  1.00  0.00     0.198 A 
ATOM     77  C   UNL A   1      39.982  35.999  38.161  1.00  0.00     0.198 A 
ATOM     78  F   UNL A   1      40.849  35.668  35.997  1.00  0.00    -0.203 F 
ATOM     79  F   UNL A   1      37.835  33.898  40.186  1.00  0.00    -0.200 F 
ATOM     80  C   UNL A   1      39.217  35.556  39.230  1.00  0.00     0.200 A 
ATOM     81  F   UNL A   1      40.594  37.190  38.223  1.00  0.00    -0.200 F 
ATOM     82  F   UNL A   1      39.071  36.327  40.317  1.00  0.00    -0.200 F 
ENDBRANCH  48  72
BRANCH  60  83
ATOM     83  C   UNL A   1      43.822  28.771  35.184  1.00  0.00     0.064 A 
ATOM     84  C   UNL A   1      43.645  27.721  36.097  1.00  0.00     0.173 A 
ATOM     85  C   UNL A   1      45.133  29.191  34.912  1.00  0.00     0.173 A 
ATOM     86  F   UNL A   1      42.410  27.293  36.403  1.00  0.00    -0.203 F 
ATOM     87  C   UNL A   1      44.736  27.131  36.729  1.00  0.00     0.198 A 
ATOM     88  C   UNL A   1      46.224  28.579  35.523  1.00  0.00     0.198 A 
ATOM     89  F   UNL A   1      45.356  30.188  34.041  1.00  0.00    -0.203 F 
ATOM     90  F   UNL A   1      44.541  26.160  37.631  1.00  0.00    -0.200 F 
ATOM     91  C   UNL A   1      46.024  27.555  36.435  1.00  0.00     0.200 A 
ATOM     92  F   UNL A   1      47.467  28.982  35.228  1.00  0.00    -0.200 F 
ATOM     93  F   UNL A   1      47.073  26.981  37.039  1.00  0.00    -0.200 F 
ENDBRANCH  60  83
ENDBRANCH  34  35
ENDBRANCH  26  29
ENDBRANCH  24  25
ENDBRANCH  23  24
ENDBRANCH  22  23
ENDBRANCH   1  22
TORSDOF 15
ENDMDL
MODEL 2
REMARK VINA RESULT:     -12.2      1.825      8.102
REMARK SMILES COC[C@H]1CCN(C(=O)N2CC[C@H](C(=O)NCCCCNC(=O)c3ccc(-c4c5nc(c(-c6c(F)c(F)c(F)c(F)c6F)c6ccc([nH]6)c(-c6c(F)c(F)c(F)c(F)c6F)c6nc(c(-c7c(F)c(F)c(F)c(F)c7F)c7ccc4[nH]7)C=C6)C=C5)cc3)[C@@H]2C)C1
REMARK SMILES IDX 17 1 16 2 14 3 15 4 13 6 10 7 11 8 87 9 12 10 88 11 8 12
REMARK SMILES IDX 9 13 7 14 4 15 5 16 89 17 6 18 3 19 2 20 1 21 18 22 19 23
REMARK SMILES IDX 20 24 21 25 22 26 23 28 24 29 25 30 86 31 26 32 85 33 27 34
REMARK SMILES IDX 28 35 29 36 79 37 30 38 84 39 78 40 80 41 31 42 83 43 77 44
REMARK SMILES IDX 76 45 32 47 64 48 44 49 63 50 45 51 48 52 62 53 81 54 46 55
REMARK SMILES IDX 47 56 61 58 82 59 49 60 33 61 34 62 42 63 35 64 36 65 40 66
REMARK SMILES IDX 43 67 37 68 38 69 41 70 39 71 65 72 66 73 74 74 67 75 68 76
REMARK SMILES IDX 72 77 75 78 69 79 70 80 73 81 71 82 50 83 51 84 59 85 52 86
REMARK SMILES IDX 53 87 57 88 60 89 54 90 55 91 58 92 56 93
REMARK H PARENT 16 5 21 27 80 46 48 57
REMARK Flexibility Score: inf
ROOT
ATOM      1  C   UNL A   1      31.810  29.571  26.467  1.00  0.00     0.116 C 
ENDROOT
BRANCH   1   2
ATOM      2  N   UNL A   1      33.194  29.420  26.857  1.00  0.00    -0.356 N 
ATOM      3  C   UNL A   1      34.092  28.437  26.576  1.00  0.00     0.225 C 
ATOM      4  O   UNL A   1      35.249  28.614  26.968  1.00  0.00    -0.275 OA
ATOM      5  H   UNL A   1      33.546  30.148  27.419  1.00  0.00     0.163 HD
BRANCH   3   6
ATOM      6  C   UNL A   1      33.734  27.151  25.835  1.00  0.00     0.102 C 
ATOM      7  N   UNL A   1      32.089  27.007  24.156  1.00  0.00    -0.321 N 
ATOM      8  C   UNL A   1      31.693  26.037  25.162  1.00  0.00     0.122 C 
ATOM      9  C   UNL A   1      33.521  27.248  24.308  1.00  0.00     0.096 C 
ATOM     10  C   UNL A   1      32.477  26.455  26.394  1.00  0.00     0.037 C 
ATOM     11  C   UNL A   1      34.055  28.501  23.624  1.00  0.00     0.032 C 
BRANCH   7  12
ATOM     12  C   UNL A   1      31.428  27.155  22.963  1.00  0.00     0.320 C 
ATOM     13  O   UNL A   1      31.812  26.599  21.936  1.00  0.00    -0.248 OA
BRANCH  12  14
ATOM     14  N   UNL A   1      30.358  28.018  22.957  1.00  0.00    -0.324 N 
ATOM     15  C   UNL A   1      29.115  30.007  22.566  1.00  0.00     0.036 C 
ATOM     16  C   UNL A   1      28.194  28.796  22.723  1.00  0.00     0.029 C 
ATOM     17  C   UNL A   1      30.522  29.392  22.507  1.00  0.00     0.127 C 
ATOM     18  C   UNL A   1      29.042  27.852  23.547  1.00  0.00     0.122 C 
BRANCH  15  19
ATOM     19  C   UNL A   1      28.836  30.917  21.373  1.00  0.00     0.165 C 
BRANCH  19  20
ATOM     20  O   UNL A   1      28.782  32.299  21.719  1.00  0.00    -0.384 OA
ATOM     21  C   UNL A   1      28.652  32.536  23.117  1.00  0.00     0.194 C 
ENDBRANCH  19  20
ENDBRANCH  15  19
ENDBRANCH  12  14
ENDBRANCH   7  12
ENDBRANCH   3   6
ENDBRANCH   1   2
BRANCH   1  22
ATOM     22  C   UNL A   1      31.510  30.923  25.834  1.00  0.00     0.023 C 
BRANCH  22  23
ATOM     23  C   UNL A   1      31.295  32.059  26.829  1.00  0.00     0.023 C 
BRANCH  23  24
ATOM     24  C   UNL A   1      32.555  32.813  27.244  1.00  0.00     0.116 C 
BRANCH  24  25
ATOM     25  N   UNL A   1      32.312  34.208  27.582  1.00  0.00    -0.352 N 
ATOM     26  C   UNL A   1      32.952  34.998  28.511  1.00  0.00     0.251 C 
ATOM     27  H   UNL A   1      31.590  34.648  27.078  1.00  0.00     0.163 HD
ATOM     28  O   UNL A   1      32.552  36.127  28.748  1.00  0.00    -0.269 OA
BRANCH  26  29
ATOM     29  C   UNL A   1      34.109  34.448  29.249  1.00  0.00     0.039 A 
ATOM     30  C   UNL A   1      33.884  33.782  30.456  1.00  0.00     0.014 A 
ATOM     31  C   UNL A   1      35.400  34.549  28.727  1.00  0.00     0.014 A 
ATOM     32  C   UNL A   1      34.947  33.143  31.098  1.00  0.00     0.010 A 
ATOM     33  C   UNL A   1      36.441  33.849  29.326  1.00  0.00     0.010 A 
ATOM     34  C   UNL A   1      36.224  33.133  30.514  1.00  0.00    -0.014 A 
BRANCH  34  35
ATOM     35  C   UNL A   1      37.345  32.373  31.121  1.00  0.00     0.031 A 
ATOM     36  C   UNL A   1      37.841  32.730  32.494  1.00  0.00     0.074 A 
ATOM     37  C   UNL A   1      37.966  31.415  30.406  1.00  0.00     0.049 A 
ATOM     38  N   UNL A   1      38.859  32.245  33.159  1.00  0.00    -0.248 NA
ATOM     39  C   UNL A   1      37.115  33.796  33.201  1.00  0.00     0.031 C 
ATOM     40  C   UNL A   1      37.612  31.012  29.044  1.00  0.00     0.029 A 
ATOM     41  N   UNL A   1      39.035  30.614  30.721  1.00  0.00    -0.354 N 
ATOM     42  C   UNL A   1      38.905  32.957  34.350  1.00  0.00     0.074 A 
ATOM     43  C   UNL A   1      37.847  33.943  34.295  1.00  0.00     0.031 C 
ATOM     44  C   UNL A   1      38.436  30.029  28.647  1.00  0.00     0.029 A 
ATOM     45  C   UNL A   1      39.399  29.757  29.711  1.00  0.00     0.049 A 
ATOM     46  H   UNL A   1      39.499  30.650  31.589  1.00  0.00     0.167 HD
ATOM     47  C   UNL A   1      39.739  32.789  35.403  1.00  0.00     0.037 A 
ATOM     48  C   UNL A   1      40.400  28.858  29.647  1.00  0.00     0.037 A 
ATOM     49  C   UNL A   1      40.772  31.788  35.466  1.00  0.00     0.049 A 
ATOM     50  C   UNL A   1      41.309  28.687  30.834  1.00  0.00     0.074 A 
ATOM     51  C   UNL A   1      41.624  31.492  36.516  1.00  0.00     0.029 A 
ATOM     52  N   UNL A   1      41.091  30.918  34.434  1.00  0.00    -0.354 N 
ATOM     53  N   UNL A   1      41.297  29.317  31.984  1.00  0.00    -0.248 NA
ATOM     54  C   UNL A   1      42.368  27.675  30.717  1.00  0.00     0.031 C 
ATOM     55  C   UNL A   1      42.489  30.473  36.103  1.00  0.00     0.029 A 
ATOM     56  C   UNL A   1      42.142  30.099  34.814  1.00  0.00     0.049 A 
ATOM     57  H   UNL A   1      40.638  30.886  33.561  1.00  0.00     0.167 HD
ATOM     58  C   UNL A   1      42.323  28.759  32.736  1.00  0.00     0.074 A 
ATOM     59  C   UNL A   1      42.929  27.730  31.917  1.00  0.00     0.031 C 
ATOM     60  C   UNL A   1      42.727  29.072  33.991  1.00  0.00     0.037 A 
BRANCH  47  61
ATOM     61  C   UNL A   1      39.565  33.705  36.579  1.00  0.00     0.064 A 
ATOM     62  C   UNL A   1      38.778  33.343  37.684  1.00  0.00     0.173 A 
ATOM     63  C   UNL A   1      40.220  34.945  36.619  1.00  0.00     0.173 A 
ATOM     64  F   UNL A   1      38.122  32.173  37.689  1.00  0.00    -0.203 F 
ATOM     65  C   UNL A   1      38.630  34.201  38.769  1.00  0.00     0.198 A 
ATOM     66  C   UNL A   1      40.094  35.787  37.721  1.00  0.00     0.198 A 
ATOM     67  F   UNL A   1      40.989  35.338  35.593  1.00  0.00    -0.203 F 
ATOM     68  F   UNL A   1      37.833  33.855  39.790  1.00  0.00    -0.200 F 
ATOM     69  C   UNL A   1      39.293  35.418  38.791  1.00  0.00     0.200 A 
ATOM     70  F   UNL A   1      40.746  36.957  37.746  1.00  0.00    -0.200 F 
ATOM     71  F   UNL A   1      39.155  36.239  39.841  1.00  0.00    -0.200 F 
ENDBRANCH  47  61
BRANCH  48  72
ATOM     72  C   UNL A   1      40.580  28.031  28.427  1.00  0.00     0.064 A 
ATOM     73  C   UNL A   1      39.984  26.766  28.320  1.00  0.00     0.173 A 
ATOM     74  C   UNL A   1      41.353  28.480  27.346  1.00  0.00     0.173 A 
ATOM     75  F   UNL A   1      39.253  26.285  29.336  1.00  0.00    -0.203 F 
ATOM     76  C   UNL A   1      40.172  25.974  27.190  1.00  0.00     0.198 A 
ATOM     77  C   UNL A   1      41.518  27.699  26.204  1.00  0.00     0.198 A 
ATOM     78  F   UNL A   1      41.941  29.685  27.395  1.00  0.00    -0.203 F 
ATOM     79  F   UNL A   1      39.629  24.751  27.135  1.00  0.00    -0.200 F 
ATOM     80  C   UNL A   1      40.934  26.443  26.130  1.00  0.00     0.200 A 
ATOM     81  F   UNL A   1      42.243  28.161  25.177  1.00  0.00    -0.200 F 
ATOM     82  F   UNL A   1      41.111  25.682  25.042  1.00  0.00    -0.200 F 
ENDBRANCH  48  72
BRANCH  60  83
ATOM     83  C   UNL A   1      43.854  28.270  34.571  1.00  0.00     0.064 A 
ATOM     84  C   UNL A   1      45.185  28.702  34.490  1.00  0.00     0.173 A 
ATOM     85  C   UNL A   1      43.593  27.072  35.255  1.00  0.00     0.173 A 
ATOM     86  F   UNL A   1      45.488  29.833  33.833  1.00  0.00    -0.203 F 
ATOM     87  C   UNL A   1      46.216  27.954  35.051  1.00  0.00     0.198 A 
ATOM     88  C   UNL A   1      44.623  26.341  35.840  1.00  0.00     0.198 A 
ATOM     89  F   UNL A   1      42.335  26.618  35.366  1.00  0.00    -0.203 F 
ATOM     90  F   UNL A   1      47.486  28.363  34.922  1.00  0.00    -0.200 F 
ATOM     91  C   UNL A   1      45.934  26.779  35.732  1.00  0.00     0.200 A 
ATOM     92  F   UNL A   1      44.345  25.214  36.509  1.00  0.00    -0.200 F 
ATOM     93  F   UNL A   1      46.927  26.064  36.278  1.00  0.00    -0.200 F 
ENDBRANCH  60  83
ENDBRANCH  34  35
ENDBRANCH  26  29
ENDBRANCH  24  25
ENDBRANCH  23  24
ENDBRANCH  22  23
ENDBRANCH   1  22
TORSDOF 15
ENDMDL
MODEL 3
REMARK VINA RESULT:     -12.1      0.655      7.347
REMARK SMILES COC[C@H]1CCN(C(=O)N2CC[C@H](C(=O)NCCCCNC(=O)c3ccc(-c4c5nc(c(-c6c(F)c(F)c(F)c(F)c6F)c6ccc([nH]6)c(-c6c(F)c(F)c(F)c(F)c6F)c6nc(c(-c7c(F)c(F)c(F)c(F)c7F)c7ccc4[nH]7)C=C6)C=C5)cc3)[C@@H]2C)C1
REMARK SMILES IDX 17 1 16 2 14 3 15 4 13 6 10 7 11 8 87 9 12 10 88 11 8 12
REMARK SMILES IDX 9 13 7 14 4 15 5 16 89 17 6 18 3 19 2 20 1 21 18 22 19 23
REMARK SMILES IDX 20 24 21 25 22 26 23 28 24 29 25 30 86 31 26 32 85 33 27 34
REMARK SMILES IDX 28 35 29 36 79 37 30 38 84 39 78 40 80 41 31 42 83 43 77 44
REMARK SMILES IDX 76 45 32 47 64 48 44 49 63 50 45 51 48 52 62 53 81 54 46 55
REMARK SMILES IDX 47 56 61 58 82 59 49 60 33 61 34 62 42 63 35 64 36 65 40 66
REMARK SMILES IDX 43 67 37 68 38 69 41 70 39 71 65 72 66 73 74 74 67 75 68 76
REMARK SMILES IDX 72 77 75 78 69 79 70 80 73 81 71 82 50 83 51 84 59 85 52 86
REMARK SMILES IDX 53 87 57 88 60 89 54 90 55 91 58 92 56 93
REMARK H PARENT 16 5 21 27 80 46 48 57
REMARK Flexibility Score: inf
ROOT
ATOM      1  C   UNL A   1      32.447  29.877  25.764  1.00  0.00     0.116 C 
ENDROOT
BRANCH   1   2
ATOM      2  N   UNL A   1      31.734  29.820  24.507  1.00  0.00    -0.356 N 
ATOM      3  C   UNL A   1      31.137  28.774  23.874  1.00  0.00     0.225 C 
ATOM      4  O   UNL A   1      30.510  29.035  22.842  1.00  0.00    -0.275 OA
ATOM      5  H   UNL A   1      31.669  30.679  24.031  1.00  0.00     0.163 HD
BRANCH   3   6
ATOM      6  C   UNL A   1      31.223  27.330  24.361  1.00  0.00     0.102 C 
ATOM      7  N   UNL A   1      31.928  25.524  23.024  1.00  0.00    -0.321 N 
ATOM      8  C   UNL A   1      30.604  25.158  23.492  1.00  0.00     0.122 C 
ATOM      9  C   UNL A   1      32.469  26.515  23.950  1.00  0.00     0.096 C 
ATOM     10  C   UNL A   1      30.006  26.476  23.952  1.00  0.00     0.037 C 
ATOM     11  C   UNL A   1      33.665  27.311  23.440  1.00  0.00     0.032 C 
BRANCH   7  12
ATOM     12  C   UNL A   1      32.720  24.679  22.289  1.00  0.00     0.320 C 
ATOM     13  O   UNL A   1      33.016  24.920  21.120  1.00  0.00    -0.248 OA
BRANCH  12  14
ATOM     14  N   UNL A   1      33.102  23.508  22.901  1.00  0.00    -0.324 N 
ATOM     15  C   UNL A   1      34.401  22.019  24.224  1.00  0.00     0.036 C 
ATOM     16  C   UNL A   1      32.961  21.524  24.078  1.00  0.00     0.029 C 
ATOM     17  C   UNL A   1      34.366  23.431  23.618  1.00  0.00     0.127 C 
ATOM     18  C   UNL A   1      32.524  22.182  22.787  1.00  0.00     0.122 C 
BRANCH  15  19
ATOM     19  C   UNL A   1      34.977  22.014  25.637  1.00  0.00     0.165 C 
BRANCH  19  20
ATOM     20  O   UNL A   1      34.276  22.874  26.533  1.00  0.00    -0.384 OA
ATOM     21  C   UNL A   1      33.669  22.191  27.626  1.00  0.00     0.194 C 
ENDBRANCH  19  20
ENDBRANCH  15  19
ENDBRANCH  12  14
ENDBRANCH   7  12
ENDBRANCH   3   6
ENDBRANCH   1   2
BRANCH   1  22
ATOM     22  C   UNL A   1      31.640  30.521  26.883  1.00  0.00     0.023 C 
BRANCH  22  23
ATOM     23  C   UNL A   1      31.501  32.037  26.779  1.00  0.00     0.023 C 
BRANCH  23  24
ATOM     24  C   UNL A   1      32.726  32.837  27.213  1.00  0.00     0.116 C 
BRANCH  24  25
ATOM     25  N   UNL A   1      32.413  34.196  27.628  1.00  0.00    -0.352 N 
ATOM     26  C   UNL A   1      32.991  34.954  28.623  1.00  0.00     0.251 C 
ATOM     27  H   UNL A   1      31.687  34.637  27.129  1.00  0.00     0.163 HD
ATOM     28  O   UNL A   1      32.536  36.047  28.916  1.00  0.00    -0.269 OA
BRANCH  26  29
ATOM     29  C   UNL A   1      34.150  34.407  29.360  1.00  0.00     0.039 A 
ATOM     30  C   UNL A   1      33.926  33.728  30.561  1.00  0.00     0.014 A 
ATOM     31  C   UNL A   1      35.443  34.524  28.845  1.00  0.00     0.014 A 
ATOM     32  C   UNL A   1      34.992  33.093  31.202  1.00  0.00     0.010 A 
ATOM     33  C   UNL A   1      36.487  33.828  29.442  1.00  0.00     0.010 A 
ATOM     34  C   UNL A   1      36.271  33.100  30.623  1.00  0.00    -0.014 A 
BRANCH  34  35
ATOM     35  C   UNL A   1      37.396  32.344  31.229  1.00  0.00     0.031 A 
ATOM     36  C   UNL A   1      37.894  32.704  32.600  1.00  0.00     0.074 A 
ATOM     37  C   UNL A   1      38.020  31.388  30.513  1.00  0.00     0.049 A 
ATOM     38  N   UNL A   1      38.915  32.223  33.264  1.00  0.00    -0.248 NA
ATOM     39  C   UNL A   1      37.165  33.768  33.309  1.00  0.00     0.031 C 
ATOM     40  C   UNL A   1      37.666  30.984  29.152  1.00  0.00     0.029 A 
ATOM     41  N   UNL A   1      39.093  30.592  30.826  1.00  0.00    -0.354 N 
ATOM     42  C   UNL A   1      38.961  32.936  34.455  1.00  0.00     0.074 A 
ATOM     43  C   UNL A   1      37.899  33.918  34.401  1.00  0.00     0.031 C 
ATOM     44  C   UNL A   1      38.493  30.005  28.753  1.00  0.00     0.029 A 
ATOM     45  C   UNL A   1      39.458  29.736  29.815  1.00  0.00     0.049 A 
ATOM     46  H   UNL A   1      39.559  30.631  31.693  1.00  0.00     0.167 HD
ATOM     47  C   UNL A   1      39.797  32.771  35.506  1.00  0.00     0.037 A 
ATOM     48  C   UNL A   1      40.463  28.841  29.750  1.00  0.00     0.037 A 
ATOM     49  C   UNL A   1      40.834  31.774  35.567  1.00  0.00     0.049 A 
ATOM     50  C   UNL A   1      41.375  28.674  30.935  1.00  0.00     0.074 A 
ATOM     51  C   UNL A   1      41.689  31.483  36.616  1.00  0.00     0.029 A 
ATOM     52  N   UNL A   1      41.154  30.905  34.535  1.00  0.00    -0.354 N 
ATOM     53  N   UNL A   1      41.363  29.304  32.085  1.00  0.00    -0.248 NA
ATOM     54  C   UNL A   1      42.438  27.666  30.816  1.00  0.00     0.031 C 
ATOM     55  C   UNL A   1      42.557  30.466  36.201  1.00  0.00     0.029 A 
ATOM     56  C   UNL A   1      42.209  30.091  34.913  1.00  0.00     0.049 A 
ATOM     57  H   UNL A   1      40.700  30.872  33.663  1.00  0.00     0.167 HD
ATOM     58  C   UNL A   1      42.392  28.751  32.835  1.00  0.00     0.074 A 
ATOM     59  C   UNL A   1      43.001  27.724  32.015  1.00  0.00     0.031 C 
ATOM     60  C   UNL A   1      42.797  29.066  34.089  1.00  0.00     0.037 A 
BRANCH  47  61
ATOM     61  C   UNL A   1      39.622  33.687  36.681  1.00  0.00     0.064 A 
ATOM     62  C   UNL A   1      40.250  34.942  36.736  1.00  0.00     0.173 A 
ATOM     63  C   UNL A   1      38.789  33.324  37.750  1.00  0.00     0.173 A 
ATOM     64  F   UNL A   1      41.066  35.332  35.745  1.00  0.00    -0.203 F 
ATOM     65  C   UNL A   1      40.074  35.783  37.831  1.00  0.00     0.198 A 
ATOM     66  C   UNL A   1      38.591  34.182  38.829  1.00  0.00     0.198 A 
ATOM     67  F   UNL A   1      38.161  32.139  37.746  1.00  0.00    -0.203 F 
ATOM     68  F   UNL A   1      40.724  36.955  37.884  1.00  0.00    -0.200 F 
ATOM     69  C   UNL A   1      39.240  35.407  38.872  1.00  0.00     0.200 A 
ATOM     70  F   UNL A   1      37.775  33.823  39.828  1.00  0.00    -0.200 F 
ATOM     71  F   UNL A   1      39.066  36.222  39.922  1.00  0.00    -0.200 F 
ENDBRANCH  47  61
BRANCH  48  72
ATOM     72  C   UNL A   1      40.644  28.015  28.529  1.00  0.00     0.064 A 
ATOM     73  C   UNL A   1      41.422  28.476  27.457  1.00  0.00     0.173 A 
ATOM     74  C   UNL A   1      40.043  26.753  28.403  1.00  0.00     0.173 A 
ATOM     75  F   UNL A   1      42.000  29.684  27.523  1.00  0.00    -0.203 F 
ATOM     76  C   UNL A   1      41.574  27.718  26.299  1.00  0.00     0.198 A 
ATOM     77  C   UNL A   1      40.218  25.984  27.255  1.00  0.00     0.198 A 
ATOM     78  F   UNL A   1      39.293  26.264  29.402  1.00  0.00    -0.203 F 
ATOM     79  F   UNL A   1      42.284  28.203  25.272  1.00  0.00    -0.200 F 
ATOM     80  C   UNL A   1      40.977  26.470  26.200  1.00  0.00     0.200 A 
ATOM     81  F   UNL A   1      39.651  24.773  27.170  1.00  0.00    -0.200 F 
ATOM     82  F   UNL A   1      41.125  25.740  25.087  1.00  0.00    -0.200 F 
ENDBRANCH  48  72
BRANCH  60  83
ATOM     83  C   UNL A   1      43.928  28.268  34.668  1.00  0.00     0.064 A 
ATOM     84  C   UNL A   1      43.707  27.063  35.350  1.00  0.00     0.173 A 
ATOM     85  C   UNL A   1      45.255  28.696  34.502  1.00  0.00     0.173 A 
ATOM     86  F   UNL A   1      42.456  26.620  35.548  1.00  0.00    -0.203 F 
ATOM     87  C   UNL A   1      44.770  26.326  35.865  1.00  0.00     0.198 A 
ATOM     88  C   UNL A   1      46.318  27.942  34.992  1.00  0.00     0.198 A 
ATOM     89  F   UNL A   1      45.520  29.839  33.851  1.00  0.00    -0.203 F 
ATOM     90  F   UNL A   1      44.533  25.201  36.551  1.00  0.00    -0.200 F 
ATOM     91  C   UNL A   1      46.074  26.762  35.678  1.00  0.00     0.200 A 
ATOM     92  F   UNL A   1      47.576  28.358  34.799  1.00  0.00    -0.200 F 
ATOM     93  F   UNL A   1      47.097  26.048  36.168  1.00  0.00    -0.200 F 
ENDBRANCH  60  83
ENDBRANCH  34  35
ENDBRANCH  26  29
ENDBRANCH  24  25
ENDBRANCH  23  24
ENDBRANCH  22  23
ENDBRANCH   1  22
TORSDOF 15
ENDMDL
