MODEL 1
REMARK VINA RESULT:     -13.4      0.000      0.000
REMARK SMILES COc1ccc(-c2ncn(CC(=O)NCCCCNC(=O)c3ccc(-c4c5nc(c(-c6c(F)c(F)c(F)c(F)c6F)c6ccc([nH]6)c(-c6c(F)c(F)c(F)c(F)c6F)c6nc(c(-c7c(F)c(F)c(F)c(F)c7F)c7ccc4[nH]7)C=C6)C=C5)cc3)c2-c2ccc(OC)cc2)cc1
REMARK SMILES IDX 16 1 15 2 14 3 12 4 13 5 11 7 10 8 7 9 8 10 85 11 9 12 6 13
REMARK SMILES IDX 3 14 4 15 95 16 5 17 94 18 2 19 1 20 86 21 87 22 93 23 88 24
REMARK SMILES IDX 92 25 89 26 90 27 91 28 17 29 18 30 19 31 20 32 21 34 22 35
REMARK SMILES IDX 23 36 84 37 24 38 83 39 25 40 26 41 27 42 77 43 28 44 82 45
REMARK SMILES IDX 76 46 78 47 29 48 81 49 75 50 74 51 30 53 62 54 42 55 61 56
REMARK SMILES IDX 43 57 46 58 60 59 79 60 44 61 45 62 59 64 80 65 47 66 31 67
REMARK SMILES IDX 32 68 40 69 33 70 34 71 38 72 41 73 35 74 36 75 39 76 37 77
REMARK SMILES IDX 63 78 64 79 72 80 65 81 66 82 70 83 73 84 67 85 68 86 71 87
REMARK SMILES IDX 69 88 48 89 49 90 57 91 50 92 51 93 55 94 58 95 52 96 53 97
REMARK SMILES IDX 56 98 54 99
REMARK H PARENT 14 6 19 33 78 52 46 63
REMARK Flexibility Score: inf
ROOT
ATOM      1  C   UNL A   1      35.932  21.016  25.364  1.00  0.00     0.023 C 
ENDROOT
BRANCH   1   2
ATOM      2  C   UNL A   1      34.404  21.024  25.281  1.00  0.00     0.116 C 
BRANCH   2   3
ATOM      3  N   UNL A   1      33.745  21.375  26.525  1.00  0.00    -0.355 N 
ATOM      4  C   UNL A   1      33.263  22.580  26.950  1.00  0.00     0.239 C 
ATOM      5  O   UNL A   1      32.574  22.578  27.976  1.00  0.00    -0.273 OA
ATOM      6  H   UNL A   1      33.628  20.631  27.159  1.00  0.00     0.163 HD
BRANCH   4   7
ATOM      7  C   UNL A   1      33.493  23.862  26.172  1.00  0.00     0.223 C 
BRANCH   7   8
ATOM      8  N   UNL A   1      32.351  24.305  25.393  1.00  0.00    -0.321 N 
ATOM      9  C   UNL A   1      30.860  25.441  24.288  1.00  0.00     0.096 A 
ATOM     10  N   UNL A   1      30.583  24.117  24.062  1.00  0.00    -0.236 NA
ATOM     11  C   UNL A   1      31.907  25.594  25.189  1.00  0.00     0.076 A 
ATOM     12  C   UNL A   1      31.472  23.460  24.767  1.00  0.00     0.201 A 
BRANCH   9  13
ATOM     13  C   UNL A   1      30.114  26.535  23.701  1.00  0.00     0.003 A 
ATOM     14  C   UNL A   1      28.721  28.775  22.751  1.00  0.00     0.118 A 
ATOM     15  C   UNL A   1      30.070  28.605  22.440  1.00  0.00     0.047 A 
ATOM     16  C   UNL A   1      28.054  27.795  23.490  1.00  0.00     0.047 A 
ATOM     17  C   UNL A   1      30.766  27.495  22.915  1.00  0.00     0.014 A 
ATOM     18  C   UNL A   1      28.749  26.674  23.958  1.00  0.00     0.014 A 
BRANCH  14  19
ATOM     19  O   UNL A   1      28.147  29.909  22.246  1.00  0.00    -0.497 OA
ATOM     20  C   UNL A   1      27.796  30.893  23.211  1.00  0.00     0.278 C 
ENDBRANCH  14  19
ENDBRANCH   9  13
BRANCH  11  21
ATOM     21  C   UNL A   1      32.393  26.796  25.857  1.00  0.00     0.001 A 
ATOM     22  C   UNL A   1      33.626  27.369  25.548  1.00  0.00     0.014 A 
ATOM     23  C   UNL A   1      31.556  27.443  26.776  1.00  0.00     0.014 A 
ATOM     24  C   UNL A   1      34.031  28.548  26.181  1.00  0.00     0.047 A 
ATOM     25  C   UNL A   1      31.952  28.634  27.389  1.00  0.00     0.047 A 
ATOM     26  C   UNL A   1      33.195  29.191  27.096  1.00  0.00     0.118 A 
BRANCH  26  27
ATOM     27  O   UNL A   1      33.703  30.343  27.626  1.00  0.00    -0.497 OA
ATOM     28  C   UNL A   1      33.024  31.548  27.294  1.00  0.00     0.278 C 
ENDBRANCH  26  27
ENDBRANCH  11  21
ENDBRANCH   7   8
ENDBRANCH   4   7
ENDBRANCH   2   3
ENDBRANCH   1   2
BRANCH   1  29
ATOM     29  C   UNL A   1      36.680  22.116  24.600  1.00  0.00     0.023 C 
BRANCH  29  30
ATOM     30  C   UNL A   1      37.722  22.882  25.404  1.00  0.00     0.116 C 
BRANCH  30  31
ATOM     31  N   UNL A   1      38.572  22.021  26.227  1.00  0.00    -0.352 N 
ATOM     32  C   UNL A   1      39.739  22.363  26.875  1.00  0.00     0.251 C 
ATOM     33  H   UNL A   1      38.275  21.088  26.331  1.00  0.00     0.163 HD
ATOM     34  O   UNL A   1      40.563  21.503  27.204  1.00  0.00    -0.269 OA
BRANCH  32  35
ATOM     35  C   UNL A   1      39.998  23.778  27.178  1.00  0.00     0.039 A 
ATOM     36  C   UNL A   1      39.034  24.764  26.961  1.00  0.00     0.014 A 
ATOM     37  C   UNL A   1      41.229  24.099  27.742  1.00  0.00     0.014 A 
ATOM     38  C   UNL A   1      39.286  26.059  27.410  1.00  0.00     0.010 A 
ATOM     39  C   UNL A   1      41.413  25.329  28.319  1.00  0.00     0.010 A 
ATOM     40  C   UNL A   1      40.468  26.330  28.117  1.00  0.00    -0.014 A 
BRANCH  40  41
ATOM     41  C   UNL A   1      40.674  27.625  28.760  1.00  0.00     0.031 A 
ATOM     42  C   UNL A   1      41.770  28.451  28.180  1.00  0.00     0.074 A 
ATOM     43  C   UNL A   1      39.804  28.150  29.651  1.00  0.00     0.049 A 
ATOM     44  N   UNL A   1      42.837  28.874  28.773  1.00  0.00    -0.248 NA
ATOM     45  C   UNL A   1      41.728  28.765  26.742  1.00  0.00     0.031 C 
ATOM     46  C   UNL A   1      38.515  27.604  30.092  1.00  0.00     0.029 A 
ATOM     47  N   UNL A   1      39.835  29.363  30.268  1.00  0.00    -0.354 N 
ATOM     48  C   UNL A   1      43.515  29.661  27.844  1.00  0.00     0.074 A 
ATOM     49  C   UNL A   1      42.875  29.427  26.575  1.00  0.00     0.031 C 
ATOM     50  C   UNL A   1      37.791  28.576  30.688  1.00  0.00     0.029 A 
ATOM     51  C   UNL A   1      38.624  29.755  30.827  1.00  0.00     0.049 A 
ATOM     52  H   UNL A   1      40.648  29.916  30.314  1.00  0.00     0.167 HD
ATOM     53  C   UNL A   1      44.390  30.624  28.248  1.00  0.00     0.037 A 
ATOM     54  C   UNL A   1      38.318  30.975  31.334  1.00  0.00     0.037 A 
ATOM     55  C   UNL A   1      44.816  30.401  29.608  1.00  0.00     0.049 A 
ATOM     56  C   UNL A   1      39.600  31.654  31.642  1.00  0.00     0.074 A 
ATOM     57  C   UNL A   1      45.421  29.350  30.273  1.00  0.00     0.029 A 
ATOM     58  N   UNL A   1      44.292  31.197  30.596  1.00  0.00    -0.354 N 
ATOM     59  N   UNL A   1      40.416  31.275  32.586  1.00  0.00    -0.248 NA
ATOM     60  C   UNL A   1      40.190  32.484  30.603  1.00  0.00     0.031 C 
ATOM     61  C   UNL A   1      44.775  29.300  31.545  1.00  0.00     0.029 A 
ATOM     62  C   UNL A   1      43.879  30.365  31.605  1.00  0.00     0.049 A 
ATOM     63  H   UNL A   1      44.225  32.180  30.583  1.00  0.00     0.167 HD
ATOM     64  C   UNL A   1      41.678  31.423  32.034  1.00  0.00     0.074 A 
ATOM     65  C   UNL A   1      41.482  32.260  30.852  1.00  0.00     0.031 C 
ATOM     66  C   UNL A   1      42.712  30.618  32.415  1.00  0.00     0.037 A 
BRANCH  53  67
ATOM     67  C   UNL A   1      44.555  31.966  27.569  1.00  0.00     0.064 A 
ATOM     68  C   UNL A   1      45.723  32.212  26.818  1.00  0.00     0.173 A 
ATOM     69  C   UNL A   1      43.787  33.107  27.884  1.00  0.00     0.173 A 
ATOM     70  F   UNL A   1      46.537  31.204  26.469  1.00  0.00    -0.203 F 
ATOM     71  C   UNL A   1      46.141  33.509  26.502  1.00  0.00     0.198 A 
ATOM     72  C   UNL A   1      44.179  34.395  27.520  1.00  0.00     0.198 A 
ATOM     73  F   UNL A   1      42.695  33.047  28.655  1.00  0.00    -0.203 F 
ATOM     74  F   UNL A   1      47.330  33.699  25.916  1.00  0.00    -0.200 F 
ATOM     75  C   UNL A   1      45.373  34.599  26.862  1.00  0.00     0.200 A 
ATOM     76  F   UNL A   1      43.428  35.441  27.894  1.00  0.00    -0.200 F 
ATOM     77  F   UNL A   1      45.804  35.845  26.627  1.00  0.00    -0.200 F 
ENDBRANCH  53  67
BRANCH  54  78
ATOM     78  C   UNL A   1      37.022  31.696  31.308  1.00  0.00     0.064 A 
ATOM     79  C   UNL A   1      36.302  31.922  32.494  1.00  0.00     0.173 A 
ATOM     80  C   UNL A   1      36.603  32.423  30.177  1.00  0.00     0.173 A 
ATOM     81  F   UNL A   1      36.654  31.297  33.626  1.00  0.00    -0.203 F 
ATOM     82  C   UNL A   1      35.259  32.853  32.554  1.00  0.00     0.198 A 
ATOM     83  C   UNL A   1      35.555  33.344  30.235  1.00  0.00     0.198 A 
ATOM     84  F   UNL A   1      37.263  32.331  29.013  1.00  0.00    -0.203 F 
ATOM     85  F   UNL A   1      34.647  33.095  33.722  1.00  0.00    -0.200 F 
ATOM     86  C   UNL A   1      34.896  33.572  31.429  1.00  0.00     0.200 A 
ATOM     87  F   UNL A   1      35.233  34.055  29.145  1.00  0.00    -0.200 F 
ATOM     88  F   UNL A   1      33.942  34.511  31.502  1.00  0.00    -0.200 F 
ENDBRANCH  54  78
BRANCH  66  89
ATOM     89  C   UNL A   1      42.528  29.756  33.633  1.00  0.00     0.064 A 
ATOM     90  C   UNL A   1      41.971  28.465  33.614  1.00  0.00     0.173 A 
ATOM     91  C   UNL A   1      43.064  30.204  34.846  1.00  0.00     0.173 A 
ATOM     92  F   UNL A   1      41.531  27.915  32.476  1.00  0.00    -0.203 F 
ATOM     93  C   UNL A   1      41.910  27.685  34.769  1.00  0.00     0.198 A 
ATOM     94  C   UNL A   1      43.037  29.410  35.989  1.00  0.00     0.198 A 
ATOM     95  F   UNL A   1      43.659  31.406  34.914  1.00  0.00    -0.203 F 
ATOM     96  F   UNL A   1      41.356  26.463  34.727  1.00  0.00    -0.200 F 
ATOM     97  C   UNL A   1      42.449  28.156  35.953  1.00  0.00     0.200 A 
ATOM     98  F   UNL A   1      43.605  29.851  37.120  1.00  0.00    -0.200 F 
ATOM     99  F   UNL A   1      42.426  27.393  37.055  1.00  0.00    -0.200 F 
ENDBRANCH  66  89
ENDBRANCH  40  41
ENDBRANCH  32  35
ENDBRANCH  30  31
ENDBRANCH  29  30
ENDBRANCH   1  29
TORSDOF 16
ENDMDL
MODEL 2
REMARK VINA RESULT:     -13.2      3.120      8.832
REMARK SMILES COc1ccc(-c2ncn(CC(=O)NCCCCNC(=O)c3ccc(-c4c5nc(c(-c6c(F)c(F)c(F)c(F)c6F)c6ccc([nH]6)c(-c6c(F)c(F)c(F)c(F)c6F)c6nc(c(-c7c(F)c(F)c(F)c(F)c7F)c7ccc4[nH]7)C=C6)C=C5)cc3)c2-c2ccc(OC)cc2)cc1
REMARK SMILES IDX 16 1 15 2 14 3 12 4 13 5 11 7 10 8 7 9 8 10 85 11 9 12 6 13
REMARK SMILES IDX 3 14 4 15 95 16 5 17 94 18 2 19 1 20 86 21 87 22 93 23 88 24
REMARK SMILES IDX 92 25 89 26 90 27 91 28 17 29 18 30 19 31 20 32 21 34 22 35
REMARK SMILES IDX 23 36 84 37 24 38 83 39 25 40 26 41 27 42 77 43 28 44 82 45
REMARK SMILES IDX 76 46 78 47 29 48 81 49 75 50 74 51 30 53 62 54 42 55 61 56
REMARK SMILES IDX 43 57 46 58 60 59 79 60 44 61 45 62 59 64 80 65 47 66 31 67
REMARK SMILES IDX 32 68 40 69 33 70 34 71 38 72 41 73 35 74 36 75 39 76 37 77
REMARK SMILES IDX 63 78 64 79 72 80 65 81 66 82 70 83 73 84 67 85 68 86 71 87
REMARK SMILES IDX 69 88 48 89 49 90 57 91 50 92 51 93 55 94 58 95 52 96 53 97
REMARK SMILES IDX 56 98 54 99
REMARK H PARENT 14 6 19 33 78 52 46 63
REMARK Flexibility Score: inf
ROOT
ATOM      1  C   UNL A   1      32.631  30.077  26.552  1.00  0.00     0.023 C 
ENDROOT
BRANCH   1   2
ATOM      2  C   UNL A   1      31.953  29.051  25.642  1.00  0.00     0.116 C 
BRANCH   2   3
ATOM      3  N   UNL A   1      31.535  27.840  26.323  1.00  0.00    -0.355 N 
ATOM      4  C   UNL A   1      31.693  26.532  25.960  1.00  0.00     0.239 C 
ATOM      5  O   UNL A   1      31.415  25.678  26.807  1.00  0.00    -0.273 OA
ATOM      6  H   UNL A   1      31.067  27.982  27.178  1.00  0.00     0.163 HD
BRANCH   4   7
ATOM      7  C   UNL A   1      32.252  26.132  24.608  1.00  0.00     0.223 C 
BRANCH   7   8
ATOM      8  N   UNL A   1      31.919  24.780  24.197  1.00  0.00    -0.321 N 
ATOM      9  C   UNL A   1      31.856  22.633  23.848  1.00  0.00     0.096 A 
ATOM     10  N   UNL A   1      30.658  23.131  23.405  1.00  0.00    -0.236 NA
ATOM     11  C   UNL A   1      32.705  23.650  24.269  1.00  0.00     0.076 A 
ATOM     12  C   UNL A   1      30.740  24.427  23.594  1.00  0.00     0.201 A 
BRANCH   9  13
ATOM     13  C   UNL A   1      32.205  21.227  23.825  1.00  0.00     0.003 A 
ATOM     14  C   UNL A   1      32.660  18.461  23.818  1.00  0.00     0.118 A 
ATOM     15  C   UNL A   1      32.375  19.127  22.627  1.00  0.00     0.047 A 
ATOM     16  C   UNL A   1      32.773  19.188  25.005  1.00  0.00     0.047 A 
ATOM     17  C   UNL A   1      32.144  20.501  22.628  1.00  0.00     0.014 A 
ATOM     18  C   UNL A   1      32.553  20.570  25.007  1.00  0.00     0.014 A 
BRANCH  14  19
ATOM     19  O   UNL A   1      32.851  17.112  23.698  1.00  0.00    -0.497 OA
ATOM     20  C   UNL A   1      34.096  16.722  23.131  1.00  0.00     0.278 C 
ENDBRANCH  14  19
ENDBRANCH   9  13
BRANCH  11  21
ATOM     21  C   UNL A   1      34.120  23.596  24.620  1.00  0.00     0.001 A 
ATOM     22  C   UNL A   1      34.557  23.649  25.943  1.00  0.00     0.014 A 
ATOM     23  C   UNL A   1      35.061  23.399  23.602  1.00  0.00     0.014 A 
ATOM     24  C   UNL A   1      35.920  23.547  26.237  1.00  0.00     0.047 A 
ATOM     25  C   UNL A   1      36.421  23.274  23.898  1.00  0.00     0.047 A 
ATOM     26  C   UNL A   1      36.857  23.351  25.220  1.00  0.00     0.118 A 
BRANCH  26  27
ATOM     27  O   UNL A   1      38.152  23.249  25.644  1.00  0.00    -0.497 OA
ATOM     28  C   UNL A   1      38.530  24.080  26.735  1.00  0.00     0.278 C 
ENDBRANCH  26  27
ENDBRANCH  11  21
ENDBRANCH   7   8
ENDBRANCH   4   7
ENDBRANCH   2   3
ENDBRANCH   1   2
BRANCH   1  29
ATOM     29  C   UNL A   1      33.934  29.649  27.239  1.00  0.00     0.023 C 
BRANCH  29  30
ATOM     30  C   UNL A   1      34.988  30.739  27.384  1.00  0.00     0.116 C 
BRANCH  30  31
ATOM     31  N   UNL A   1      34.672  31.723  28.419  1.00  0.00    -0.352 N 
ATOM     32  C   UNL A   1      35.142  31.761  29.715  1.00  0.00     0.251 C 
ATOM     33  H   UNL A   1      34.051  32.442  28.161  1.00  0.00     0.163 HD
ATOM     34  O   UNL A   1      34.533  32.376  30.597  1.00  0.00    -0.269 OA
BRANCH  32  35
ATOM     35  C   UNL A   1      36.390  31.058  30.041  1.00  0.00     0.039 A 
ATOM     36  C   UNL A   1      36.412  29.689  30.318  1.00  0.00     0.014 A 
ATOM     37  C   UNL A   1      37.569  31.796  30.015  1.00  0.00     0.014 A 
ATOM     38  C   UNL A   1      37.643  29.055  30.470  1.00  0.00     0.010 A 
ATOM     39  C   UNL A   1      38.778  31.150  30.011  1.00  0.00     0.010 A 
ATOM     40  C   UNL A   1      38.828  29.786  30.285  1.00  0.00    -0.014 A 
BRANCH  40  41
ATOM     41  C   UNL A   1      40.123  29.113  30.251  1.00  0.00     0.031 A 
ATOM     42  C   UNL A   1      40.769  28.921  31.581  1.00  0.00     0.074 A 
ATOM     43  C   UNL A   1      40.605  28.499  29.148  1.00  0.00     0.049 A 
ATOM     44  N   UNL A   1      41.907  29.386  31.979  1.00  0.00    -0.248 NA
ATOM     45  C   UNL A   1      40.019  28.209  32.629  1.00  0.00     0.031 C 
ATOM     46  C   UNL A   1      39.950  28.325  27.846  1.00  0.00     0.029 A 
ATOM     47  N   UNL A   1      41.752  27.782  28.997  1.00  0.00    -0.354 N 
ATOM     48  C   UNL A   1      42.109  28.878  33.261  1.00  0.00     0.074 A 
ATOM     49  C   UNL A   1      40.854  28.300  33.667  1.00  0.00     0.031 C 
ATOM     50  C   UNL A   1      40.583  27.360  27.146  1.00  0.00     0.029 A 
ATOM     51  C   UNL A   1      41.780  26.973  27.867  1.00  0.00     0.049 A 
ATOM     52  H   UNL A   1      42.499  27.833  29.636  1.00  0.00     0.167 HD
ATOM     53  C   UNL A   1      43.364  28.763  33.778  1.00  0.00     0.037 A 
ATOM     54  C   UNL A   1      42.703  26.026  27.566  1.00  0.00     0.037 A 
ATOM     55  C   UNL A   1      44.299  29.598  33.064  1.00  0.00     0.049 A 
ATOM     56  C   UNL A   1      43.915  26.327  28.366  1.00  0.00     0.074 A 
ATOM     57  C   UNL A   1      44.369  30.950  32.782  1.00  0.00     0.029 A 
ATOM     58  N   UNL A   1      45.170  29.001  32.186  1.00  0.00    -0.354 N 
ATOM     59  N   UNL A   1      44.671  27.372  28.175  1.00  0.00    -0.248 NA
ATOM     60  C   UNL A   1      44.031  25.702  29.675  1.00  0.00     0.031 C 
ATOM     61  C   UNL A   1      44.849  31.020  31.439  1.00  0.00     0.029 A 
ATOM     62  C   UNL A   1      45.115  29.718  31.018  1.00  0.00     0.049 A 
ATOM     63  H   UNL A   1      45.728  28.209  32.361  1.00  0.00     0.167 HD
ATOM     64  C   UNL A   1      45.000  27.800  29.451  1.00  0.00     0.074 A 
ATOM     65  C   UNL A   1      44.661  26.682  30.328  1.00  0.00     0.031 C 
ATOM     66  C   UNL A   1      45.239  29.118  29.712  1.00  0.00     0.037 A 
BRANCH  53  67
ATOM     67  C   UNL A   1      43.823  27.619  34.656  1.00  0.00     0.064 A 
ATOM     68  C   UNL A   1      43.663  26.296  34.194  1.00  0.00     0.173 A 
ATOM     69  C   UNL A   1      44.105  27.747  36.033  1.00  0.00     0.173 A 
ATOM     70  F   UNL A   1      43.381  26.052  32.904  1.00  0.00    -0.203 F 
ATOM     71  C   UNL A   1      43.679  25.201  35.062  1.00  0.00     0.198 A 
ATOM     72  C   UNL A   1      44.175  26.648  36.887  1.00  0.00     0.198 A 
ATOM     73  F   UNL A   1      44.208  28.937  36.636  1.00  0.00    -0.203 F 
ATOM     74  F   UNL A   1      43.376  23.981  34.598  1.00  0.00    -0.200 F 
ATOM     75  C   UNL A   1      43.925  25.379  36.409  1.00  0.00     0.200 A 
ATOM     76  F   UNL A   1      44.399  26.844  38.194  1.00  0.00    -0.200 F 
ATOM     77  F   UNL A   1      43.869  24.343  37.256  1.00  0.00    -0.200 F 
ENDBRANCH  53  67
BRANCH  54  78
ATOM     78  C   UNL A   1      42.516  24.735  26.860  1.00  0.00     0.064 A 
ATOM     79  C   UNL A   1      43.104  24.512  25.603  1.00  0.00     0.173 A 
ATOM     80  C   UNL A   1      42.006  23.599  27.519  1.00  0.00     0.173 A 
ATOM     81  F   UNL A   1      43.645  25.532  24.921  1.00  0.00    -0.203 F 
ATOM     82  C   UNL A   1      43.215  23.227  25.061  1.00  0.00     0.198 A 
ATOM     83  C   UNL A   1      42.108  22.318  26.972  1.00  0.00     0.198 A 
ATOM     84  F   UNL A   1      41.485  23.691  28.751  1.00  0.00    -0.203 F 
ATOM     85  F   UNL A   1      43.849  23.048  23.894  1.00  0.00    -0.200 F 
ATOM     86  C   UNL A   1      42.729  22.130  25.752  1.00  0.00     0.200 A 
ATOM     87  F   UNL A   1      41.660  21.262  27.665  1.00  0.00    -0.200 F 
ATOM     88  F   UNL A   1      42.895  20.893  25.264  1.00  0.00    -0.200 F 
ENDBRANCH  54  78
BRANCH  66  89
ATOM     89  C   UNL A   1      45.408  30.052  28.546  1.00  0.00     0.064 A 
ATOM     90  C   UNL A   1      44.347  30.692  27.881  1.00  0.00     0.173 A 
ATOM     91  C   UNL A   1      46.709  30.420  28.177  1.00  0.00     0.173 A 
ATOM     92  F   UNL A   1      43.075  30.480  28.241  1.00  0.00    -0.203 F 
ATOM     93  C   UNL A   1      44.580  31.615  26.863  1.00  0.00     0.198 A 
ATOM     94  C   UNL A   1      46.941  31.370  27.187  1.00  0.00     0.198 A 
ATOM     95  F   UNL A   1      47.764  29.885  28.813  1.00  0.00    -0.203 F 
ATOM     96  F   UNL A   1      43.548  32.197  26.233  1.00  0.00    -0.200 F 
ATOM     97  C   UNL A   1      45.877  31.958  26.521  1.00  0.00     0.200 A 
ATOM     98  F   UNL A   1      48.196  31.734  26.894  1.00  0.00    -0.200 F 
ATOM     99  F   UNL A   1      46.104  32.873  25.568  1.00  0.00    -0.200 F 
ENDBRANCH  66  89
ENDBRANCH  40  41
ENDBRANCH  32  35
ENDBRANCH  30  31
ENDBRANCH  29  30
ENDBRANCH   1  29
TORSDOF 16
ENDMDL
MODEL 3
REMARK VINA RESULT:     -12.5      5.900     10.435
REMARK SMILES COc1ccc(-c2ncn(CC(=O)NCCCCNC(=O)c3ccc(-c4c5nc(c(-c6c(F)c(F)c(F)c(F)c6F)c6ccc([nH]6)c(-c6c(F)c(F)c(F)c(F)c6F)c6nc(c(-c7c(F)c(F)c(F)c(F)c7F)c7ccc4[nH]7)C=C6)C=C5)cc3)c2-c2ccc(OC)cc2)cc1
REMARK SMILES IDX 16 1 15 2 14 3 12 4 13 5 11 7 10 8 7 9 8 10 85 11 9 12 6 13
REMARK SMILES IDX 3 14 4 15 95 16 5 17 94 18 2 19 1 20 86 21 87 22 93 23 88 24
REMARK SMILES IDX 92 25 89 26 90 27 91 28 17 29 18 30 19 31 20 32 21 34 22 35
REMARK SMILES IDX 23 36 84 37 24 38 83 39 25 40 26 41 27 42 77 43 28 44 82 45
REMARK SMILES IDX 76 46 78 47 29 48 81 49 75 50 74 51 30 53 62 54 42 55 61 56
REMARK SMILES IDX 43 57 46 58 60 59 79 60 44 61 45 62 59 64 80 65 47 66 31 67
REMARK SMILES IDX 32 68 40 69 33 70 34 71 38 72 41 73 35 74 36 75 39 76 37 77
REMARK SMILES IDX 63 78 64 79 72 80 65 81 66 82 70 83 73 84 67 85 68 86 71 87
REMARK SMILES IDX 69 88 48 89 49 90 57 91 50 92 51 93 55 94 58 95 52 96 53 97
REMARK SMILES IDX 56 98 54 99
REMARK H PARENT 14 6 19 33 78 52 46 63
REMARK Flexibility Score: inf
ROOT
ATOM      1  C   UNL A   1      41.538  26.515  35.110  1.00  0.00     0.023 C 
ENDROOT
BRANCH   1   2
ATOM      2  C   UNL A   1      41.790  28.024  35.121  1.00  0.00     0.116 C 
BRANCH   2   3
ATOM      3  N   UNL A   1      40.803  28.784  35.865  1.00  0.00    -0.355 N 
ATOM      4  C   UNL A   1      39.901  29.711  35.427  1.00  0.00     0.239 C 
ATOM      5  O   UNL A   1      39.038  30.078  36.232  1.00  0.00    -0.273 OA
ATOM      6  H   UNL A   1      40.780  28.603  36.832  1.00  0.00     0.163 HD
BRANCH   4   7
ATOM      7  C   UNL A   1      39.899  30.224  33.999  1.00  0.00     0.223 C 
BRANCH   7   8
ATOM      8  N   UNL A   1      38.579  30.510  33.466  1.00  0.00    -0.321 N 
ATOM      9  C   UNL A   1      36.761  31.437  32.711  1.00  0.00     0.096 A 
ATOM     10  N   UNL A   1      36.635  30.092  32.475  1.00  0.00    -0.236 NA
ATOM     11  C   UNL A   1      37.928  31.724  33.410  1.00  0.00     0.076 A 
ATOM     12  C   UNL A   1      37.725  29.558  32.973  1.00  0.00     0.201 A 
BRANCH   9  13
ATOM     13  C   UNL A   1      35.771  32.422  32.324  1.00  0.00     0.003 A 
ATOM     14  C   UNL A   1      34.016  34.488  31.610  1.00  0.00     0.118 A 
ATOM     15  C   UNL A   1      34.784  33.853  30.635  1.00  0.00     0.047 A 
ATOM     16  C   UNL A   1      34.084  34.052  32.935  1.00  0.00     0.047 A 
ATOM     17  C   UNL A   1      35.660  32.829  30.988  1.00  0.00     0.014 A 
ATOM     18  C   UNL A   1      34.956  33.015  33.290  1.00  0.00     0.014 A 
BRANCH  14  19
ATOM     19  O   UNL A   1      33.206  35.490  31.150  1.00  0.00    -0.497 OA
ATOM     20  C   UNL A   1      32.322  36.047  32.115  1.00  0.00     0.278 C 
ENDBRANCH  14  19
ENDBRANCH   9  13
BRANCH  11  21
ATOM     21  C   UNL A   1      38.357  32.970  34.034  1.00  0.00     0.001 A 
ATOM     22  C   UNL A   1      38.121  33.244  35.381  1.00  0.00     0.014 A 
ATOM     23  C   UNL A   1      39.103  33.883  33.277  1.00  0.00     0.014 A 
ATOM     24  C   UNL A   1      38.591  34.432  35.949  1.00  0.00     0.047 A 
ATOM     25  C   UNL A   1      39.592  35.058  33.851  1.00  0.00     0.047 A 
ATOM     26  C   UNL A   1      39.335  35.340  35.192  1.00  0.00     0.118 A 
BRANCH  26  27
ATOM     27  O   UNL A   1      39.750  36.450  35.872  1.00  0.00    -0.497 OA
ATOM     28  C   UNL A   1      40.016  36.282  37.259  1.00  0.00     0.278 C 
ENDBRANCH  26  27
ENDBRANCH  11  21
ENDBRANCH   7   8
ENDBRANCH   4   7
ENDBRANCH   2   3
ENDBRANCH   1   2
BRANCH   1  29
ATOM     29  C   UNL A   1      41.610  25.783  36.457  1.00  0.00     0.023 C 
BRANCH  29  30
ATOM     30  C   UNL A   1      42.331  24.442  36.436  1.00  0.00     0.116 C 
BRANCH  30  31
ATOM     31  N   UNL A   1      43.605  24.453  37.157  1.00  0.00    -0.352 N 
ATOM     32  C   UNL A   1      44.864  24.231  36.642  1.00  0.00     0.251 C 
ATOM     33  H   UNL A   1      43.556  24.640  38.122  1.00  0.00     0.163 HD
ATOM     34  O   UNL A   1      45.799  23.879  37.371  1.00  0.00    -0.269 OA
BRANCH  32  35
ATOM     35  C   UNL A   1      45.089  24.420  35.203  1.00  0.00     0.039 A 
ATOM     36  C   UNL A   1      45.099  23.345  34.312  1.00  0.00     0.014 A 
ATOM     37  C   UNL A   1      45.244  25.724  34.744  1.00  0.00     0.014 A 
ATOM     38  C   UNL A   1      45.165  23.606  32.946  1.00  0.00     0.010 A 
ATOM     39  C   UNL A   1      45.155  25.989  33.401  1.00  0.00     0.010 A 
ATOM     40  C   UNL A   1      45.163  24.935  32.492  1.00  0.00    -0.014 A 
BRANCH  40  41
ATOM     41  C   UNL A   1      45.043  25.239  31.069  1.00  0.00     0.031 A 
ATOM     42  C   UNL A   1      46.063  26.187  30.537  1.00  0.00     0.074 A 
ATOM     43  C   UNL A   1      44.231  24.550  30.236  1.00  0.00     0.049 A 
ATOM     44  N   UNL A   1      45.859  27.341  29.994  1.00  0.00    -0.248 NA
ATOM     45  C   UNL A   1      47.487  25.859  30.717  1.00  0.00     0.031 C 
ATOM     46  C   UNL A   1      43.397  23.381  30.541  1.00  0.00     0.029 A 
ATOM     47  N   UNL A   1      44.075  24.679  28.890  1.00  0.00    -0.354 N 
ATOM     48  C   UNL A   1      47.109  27.810  29.594  1.00  0.00     0.074 A 
ATOM     49  C   UNL A   1      48.079  26.940  30.205  1.00  0.00     0.031 C 
ATOM     50  C   UNL A   1      43.036  22.771  29.392  1.00  0.00     0.029 A 
ATOM     51  C   UNL A   1      43.461  23.593  28.276  1.00  0.00     0.049 A 
ATOM     52  H   UNL A   1      44.372  25.475  28.393  1.00  0.00     0.167 HD
ATOM     53  C   UNL A   1      47.224  28.730  28.596  1.00  0.00     0.037 A 
ATOM     54  C   UNL A   1      43.344  23.370  26.943  1.00  0.00     0.037 A 
ATOM     55  C   UNL A   1      45.975  29.416  28.375  1.00  0.00     0.049 A 
ATOM     56  C   UNL A   1      43.530  24.675  26.264  1.00  0.00     0.074 A 
ATOM     57  C   UNL A   1      45.124  30.158  29.174  1.00  0.00     0.029 A 
ATOM     58  N   UNL A   1      45.231  29.081  27.271  1.00  0.00    -0.354 N 
ATOM     59  N   UNL A   1      42.687  25.666  26.347  1.00  0.00    -0.248 NA
ATOM     60  C   UNL A   1      44.880  25.036  25.856  1.00  0.00     0.031 C 
ATOM     61  C   UNL A   1      43.811  29.773  28.767  1.00  0.00     0.029 A 
ATOM     62  C   UNL A   1      43.943  28.887  27.699  1.00  0.00     0.049 A 
ATOM     63  H   UNL A   1      45.560  28.995  26.347  1.00  0.00     0.167 HD
ATOM     64  C   UNL A   1      43.485  26.793  26.453  1.00  0.00     0.074 A 
ATOM     65  C   UNL A   1      44.819  26.356  26.048  1.00  0.00     0.031 C 
ATOM     66  C   UNL A   1      43.059  27.896  27.135  1.00  0.00     0.037 A 
BRANCH  53  67
ATOM     67  C   UNL A   1      48.332  28.735  27.566  1.00  0.00     0.064 A 
ATOM     68  C   UNL A   1      48.609  27.549  26.854  1.00  0.00     0.173 A 
ATOM     69  C   UNL A   1      49.324  29.736  27.481  1.00  0.00     0.173 A 
ATOM     70  F   UNL A   1      47.743  26.524  26.871  1.00  0.00    -0.203 F 
ATOM     71  C   UNL A   1      49.829  27.345  26.202  1.00  0.00     0.198 A 
ATOM     72  C   UNL A   1      50.516  29.549  26.782  1.00  0.00     0.198 A 
ATOM     73  F   UNL A   1      49.243  30.885  28.162  1.00  0.00    -0.203 F 
ATOM     74  F   UNL A   1      50.103  26.148  25.666  1.00  0.00    -0.200 F 
ATOM     75  C   UNL A   1      50.784  28.342  26.175  1.00  0.00     0.200 A 
ATOM     76  F   UNL A   1      51.437  30.523  26.783  1.00  0.00    -0.200 F 
ATOM     77  F   UNL A   1      51.981  28.125  25.614  1.00  0.00    -0.200 F 
ENDBRANCH  53  67
BRANCH  54  78
ATOM     78  C   UNL A   1      43.364  22.081  26.210  1.00  0.00     0.064 A 
ATOM     79  C   UNL A   1      44.578  21.517  25.782  1.00  0.00     0.173 A 
ATOM     80  C   UNL A   1      42.236  21.238  26.165  1.00  0.00     0.173 A 
ATOM     81  F   UNL A   1      45.708  22.237  25.823  1.00  0.00    -0.203 F 
ATOM     82  C   UNL A   1      44.666  20.180  25.378  1.00  0.00     0.198 A 
ATOM     83  C   UNL A   1      42.323  19.907  25.752  1.00  0.00     0.198 A 
ATOM     84  F   UNL A   1      41.043  21.656  26.614  1.00  0.00    -0.203 F 
ATOM     85  F   UNL A   1      45.856  19.659  25.049  1.00  0.00    -0.200 F 
ATOM     86  C   UNL A   1      43.541  19.373  25.377  1.00  0.00     0.200 A 
ATOM     87  F   UNL A   1      41.231  19.128  25.784  1.00  0.00    -0.200 F 
ATOM     88  F   UNL A   1      43.637  18.076  25.055  1.00  0.00    -0.200 F 
ENDBRANCH  54  78
BRANCH  66  89
ATOM     89  C   UNL A   1      41.611  27.968  27.534  1.00  0.00     0.064 A 
ATOM     90  C   UNL A   1      41.087  27.429  28.722  1.00  0.00     0.173 A 
ATOM     91  C   UNL A   1      40.746  28.735  26.743  1.00  0.00     0.173 A 
ATOM     92  F   UNL A   1      41.867  26.772  29.589  1.00  0.00    -0.203 F 
ATOM     93  C   UNL A   1      39.749  27.608  29.072  1.00  0.00     0.198 A 
ATOM     94  C   UNL A   1      39.420  28.945  27.112  1.00  0.00     0.198 A 
ATOM     95  F   UNL A   1      41.202  29.322  25.624  1.00  0.00    -0.203 F 
ATOM     96  F   UNL A   1      39.271  27.067  30.202  1.00  0.00    -0.200 F 
ATOM     97  C   UNL A   1      38.919  28.371  28.269  1.00  0.00     0.200 A 
ATOM     98  F   UNL A   1      38.635  29.726  26.358  1.00  0.00    -0.200 F 
ATOM     99  F   UNL A   1      37.642  28.577  28.622  1.00  0.00    -0.200 F 
ENDBRANCH  66  89
ENDBRANCH  40  41
ENDBRANCH  32  35
ENDBRANCH  30  31
ENDBRANCH  29  30
ENDBRANCH   1  29
TORSDOF 16
ENDMDL
