MODEL 1
REMARK VINA RESULT:     -12.0      0.000      0.000
REMARK SMILES C#CCN(CC(=O)NCCCCNC(=O)c1ccc(-c2c3nc(c(-c4c(F)c(F)c(F)c(F)c4F)c4ccc([nH]4)c(-c4c(F)c(F)c(F)c(F)c4F)c4nc(c(-c5c(F)c(F)c(F)c(F)c5F)c5ccc2[nH]5)C=C4)C=C3)cc1)S(=O)(=O)c1c(C)cc(C)cc1C
REMARK SMILES IDX 10 1 9 2 8 3 6 4 7 5 5 7 4 8 3 9 2 10 1 11 79 12 80 13 81 14
REMARK SMILES IDX 82 15 83 16 89 17 84 18 85 19 88 20 90 21 86 22 87 23 11 24
REMARK SMILES IDX 12 25 13 26 14 27 15 29 16 30 17 31 78 32 18 33 77 34 19 35
REMARK SMILES IDX 20 36 21 37 71 38 22 39 76 40 70 41 72 42 23 43 75 44 69 45
REMARK SMILES IDX 68 46 24 48 56 49 36 50 55 51 37 52 40 53 54 54 73 55 38 56
REMARK SMILES IDX 39 57 53 59 74 60 41 61 25 62 26 63 34 64 27 65 28 66 32 67
REMARK SMILES IDX 35 68 29 69 30 70 33 71 31 72 57 73 58 74 66 75 59 76 60 77
REMARK SMILES IDX 64 78 67 79 61 80 62 81 65 82 63 83 42 84 43 85 51 86 44 87
REMARK SMILES IDX 45 88 49 89 52 90 46 91 47 92 50 93 48 94
REMARK H PARENT 8 6 13 28 72 47 40 58
REMARK Flexibility Score: inf
ROOT
ATOM      1  C   UNL A   1      32.091  28.175  26.917  1.00  0.00     0.023 C 
ENDROOT
BRANCH   1   2
ATOM      2  C   UNL A   1      32.316  27.606  25.500  1.00  0.00     0.116 C 
BRANCH   2   3
ATOM      3  N   UNL A   1      31.068  27.413  24.777  1.00  0.00    -0.355 N 
ATOM      4  C   UNL A   1      30.141  26.408  24.758  1.00  0.00     0.235 C 
ATOM      5  O   UNL A   1      29.095  26.641  24.142  1.00  0.00    -0.274 OA
ATOM      6  H   UNL A   1      30.845  28.161  24.177  1.00  0.00     0.163 HD
BRANCH   4   7
ATOM      7  C   UNL A   1      30.306  25.081  25.502  1.00  0.00     0.203 C 
BRANCH   7   8
ATOM      8  N   UNL A   1      31.357  24.100  25.065  1.00  0.00    -0.177 NA
BRANCH   8   9
ATOM      9  C   UNL A   1      31.051  23.667  23.685  1.00  0.00     0.192 C 
BRANCH   9  10
ATOM     10  C   UNL A   1      32.257  23.406  22.797  1.00  0.00    -0.090 C 
ATOM     11  C   UNL A   1      33.291  23.181  22.035  1.00  0.00     0.005 C 
ENDBRANCH   9  10
ENDBRANCH   8   9
BRANCH   8  12
ATOM     12  S   UNL A   1      31.648  22.807  26.181  1.00  0.00     0.244 S 
ATOM     13  O   UNL A   1      31.532  23.384  27.496  1.00  0.00    -0.207 OA
ATOM     14  O   UNL A   1      30.819  21.662  25.843  1.00  0.00    -0.207 OA
BRANCH  12  15
ATOM     15  C   UNL A   1      33.331  22.255  25.828  1.00  0.00     0.088 A 
ATOM     16  C   UNL A   1      33.612  20.936  25.401  1.00  0.00    -0.031 A 
ATOM     17  C   UNL A   1      34.373  23.229  25.824  1.00  0.00    -0.031 A 
ATOM     18  C   UNL A   1      32.614  19.816  25.283  1.00  0.00     0.046 C 
ATOM     19  C   UNL A   1      34.936  20.604  25.041  1.00  0.00     0.008 A 
ATOM     20  C   UNL A   1      35.669  22.854  25.414  1.00  0.00     0.008 A 
ATOM     21  C   UNL A   1      34.184  24.701  26.102  1.00  0.00     0.046 C 
ATOM     22  C   UNL A   1      35.960  21.550  25.025  1.00  0.00    -0.051 A 
ATOM     23  C   UNL A   1      37.335  21.163  24.567  1.00  0.00     0.044 C 
ENDBRANCH  12  15
ENDBRANCH   8  12
ENDBRANCH   7   8
ENDBRANCH   4   7
ENDBRANCH   2   3
ENDBRANCH   1   2
BRANCH   1  24
ATOM     24  C   UNL A   1      31.686  29.618  27.043  1.00  0.00     0.023 C 
BRANCH  24  25
ATOM     25  C   UNL A   1      32.717  30.594  26.537  1.00  0.00     0.116 C 
BRANCH  25  26
ATOM     26  N   UNL A   1      32.601  31.951  27.066  1.00  0.00    -0.352 N 
ATOM     27  C   UNL A   1      33.577  32.682  27.712  1.00  0.00     0.251 C 
ATOM     28  H   UNL A   1      31.729  32.394  26.947  1.00  0.00     0.163 HD
ATOM     29  O   UNL A   1      33.361  33.806  28.147  1.00  0.00    -0.269 OA
BRANCH  27  30
ATOM     30  C   UNL A   1      34.882  32.027  27.923  1.00  0.00     0.039 A 
ATOM     31  C   UNL A   1      36.014  32.822  28.109  1.00  0.00     0.014 A 
ATOM     32  C   UNL A   1      34.910  30.657  28.190  1.00  0.00     0.014 A 
ATOM     33  C   UNL A   1      37.150  32.255  28.685  1.00  0.00     0.010 A 
ATOM     34  C   UNL A   1      35.983  30.139  28.898  1.00  0.00     0.010 A 
ATOM     35  C   UNL A   1      37.117  30.930  29.149  1.00  0.00    -0.014 A 
BRANCH  35  36
ATOM     36  C   UNL A   1      38.255  30.328  29.887  1.00  0.00     0.031 A 
ATOM     37  C   UNL A   1      38.489  30.726  31.318  1.00  0.00     0.074 A 
ATOM     38  C   UNL A   1      39.122  29.511  29.256  1.00  0.00     0.049 A 
ATOM     39  N   UNL A   1      39.481  30.419  32.114  1.00  0.00    -0.248 NA
ATOM     40  C   UNL A   1      37.500  31.635  31.922  1.00  0.00     0.031 C 
ATOM     41  C   UNL A   1      39.048  29.114  27.847  1.00  0.00     0.029 A 
ATOM     42  N   UNL A   1      40.246  28.872  29.718  1.00  0.00    -0.354 N 
ATOM     43  C   UNL A   1      39.247  31.121  33.288  1.00  0.00     0.074 A 
ATOM     44  C   UNL A   1      38.070  31.931  33.077  1.00  0.00     0.031 C 
ATOM     45  C   UNL A   1      40.059  28.271  27.573  1.00  0.00     0.029 A 
ATOM     46  C   UNL A   1      40.873  28.100  28.770  1.00  0.00     0.049 A 
ATOM     47  H   UNL A   1      40.573  28.961  30.643  1.00  0.00     0.167 HD
ATOM     48  C   UNL A   1      39.928  31.064  34.456  1.00  0.00     0.037 A 
ATOM     49  C   UNL A   1      41.983  27.340  28.864  1.00  0.00     0.037 A 
ATOM     50  C   UNL A   1      41.059  30.208  34.678  1.00  0.00     0.049 A 
ATOM     51  C   UNL A   1      42.711  27.275  30.179  1.00  0.00     0.074 A 
ATOM     52  C   UNL A   1      41.762  29.996  35.849  1.00  0.00     0.029 A 
ATOM     53  N   UNL A   1      41.648  29.417  33.703  1.00  0.00    -0.354 N 
ATOM     54  N   UNL A   1      42.430  27.876  31.310  1.00  0.00    -0.248 NA
ATOM     55  C   UNL A   1      43.910  26.427  30.232  1.00  0.00     0.031 C 
ATOM     56  C   UNL A   1      42.804  29.105  35.573  1.00  0.00     0.029 A 
ATOM     57  C   UNL A   1      42.726  28.733  34.239  1.00  0.00     0.049 A 
ATOM     58  H   UNL A   1      41.346  29.352  32.768  1.00  0.00     0.167 HD
ATOM     59  C   UNL A   1      43.404  27.469  32.212  1.00  0.00     0.074 A 
ATOM     60  C   UNL A   1      44.271  26.551  31.502  1.00  0.00     0.031 C 
ATOM     61  C   UNL A   1      43.574  27.828  33.507  1.00  0.00     0.037 A 
BRANCH  48  62
ATOM     62  C   UNL A   1      39.445  31.933  35.579  1.00  0.00     0.064 A 
ATOM     63  C   UNL A   1      38.516  31.468  36.522  1.00  0.00     0.173 A 
ATOM     64  C   UNL A   1      39.923  33.244  35.719  1.00  0.00     0.173 A 
ATOM     65  F   UNL A   1      38.011  30.230  36.420  1.00  0.00    -0.203 F 
ATOM     66  C   UNL A   1      38.055  32.296  37.543  1.00  0.00     0.198 A 
ATOM     67  C   UNL A   1      39.486  34.058  36.762  1.00  0.00     0.198 A 
ATOM     68  F   UNL A   1      40.813  33.737  34.845  1.00  0.00    -0.203 F 
ATOM     69  F   UNL A   1      37.121  31.849  38.394  1.00  0.00    -0.200 F 
ATOM     70  C   UNL A   1      38.547  33.586  37.666  1.00  0.00     0.200 A 
ATOM     71  F   UNL A   1      39.968  35.302  36.885  1.00  0.00    -0.200 F 
ATOM     72  F   UNL A   1      38.106  34.381  38.651  1.00  0.00    -0.200 F 
ENDBRANCH  48  62
BRANCH  49  73
ATOM     73  C   UNL A   1      42.457  26.560  27.689  1.00  0.00     0.064 A 
ATOM     74  C   UNL A   1      41.968  25.270  27.439  1.00  0.00     0.173 A 
ATOM     75  C   UNL A   1      43.407  27.080  26.798  1.00  0.00     0.173 A 
ATOM     76  F   UNL A   1      41.075  24.720  28.275  1.00  0.00    -0.203 F 
ATOM     77  C   UNL A   1      42.423  24.523  26.355  1.00  0.00     0.198 A 
ATOM     78  C   UNL A   1      43.844  26.342  25.698  1.00  0.00     0.198 A 
ATOM     79  F   UNL A   1      43.906  28.309  26.990  1.00  0.00    -0.203 F 
ATOM     80  F   UNL A   1      41.970  23.276  26.165  1.00  0.00    -0.200 F 
ATOM     81  C   UNL A   1      43.356  25.061  25.482  1.00  0.00     0.200 A 
ATOM     82  F   UNL A   1      44.737  26.869  24.851  1.00  0.00    -0.200 F 
ATOM     83  F   UNL A   1      43.792  24.343  24.438  1.00  0.00    -0.200 F 
ENDBRANCH  49  73
BRANCH  61  84
ATOM     84  C   UNL A   1      44.733  27.224  34.240  1.00  0.00     0.064 A 
ATOM     85  C   UNL A   1      45.970  27.880  34.312  1.00  0.00     0.173 A 
ATOM     86  C   UNL A   1      44.590  26.006  34.921  1.00  0.00     0.173 A 
ATOM     87  F   UNL A   1      46.158  29.040  33.665  1.00  0.00    -0.203 F 
ATOM     88  C   UNL A   1      47.030  27.329  35.026  1.00  0.00     0.198 A 
ATOM     89  C   UNL A   1      45.644  25.472  35.657  1.00  0.00     0.198 A 
ATOM     90  F   UNL A   1      43.424  25.346  34.888  1.00  0.00    -0.203 F 
ATOM     91  F   UNL A   1      48.216  27.953  35.049  1.00  0.00    -0.200 F 
ATOM     92  C   UNL A   1      46.863  26.130  35.704  1.00  0.00     0.200 A 
ATOM     93  F   UNL A   1      45.477  24.323  36.324  1.00  0.00    -0.200 F 
ATOM     94  F   UNL A   1      47.882  25.606  36.400  1.00  0.00    -0.200 F 
ENDBRANCH  61  84
ENDBRANCH  35  36
ENDBRANCH  27  30
ENDBRANCH  25  26
ENDBRANCH  24  25
ENDBRANCH   1  24
TORSDOF 16
ENDMDL
MODEL 2
REMARK VINA RESULT:     -11.9      1.982      7.596
REMARK SMILES C#CCN(CC(=O)NCCCCNC(=O)c1ccc(-c2c3nc(c(-c4c(F)c(F)c(F)c(F)c4F)c4ccc([nH]4)c(-c4c(F)c(F)c(F)c(F)c4F)c4nc(c(-c5c(F)c(F)c(F)c(F)c5F)c5ccc2[nH]5)C=C4)C=C3)cc1)S(=O)(=O)c1c(C)cc(C)cc1C
REMARK SMILES IDX 10 1 9 2 8 3 6 4 7 5 5 7 4 8 3 9 2 10 1 11 79 12 80 13 81 14
REMARK SMILES IDX 82 15 83 16 89 17 84 18 85 19 88 20 90 21 86 22 87 23 11 24
REMARK SMILES IDX 12 25 13 26 14 27 15 29 16 30 17 31 78 32 18 33 77 34 19 35
REMARK SMILES IDX 20 36 21 37 71 38 22 39 76 40 70 41 72 42 23 43 75 44 69 45
REMARK SMILES IDX 68 46 24 48 56 49 36 50 55 51 37 52 40 53 54 54 73 55 38 56
REMARK SMILES IDX 39 57 53 59 74 60 41 61 25 62 26 63 34 64 27 65 28 66 32 67
REMARK SMILES IDX 35 68 29 69 30 70 33 71 31 72 57 73 58 74 66 75 59 76 60 77
REMARK SMILES IDX 64 78 67 79 61 80 62 81 65 82 63 83 42 84 43 85 51 86 44 87
REMARK SMILES IDX 45 88 49 89 52 90 46 91 47 92 50 93 48 94
REMARK H PARENT 8 6 13 28 72 47 40 58
REMARK Flexibility Score: inf
ROOT
ATOM      1  C   UNL A   1      31.798  30.921  26.176  1.00  0.00     0.023 C 
ENDROOT
BRANCH   1   2
ATOM      2  C   UNL A   1      31.575  29.650  25.330  1.00  0.00     0.116 C 
BRANCH   2   3
ATOM      3  N   UNL A   1      30.716  29.895  24.181  1.00  0.00    -0.355 N 
ATOM      4  C   UNL A   1      29.956  29.081  23.387  1.00  0.00     0.235 C 
ATOM      5  O   UNL A   1      29.205  29.647  22.584  1.00  0.00    -0.274 OA
ATOM      6  H   UNL A   1      30.673  30.844  23.921  1.00  0.00     0.163 HD
BRANCH   4   7
ATOM      7  C   UNL A   1      29.940  27.556  23.498  1.00  0.00     0.203 C 
BRANCH   7   8
ATOM      8  N   UNL A   1      31.229  26.801  23.667  1.00  0.00    -0.177 NA
BRANCH   8   9
ATOM      9  C   UNL A   1      32.016  26.929  22.422  1.00  0.00     0.192 C 
BRANCH   9  10
ATOM     10  C   UNL A   1      33.266  27.788  22.520  1.00  0.00    -0.090 C 
ATOM     11  C   UNL A   1      34.338  28.525  22.604  1.00  0.00     0.005 C 
ENDBRANCH   9  10
ENDBRANCH   8   9
BRANCH   8  12
ATOM     12  S   UNL A   1      31.046  25.177  24.244  1.00  0.00     0.244 S 
ATOM     13  O   UNL A   1      30.363  25.279  25.507  1.00  0.00    -0.207 OA
ATOM     14  O   UNL A   1      30.472  24.342  23.203  1.00  0.00    -0.207 OA
BRANCH  12  15
ATOM     15  C   UNL A   1      32.732  24.556  24.432  1.00  0.00     0.088 A 
ATOM     16  C   UNL A   1      33.244  23.522  23.612  1.00  0.00    -0.031 A 
ATOM     17  C   UNL A   1      33.609  25.245  25.319  1.00  0.00    -0.031 A 
ATOM     18  C   UNL A   1      32.468  22.747  22.581  1.00  0.00     0.046 C 
ATOM     19  C   UNL A   1      34.601  23.159  23.742  1.00  0.00     0.008 A 
ATOM     20  C   UNL A   1      34.967  24.871  25.378  1.00  0.00     0.008 A 
ATOM     21  C   UNL A   1      33.240  26.463  26.131  1.00  0.00     0.046 C 
ATOM     22  C   UNL A   1      35.470  23.833  24.600  1.00  0.00    -0.051 A 
ATOM     23  C   UNL A   1      36.921  23.454  24.651  1.00  0.00     0.044 C 
ENDBRANCH  12  15
ENDBRANCH   8  12
ENDBRANCH   7   8
ENDBRANCH   4   7
ENDBRANCH   2   3
ENDBRANCH   1   2
BRANCH   1  24
ATOM     24  C   UNL A   1      32.745  30.836  27.341  1.00  0.00     0.023 C 
BRANCH  24  25
ATOM     25  C   UNL A   1      33.596  32.064  27.536  1.00  0.00     0.116 C 
BRANCH  25  26
ATOM     26  N   UNL A   1      32.860  33.325  27.608  1.00  0.00    -0.352 N 
ATOM     27  C   UNL A   1      33.115  34.393  28.444  1.00  0.00     0.251 C 
ATOM     28  H   UNL A   1      32.100  33.423  26.991  1.00  0.00     0.163 HD
ATOM     29  O   UNL A   1      32.411  35.395  28.445  1.00  0.00    -0.269 OA
BRANCH  27  30
ATOM     30  C   UNL A   1      34.235  34.255  29.395  1.00  0.00     0.039 A 
ATOM     31  C   UNL A   1      34.003  33.641  30.626  1.00  0.00     0.014 A 
ATOM     32  C   UNL A   1      35.533  34.497  28.942  1.00  0.00     0.014 A 
ATOM     33  C   UNL A   1      35.088  33.157  31.355  1.00  0.00     0.010 A 
ATOM     34  C   UNL A   1      36.590  33.882  29.594  1.00  0.00     0.010 A 
ATOM     35  C   UNL A   1      36.381  33.209  30.810  1.00  0.00    -0.014 A 
BRANCH  35  36
ATOM     36  C   UNL A   1      37.545  32.588  31.489  1.00  0.00     0.031 A 
ATOM     37  C   UNL A   1      38.248  31.437  30.825  1.00  0.00     0.074 A 
ATOM     38  C   UNL A   1      37.906  32.986  32.726  1.00  0.00     0.049 A 
ATOM     39  N   UNL A   1      39.206  30.673  31.283  1.00  0.00    -0.248 NA
ATOM     40  C   UNL A   1      37.776  31.060  29.481  1.00  0.00     0.031 C 
ATOM     41  C   UNL A   1      37.252  34.038  33.508  1.00  0.00     0.029 A 
ATOM     42  N   UNL A   1      38.912  32.544  33.548  1.00  0.00    -0.354 N 
ATOM     43  C   UNL A   1      39.420  29.716  30.302  1.00  0.00     0.074 A 
ATOM     44  C   UNL A   1      38.444  29.941  29.261  1.00  0.00     0.031 C 
ATOM     45  C   UNL A   1      37.896  34.184  34.678  1.00  0.00     0.029 A 
ATOM     46  C   UNL A   1      38.982  33.213  34.746  1.00  0.00     0.049 A 
ATOM     47  H   UNL A   1      39.527  31.815  33.302  1.00  0.00     0.167 HD
ATOM     48  C   UNL A   1      40.375  28.759  30.249  1.00  0.00     0.037 A 
ATOM     49  C   UNL A   1      39.830  33.054  35.782  1.00  0.00     0.037 A 
ATOM     50  C   UNL A   1      41.382  28.582  31.257  1.00  0.00     0.049 A 
ATOM     51  C   UNL A   1      40.898  31.997  35.692  1.00  0.00     0.074 A 
ATOM     52  C   UNL A   1      42.456  27.712  31.259  1.00  0.00     0.029 A 
ATOM     53  N   UNL A   1      41.439  29.298  32.444  1.00  0.00    -0.354 N 
ATOM     54  N   UNL A   1      41.147  31.154  34.720  1.00  0.00    -0.248 NA
ATOM     55  C   UNL A   1      41.802  31.870  36.843  1.00  0.00     0.031 C 
ATOM     56  C   UNL A   1      43.141  27.872  32.468  1.00  0.00     0.029 A 
ATOM     57  C   UNL A   1      42.517  28.870  33.201  1.00  0.00     0.049 A 
ATOM     58  H   UNL A   1      40.807  30.004  32.709  1.00  0.00     0.167 HD
ATOM     59  C   UNL A   1      42.243  30.408  35.132  1.00  0.00     0.074 A 
ATOM     60  C   UNL A   1      42.625  30.914  36.434  1.00  0.00     0.031 C 
ATOM     61  C   UNL A   1      42.872  29.389  34.496  1.00  0.00     0.037 A 
BRANCH  48  62
ATOM     62  C   UNL A   1      40.382  27.855  29.052  1.00  0.00     0.064 A 
ATOM     63  C   UNL A   1      39.626  26.672  29.019  1.00  0.00     0.173 A 
ATOM     64  C   UNL A   1      41.145  28.178  27.922  1.00  0.00     0.173 A 
ATOM     65  F   UNL A   1      38.896  26.307  30.083  1.00  0.00    -0.203 F 
ATOM     66  C   UNL A   1      39.664  25.828  27.912  1.00  0.00     0.198 A 
ATOM     67  C   UNL A   1      41.154  27.348  26.803  1.00  0.00     0.198 A 
ATOM     68  F   UNL A   1      41.885  29.296  27.901  1.00  0.00    -0.203 F 
ATOM     69  F   UNL A   1      38.983  24.674  27.930  1.00  0.00    -0.200 F 
ATOM     70  C   UNL A   1      40.421  26.171  26.803  1.00  0.00     0.200 A 
ATOM     71  F   UNL A   1      41.879  27.684  25.727  1.00  0.00    -0.200 F 
ATOM     72  F   UNL A   1      40.454  25.360  25.737  1.00  0.00    -0.200 F 
ENDBRANCH  48  62
BRANCH  49  73
ATOM     73  C   UNL A   1      39.723  33.932  36.978  1.00  0.00     0.064 A 
ATOM     74  C   UNL A   1      38.961  33.544  38.089  1.00  0.00     0.173 A 
ATOM     75  C   UNL A   1      40.373  35.174  37.036  1.00  0.00     0.173 A 
ATOM     76  F   UNL A   1      38.303  32.376  38.072  1.00  0.00    -0.203 F 
ATOM     77  C   UNL A   1      38.836  34.370  39.204  1.00  0.00     0.198 A 
ATOM     78  C   UNL A   1      40.268  35.990  38.163  1.00  0.00     0.198 A 
ATOM     79  F   UNL A   1      41.116  35.593  36.003  1.00  0.00    -0.203 F 
ATOM     80  F   UNL A   1      38.066  33.992  40.233  1.00  0.00    -0.200 F 
ATOM     81  C   UNL A   1      39.495  35.589  39.243  1.00  0.00     0.200 A 
ATOM     82  F   UNL A   1      40.915  37.162  38.203  1.00  0.00    -0.200 F 
ATOM     83  F   UNL A   1      39.377  36.383  40.317  1.00  0.00    -0.200 F 
ENDBRANCH  49  73
BRANCH  61  84
ATOM     84  C   UNL A   1      44.038  28.761  35.196  1.00  0.00     0.064 A 
ATOM     85  C   UNL A   1      45.339  29.256  35.030  1.00  0.00     0.173 A 
ATOM     86  C   UNL A   1      43.846  27.689  36.081  1.00  0.00     0.173 A 
ATOM     87  F   UNL A   1      45.573  30.269  34.183  1.00  0.00    -0.203 F 
ATOM     88  C   UNL A   1      46.411  28.688  35.713  1.00  0.00     0.198 A 
ATOM     89  C   UNL A   1      44.916  27.143  36.783  1.00  0.00     0.198 A 
ATOM     90  F   UNL A   1      42.618  27.187  36.277  1.00  0.00    -0.203 F 
ATOM     91  F   UNL A   1      47.652  29.151  35.510  1.00  0.00    -0.200 F 
ATOM     92  C   UNL A   1      46.197  27.639  36.595  1.00  0.00     0.200 A 
ATOM     93  F   UNL A   1      44.706  26.140  37.645  1.00  0.00    -0.200 F 
ATOM     94  F   UNL A   1      47.229  27.100  37.259  1.00  0.00    -0.200 F 
ENDBRANCH  61  84
ENDBRANCH  35  36
ENDBRANCH  27  30
ENDBRANCH  25  26
ENDBRANCH  24  25
ENDBRANCH   1  24
TORSDOF 16
ENDMDL
MODEL 3
REMARK VINA RESULT:     -11.9      3.245      4.375
REMARK SMILES C#CCN(CC(=O)NCCCCNC(=O)c1ccc(-c2c3nc(c(-c4c(F)c(F)c(F)c(F)c4F)c4ccc([nH]4)c(-c4c(F)c(F)c(F)c(F)c4F)c4nc(c(-c5c(F)c(F)c(F)c(F)c5F)c5ccc2[nH]5)C=C4)C=C3)cc1)S(=O)(=O)c1c(C)cc(C)cc1C
REMARK SMILES IDX 10 1 9 2 8 3 6 4 7 5 5 7 4 8 3 9 2 10 1 11 79 12 80 13 81 14
REMARK SMILES IDX 82 15 83 16 89 17 84 18 85 19 88 20 90 21 86 22 87 23 11 24
REMARK SMILES IDX 12 25 13 26 14 27 15 29 16 30 17 31 78 32 18 33 77 34 19 35
REMARK SMILES IDX 20 36 21 37 71 38 22 39 76 40 70 41 72 42 23 43 75 44 69 45
REMARK SMILES IDX 68 46 24 48 56 49 36 50 55 51 37 52 40 53 54 54 73 55 38 56
REMARK SMILES IDX 39 57 53 59 74 60 41 61 25 62 26 63 34 64 27 65 28 66 32 67
REMARK SMILES IDX 35 68 29 69 30 70 33 71 31 72 57 73 58 74 66 75 59 76 60 77
REMARK SMILES IDX 64 78 67 79 61 80 62 81 65 82 63 83 42 84 43 85 51 86 44 87
REMARK SMILES IDX 45 88 49 89 52 90 46 91 47 92 50 93 48 94
REMARK H PARENT 8 6 13 28 72 47 40 58
REMARK Flexibility Score: inf
ROOT
ATOM      1  C   UNL A   1      31.403  27.727  26.994  1.00  0.00     0.023 C 
ENDROOT
BRANCH   1   2
ATOM      2  C   UNL A   1      31.274  26.426  26.176  1.00  0.00     0.116 C 
BRANCH   2   3
ATOM      3  N   UNL A   1      31.531  25.239  26.979  1.00  0.00    -0.355 N 
ATOM      4  C   UNL A   1      31.499  23.899  26.709  1.00  0.00     0.235 C 
ATOM      5  O   UNL A   1      31.940  23.154  27.592  1.00  0.00    -0.274 OA
ATOM      6  H   UNL A   1      31.779  25.444  27.909  1.00  0.00     0.163 HD
BRANCH   4   7
ATOM      7  C   UNL A   1      31.028  23.307  25.379  1.00  0.00     0.203 C 
BRANCH   7   8
ATOM      8  N   UNL A   1      31.760  23.640  24.109  1.00  0.00    -0.177 NA
BRANCH   8   9
ATOM      9  C   UNL A   1      30.791  24.196  23.140  1.00  0.00     0.192 C 
BRANCH   9  10
ATOM     10  C   UNL A   1      31.030  25.640  22.729  1.00  0.00    -0.090 C 
ATOM     11  C   UNL A   1      31.235  26.878  22.375  1.00  0.00     0.005 C 
ENDBRANCH   9  10
ENDBRANCH   8   9
BRANCH   8  12
ATOM     12  S   UNL A   1      32.748  22.358  23.487  1.00  0.00     0.244 S 
ATOM     13  O   UNL A   1      32.053  21.136  23.796  1.00  0.00    -0.207 OA
ATOM     14  O   UNL A   1      33.106  22.631  22.106  1.00  0.00    -0.207 OA
BRANCH  12  15
ATOM     15  C   UNL A   1      34.309  22.496  24.386  1.00  0.00     0.088 A 
ATOM     16  C   UNL A   1      35.044  21.355  24.786  1.00  0.00    -0.031 A 
ATOM     17  C   UNL A   1      34.884  23.791  24.543  1.00  0.00    -0.031 A 
ATOM     18  C   UNL A   1      34.609  19.924  24.626  1.00  0.00     0.046 C 
ATOM     19  C   UNL A   1      36.307  21.537  25.391  1.00  0.00     0.008 A 
ATOM     20  C   UNL A   1      36.168  23.912  25.114  1.00  0.00     0.008 A 
ATOM     21  C   UNL A   1      34.286  25.075  24.021  1.00  0.00     0.046 C 
ATOM     22  C   UNL A   1      36.883  22.798  25.541  1.00  0.00    -0.051 A 
ATOM     23  C   UNL A   1      38.258  22.932  26.126  1.00  0.00     0.044 C 
ENDBRANCH  12  15
ENDBRANCH   8  12
ENDBRANCH   7   8
ENDBRANCH   4   7
ENDBRANCH   2   3
ENDBRANCH   1   2
BRANCH   1  24
ATOM     24  C   UNL A   1      32.254  28.832  26.433  1.00  0.00     0.023 C 
BRANCH  24  25
ATOM     25  C   UNL A   1      33.553  29.045  27.168  1.00  0.00     0.116 C 
BRANCH  25  26
ATOM     26  N   UNL A   1      33.683  30.336  27.840  1.00  0.00    -0.352 N 
ATOM     27  C   UNL A   1      34.808  30.848  28.455  1.00  0.00     0.251 C 
ATOM     28  H   UNL A   1      32.879  30.904  27.856  1.00  0.00     0.163 HD
ATOM     29  O   UNL A   1      34.797  31.933  29.021  1.00  0.00    -0.269 OA
BRANCH  27  30
ATOM     30  C   UNL A   1      36.016  30.000  28.465  1.00  0.00     0.039 A 
ATOM     31  C   UNL A   1      36.916  30.097  27.403  1.00  0.00     0.014 A 
ATOM     32  C   UNL A   1      36.356  29.329  29.641  1.00  0.00     0.014 A 
ATOM     33  C   UNL A   1      38.214  29.618  27.572  1.00  0.00     0.010 A 
ATOM     34  C   UNL A   1      37.683  28.995  29.856  1.00  0.00     0.010 A 
ATOM     35  C   UNL A   1      38.627  29.131  28.823  1.00  0.00    -0.014 A 
BRANCH  35  36
ATOM     36  C   UNL A   1      40.033  28.737  29.087  1.00  0.00     0.031 A 
ATOM     37  C   UNL A   1      40.938  29.698  29.805  1.00  0.00     0.074 A 
ATOM     38  C   UNL A   1      40.517  27.573  28.606  1.00  0.00     0.049 A 
ATOM     39  N   UNL A   1      42.222  29.613  30.038  1.00  0.00    -0.248 NA
ATOM     40  C   UNL A   1      40.328  30.951  30.281  1.00  0.00     0.031 C 
ATOM     41  C   UNL A   1      39.759  26.592  27.826  1.00  0.00     0.029 A 
ATOM     42  N   UNL A   1      41.770  27.022  28.697  1.00  0.00    -0.354 N 
ATOM     43  C   UNL A   1      42.569  30.808  30.653  1.00  0.00     0.074 A 
ATOM     44  C   UNL A   1      41.385  31.634  30.685  1.00  0.00     0.031 C 
ATOM     45  C   UNL A   1      40.552  25.545  27.543  1.00  0.00     0.029 A 
ATOM     46  C   UNL A   1      41.882  25.796  28.086  1.00  0.00     0.049 A 
ATOM     47  H   UNL A   1      42.520  27.464  29.157  1.00  0.00     0.167 HD
ATOM     48  C   UNL A   1      43.759  31.170  31.184  1.00  0.00     0.037 A 
ATOM     49  C   UNL A   1      42.943  24.972  27.978  1.00  0.00     0.037 A 
ATOM     50  C   UNL A   1      44.915  30.318  31.206  1.00  0.00     0.049 A 
ATOM     51  C   UNL A   1      44.252  25.387  28.596  1.00  0.00     0.074 A 
ATOM     52  C   UNL A   1      46.140  30.543  31.804  1.00  0.00     0.029 A 
ATOM     53  N   UNL A   1      44.982  29.071  30.602  1.00  0.00    -0.354 N 
ATOM     54  N   UNL A   1      44.545  26.483  29.253  1.00  0.00    -0.248 NA
ATOM     55  C   UNL A   1      45.376  24.451  28.459  1.00  0.00     0.031 C 
ATOM     56  C   UNL A   1      46.965  29.447  31.528  1.00  0.00     0.029 A 
ATOM     57  C   UNL A   1      46.239  28.523  30.791  1.00  0.00     0.049 A 
ATOM     58  H   UNL A   1      44.245  28.640  30.112  1.00  0.00     0.167 HD
ATOM     59  C   UNL A   1      45.879  26.363  29.619  1.00  0.00     0.074 A 
ATOM     60  C   UNL A   1      46.331  25.076  29.132  1.00  0.00     0.031 C 
ATOM     61  C   UNL A   1      46.663  27.241  30.291  1.00  0.00     0.037 A 
BRANCH  48  62
ATOM     62  C   UNL A   1      43.853  32.533  31.803  1.00  0.00     0.064 A 
ATOM     63  C   UNL A   1      43.555  32.748  33.158  1.00  0.00     0.173 A 
ATOM     64  C   UNL A   1      44.253  33.636  31.036  1.00  0.00     0.173 A 
ATOM     65  F   UNL A   1      43.148  31.731  33.930  1.00  0.00    -0.203 F 
ATOM     66  C   UNL A   1      43.619  34.024  33.712  1.00  0.00     0.198 A 
ATOM     67  C   UNL A   1      44.348  34.906  31.601  1.00  0.00     0.198 A 
ATOM     68  F   UNL A   1      44.548  33.486  29.736  1.00  0.00    -0.203 F 
ATOM     69  F   UNL A   1      43.269  34.214  34.991  1.00  0.00    -0.200 F 
ATOM     70  C   UNL A   1      44.022  35.099  32.935  1.00  0.00     0.200 A 
ATOM     71  F   UNL A   1      44.747  35.943  30.853  1.00  0.00    -0.200 F 
ATOM     72  F   UNL A   1      44.087  36.326  33.471  1.00  0.00    -0.200 F 
ENDBRANCH  48  62
BRANCH  49  73
ATOM     73  C   UNL A   1      42.808  23.664  27.283  1.00  0.00     0.064 A 
ATOM     74  C   UNL A   1      42.278  22.549  27.948  1.00  0.00     0.173 A 
ATOM     75  C   UNL A   1      43.206  23.498  25.948  1.00  0.00     0.173 A 
ATOM     76  F   UNL A   1      41.905  22.652  29.231  1.00  0.00    -0.203 F 
ATOM     77  C   UNL A   1      42.170  21.314  27.312  1.00  0.00     0.198 A 
ATOM     78  C   UNL A   1      43.073  22.268  25.304  1.00  0.00     0.198 A 
ATOM     79  F   UNL A   1      43.717  24.532  25.266  1.00  0.00    -0.203 F 
ATOM     80  F   UNL A   1      41.701  20.255  27.986  1.00  0.00    -0.200 F 
ATOM     81  C   UNL A   1      42.561  21.175  25.989  1.00  0.00     0.200 A 
ATOM     82  F   UNL A   1      43.442  22.140  24.023  1.00  0.00    -0.200 F 
ATOM     83  F   UNL A   1      42.453  19.988  25.377  1.00  0.00    -0.200 F 
ENDBRANCH  49  73
BRANCH  61  84
ATOM     84  C   UNL A   1      48.084  26.838  30.541  1.00  0.00     0.064 A 
ATOM     85  C   UNL A   1      48.427  26.010  31.619  1.00  0.00     0.173 A 
ATOM     86  C   UNL A   1      49.105  27.239  29.665  1.00  0.00     0.173 A 
ATOM     87  F   UNL A   1      47.487  25.614  32.491  1.00  0.00    -0.203 F 
ATOM     88  C   UNL A   1      49.745  25.611  31.822  1.00  0.00     0.198 A 
ATOM     89  C   UNL A   1      50.416  26.815  29.856  1.00  0.00     0.198 A 
ATOM     90  F   UNL A   1      48.824  28.025  28.616  1.00  0.00    -0.203 F 
ATOM     91  F   UNL A   1      50.056  24.851  32.882  1.00  0.00    -0.200 F 
ATOM     92  C   UNL A   1      50.736  26.007  30.936  1.00  0.00     0.200 A 
ATOM     93  F   UNL A   1      51.370  27.185  28.991  1.00  0.00    -0.200 F 
ATOM     94  F   UNL A   1      52.003  25.613  31.127  1.00  0.00    -0.200 F 
ENDBRANCH  61  84
ENDBRANCH  35  36
ENDBRANCH  27  30
ENDBRANCH  25  26
ENDBRANCH  24  25
ENDBRANCH   1  24
TORSDOF 16
ENDMDL
