MODEL 1
REMARK VINA RESULT:     -12.8      0.000      0.000
REMARK SMILES Cc1c(CCC(=O)N[C@@H](C)C(=O)NCCCCNC(=O)c2ccc(-c3c4nc(c(-c5c(F)c(F)c(F)c(F)c5F)c5ccc([nH]5)c(-c5c(F)c(F)c(F)c(F)c5F)c5nc(c(-c6c(F)c(F)c(F)c(F)c6F)c6ccc3[nH]6)C=C5)C=C4)cc2)c(=O)oc2cc3oc4c(c3cc12)CCCC4
REMARK SMILES IDX 14 1 13 2 11 3 12 4 9 6 10 7 8 8 6 9 7 10 5 12 4 13 3 14
REMARK SMILES IDX 1 15 2 16 95 17 84 18 87 19 94 20 85 21 86 22 88 23 93 24
REMARK SMILES IDX 89 25 92 26 90 27 91 28 96 29 99 30 97 31 98 32 15 33 16 34
REMARK SMILES IDX 17 35 18 36 19 37 20 39 21 40 22 41 83 42 23 43 82 44 24 45
REMARK SMILES IDX 25 46 26 47 76 48 27 49 81 50 75 51 77 52 28 53 80 54 74 55
REMARK SMILES IDX 73 56 29 58 61 59 41 60 60 61 42 62 45 63 59 64 78 65 43 66
REMARK SMILES IDX 44 67 58 69 79 70 46 71 30 72 31 73 39 74 32 75 33 76 37 77
REMARK SMILES IDX 40 78 34 79 35 80 38 81 36 82 62 83 63 84 71 85 64 86 65 87
REMARK SMILES IDX 69 88 72 89 66 90 67 91 70 92 68 93 47 94 48 95 56 96 49 97
REMARK SMILES IDX 50 98 54 99 57 100 51 101 52 102 55 103 53 104
REMARK H PARENT 13 5 8 11 18 38 77 57 45 68
REMARK Flexibility Score: inf
ROOT
ATOM      1  C   UNL A   1      35.719  22.141  26.234  1.00  0.00     0.116 C 
ENDROOT
BRANCH   1   2
ATOM      2  N   UNL A   1      35.594  20.784  25.731  1.00  0.00    -0.354 N 
ATOM      3  C   UNL A   1      34.592  20.187  25.022  1.00  0.00     0.242 C 
ATOM      4  O   UNL A   1      34.809  19.057  24.576  1.00  0.00    -0.273 OA
ATOM      5  H   UNL A   1      36.358  20.197  25.935  1.00  0.00     0.163 HD
BRANCH   3   6
ATOM      6  C   UNL A   1      33.293  20.935  24.669  1.00  0.00     0.168 C 
ATOM      7  C   UNL A   1      32.215  20.453  25.621  1.00  0.00     0.041 C 
BRANCH   6   8
ATOM      8  N   UNL A   1      32.873  20.787  23.272  1.00  0.00    -0.345 N 
ATOM      9  C   UNL A   1      32.246  21.680  22.450  1.00  0.00     0.220 C 
ATOM     10  O   UNL A   1      31.831  21.273  21.363  1.00  0.00    -0.275 OA
ATOM     11  H   UNL A   1      33.072  19.912  22.866  1.00  0.00     0.164 HD
BRANCH   9  12
ATOM     12  C   UNL A   1      32.102  23.142  22.851  1.00  0.00     0.105 C 
BRANCH  12  13
ATOM     13  C   UNL A   1      33.365  23.985  22.585  1.00  0.00     0.053 C 
BRANCH  13  14
ATOM     14  C   UNL A   1      33.136  25.431  22.955  1.00  0.00     0.042 A 
ATOM     15  C   UNL A   1      31.931  26.032  20.803  1.00  0.00     0.046 C 
ATOM     16  C   UNL A   1      32.376  26.263  22.222  1.00  0.00    -0.030 A 
ATOM     17  C   UNL A   1      31.812  27.409  22.931  1.00  0.00     0.022 A 
ATOM     18  C   UNL A   1      33.734  25.889  24.248  1.00  0.00     0.339 A 
ATOM     19  C   UNL A   1      32.438  27.911  24.072  1.00  0.00     0.142 A 
ATOM     20  C   UNL A   1      30.553  27.896  22.579  1.00  0.00     0.024 A 
ATOM     21  O   UNL A   1      34.401  25.132  24.947  1.00  0.00    -0.246 OA
ATOM     22  O   UNL A   1      33.542  27.221  24.606  1.00  0.00    -0.422 OA
ATOM     23  C   UNL A   1      31.977  29.039  24.767  1.00  0.00     0.095 A 
ATOM     24  C   UNL A   1      30.009  28.949  23.311  1.00  0.00     0.025 A 
ATOM     25  C   UNL A   1      30.781  29.569  24.289  1.00  0.00     0.138 A 
ATOM     26  C   UNL A   1      28.823  29.691  23.198  1.00  0.00     0.001 A 
ATOM     27  O   UNL A   1      30.234  30.793  24.585  1.00  0.00    -0.461 OA
ATOM     28  C   UNL A   1      29.147  30.896  23.776  1.00  0.00     0.108 A 
ATOM     29  C   UNL A   1      27.734  29.613  22.201  1.00  0.00     0.040 C 
ATOM     30  C   UNL A   1      28.771  32.181  23.127  1.00  0.00     0.076 C 
ATOM     31  C   UNL A   1      27.992  30.662  21.112  1.00  0.00     0.005 C 
ATOM     32  C   UNL A   1      28.820  31.897  21.589  1.00  0.00     0.008 C 
ENDBRANCH  13  14
ENDBRANCH  12  13
ENDBRANCH   9  12
ENDBRANCH   6   8
ENDBRANCH   3   6
ENDBRANCH   1   2
BRANCH   1  33
ATOM     33  C   UNL A   1      36.849  22.902  25.540  1.00  0.00     0.023 C 
BRANCH  33  34
ATOM     34  C   UNL A   1      38.151  22.106  25.404  1.00  0.00     0.023 C 
BRANCH  34  35
ATOM     35  C   UNL A   1      39.102  22.272  26.595  1.00  0.00     0.116 C 
BRANCH  35  36
ATOM     36  N   UNL A   1      40.351  21.534  26.455  1.00  0.00    -0.352 N 
ATOM     37  C   UNL A   1      41.645  22.005  26.535  1.00  0.00     0.251 C 
ATOM     38  H   UNL A   1      40.258  20.570  26.280  1.00  0.00     0.163 HD
ATOM     39  O   UNL A   1      42.603  21.271  26.387  1.00  0.00    -0.269 OA
BRANCH  37  40
ATOM     40  C   UNL A   1      41.826  23.455  26.725  1.00  0.00     0.039 A 
ATOM     41  C   UNL A   1      42.402  24.224  25.711  1.00  0.00     0.014 A 
ATOM     42  C   UNL A   1      41.562  23.992  27.987  1.00  0.00     0.014 A 
ATOM     43  C   UNL A   1      42.838  25.507  26.001  1.00  0.00     0.010 A 
ATOM     44  C   UNL A   1      41.973  25.289  28.267  1.00  0.00     0.010 A 
ATOM     45  C   UNL A   1      42.641  26.032  27.284  1.00  0.00    -0.014 A 
BRANCH  45  46
ATOM     46  C   UNL A   1      43.028  27.429  27.501  1.00  0.00     0.031 A 
ATOM     47  C   UNL A   1      41.867  28.356  27.477  1.00  0.00     0.074 A 
ATOM     48  C   UNL A   1      44.138  27.805  28.163  1.00  0.00     0.049 A 
ATOM     49  N   UNL A   1      41.115  28.534  28.523  1.00  0.00    -0.248 NA
ATOM     50  C   UNL A   1      41.312  28.891  26.238  1.00  0.00     0.031 C 
ATOM     51  C   UNL A   1      44.846  26.982  29.149  1.00  0.00     0.029 A 
ATOM     52  N   UNL A   1      44.724  29.044  28.267  1.00  0.00    -0.354 N 
ATOM     53  C   UNL A   1      39.947  29.113  28.078  1.00  0.00     0.074 A 
ATOM     54  C   UNL A   1      40.125  29.350  26.661  1.00  0.00     0.031 C 
ATOM     55  C   UNL A   1      45.628  27.790  29.895  1.00  0.00     0.029 A 
ATOM     56  C   UNL A   1      45.610  29.138  29.334  1.00  0.00     0.049 A 
ATOM     57  H   UNL A   1      44.535  29.788  27.650  1.00  0.00     0.167 HD
ATOM     58  C   UNL A   1      38.881  29.330  28.888  1.00  0.00     0.037 A 
ATOM     59  C   UNL A   1      45.857  30.268  30.049  1.00  0.00     0.037 A 
ATOM     60  C   UNL A   1      39.026  28.931  30.254  1.00  0.00     0.049 A 
ATOM     61  C   UNL A   1      44.511  30.544  30.671  1.00  0.00     0.074 A 
ATOM     62  C   UNL A   1      38.710  27.827  31.017  1.00  0.00     0.029 A 
ATOM     63  N   UNL A   1      39.725  29.759  31.099  1.00  0.00    -0.354 N 
ATOM     64  N   UNL A   1      44.040  29.978  31.751  1.00  0.00    -0.248 NA
ATOM     65  C   UNL A   1      43.510  31.251  29.868  1.00  0.00     0.031 C 
ATOM     66  C   UNL A   1      39.608  27.860  32.131  1.00  0.00     0.029 A 
ATOM     67  C   UNL A   1      40.451  28.952  31.940  1.00  0.00     0.049 A 
ATOM     68  H   UNL A   1      39.709  30.743  31.101  1.00  0.00     0.167 HD
ATOM     69  C   UNL A   1      42.649  30.036  31.621  1.00  0.00     0.074 A 
ATOM     70  C   UNL A   1      42.390  30.859  30.460  1.00  0.00     0.031 C 
ATOM     71  C   UNL A   1      41.799  29.264  32.353  1.00  0.00     0.037 A 
BRANCH  58  72
ATOM     72  C   UNL A   1      37.686  30.065  28.456  1.00  0.00     0.064 A 
ATOM     73  C   UNL A   1      37.631  31.439  28.718  1.00  0.00     0.173 A 
ATOM     74  C   UNL A   1      36.552  29.433  27.944  1.00  0.00     0.173 A 
ATOM     75  F   UNL A   1      38.706  32.068  29.224  1.00  0.00    -0.203 F 
ATOM     76  C   UNL A   1      36.465  32.160  28.501  1.00  0.00     0.198 A 
ATOM     77  C   UNL A   1      35.383  30.158  27.723  1.00  0.00     0.198 A 
ATOM     78  F   UNL A   1      36.568  28.116  27.688  1.00  0.00    -0.203 F 
ATOM     79  F   UNL A   1      36.428  33.467  28.788  1.00  0.00    -0.200 F 
ATOM     80  C   UNL A   1      35.339  31.516  28.011  1.00  0.00     0.200 A 
ATOM     81  F   UNL A   1      34.291  29.541  27.251  1.00  0.00    -0.200 F 
ATOM     82  F   UNL A   1      34.205  32.206  27.825  1.00  0.00    -0.200 F 
ENDBRANCH  58  72
BRANCH  59  83
ATOM     83  C   UNL A   1      46.669  31.302  29.329  1.00  0.00     0.064 A 
ATOM     84  C   UNL A   1      47.803  31.841  29.976  1.00  0.00     0.173 A 
ATOM     85  C   UNL A   1      46.402  31.806  28.047  1.00  0.00     0.173 A 
ATOM     86  F   UNL A   1      48.078  31.503  31.247  1.00  0.00    -0.203 F 
ATOM     87  C   UNL A   1      48.673  32.727  29.339  1.00  0.00     0.198 A 
ATOM     88  C   UNL A   1      47.286  32.672  27.399  1.00  0.00     0.198 A 
ATOM     89  F   UNL A   1      45.287  31.466  27.388  1.00  0.00    -0.203 F 
ATOM     90  F   UNL A   1      49.754  33.185  29.985  1.00  0.00    -0.200 F 
ATOM     91  C   UNL A   1      48.428  33.119  28.038  1.00  0.00     0.200 A 
ATOM     92  F   UNL A   1      47.032  33.056  26.140  1.00  0.00    -0.200 F 
ATOM     93  F   UNL A   1      49.284  33.932  27.402  1.00  0.00    -0.200 F 
ENDBRANCH  59  83
BRANCH  71  94
ATOM     94  C   UNL A   1      42.424  28.529  33.484  1.00  0.00     0.064 A 
ATOM     95  C   UNL A   1      42.325  29.037  34.786  1.00  0.00     0.173 A 
ATOM     96  C   UNL A   1      43.099  27.313  33.297  1.00  0.00     0.173 A 
ATOM     97  F   UNL A   1      41.681  30.194  35.013  1.00  0.00    -0.203 F 
ATOM     98  C   UNL A   1      42.862  28.343  35.865  1.00  0.00     0.198 A 
ATOM     99  C   UNL A   1      43.615  26.612  34.382  1.00  0.00     0.198 A 
ATOM    100  F   UNL A   1      43.241  26.788  32.070  1.00  0.00    -0.203 F 
ATOM    101  F   UNL A   1      42.748  28.843  37.104  1.00  0.00    -0.200 F 
ATOM    102  C   UNL A   1      43.496  27.126  35.664  1.00  0.00     0.200 A 
ATOM    103  F   UNL A   1      44.213  25.427  34.189  1.00  0.00    -0.200 F 
ATOM    104  F   UNL A   1      43.981  26.442  36.710  1.00  0.00    -0.200 F 
ENDBRANCH  71  94
ENDBRANCH  45  46
ENDBRANCH  37  40
ENDBRANCH  35  36
ENDBRANCH  34  35
ENDBRANCH  33  34
ENDBRANCH   1  33
TORSDOF 15
ENDMDL
MODEL 2
REMARK VINA RESULT:     -12.6      5.943     11.816
REMARK SMILES Cc1c(CCC(=O)N[C@@H](C)C(=O)NCCCCNC(=O)c2ccc(-c3c4nc(c(-c5c(F)c(F)c(F)c(F)c5F)c5ccc([nH]5)c(-c5c(F)c(F)c(F)c(F)c5F)c5nc(c(-c6c(F)c(F)c(F)c(F)c6F)c6ccc3[nH]6)C=C5)C=C4)cc2)c(=O)oc2cc3oc4c(c3cc12)CCCC4
REMARK SMILES IDX 14 1 13 2 11 3 12 4 9 6 10 7 8 8 6 9 7 10 5 12 4 13 3 14
REMARK SMILES IDX 1 15 2 16 95 17 84 18 87 19 94 20 85 21 86 22 88 23 93 24
REMARK SMILES IDX 89 25 92 26 90 27 91 28 96 29 99 30 97 31 98 32 15 33 16 34
REMARK SMILES IDX 17 35 18 36 19 37 20 39 21 40 22 41 83 42 23 43 82 44 24 45
REMARK SMILES IDX 25 46 26 47 76 48 27 49 81 50 75 51 77 52 28 53 80 54 74 55
REMARK SMILES IDX 73 56 29 58 61 59 41 60 60 61 42 62 45 63 59 64 78 65 43 66
REMARK SMILES IDX 44 67 58 69 79 70 46 71 30 72 31 73 39 74 32 75 33 76 37 77
REMARK SMILES IDX 40 78 34 79 35 80 38 81 36 82 62 83 63 84 71 85 64 86 65 87
REMARK SMILES IDX 69 88 72 89 66 90 67 91 70 92 68 93 47 94 48 95 56 96 49 97
REMARK SMILES IDX 50 98 54 99 57 100 51 101 52 102 55 103 53 104
REMARK H PARENT 13 5 8 11 18 38 77 57 45 68
REMARK Flexibility Score: inf
ROOT
ATOM      1  C   UNL A   1      44.323  31.182  26.503  1.00  0.00     0.116 C 
ENDROOT
BRANCH   1   2
ATOM      2  N   UNL A   1      45.722  30.984  26.162  1.00  0.00    -0.354 N 
ATOM      3  C   UNL A   1      46.659  30.149  26.700  1.00  0.00     0.242 C 
ATOM      4  O   UNL A   1      47.741  30.060  26.114  1.00  0.00    -0.273 OA
ATOM      5  H   UNL A   1      46.049  31.545  25.422  1.00  0.00     0.163 HD
BRANCH   3   6
ATOM      6  C   UNL A   1      46.342  29.245  27.905  1.00  0.00     0.168 C 
ATOM      7  C   UNL A   1      46.977  29.878  29.130  1.00  0.00     0.041 C 
BRANCH   6   8
ATOM      8  N   UNL A   1      46.772  27.853  27.745  1.00  0.00    -0.345 N 
ATOM      9  C   UNL A   1      46.034  26.703  27.775  1.00  0.00     0.220 C 
ATOM     10  O   UNL A   1      46.638  25.629  27.791  1.00  0.00    -0.275 OA
ATOM     11  H   UNL A   1      47.737  27.727  27.594  1.00  0.00     0.164 HD
BRANCH   9  12
ATOM     12  C   UNL A   1      44.512  26.752  27.746  1.00  0.00     0.105 C 
BRANCH  12  13
ATOM     13  C   UNL A   1      43.872  26.942  29.135  1.00  0.00     0.053 C 
BRANCH  13  14
ATOM     14  C   UNL A   1      44.184  25.771  30.038  1.00  0.00     0.042 A 
ATOM     15  C   UNL A   1      45.973  26.980  31.373  1.00  0.00     0.046 C 
ATOM     16  C   UNL A   1      45.000  25.865  31.102  1.00  0.00    -0.030 A 
ATOM     17  C   UNL A   1      44.798  24.870  32.153  1.00  0.00     0.022 A 
ATOM     18  C   UNL A   1      43.463  24.494  29.742  1.00  0.00     0.339 A 
ATOM     19  C   UNL A   1      44.233  23.631  31.854  1.00  0.00     0.142 A 
ATOM     20  C   UNL A   1      45.001  25.218  33.489  1.00  0.00     0.024 A 
ATOM     21  O   UNL A   1      42.688  24.402  28.795  1.00  0.00    -0.246 OA
ATOM     22  O   UNL A   1      43.741  23.399  30.556  1.00  0.00    -0.422 OA
ATOM     23  C   UNL A   1      44.061  22.615  32.807  1.00  0.00     0.095 A 
ATOM     24  C   UNL A   1      44.741  24.272  34.478  1.00  0.00     0.025 A 
ATOM     25  C   UNL A   1      44.407  22.973  34.107  1.00  0.00     0.138 A 
ATOM     26  C   UNL A   1      44.883  24.273  35.874  1.00  0.00     0.001 A 
ATOM     27  O   UNL A   1      44.596  22.137  35.179  1.00  0.00    -0.461 OA
ATOM     28  C   UNL A   1      45.047  22.942  36.177  1.00  0.00     0.108 A 
ATOM     29  C   UNL A   1      45.406  25.313  36.785  1.00  0.00     0.040 C 
ATOM     30  C   UNL A   1      46.105  22.498  37.125  1.00  0.00     0.076 C 
ATOM     31  C   UNL A   1      46.887  25.020  37.062  1.00  0.00     0.005 C 
ATOM     32  C   UNL A   1      47.280  23.513  36.938  1.00  0.00     0.008 C 
ENDBRANCH  13  14
ENDBRANCH  12  13
ENDBRANCH   9  12
ENDBRANCH   6   8
ENDBRANCH   3   6
ENDBRANCH   1   2
BRANCH   1  33
ATOM     33  C   UNL A   1      44.051  32.612  26.972  1.00  0.00     0.023 C 
BRANCH  33  34
ATOM     34  C   UNL A   1      44.150  33.665  25.864  1.00  0.00     0.023 C 
BRANCH  34  35
ATOM     35  C   UNL A   1      44.948  34.910  26.267  1.00  0.00     0.116 C 
BRANCH  35  36
ATOM     36  N   UNL A   1      44.205  36.156  26.120  1.00  0.00    -0.352 N 
ATOM     37  C   UNL A   1      43.244  36.690  26.952  1.00  0.00     0.251 C 
ATOM     38  H   UNL A   1      44.417  36.685  25.318  1.00  0.00     0.163 HD
ATOM     39  O   UNL A   1      42.693  37.745  26.699  1.00  0.00    -0.269 OA
BRANCH  37  40
ATOM     40  C   UNL A   1      42.846  35.892  28.126  1.00  0.00     0.039 A 
ATOM     41  C   UNL A   1      43.785  35.595  29.116  1.00  0.00     0.014 A 
ATOM     42  C   UNL A   1      41.572  35.320  28.131  1.00  0.00     0.014 A 
ATOM     43  C   UNL A   1      43.492  34.613  30.051  1.00  0.00     0.010 A 
ATOM     44  C   UNL A   1      41.270  34.357  29.087  1.00  0.00     0.010 A 
ATOM     45  C   UNL A   1      42.243  33.981  30.023  1.00  0.00    -0.014 A 
BRANCH  45  46
ATOM     46  C   UNL A   1      41.953  33.028  31.098  1.00  0.00     0.031 A 
ATOM     47  C   UNL A   1      40.536  33.079  31.544  1.00  0.00     0.074 A 
ATOM     48  C   UNL A   1      42.651  31.895  31.305  1.00  0.00     0.049 A 
ATOM     49  N   UNL A   1      39.596  32.449  30.903  1.00  0.00    -0.248 NA
ATOM     50  C   UNL A   1      40.053  34.050  32.519  1.00  0.00     0.031 C 
ATOM     51  C   UNL A   1      43.440  31.199  30.284  1.00  0.00     0.029 A 
ATOM     52  N   UNL A   1      42.626  31.027  32.370  1.00  0.00    -0.354 N 
ATOM     53  C   UNL A   1      38.401  32.998  31.310  1.00  0.00     0.074 A 
ATOM     54  C   UNL A   1      38.727  33.963  32.339  1.00  0.00     0.031 C 
ATOM     55  C   UNL A   1      43.649  29.932  30.699  1.00  0.00     0.029 A 
ATOM     56  C   UNL A   1      43.169  29.784  32.070  1.00  0.00     0.049 A 
ATOM     57  H   UNL A   1      42.260  31.262  33.254  1.00  0.00     0.167 HD
ATOM     58  C   UNL A   1      37.211  32.663  30.752  1.00  0.00     0.037 A 
ATOM     59  C   UNL A   1      42.773  28.604  32.619  1.00  0.00     0.037 A 
ATOM     60  C   UNL A   1      37.250  31.687  29.707  1.00  0.00     0.049 A 
ATOM     61  C   UNL A   1      41.347  28.501  32.142  1.00  0.00     0.074 A 
ATOM     62  C   UNL A   1      37.293  31.692  28.329  1.00  0.00     0.029 A 
ATOM     63  N   UNL A   1      37.358  30.363  30.061  1.00  0.00    -0.354 N 
ATOM     64  N   UNL A   1      40.964  28.069  30.969  1.00  0.00    -0.248 NA
ATOM     65  C   UNL A   1      40.313  29.216  32.894  1.00  0.00     0.031 C 
ATOM     66  C   UNL A   1      37.863  30.433  27.958  1.00  0.00     0.029 A 
ATOM     67  C   UNL A   1      38.184  29.768  29.139  1.00  0.00     0.049 A 
ATOM     68  H   UNL A   1      36.927  29.925  30.829  1.00  0.00     0.167 HD
ATOM     69  C   UNL A   1      39.732  28.686  30.732  1.00  0.00     0.074 A 
ATOM     70  C   UNL A   1      39.374  29.350  31.967  1.00  0.00     0.031 C 
ATOM     71  C   UNL A   1      39.167  28.774  29.496  1.00  0.00     0.037 A 
BRANCH  58  72
ATOM     72  C   UNL A   1      35.923  33.142  31.268  1.00  0.00     0.064 A 
ATOM     73  C   UNL A   1      35.254  34.134  30.542  1.00  0.00     0.173 A 
ATOM     74  C   UNL A   1      35.420  32.767  32.515  1.00  0.00     0.173 A 
ATOM     75  F   UNL A   1      35.726  34.520  29.344  1.00  0.00    -0.203 F 
ATOM     76  C   UNL A   1      34.127  34.758  31.059  1.00  0.00     0.198 A 
ATOM     77  C   UNL A   1      34.287  33.392  33.032  1.00  0.00     0.198 A 
ATOM     78  F   UNL A   1      36.041  31.825  33.241  1.00  0.00    -0.203 F 
ATOM     79  F   UNL A   1      33.522  35.726  30.358  1.00  0.00    -0.200 F 
ATOM     80  C   UNL A   1      33.650  34.392  32.308  1.00  0.00     0.200 A 
ATOM     81  F   UNL A   1      33.822  33.044  34.239  1.00  0.00    -0.200 F 
ATOM     82  F   UNL A   1      32.577  35.012  32.819  1.00  0.00    -0.200 F 
ENDBRANCH  58  72
BRANCH  59  83
ATOM     83  C   UNL A   1      43.191  28.404  34.044  1.00  0.00     0.064 A 
ATOM     84  C   UNL A   1      44.389  29.009  34.487  1.00  0.00     0.173 A 
ATOM     85  C   UNL A   1      42.499  27.649  35.003  1.00  0.00     0.173 A 
ATOM     86  F   UNL A   1      45.178  29.659  33.616  1.00  0.00    -0.203 F 
ATOM     87  C   UNL A   1      44.798  28.961  35.821  1.00  0.00     0.198 A 
ATOM     88  C   UNL A   1      42.892  27.624  36.343  1.00  0.00     0.198 A 
ATOM     89  F   UNL A   1      41.422  26.927  34.669  1.00  0.00    -0.203 F 
ATOM     90  F   UNL A   1      45.925  29.579  36.199  1.00  0.00    -0.200 F 
ATOM     91  C   UNL A   1      44.031  28.292  36.755  1.00  0.00     0.200 A 
ATOM     92  F   UNL A   1      42.147  26.960  37.239  1.00  0.00    -0.200 F 
ATOM     93  F   UNL A   1      44.390  28.282  38.047  1.00  0.00    -0.200 F 
ENDBRANCH  59  83
BRANCH  71  94
ATOM     94  C   UNL A   1      39.819  27.952  28.441  1.00  0.00     0.064 A 
ATOM     95  C   UNL A   1      39.495  26.595  28.316  1.00  0.00     0.173 A 
ATOM     96  C   UNL A   1      40.740  28.500  27.536  1.00  0.00     0.173 A 
ATOM     97  F   UNL A   1      38.613  26.030  29.156  1.00  0.00    -0.203 F 
ATOM     98  C   UNL A   1      40.057  25.818  27.309  1.00  0.00     0.198 A 
ATOM     99  C   UNL A   1      41.282  27.725  26.516  1.00  0.00     0.198 A 
ATOM    100  F   UNL A   1      41.100  29.790  27.620  1.00  0.00    -0.203 F 
ATOM    101  F   UNL A   1      39.728  24.522  27.201  1.00  0.00    -0.200 F 
ATOM    102  C   UNL A   1      40.940  26.386  26.402  1.00  0.00     0.200 A 
ATOM    103  F   UNL A   1      42.123  28.279  25.630  1.00  0.00    -0.200 F 
ATOM    104  F   UNL A   1      41.452  25.644  25.411  1.00  0.00    -0.200 F 
ENDBRANCH  71  94
ENDBRANCH  45  46
ENDBRANCH  37  40
ENDBRANCH  35  36
ENDBRANCH  34  35
ENDBRANCH  33  34
ENDBRANCH   1  33
TORSDOF 15
ENDMDL
MODEL 3
REMARK VINA RESULT:     -12.4      7.520     14.933
REMARK SMILES Cc1c(CCC(=O)N[C@@H](C)C(=O)NCCCCNC(=O)c2ccc(-c3c4nc(c(-c5c(F)c(F)c(F)c(F)c5F)c5ccc([nH]5)c(-c5c(F)c(F)c(F)c(F)c5F)c5nc(c(-c6c(F)c(F)c(F)c(F)c6F)c6ccc3[nH]6)C=C5)C=C4)cc2)c(=O)oc2cc3oc4c(c3cc12)CCCC4
REMARK SMILES IDX 14 1 13 2 11 3 12 4 9 6 10 7 8 8 6 9 7 10 5 12 4 13 3 14
REMARK SMILES IDX 1 15 2 16 95 17 84 18 87 19 94 20 85 21 86 22 88 23 93 24
REMARK SMILES IDX 89 25 92 26 90 27 91 28 96 29 99 30 97 31 98 32 15 33 16 34
REMARK SMILES IDX 17 35 18 36 19 37 20 39 21 40 22 41 83 42 23 43 82 44 24 45
REMARK SMILES IDX 25 46 26 47 76 48 27 49 81 50 75 51 77 52 28 53 80 54 74 55
REMARK SMILES IDX 73 56 29 58 61 59 41 60 60 61 42 62 45 63 59 64 78 65 43 66
REMARK SMILES IDX 44 67 58 69 79 70 46 71 30 72 31 73 39 74 32 75 33 76 37 77
REMARK SMILES IDX 40 78 34 79 35 80 38 81 36 82 62 83 63 84 71 85 64 86 65 87
REMARK SMILES IDX 69 88 72 89 66 90 67 91 70 92 68 93 47 94 48 95 56 96 49 97
REMARK SMILES IDX 50 98 54 99 57 100 51 101 52 102 55 103 53 104
REMARK H PARENT 13 5 8 11 18 38 77 57 45 68
REMARK Flexibility Score: inf
ROOT
ATOM      1  C   UNL A   1      49.318  20.192  34.345  1.00  0.00     0.116 C 
ENDROOT
BRANCH   1   2
ATOM      2  N   UNL A   1      50.754  20.337  34.519  1.00  0.00    -0.354 N 
ATOM      3  C   UNL A   1      51.484  20.720  35.606  1.00  0.00     0.242 C 
ATOM      4  O   UNL A   1      52.711  20.604  35.535  1.00  0.00    -0.273 OA
ATOM      5  H   UNL A   1      51.288  20.125  33.719  1.00  0.00     0.163 HD
BRANCH   3   6
ATOM      6  C   UNL A   1      50.811  21.149  36.923  1.00  0.00     0.168 C 
ATOM      7  C   UNL A   1      51.304  22.546  37.254  1.00  0.00     0.041 C 
BRANCH   6   8
ATOM      8  N   UNL A   1      51.035  20.229  38.042  1.00  0.00    -0.345 N 
ATOM      9  C   UNL A   1      50.146  19.435  38.710  1.00  0.00     0.220 C 
ATOM     10  O   UNL A   1      50.530  18.872  39.737  1.00  0.00    -0.275 OA
ATOM     11  H   UNL A   1      51.965  20.175  38.361  1.00  0.00     0.164 HD
BRANCH   9  12
ATOM     12  C   UNL A   1      48.735  19.221  38.174  1.00  0.00     0.105 C 
BRANCH  12  13
ATOM     13  C   UNL A   1      47.630  19.491  39.214  1.00  0.00     0.053 C 
BRANCH  13  14
ATOM     14  C   UNL A   1      46.588  18.398  39.189  1.00  0.00     0.042 A 
ATOM     15  C   UNL A   1      47.583  17.089  41.124  1.00  0.00     0.046 C 
ATOM     16  C   UNL A   1      46.509  17.442  40.132  1.00  0.00    -0.030 A 
ATOM     17  C   UNL A   1      45.201  16.810  40.294  1.00  0.00     0.022 A 
ATOM     18  C   UNL A   1      45.571  18.474  38.095  1.00  0.00     0.339 A 
ATOM     19  C   UNL A   1      44.297  16.776  39.233  1.00  0.00     0.142 A 
ATOM     20  C   UNL A   1      44.780  16.395  41.558  1.00  0.00     0.024 A 
ATOM     21  O   UNL A   1      45.608  19.360  37.248  1.00  0.00    -0.246 OA
ATOM     22  O   UNL A   1      44.605  17.471  38.049  1.00  0.00    -0.422 OA
ATOM     23  C   UNL A   1      43.049  16.139  39.308  1.00  0.00     0.095 A 
ATOM     24  C   UNL A   1      43.504  15.853  41.698  1.00  0.00     0.025 A 
ATOM     25  C   UNL A   1      42.734  15.623  40.563  1.00  0.00     0.138 A 
ATOM     26  C   UNL A   1      42.803  15.305  42.784  1.00  0.00     0.001 A 
ATOM     27  O   UNL A   1      41.731  14.738  40.872  1.00  0.00    -0.461 OA
ATOM     28  C   UNL A   1      41.916  14.442  42.185  1.00  0.00     0.108 A 
ATOM     29  C   UNL A   1      43.221  15.089  44.185  1.00  0.00     0.040 C 
ATOM     30  C   UNL A   1      41.711  13.067  42.716  1.00  0.00     0.076 C 
ATOM     31  C   UNL A   1      43.721  13.646  44.329  1.00  0.00     0.005 C 
ATOM     32  C   UNL A   1      43.094  12.642  43.309  1.00  0.00     0.008 C 
ENDBRANCH  13  14
ENDBRANCH  12  13
ENDBRANCH   9  12
ENDBRANCH   6   8
ENDBRANCH   3   6
ENDBRANCH   1   2
BRANCH   1  33
ATOM     33  C   UNL A   1      48.613  21.548  34.296  1.00  0.00     0.023 C 
BRANCH  33  34
ATOM     34  C   UNL A   1      47.213  21.549  34.917  1.00  0.00     0.023 C 
BRANCH  34  35
ATOM     35  C   UNL A   1      46.897  22.815  35.722  1.00  0.00     0.116 C 
BRANCH  35  36
ATOM     36  N   UNL A   1      45.483  22.968  36.042  1.00  0.00    -0.352 N 
ATOM     37  C   UNL A   1      44.500  23.611  35.318  1.00  0.00     0.251 C 
ATOM     38  H   UNL A   1      45.191  22.559  36.888  1.00  0.00     0.163 HD
ATOM     39  O   UNL A   1      43.351  23.671  35.712  1.00  0.00    -0.269 OA
BRANCH  37  40
ATOM     40  C   UNL A   1      44.911  24.299  34.081  1.00  0.00     0.039 A 
ATOM     41  C   UNL A   1      45.663  25.474  34.154  1.00  0.00     0.014 A 
ATOM     42  C   UNL A   1      44.394  23.837  32.868  1.00  0.00     0.014 A 
ATOM     43  C   UNL A   1      45.791  26.265  33.023  1.00  0.00     0.010 A 
ATOM     44  C   UNL A   1      44.548  24.618  31.729  1.00  0.00     0.010 A 
ATOM     45  C   UNL A   1      45.217  25.847  31.817  1.00  0.00    -0.014 A 
BRANCH  45  46
ATOM     46  C   UNL A   1      45.474  26.673  30.634  1.00  0.00     0.031 A 
ATOM     47  C   UNL A   1      45.366  25.908  29.365  1.00  0.00     0.074 A 
ATOM     48  C   UNL A   1      45.294  28.007  30.597  1.00  0.00     0.049 A 
ATOM     49  N   UNL A   1      44.216  25.680  28.801  1.00  0.00    -0.248 NA
ATOM     50  C   UNL A   1      46.467  25.115  28.829  1.00  0.00     0.031 C 
ATOM     51  C   UNL A   1      44.403  28.757  31.487  1.00  0.00     0.029 A 
ATOM     52  N   UNL A   1      45.678  28.921  29.645  1.00  0.00    -0.354 N 
ATOM     53  C   UNL A   1      44.410  24.652  27.905  1.00  0.00     0.074 A 
ATOM     54  C   UNL A   1      45.827  24.355  27.927  1.00  0.00     0.031 C 
ATOM     55  C   UNL A   1      44.150  29.958  30.923  1.00  0.00     0.029 A 
ATOM     56  C   UNL A   1      44.989  30.124  29.739  1.00  0.00     0.049 A 
ATOM     57  H   UNL A   1      46.368  28.742  28.966  1.00  0.00     0.167 HD
ATOM     58  C   UNL A   1      43.391  24.071  27.223  1.00  0.00     0.037 A 
ATOM     59  C   UNL A   1      44.679  30.933  28.690  1.00  0.00     0.037 A 
ATOM     60  C   UNL A   1      42.081  24.589  27.473  1.00  0.00     0.049 A 
ATOM     61  C   UNL A   1      43.763  30.054  27.878  1.00  0.00     0.074 A 
ATOM     62  C   UNL A   1      41.014  24.272  28.286  1.00  0.00     0.029 A 
ATOM     63  N   UNL A   1      41.717  25.757  26.848  1.00  0.00    -0.354 N 
ATOM     64  N   UNL A   1      42.487  29.872  28.099  1.00  0.00    -0.248 NA
ATOM     65  C   UNL A   1      44.368  29.078  26.968  1.00  0.00     0.031 C 
ATOM     66  C   UNL A   1      40.271  25.485  28.435  1.00  0.00     0.029 A 
ATOM     67  C   UNL A   1      40.968  26.476  27.747  1.00  0.00     0.049 A 
ATOM     68  H   UNL A   1      41.949  26.028  25.931  1.00  0.00     0.167 HD
ATOM     69  C   UNL A   1      42.196  28.613  27.566  1.00  0.00     0.074 A 
ATOM     70  C   UNL A   1      43.386  28.194  26.858  1.00  0.00     0.031 C 
ATOM     71  C   UNL A   1      41.075  27.908  27.887  1.00  0.00     0.037 A 
BRANCH  58  72
ATOM     72  C   UNL A   1      43.602  23.070  26.171  1.00  0.00     0.064 A 
ATOM     73  C   UNL A   1      43.337  21.730  26.479  1.00  0.00     0.173 A 
ATOM     74  C   UNL A   1      44.196  23.373  24.945  1.00  0.00     0.173 A 
ATOM     75  F   UNL A   1      42.778  21.412  27.659  1.00  0.00    -0.203 F 
ATOM     76  C   UNL A   1      43.682  20.715  25.598  1.00  0.00     0.198 A 
ATOM     77  C   UNL A   1      44.538  22.353  24.060  1.00  0.00     0.198 A 
ATOM     78  F   UNL A   1      44.470  24.645  24.621  1.00  0.00    -0.203 F 
ATOM     79  F   UNL A   1      43.446  19.439  25.928  1.00  0.00    -0.200 F 
ATOM     80  C   UNL A   1      44.290  21.027  24.391  1.00  0.00     0.200 A 
ATOM     81  F   UNL A   1      45.128  22.649  22.893  1.00  0.00    -0.200 F 
ATOM     82  F   UNL A   1      44.646  20.045  23.551  1.00  0.00    -0.200 F 
ENDBRANCH  58  72
BRANCH  59  83
ATOM     83  C   UNL A   1      45.841  31.684  28.113  1.00  0.00     0.064 A 
ATOM     84  C   UNL A   1      45.713  33.077  27.913  1.00  0.00     0.173 A 
ATOM     85  C   UNL A   1      47.070  31.124  27.733  1.00  0.00     0.173 A 
ATOM     86  F   UNL A   1      44.537  33.685  28.143  1.00  0.00    -0.203 F 
ATOM     87  C   UNL A   1      46.778  33.868  27.480  1.00  0.00     0.198 A 
ATOM     88  C   UNL A   1      48.145  31.919  27.326  1.00  0.00     0.198 A 
ATOM     89  F   UNL A   1      47.265  29.799  27.756  1.00  0.00    -0.203 F 
ATOM     90  F   UNL A   1      46.615  35.190  27.338  1.00  0.00    -0.200 F 
ATOM     91  C   UNL A   1      48.004  33.290  27.215  1.00  0.00     0.200 A 
ATOM     92  F   UNL A   1      49.327  31.345  27.058  1.00  0.00    -0.200 F 
ATOM     93  F   UNL A   1      49.046  34.049  26.845  1.00  0.00    -0.200 F 
ENDBRANCH  59  83
BRANCH  71  94
ATOM     94  C   UNL A   1      40.046  28.666  28.648  1.00  0.00     0.064 A 
ATOM     95  C   UNL A   1      40.041  28.620  30.048  1.00  0.00     0.173 A 
ATOM     96  C   UNL A   1      39.081  29.458  28.007  1.00  0.00     0.173 A 
ATOM     97  F   UNL A   1      40.951  27.881  30.704  1.00  0.00    -0.203 F 
ATOM     98  C   UNL A   1      39.118  29.357  30.782  1.00  0.00     0.198 A 
ATOM     99  C   UNL A   1      38.174  30.210  28.746  1.00  0.00     0.198 A 
ATOM    100  F   UNL A   1      39.027  29.524  26.668  1.00  0.00    -0.203 F 
ATOM    101  F   UNL A   1      39.136  29.306  32.122  1.00  0.00    -0.200 F 
ATOM    102  C   UNL A   1      38.193  30.160  30.132  1.00  0.00     0.200 A 
ATOM    103  F   UNL A   1      37.291  30.999  28.117  1.00  0.00    -0.200 F 
ATOM    104  F   UNL A   1      37.328  30.896  30.842  1.00  0.00    -0.200 F 
ENDBRANCH  71  94
ENDBRANCH  45  46
ENDBRANCH  37  40
ENDBRANCH  35  36
ENDBRANCH  34  35
ENDBRANCH  33  34
ENDBRANCH   1  33
TORSDOF 15
ENDMDL
