MODEL 1
REMARK VINA RESULT:     -12.4      0.000      0.000
REMARK SMILES CC(=O)c1cn(CC(=O)NCC(=O)NCC(=O)NCCCCNC(=O)c2ccc(-c3c4nc(c(-c5c(F)c(F)c(F)c(F)c5F)c5ccc([nH]5)c(-c5c(F)c(F)c(F)c(F)c5F)c5nc(c(-c6c(F)c(F)c(F)c(F)c6F)c6ccc3[nH]6)C=C5)C=C4)cc2)c2ccccc12
REMARK SMILES IDX 16 1 17 2 18 3 15 5 14 6 12 7 13 8 11 10 10 11 8 12 9 13
REMARK SMILES IDX 7 15 6 16 4 17 5 18 94 19 89 20 93 21 90 22 92 23 91 24 2 25
REMARK SMILES IDX 1 26 3 27 19 28 20 29 21 30 22 31 23 32 24 33 25 35 26 36
REMARK SMILES IDX 27 37 88 38 28 39 87 40 29 41 30 42 31 43 81 44 32 45 86 46
REMARK SMILES IDX 80 47 82 48 33 49 85 50 79 51 78 52 34 54 66 55 46 56 65 57
REMARK SMILES IDX 47 58 50 59 64 60 83 61 48 62 49 63 63 65 84 66 51 67 35 68
REMARK SMILES IDX 36 69 44 70 37 71 38 72 42 73 45 74 39 75 40 76 43 77 41 78
REMARK SMILES IDX 67 79 68 80 76 81 69 82 70 83 74 84 77 85 71 86 72 87 75 88
REMARK SMILES IDX 73 89 52 90 53 91 61 92 54 93 55 94 59 95 62 96 56 97 57 98
REMARK SMILES IDX 60 99 58 100
REMARK H PARENT 18 4 14 9 10 14 23 34 82 53 50 64
REMARK Flexibility Score: inf
ROOT
ATOM      1  C   UNL A   1      37.323  21.988  24.825  1.00  0.00     0.239 C 
ATOM      2  O   UNL A   1      37.006  22.389  23.704  1.00  0.00    -0.273 OA
ATOM      3  N   UNL A   1      38.608  22.175  25.241  1.00  0.00    -0.355 N 
ATOM      4  H   UNL A   1      39.172  22.750  24.677  1.00  0.00     0.163 HD
ENDROOT
BRANCH   1   5
ATOM      5  C   UNL A   1      36.288  21.434  25.814  1.00  0.00     0.216 C 
BRANCH   5   6
ATOM      6  N   UNL A   1      35.357  20.423  25.345  1.00  0.00    -0.346 N 
ATOM      7  C   UNL A   1      34.106  20.572  24.820  1.00  0.00     0.239 C 
ATOM      8  O   UNL A   1      33.587  19.571  24.316  1.00  0.00    -0.273 OA
ATOM      9  H   UNL A   1      35.676  19.494  25.416  1.00  0.00     0.164 HD
BRANCH   7  10
ATOM     10  C   UNL A   1      33.383  21.942  24.743  1.00  0.00     0.216 C 
BRANCH  10  11
ATOM     11  N   UNL A   1      33.897  22.881  23.750  1.00  0.00    -0.345 N 
ATOM     12  C   UNL A   1      34.017  24.238  23.739  1.00  0.00     0.240 C 
ATOM     13  O   UNL A   1      34.339  24.756  22.665  1.00  0.00    -0.273 OA
ATOM     14  H   UNL A   1      34.220  22.448  22.927  1.00  0.00     0.164 HD
BRANCH  12  15
ATOM     15  C   UNL A   1      33.873  25.083  24.994  1.00  0.00     0.222 C 
BRANCH  15  16
ATOM     16  N   UNL A   1      32.849  26.113  24.919  1.00  0.00    -0.337 N 
ATOM     17  C   UNL A   1      31.115  27.215  24.060  1.00  0.00     0.043 A 
ATOM     18  C   UNL A   1      31.678  25.964  24.227  1.00  0.00     0.099 A 
ATOM     19  C   UNL A   1      31.840  28.105  24.916  1.00  0.00     0.010 A 
ATOM     20  C   UNL A   1      32.919  27.383  25.453  1.00  0.00     0.049 A 
ATOM     21  C   UNL A   1      31.718  29.471  25.249  1.00  0.00     0.011 A 
ATOM     22  C   UNL A   1      33.882  27.984  26.281  1.00  0.00     0.027 A 
ATOM     23  C   UNL A   1      32.677  30.078  26.067  1.00  0.00     0.001 A 
ATOM     24  C   UNL A   1      33.744  29.344  26.570  1.00  0.00     0.002 A 
BRANCH  17  25
ATOM     25  C   UNL A   1      30.035  27.473  23.113  1.00  0.00     0.161 C 
ATOM     26  C   UNL A   1      28.616  27.267  23.586  1.00  0.00     0.093 C 
ATOM     27  O   UNL A   1      30.257  28.002  22.021  1.00  0.00    -0.294 OA
ENDBRANCH  17  25
ENDBRANCH  15  16
ENDBRANCH  12  15
ENDBRANCH  10  11
ENDBRANCH   7  10
ENDBRANCH   5   6
ENDBRANCH   1   5
BRANCH   3  28
ATOM     28  C   UNL A   1      39.227  21.624  26.418  1.00  0.00     0.116 C 
BRANCH  28  29
ATOM     29  C   UNL A   1      40.688  21.309  26.159  1.00  0.00     0.023 C 
BRANCH  29  30
ATOM     30  C   UNL A   1      40.945  19.814  25.996  1.00  0.00     0.023 C 
BRANCH  30  31
ATOM     31  C   UNL A   1      42.364  19.385  26.396  1.00  0.00     0.116 C 
BRANCH  31  32
ATOM     32  N   UNL A   1      43.311  19.476  25.303  1.00  0.00    -0.352 N 
ATOM     33  C   UNL A   1      44.115  20.472  24.824  1.00  0.00     0.251 C 
ATOM     34  H   UNL A   1      43.393  18.637  24.794  1.00  0.00     0.163 HD
ATOM     35  O   UNL A   1      44.847  20.179  23.875  1.00  0.00    -0.269 OA
BRANCH  33  36
ATOM     36  C   UNL A   1      44.124  21.869  25.333  1.00  0.00     0.039 A 
ATOM     37  C   UNL A   1      44.656  22.271  26.555  1.00  0.00     0.014 A 
ATOM     38  C   UNL A   1      43.462  22.829  24.545  1.00  0.00     0.014 A 
ATOM     39  C   UNL A   1      44.422  23.544  27.043  1.00  0.00     0.010 A 
ATOM     40  C   UNL A   1      43.257  24.124  25.012  1.00  0.00     0.010 A 
ATOM     41  C   UNL A   1      43.678  24.455  26.295  1.00  0.00    -0.014 A 
BRANCH  41  42
ATOM     42  C   UNL A   1      43.363  25.716  26.953  1.00  0.00     0.031 A 
ATOM     43  C   UNL A   1      44.329  26.832  26.734  1.00  0.00     0.074 A 
ATOM     44  C   UNL A   1      42.296  25.882  27.756  1.00  0.00     0.049 A 
ATOM     45  N   UNL A   1      45.092  27.415  27.605  1.00  0.00    -0.248 NA
ATOM     46  C   UNL A   1      44.529  27.294  25.354  1.00  0.00     0.031 C 
ATOM     47  C   UNL A   1      41.125  25.023  27.941  1.00  0.00     0.029 A 
ATOM     48  N   UNL A   1      42.027  26.947  28.559  1.00  0.00    -0.354 N 
ATOM     49  C   UNL A   1      45.776  28.414  26.914  1.00  0.00     0.074 A 
ATOM     50  C   UNL A   1      45.456  28.238  25.520  1.00  0.00     0.031 C 
ATOM     51  C   UNL A   1      40.177  25.705  28.623  1.00  0.00     0.029 A 
ATOM     52  C   UNL A   1      40.738  26.974  29.057  1.00  0.00     0.049 A 
ATOM     53  H   UNL A   1      42.695  27.640  28.768  1.00  0.00     0.167 HD
ATOM     54  C   UNL A   1      46.442  29.416  27.552  1.00  0.00     0.037 A 
ATOM     55  C   UNL A   1      40.163  28.003  29.720  1.00  0.00     0.037 A 
ATOM     56  C   UNL A   1      46.765  29.075  28.911  1.00  0.00     0.049 A 
ATOM     57  C   UNL A   1      41.250  28.836  30.292  1.00  0.00     0.074 A 
ATOM     58  C   UNL A   1      47.547  28.105  29.508  1.00  0.00     0.029 A 
ATOM     59  N   UNL A   1      46.005  29.595  29.928  1.00  0.00    -0.354 N 
ATOM     60  N   UNL A   1      42.024  28.450  31.267  1.00  0.00    -0.248 NA
ATOM     61  C   UNL A   1      41.755  29.938  29.488  1.00  0.00     0.031 C 
ATOM     62  C   UNL A   1      46.844  27.744  30.696  1.00  0.00     0.029 A 
ATOM     63  C   UNL A   1      45.704  28.544  30.756  1.00  0.00     0.049 A 
ATOM     64  H   UNL A   1      45.730  30.534  30.040  1.00  0.00     0.167 HD
ATOM     65  C   UNL A   1      43.271  28.967  30.952  1.00  0.00     0.074 A 
ATOM     66  C   UNL A   1      43.026  29.942  29.892  1.00  0.00     0.031 C 
ATOM     67  C   UNL A   1      44.419  28.369  31.385  1.00  0.00     0.037 A 
BRANCH  54  68
ATOM     68  C   UNL A   1      46.551  30.822  27.025  1.00  0.00     0.064 A 
ATOM     69  C   UNL A   1      47.804  31.466  26.988  1.00  0.00     0.173 A 
ATOM     70  C   UNL A   1      45.429  31.655  26.832  1.00  0.00     0.173 A 
ATOM     71  F   UNL A   1      48.935  30.775  27.186  1.00  0.00    -0.203 F 
ATOM     72  C   UNL A   1      47.914  32.852  26.833  1.00  0.00     0.198 A 
ATOM     73  C   UNL A   1      45.546  33.028  26.627  1.00  0.00     0.198 A 
ATOM     74  F   UNL A   1      44.178  31.189  26.945  1.00  0.00    -0.203 F 
ATOM     75  F   UNL A   1      49.117  33.437  26.920  1.00  0.00    -0.200 F 
ATOM     76  C   UNL A   1      46.785  33.632  26.659  1.00  0.00     0.200 A 
ATOM     77  F   UNL A   1      44.438  33.768  26.480  1.00  0.00    -0.200 F 
ATOM     78  F   UNL A   1      46.884  34.964  26.569  1.00  0.00    -0.200 F 
ENDBRANCH  54  68
BRANCH  55  79
ATOM     79  C   UNL A   1      38.786  28.510  29.537  1.00  0.00     0.064 A 
ATOM     80  C   UNL A   1      37.961  28.764  30.643  1.00  0.00     0.173 A 
ATOM     81  C   UNL A   1      38.363  29.032  28.298  1.00  0.00     0.173 A 
ATOM     82  F   UNL A   1      38.320  28.340  31.863  1.00  0.00    -0.203 F 
ATOM     83  C   UNL A   1      36.794  29.524  30.521  1.00  0.00     0.198 A 
ATOM     84  C   UNL A   1      37.196  29.784  28.178  1.00  0.00     0.198 A 
ATOM     85  F   UNL A   1      39.126  28.908  27.203  1.00  0.00    -0.203 F 
ATOM     86  F   UNL A   1      36.064  29.806  31.610  1.00  0.00    -0.200 F 
ATOM     87  C   UNL A   1      36.420  30.043  29.292  1.00  0.00     0.200 A 
ATOM     88  F   UNL A   1      36.867  30.312  26.991  1.00  0.00    -0.200 F 
ATOM     89  F   UNL A   1      35.338  30.827  29.188  1.00  0.00    -0.200 F 
ENDBRANCH  55  79
BRANCH  67  90
ATOM     90  C   UNL A   1      44.292  27.262  32.391  1.00  0.00     0.064 A 
ATOM     91  C   UNL A   1      44.202  25.903  32.043  1.00  0.00     0.173 A 
ATOM     92  C   UNL A   1      44.405  27.573  33.752  1.00  0.00     0.173 A 
ATOM     93  F   UNL A   1      44.203  25.520  30.760  1.00  0.00    -0.203 F 
ATOM     94  C   UNL A   1      44.172  24.906  33.017  1.00  0.00     0.198 A 
ATOM     95  C   UNL A   1      44.410  26.573  34.722  1.00  0.00     0.198 A 
ATOM     96  F   UNL A   1      44.559  28.848  34.141  1.00  0.00    -0.203 F 
ATOM     97  F   UNL A   1      44.074  23.617  32.659  1.00  0.00    -0.200 F 
ATOM     98  C   UNL A   1      44.281  25.244  34.356  1.00  0.00     0.200 A 
ATOM     99  F   UNL A   1      44.569  26.898  36.013  1.00  0.00    -0.200 F 
ATOM    100  F   UNL A   1      44.293  24.283  35.292  1.00  0.00    -0.200 F 
ENDBRANCH  67  90
ENDBRANCH  41  42
ENDBRANCH  33  36
ENDBRANCH  31  32
ENDBRANCH  30  31
ENDBRANCH  29  30
ENDBRANCH  28  29
ENDBRANCH   3  28
TORSDOF 17
ENDMDL
MODEL 2
REMARK VINA RESULT:     -12.0      2.934      8.729
REMARK SMILES CC(=O)c1cn(CC(=O)NCC(=O)NCC(=O)NCCCCNC(=O)c2ccc(-c3c4nc(c(-c5c(F)c(F)c(F)c(F)c5F)c5ccc([nH]5)c(-c5c(F)c(F)c(F)c(F)c5F)c5nc(c(-c6c(F)c(F)c(F)c(F)c6F)c6ccc3[nH]6)C=C5)C=C4)cc2)c2ccccc12
REMARK SMILES IDX 16 1 17 2 18 3 15 5 14 6 12 7 13 8 11 10 10 11 8 12 9 13
REMARK SMILES IDX 7 15 6 16 4 17 5 18 94 19 89 20 93 21 90 22 92 23 91 24 2 25
REMARK SMILES IDX 1 26 3 27 19 28 20 29 21 30 22 31 23 32 24 33 25 35 26 36
REMARK SMILES IDX 27 37 88 38 28 39 87 40 29 41 30 42 31 43 81 44 32 45 86 46
REMARK SMILES IDX 80 47 82 48 33 49 85 50 79 51 78 52 34 54 66 55 46 56 65 57
REMARK SMILES IDX 47 58 50 59 64 60 83 61 48 62 49 63 63 65 84 66 51 67 35 68
REMARK SMILES IDX 36 69 44 70 37 71 38 72 42 73 45 74 39 75 40 76 43 77 41 78
REMARK SMILES IDX 67 79 68 80 76 81 69 82 70 83 74 84 77 85 71 86 72 87 75 88
REMARK SMILES IDX 73 89 52 90 53 91 61 92 54 93 55 94 59 95 62 96 56 97 57 98
REMARK SMILES IDX 60 99 58 100
REMARK H PARENT 18 4 14 9 10 14 23 34 82 53 50 64
REMARK Flexibility Score: inf
ROOT
ATOM      1  C   UNL A   1      33.232  27.099  22.282  1.00  0.00     0.239 C 
ATOM      2  O   UNL A   1      34.028  26.355  21.709  1.00  0.00    -0.273 OA
ATOM      3  N   UNL A   1      33.680  28.308  22.728  1.00  0.00    -0.355 N 
ATOM      4  H   UNL A   1      34.581  28.576  22.438  1.00  0.00     0.163 HD
ENDROOT
BRANCH   1   5
ATOM      5  C   UNL A   1      31.734  26.778  22.367  1.00  0.00     0.216 C 
BRANCH   5   6
ATOM      6  N   UNL A   1      31.331  25.388  22.476  1.00  0.00    -0.346 N 
ATOM      7  C   UNL A   1      30.683  24.748  23.493  1.00  0.00     0.239 C 
ATOM      8  O   UNL A   1      30.279  23.603  23.268  1.00  0.00    -0.273 OA
ATOM      9  H   UNL A   1      31.558  24.823  21.701  1.00  0.00     0.164 HD
BRANCH   7  10
ATOM     10  C   UNL A   1      30.354  25.436  24.845  1.00  0.00     0.216 C 
BRANCH  10  11
ATOM     11  N   UNL A   1      29.930  24.550  25.925  1.00  0.00    -0.345 N 
ATOM     12  C   UNL A   1      30.612  23.695  26.738  1.00  0.00     0.240 C 
ATOM     13  O   UNL A   1      29.932  22.949  27.451  1.00  0.00    -0.273 OA
ATOM     14  H   UNL A   1      28.962  24.576  26.102  1.00  0.00     0.164 HD
BRANCH  12  15
ATOM     15  C   UNL A   1      32.126  23.712  26.857  1.00  0.00     0.222 C 
BRANCH  15  16
ATOM     16  N   UNL A   1      32.815  22.763  25.998  1.00  0.00    -0.337 N 
ATOM     17  C   UNL A   1      33.172  20.820  24.969  1.00  0.00     0.043 A 
ATOM     18  C   UNL A   1      32.196  21.697  25.402  1.00  0.00     0.099 A 
ATOM     19  C   UNL A   1      34.420  21.517  25.070  1.00  0.00     0.010 A 
ATOM     20  C   UNL A   1      34.165  22.740  25.711  1.00  0.00     0.049 A 
ATOM     21  C   UNL A   1      35.753  21.206  24.729  1.00  0.00     0.011 A 
ATOM     22  C   UNL A   1      35.193  23.640  26.040  1.00  0.00     0.027 A 
ATOM     23  C   UNL A   1      36.783  22.093  25.059  1.00  0.00     0.001 A 
ATOM     24  C   UNL A   1      36.504  23.290  25.709  1.00  0.00     0.002 A 
BRANCH  17  25
ATOM     25  C   UNL A   1      32.878  19.448  24.570  1.00  0.00     0.161 C 
ATOM     26  C   UNL A   1      32.819  18.394  25.650  1.00  0.00     0.093 C 
ATOM     27  O   UNL A   1      32.522  19.180  23.419  1.00  0.00    -0.294 OA
ENDBRANCH  17  25
ENDBRANCH  15  16
ENDBRANCH  12  15
ENDBRANCH  10  11
ENDBRANCH   7  10
ENDBRANCH   5   6
ENDBRANCH   1   5
BRANCH   3  28
ATOM     28  C   UNL A   1      32.977  29.234  23.576  1.00  0.00     0.116 C 
BRANCH  28  29
ATOM     29  C   UNL A   1      33.345  29.016  25.032  1.00  0.00     0.023 C 
BRANCH  29  30
ATOM     30  C   UNL A   1      32.732  30.066  25.954  1.00  0.00     0.023 C 
BRANCH  30  31
ATOM     31  C   UNL A   1      33.521  30.280  27.253  1.00  0.00     0.116 C 
BRANCH  31  32
ATOM     32  N   UNL A   1      34.128  31.594  27.337  1.00  0.00    -0.352 N 
ATOM     33  C   UNL A   1      35.357  32.048  27.725  1.00  0.00     0.251 C 
ATOM     34  H   UNL A   1      33.522  32.316  27.052  1.00  0.00     0.163 HD
ATOM     35  O   UNL A   1      35.551  33.263  27.624  1.00  0.00    -0.269 OA
BRANCH  33  36
ATOM     36  C   UNL A   1      36.433  31.195  28.295  1.00  0.00     0.039 A 
ATOM     37  C   UNL A   1      37.547  31.667  28.984  1.00  0.00     0.014 A 
ATOM     38  C   UNL A   1      36.346  29.815  28.031  1.00  0.00     0.014 A 
ATOM     39  C   UNL A   1      38.602  30.825  29.282  1.00  0.00     0.010 A 
ATOM     40  C   UNL A   1      37.388  28.954  28.363  1.00  0.00     0.010 A 
ATOM     41  C   UNL A   1      38.546  29.478  28.925  1.00  0.00    -0.014 A 
BRANCH  41  42
ATOM     42  C   UNL A   1      39.761  28.706  29.150  1.00  0.00     0.031 A 
ATOM     43  C   UNL A   1      40.167  28.516  30.573  1.00  0.00     0.074 A 
ATOM     44  C   UNL A   1      40.521  28.219  28.151  1.00  0.00     0.049 A 
ATOM     45  N   UNL A   1      41.222  28.969  31.173  1.00  0.00    -0.248 NA
ATOM     46  C   UNL A   1      39.232  27.805  31.455  1.00  0.00     0.031 C 
ATOM     47  C   UNL A   1      40.217  28.094  26.724  1.00  0.00     0.029 A 
ATOM     48  N   UNL A   1      41.757  27.662  28.253  1.00  0.00    -0.354 N 
ATOM     49  C   UNL A   1      41.162  28.490  32.481  1.00  0.00     0.074 A 
ATOM     50  C   UNL A   1      39.876  27.853  32.622  1.00  0.00     0.031 C 
ATOM     51  C   UNL A   1      41.143  27.300  26.141  1.00  0.00     0.029 A 
ATOM     52  C   UNL A   1      42.181  27.003  27.114  1.00  0.00     0.049 A 
ATOM     53  H   UNL A   1      42.304  27.722  29.070  1.00  0.00     0.167 HD
ATOM     54  C   UNL A   1      42.236  28.515  33.317  1.00  0.00     0.037 A 
ATOM     55  C   UNL A   1      43.276  26.216  27.012  1.00  0.00     0.037 A 
ATOM     56  C   UNL A   1      43.222  29.477  32.907  1.00  0.00     0.049 A 
ATOM     57  C   UNL A   1      44.211  26.599  28.099  1.00  0.00     0.074 A 
ATOM     58  C   UNL A   1      43.236  30.851  32.765  1.00  0.00     0.029 A 
ATOM     59  N   UNL A   1      44.352  29.041  32.262  1.00  0.00    -0.354 N 
ATOM     60  N   UNL A   1      44.852  27.733  28.141  1.00  0.00    -0.248 NA
ATOM     61  C   UNL A   1      44.105  25.891  29.366  1.00  0.00     0.031 C 
ATOM     62  C   UNL A   1      44.053  31.095  31.621  1.00  0.00     0.029 A 
ATOM     63  C   UNL A   1      44.507  29.857  31.171  1.00  0.00     0.049 A 
ATOM     64  H   UNL A   1      44.934  28.293  32.529  1.00  0.00     0.167 HD
ATOM     65  C   UNL A   1      44.867  28.080  29.483  1.00  0.00     0.074 A 
ATOM     66  C   UNL A   1      44.467  26.870  30.196  1.00  0.00     0.031 C 
ATOM     67  C   UNL A   1      44.938  29.384  29.879  1.00  0.00     0.037 A 
BRANCH  54  68
ATOM     68  C   UNL A   1      42.519  27.460  34.354  1.00  0.00     0.064 A 
ATOM     69  C   UNL A   1      43.168  26.265  33.984  1.00  0.00     0.173 A 
ATOM     70  C   UNL A   1      41.915  27.459  35.628  1.00  0.00     0.173 A 
ATOM     71  F   UNL A   1      43.754  26.147  32.783  1.00  0.00    -0.203 F 
ATOM     72  C   UNL A   1      43.155  25.135  34.808  1.00  0.00     0.198 A 
ATOM     73  C   UNL A   1      41.947  26.347  36.468  1.00  0.00     0.198 A 
ATOM     74  F   UNL A   1      41.179  28.491  36.060  1.00  0.00    -0.203 F 
ATOM     75  F   UNL A   1      43.684  23.984  34.368  1.00  0.00    -0.200 F 
ATOM     76  C   UNL A   1      42.539  25.175  36.046  1.00  0.00     0.200 A 
ATOM     77  F   UNL A   1      41.327  26.400  37.655  1.00  0.00    -0.200 F 
ATOM     78  F   UNL A   1      42.473  24.078  36.810  1.00  0.00    -0.200 F 
ENDBRANCH  54  68
BRANCH  55  79
ATOM     79  C   UNL A   1      43.368  24.921  26.304  1.00  0.00     0.064 A 
ATOM     80  C   UNL A   1      44.318  24.721  25.292  1.00  0.00     0.173 A 
ATOM     81  C   UNL A   1      42.730  23.771  26.810  1.00  0.00     0.173 A 
ATOM     82  F   UNL A   1      45.001  25.762  24.793  1.00  0.00    -0.203 F 
ATOM     83  C   UNL A   1      44.633  23.439  24.833  1.00  0.00     0.198 A 
ATOM     84  C   UNL A   1      43.041  22.494  26.346  1.00  0.00     0.198 A 
ATOM     85  F   UNL A   1      41.867  23.856  27.833  1.00  0.00    -0.203 F 
ATOM     86  F   UNL A   1      45.595  23.277  23.912  1.00  0.00    -0.200 F 
ATOM     87  C   UNL A   1      44.004  22.327  25.369  1.00  0.00     0.200 A 
ATOM     88  F   UNL A   1      42.453  21.425  26.901  1.00  0.00    -0.200 F 
ATOM     89  F   UNL A   1      44.355  21.094  24.977  1.00  0.00    -0.200 F 
ENDBRANCH  55  79
BRANCH  67  90
ATOM     90  C   UNL A   1      45.219  30.418  28.828  1.00  0.00     0.064 A 
ATOM     91  C   UNL A   1      44.239  30.926  27.957  1.00  0.00     0.173 A 
ATOM     92  C   UNL A   1      46.485  31.016  28.792  1.00  0.00     0.173 A 
ATOM     93  F   UNL A   1      42.977  30.482  28.009  1.00  0.00    -0.203 F 
ATOM     94  C   UNL A   1      44.532  31.948  27.055  1.00  0.00     0.198 A 
ATOM     95  C   UNL A   1      46.765  32.061  27.915  1.00  0.00     0.198 A 
ATOM     96  F   UNL A   1      47.442  30.617  29.646  1.00  0.00    -0.203 F 
ATOM     97  F   UNL A   1      43.582  32.406  26.226  1.00  0.00    -0.200 F 
ATOM     98  C   UNL A   1      45.794  32.518  27.040  1.00  0.00     0.200 A 
ATOM     99  F   UNL A   1      47.971  32.646  27.939  1.00  0.00    -0.200 F 
ATOM    100  F   UNL A   1      46.065  33.528  26.201  1.00  0.00    -0.200 F 
ENDBRANCH  67  90
ENDBRANCH  41  42
ENDBRANCH  33  36
ENDBRANCH  31  32
ENDBRANCH  30  31
ENDBRANCH  29  30
ENDBRANCH  28  29
ENDBRANCH   3  28
TORSDOF 17
ENDMDL
MODEL 3
REMARK VINA RESULT:     -11.9      1.358      1.881
REMARK SMILES CC(=O)c1cn(CC(=O)NCC(=O)NCC(=O)NCCCCNC(=O)c2ccc(-c3c4nc(c(-c5c(F)c(F)c(F)c(F)c5F)c5ccc([nH]5)c(-c5c(F)c(F)c(F)c(F)c5F)c5nc(c(-c6c(F)c(F)c(F)c(F)c6F)c6ccc3[nH]6)C=C5)C=C4)cc2)c2ccccc12
REMARK SMILES IDX 16 1 17 2 18 3 15 5 14 6 12 7 13 8 11 10 10 11 8 12 9 13
REMARK SMILES IDX 7 15 6 16 4 17 5 18 94 19 89 20 93 21 90 22 92 23 91 24 2 25
REMARK SMILES IDX 1 26 3 27 19 28 20 29 21 30 22 31 23 32 24 33 25 35 26 36
REMARK SMILES IDX 27 37 88 38 28 39 87 40 29 41 30 42 31 43 81 44 32 45 86 46
REMARK SMILES IDX 80 47 82 48 33 49 85 50 79 51 78 52 34 54 66 55 46 56 65 57
REMARK SMILES IDX 47 58 50 59 64 60 83 61 48 62 49 63 63 65 84 66 51 67 35 68
REMARK SMILES IDX 36 69 44 70 37 71 38 72 42 73 45 74 39 75 40 76 43 77 41 78
REMARK SMILES IDX 67 79 68 80 76 81 69 82 70 83 74 84 77 85 71 86 72 87 75 88
REMARK SMILES IDX 73 89 52 90 53 91 61 92 54 93 55 94 59 95 62 96 56 97 57 98
REMARK SMILES IDX 60 99 58 100
REMARK H PARENT 18 4 14 9 10 14 23 34 82 53 50 64
REMARK Flexibility Score: inf
ROOT
ATOM      1  C   UNL A   1      37.103  22.307  24.446  1.00  0.00     0.239 C 
ATOM      2  O   UNL A   1      36.996  23.104  23.514  1.00  0.00    -0.273 OA
ATOM      3  N   UNL A   1      38.330  22.135  25.016  1.00  0.00    -0.355 N 
ATOM      4  H   UNL A   1      39.033  22.766  24.742  1.00  0.00     0.163 HD
ENDROOT
BRANCH   1   5
ATOM      5  C   UNL A   1      35.881  21.628  25.080  1.00  0.00     0.216 C 
BRANCH   5   6
ATOM      6  N   UNL A   1      35.460  22.058  26.401  1.00  0.00    -0.346 N 
ATOM      7  C   UNL A   1      34.201  22.185  26.913  1.00  0.00     0.239 C 
ATOM      8  O   UNL A   1      34.107  22.384  28.128  1.00  0.00    -0.273 OA
ATOM      9  H   UNL A   1      36.190  22.292  27.019  1.00  0.00     0.164 HD
BRANCH   7  10
ATOM     10  C   UNL A   1      32.921  21.984  26.059  1.00  0.00     0.216 C 
BRANCH  10  11
ATOM     11  N   UNL A   1      31.655  22.253  26.733  1.00  0.00    -0.345 N 
ATOM     12  C   UNL A   1      30.701  23.210  26.555  1.00  0.00     0.240 C 
ATOM     13  O   UNL A   1      29.813  23.272  27.412  1.00  0.00    -0.273 OA
ATOM     14  H   UNL A   1      31.449  21.620  27.457  1.00  0.00     0.164 HD
BRANCH  12  15
ATOM     15  C   UNL A   1      30.650  24.096  25.322  1.00  0.00     0.222 C 
BRANCH  15  16
ATOM     16  N   UNL A   1      31.575  25.218  25.340  1.00  0.00    -0.337 N 
ATOM     17  C   UNL A   1      32.455  27.132  26.065  1.00  0.00     0.043 A 
ATOM     18  C   UNL A   1      31.840  25.959  26.461  1.00  0.00     0.099 A 
ATOM     19  C   UNL A   1      32.811  26.960  24.688  1.00  0.00     0.010 A 
ATOM     20  C   UNL A   1      32.254  25.744  24.260  1.00  0.00     0.049 A 
ATOM     21  C   UNL A   1      33.507  27.745  23.744  1.00  0.00     0.011 A 
ATOM     22  C   UNL A   1      32.349  25.306  22.929  1.00  0.00     0.027 A 
ATOM     23  C   UNL A   1      33.600  27.319  22.416  1.00  0.00     0.001 A 
ATOM     24  C   UNL A   1      33.024  26.119  22.015  1.00  0.00     0.002 A 
BRANCH  17  25
ATOM     25  C   UNL A   1      32.600  28.283  26.950  1.00  0.00     0.161 C 
ATOM     26  C   UNL A   1      33.994  28.787  27.232  1.00  0.00     0.093 C 
ATOM     27  O   UNL A   1      31.617  28.929  27.322  1.00  0.00    -0.294 OA
ENDBRANCH  17  25
ENDBRANCH  15  16
ENDBRANCH  12  15
ENDBRANCH  10  11
ENDBRANCH   7  10
ENDBRANCH   5   6
ENDBRANCH   1   5
BRANCH   3  28
ATOM     28  C   UNL A   1      38.708  21.130  25.974  1.00  0.00     0.116 C 
BRANCH  28  29
ATOM     29  C   UNL A   1      40.215  21.088  26.143  1.00  0.00     0.023 C 
BRANCH  29  30
ATOM     30  C   UNL A   1      40.777  19.673  26.032  1.00  0.00     0.023 C 
BRANCH  30  31
ATOM     31  C   UNL A   1      42.213  19.538  26.557  1.00  0.00     0.116 C 
BRANCH  31  32
ATOM     32  N   UNL A   1      43.206  19.570  25.501  1.00  0.00    -0.352 N 
ATOM     33  C   UNL A   1      44.038  20.538  25.010  1.00  0.00     0.251 C 
ATOM     34  H   UNL A   1      43.303  18.708  25.037  1.00  0.00     0.163 HD
ATOM     35  O   UNL A   1      44.807  20.195  24.108  1.00  0.00    -0.269 OA
BRANCH  33  36
ATOM     36  C   UNL A   1      44.036  21.958  25.451  1.00  0.00     0.039 A 
ATOM     37  C   UNL A   1      44.750  22.458  26.537  1.00  0.00     0.014 A 
ATOM     38  C   UNL A   1      43.174  22.829  24.759  1.00  0.00     0.014 A 
ATOM     39  C   UNL A   1      44.516  23.737  27.007  1.00  0.00     0.010 A 
ATOM     40  C   UNL A   1      42.963  24.131  25.204  1.00  0.00     0.010 A 
ATOM     41  C   UNL A   1      43.583  24.557  26.372  1.00  0.00    -0.014 A 
BRANCH  41  42
ATOM     42  C   UNL A   1      43.302  25.829  27.025  1.00  0.00     0.031 A 
ATOM     43  C   UNL A   1      44.275  26.930  26.769  1.00  0.00     0.074 A 
ATOM     44  C   UNL A   1      42.258  26.017  27.853  1.00  0.00     0.049 A 
ATOM     45  N   UNL A   1      45.068  27.512  27.613  1.00  0.00    -0.248 NA
ATOM     46  C   UNL A   1      44.445  27.376  25.379  1.00  0.00     0.031 C 
ATOM     47  C   UNL A   1      41.082  25.175  28.077  1.00  0.00     0.029 A 
ATOM     48  N   UNL A   1      42.024  27.093  28.651  1.00  0.00    -0.354 N 
ATOM     49  C   UNL A   1      45.747  28.495  26.895  1.00  0.00     0.074 A 
ATOM     50  C   UNL A   1      45.388  28.309  25.511  1.00  0.00     0.031 C 
ATOM     51  C   UNL A   1      40.160  25.876  28.777  1.00  0.00     0.029 A 
ATOM     52  C   UNL A   1      40.748  27.141  29.182  1.00  0.00     0.049 A 
ATOM     53  H   UNL A   1      42.705  27.780  28.836  1.00  0.00     0.167 HD
ATOM     54  C   UNL A   1      46.442  29.495  27.505  1.00  0.00     0.037 A 
ATOM     55  C   UNL A   1      40.203  28.184  29.849  1.00  0.00     0.037 A 
ATOM     56  C   UNL A   1      46.795  29.164  28.858  1.00  0.00     0.049 A 
ATOM     57  C   UNL A   1      41.315  29.009  30.384  1.00  0.00     0.074 A 
ATOM     58  C   UNL A   1      47.581  28.191  29.445  1.00  0.00     0.029 A 
ATOM     59  N   UNL A   1      46.068  29.704  29.889  1.00  0.00    -0.354 N 
ATOM     60  N   UNL A   1      42.110  28.624  31.343  1.00  0.00    -0.248 NA
ATOM     61  C   UNL A   1      41.813  30.097  29.555  1.00  0.00     0.031 C 
ATOM     62  C   UNL A   1      46.904  27.851  30.654  1.00  0.00     0.029 A 
ATOM     63  C   UNL A   1      45.776  28.665  30.735  1.00  0.00     0.049 A 
ATOM     64  H   UNL A   1      45.808  30.648  29.998  1.00  0.00     0.167 HD
ATOM     65  C   UNL A   1      43.355  29.122  30.990  1.00  0.00     0.074 A 
ATOM     66  C   UNL A   1      43.094  30.089  29.926  1.00  0.00     0.031 C 
ATOM     67  C   UNL A   1      44.505  28.514  31.399  1.00  0.00     0.037 A 
BRANCH  54  68
ATOM     68  C   UNL A   1      46.554  30.894  26.960  1.00  0.00     0.064 A 
ATOM     69  C   UNL A   1      47.804  31.544  26.939  1.00  0.00     0.173 A 
ATOM     70  C   UNL A   1      45.432  31.719  26.733  1.00  0.00     0.173 A 
ATOM     71  F   UNL A   1      48.935  30.861  27.169  1.00  0.00    -0.203 F 
ATOM     72  C   UNL A   1      47.911  32.928  26.766  1.00  0.00     0.198 A 
ATOM     73  C   UNL A   1      45.546  33.089  26.511  1.00  0.00     0.198 A 
ATOM     74  F   UNL A   1      44.181  31.248  26.828  1.00  0.00    -0.203 F 
ATOM     75  F   UNL A   1      49.109  33.521  26.868  1.00  0.00    -0.200 F 
ATOM     76  C   UNL A   1      46.782  33.700  26.558  1.00  0.00     0.200 A 
ATOM     77  F   UNL A   1      44.438  33.822  26.331  1.00  0.00    -0.200 F 
ATOM     78  F   UNL A   1      46.876  35.031  26.452  1.00  0.00    -0.200 F 
ENDBRANCH  54  68
BRANCH  55  79
ATOM     79  C   UNL A   1      38.829  28.707  29.697  1.00  0.00     0.064 A 
ATOM     80  C   UNL A   1      38.018  28.935  30.819  1.00  0.00     0.173 A 
ATOM     81  C   UNL A   1      38.397  29.268  28.478  1.00  0.00     0.173 A 
ATOM     82  F   UNL A   1      38.388  28.473  32.022  1.00  0.00    -0.203 F 
ATOM     83  C   UNL A   1      36.856  29.707  30.732  1.00  0.00     0.198 A 
ATOM     84  C   UNL A   1      37.234  30.032  28.393  1.00  0.00     0.198 A 
ATOM     85  F   UNL A   1      39.146  29.170  27.372  1.00  0.00    -0.203 F 
ATOM     86  F   UNL A   1      36.140  29.962  31.837  1.00  0.00    -0.200 F 
ATOM     87  C   UNL A   1      36.473  30.265  29.523  1.00  0.00     0.200 A 
ATOM     88  F   UNL A   1      36.896  30.597  27.226  1.00  0.00    -0.200 F 
ATOM     89  F   UNL A   1      35.396  31.060  29.454  1.00  0.00    -0.200 F 
ENDBRANCH  55  79
BRANCH  67  90
ATOM     90  C   UNL A   1      44.392  27.419  32.420  1.00  0.00     0.064 A 
ATOM     91  C   UNL A   1      44.214  26.064  32.089  1.00  0.00     0.173 A 
ATOM     92  C   UNL A   1      44.606  27.730  33.769  1.00  0.00     0.173 A 
ATOM     93  F   UNL A   1      44.114  25.676  30.811  1.00  0.00    -0.203 F 
ATOM     94  C   UNL A   1      44.199  25.075  33.071  1.00  0.00     0.198 A 
ATOM     95  C   UNL A   1      44.626  26.736  34.744  1.00  0.00     0.198 A 
ATOM     96  F   UNL A   1      44.846  28.999  34.137  1.00  0.00    -0.203 F 
ATOM     97  F   UNL A   1      44.017  23.790  32.730  1.00  0.00    -0.200 F 
ATOM     98  C   UNL A   1      44.411  25.412  34.397  1.00  0.00     0.200 A 
ATOM     99  F   UNL A   1      44.884  27.059  36.019  1.00  0.00    -0.200 F 
ATOM    100  F   UNL A   1      44.437  24.457  35.338  1.00  0.00    -0.200 F 
ENDBRANCH  67  90
ENDBRANCH  41  42
ENDBRANCH  33  36
ENDBRANCH  31  32
ENDBRANCH  30  31
ENDBRANCH  29  30
ENDBRANCH  28  29
ENDBRANCH   3  28
TORSDOF 17
ENDMDL
