MODEL 1
REMARK VINA RESULT:     -14.5      0.000      0.000
REMARK SMILES Cc1ccccc1-c1c(Cl)ccc2c1C=C(C(=O)NCCCCNC(=O)c1ccc(-c3c4nc(c(-c5c(F)c(F)c(F)c(F)c5F)c5ccc([nH]5)c(-c5c(F)c(F)c(F)c(F)c5F)c5nc(c(-c6c(F)c(F)c(F)c(F)c6F)c6ccc3[nH]6)C=C5)C=C4)cc1)[C@@H](C(F)(F)F)O2
REMARK SMILES IDX 22 1 21 2 20 3 19 4 17 5 18 6 16 8 8 9 9 10 14 11 10 12
REMARK SMILES IDX 11 13 13 14 15 15 12 16 95 17 90 18 7 19 1 20 2 21 3 22 4 23
REMARK SMILES IDX 6 24 5 25 91 26 92 27 93 28 94 29 23 30 24 31 25 32 26 34
REMARK SMILES IDX 27 35 28 36 89 37 29 38 88 39 30 40 31 41 32 42 82 43 33 44
REMARK SMILES IDX 87 45 81 46 83 47 34 48 86 49 80 50 79 51 35 53 67 54 47 55
REMARK SMILES IDX 66 56 48 57 51 58 65 59 84 60 49 61 50 62 64 64 85 65 52 66
REMARK SMILES IDX 36 67 37 68 45 69 38 70 39 71 43 72 46 73 40 74 41 75 44 76
REMARK SMILES IDX 42 77 68 78 69 79 77 80 70 81 71 82 75 83 78 84 72 85 73 86
REMARK SMILES IDX 76 87 74 88 53 89 54 90 62 91 55 92 56 93 60 94 63 95 57 96
REMARK SMILES IDX 58 97 61 98 59 99
REMARK H PARENT 19 7 24 33 83 52 51 63
REMARK Flexibility Score: inf
ROOT
ATOM      1  C   UNL A   1      39.291  21.305  26.013  1.00  0.00     0.023 C 
ENDROOT
BRANCH   1   2
ATOM      2  C   UNL A   1      37.877  21.785  25.668  1.00  0.00     0.023 C 
BRANCH   2   3
ATOM      3  C   UNL A   1      37.702  23.299  25.504  1.00  0.00     0.116 C 
BRANCH   3   4
ATOM      4  N   UNL A   1      36.894  23.646  24.354  1.00  0.00    -0.352 N 
ATOM      5  C   UNL A   1      35.568  23.898  24.213  1.00  0.00     0.251 C 
ATOM      6  O   UNL A   1      35.150  24.071  23.068  1.00  0.00    -0.270 OA
ATOM      7  H   UNL A   1      37.403  23.710  23.513  1.00  0.00     0.163 HD
BRANCH   5   8
ATOM      8  C   UNL A   1      34.631  23.949  25.392  1.00  0.00     0.067 C 
ATOM      9  C   UNL A   1      31.691  26.156  24.738  1.00  0.00     0.012 A 
ATOM     10  C   UNL A   1      30.533  26.029  23.929  1.00  0.00     0.049 A 
ATOM     11  C   UNL A   1      32.511  25.007  24.886  1.00  0.00     0.027 A 
ATOM     12  Cl  UNL A   1      29.522  27.389  23.552  1.00  0.00    -0.084 Cl
ATOM     13  C   UNL A   1      30.155  24.801  23.378  1.00  0.00     0.025 A 
ATOM     14  C   UNL A   1      32.068  23.763  24.395  1.00  0.00     0.128 A 
ATOM     15  C   UNL A   1      33.880  25.066  25.436  1.00  0.00     0.026 C 
ATOM     16  C   UNL A   1      30.903  23.662  23.641  1.00  0.00     0.049 A 
ATOM     17  O   UNL A   1      32.734  22.580  24.600  1.00  0.00    -0.475 OA
ATOM     18  C   UNL A   1      33.868  22.634  25.495  1.00  0.00     0.314 C 
BRANCH   9  19
ATOM     19  C   UNL A   1      31.943  27.409  25.496  1.00  0.00    -0.013 A 
ATOM     20  C   UNL A   1      33.176  28.619  23.602  1.00  0.00     0.045 C 
ATOM     21  C   UNL A   1      32.613  28.542  24.991  1.00  0.00    -0.043 A 
ATOM     22  C   UNL A   1      32.812  29.661  25.826  1.00  0.00     0.004 A 
ATOM     23  C   UNL A   1      32.330  29.684  27.133  1.00  0.00     0.000 A 
ATOM     24  C   UNL A   1      31.474  27.460  26.830  1.00  0.00     0.009 A 
ATOM     25  C   UNL A   1      31.653  28.584  27.635  1.00  0.00     0.001 A 
ENDBRANCH   9  19
BRANCH  18  26
ATOM     26  C   UNL A   1      33.464  22.337  26.949  1.00  0.00     0.429 C 
ATOM     27  F   UNL A   1      33.565  21.018  27.235  1.00  0.00    -0.167 F 
ATOM     28  F   UNL A   1      34.278  22.989  27.819  1.00  0.00    -0.167 F 
ATOM     29  F   UNL A   1      32.197  22.716  27.235  1.00  0.00    -0.167 F 
ENDBRANCH  18  26
ENDBRANCH   5   8
ENDBRANCH   3   4
ENDBRANCH   2   3
ENDBRANCH   1   2
BRANCH   1  30
ATOM     30  C   UNL A   1      40.052  22.167  27.015  1.00  0.00     0.116 C 
BRANCH  30  31
ATOM     31  N   UNL A   1      41.363  22.615  26.569  1.00  0.00    -0.352 N 
ATOM     32  C   UNL A   1      41.847  23.896  26.350  1.00  0.00     0.251 C 
ATOM     33  H   UNL A   1      42.009  21.894  26.394  1.00  0.00     0.163 HD
ATOM     34  O   UNL A   1      42.961  24.043  25.874  1.00  0.00    -0.269 OA
BRANCH  32  35
ATOM     35  C   UNL A   1      41.087  25.088  26.821  1.00  0.00     0.039 A 
ATOM     36  C   UNL A   1      41.082  26.232  26.005  1.00  0.00     0.014 A 
ATOM     37  C   UNL A   1      40.542  25.158  28.097  1.00  0.00     0.014 A 
ATOM     38  C   UNL A   1      40.784  27.477  26.560  1.00  0.00     0.010 A 
ATOM     39  C   UNL A   1      40.353  26.393  28.679  1.00  0.00     0.010 A 
ATOM     40  C   UNL A   1      40.549  27.556  27.929  1.00  0.00    -0.014 A 
BRANCH  40  41
ATOM     41  C   UNL A   1      40.648  28.782  28.710  1.00  0.00     0.031 A 
ATOM     42  C   UNL A   1      39.534  29.747  28.761  1.00  0.00     0.074 A 
ATOM     43  C   UNL A   1      41.682  28.889  29.575  1.00  0.00     0.049 A 
ATOM     44  N   UNL A   1      39.622  30.937  29.251  1.00  0.00    -0.248 NA
ATOM     45  C   UNL A   1      38.220  29.456  28.206  1.00  0.00     0.031 C 
ATOM     46  C   UNL A   1      41.779  29.753  30.746  1.00  0.00     0.029 A 
ATOM     47  N   UNL A   1      42.961  28.323  29.452  1.00  0.00    -0.354 N 
ATOM     48  C   UNL A   1      38.345  31.441  29.368  1.00  0.00     0.074 A 
ATOM     49  C   UNL A   1      37.532  30.533  28.596  1.00  0.00     0.031 C 
ATOM     50  C   UNL A   1      43.072  29.899  31.073  1.00  0.00     0.029 A 
ATOM     51  C   UNL A   1      43.847  29.267  30.019  1.00  0.00     0.049 A 
ATOM     52  H   UNL A   1      43.193  27.452  29.054  1.00  0.00     0.167 HD
ATOM     53  C   UNL A   1      38.132  32.479  30.232  1.00  0.00     0.037 A 
ATOM     54  C   UNL A   1      44.779  29.909  29.256  1.00  0.00     0.037 A 
ATOM     55  C   UNL A   1      39.411  33.010  30.723  1.00  0.00     0.049 A 
ATOM     56  C   UNL A   1      44.628  31.411  29.254  1.00  0.00     0.074 A 
ATOM     57  C   UNL A   1      40.092  32.878  31.923  1.00  0.00     0.029 A 
ATOM     58  N   UNL A   1      40.314  33.567  29.820  1.00  0.00    -0.354 N 
ATOM     59  N   UNL A   1      43.522  32.030  29.562  1.00  0.00    -0.248 NA
ATOM     60  C   UNL A   1      45.697  32.331  28.877  1.00  0.00     0.031 C 
ATOM     61  C   UNL A   1      41.429  33.304  31.720  1.00  0.00     0.029 A 
ATOM     62  C   UNL A   1      41.557  33.716  30.404  1.00  0.00     0.049 A 
ATOM     63  H   UNL A   1      40.096  33.819  28.894  1.00  0.00     0.167 HD
ATOM     64  C   UNL A   1      43.700  33.381  29.424  1.00  0.00     0.074 A 
ATOM     65  C   UNL A   1      45.083  33.519  29.007  1.00  0.00     0.031 C 
ATOM     66  C   UNL A   1      42.682  34.262  29.655  1.00  0.00     0.037 A 
BRANCH  53  67
ATOM     67  C   UNL A   1      36.793  32.847  30.867  1.00  0.00     0.064 A 
ATOM     68  C   UNL A   1      35.794  33.501  30.105  1.00  0.00     0.173 A 
ATOM     69  C   UNL A   1      36.449  32.680  32.224  1.00  0.00     0.173 A 
ATOM     70  F   UNL A   1      35.909  33.649  28.779  1.00  0.00    -0.203 F 
ATOM     71  C   UNL A   1      34.628  34.032  30.672  1.00  0.00     0.198 A 
ATOM     72  C   UNL A   1      35.295  33.230  32.796  1.00  0.00     0.198 A 
ATOM     73  F   UNL A   1      37.176  31.938  33.057  1.00  0.00    -0.203 F 
ATOM     74  F   UNL A   1      33.739  34.666  29.892  1.00  0.00    -0.200 F 
ATOM     75  C   UNL A   1      34.391  33.921  32.024  1.00  0.00     0.200 A 
ATOM     76  F   UNL A   1      35.073  33.077  34.109  1.00  0.00    -0.200 F 
ATOM     77  F   UNL A   1      33.291  34.451  32.574  1.00  0.00    -0.200 F 
ENDBRANCH  53  67
BRANCH  54  78
ATOM     78  C   UNL A   1      45.236  29.095  28.098  1.00  0.00     0.064 A 
ATOM     79  C   UNL A   1      46.216  28.109  28.325  1.00  0.00     0.173 A 
ATOM     80  C   UNL A   1      44.467  28.988  26.933  1.00  0.00     0.173 A 
ATOM     81  F   UNL A   1      46.975  28.161  29.433  1.00  0.00    -0.203 F 
ATOM     82  C   UNL A   1      46.334  26.999  27.492  1.00  0.00     0.198 A 
ATOM     83  C   UNL A   1      44.601  27.882  26.090  1.00  0.00     0.198 A 
ATOM     84  F   UNL A   1      43.505  29.883  26.670  1.00  0.00    -0.203 F 
ATOM     85  F   UNL A   1      47.190  26.016  27.807  1.00  0.00    -0.200 F 
ATOM     86  C   UNL A   1      45.506  26.872  26.391  1.00  0.00     0.200 A 
ATOM     87  F   UNL A   1      43.778  27.740  25.042  1.00  0.00    -0.200 F 
ATOM     88  F   UNL A   1      45.544  25.759  25.645  1.00  0.00    -0.200 F 
ENDBRANCH  54  78
BRANCH  66  89
ATOM     89  C   UNL A   1      42.676  35.729  29.292  1.00  0.00     0.064 A 
ATOM     90  C   UNL A   1      43.406  36.714  29.981  1.00  0.00     0.173 A 
ATOM     91  C   UNL A   1      42.031  36.172  28.110  1.00  0.00     0.173 A 
ATOM     92  F   UNL A   1      44.166  36.406  31.041  1.00  0.00    -0.203 F 
ATOM     93  C   UNL A   1      43.433  38.048  29.562  1.00  0.00     0.198 A 
ATOM     94  C   UNL A   1      42.111  37.490  27.661  1.00  0.00     0.198 A 
ATOM     95  F   UNL A   1      41.329  35.331  27.337  1.00  0.00    -0.203 F 
ATOM     96  F   UNL A   1      44.109  38.953  30.281  1.00  0.00    -0.200 F 
ATOM     97  C   UNL A   1      42.796  38.432  28.398  1.00  0.00     0.200 A 
ATOM     98  F   UNL A   1      41.535  37.834  26.501  1.00  0.00    -0.200 F 
ATOM     99  F   UNL A   1      42.865  39.701  27.974  1.00  0.00    -0.200 F 
ENDBRANCH  66  89
ENDBRANCH  40  41
ENDBRANCH  32  35
ENDBRANCH  30  31
ENDBRANCH   1  30
TORSDOF 13
ENDMDL
MODEL 2
REMARK VINA RESULT:     -14.4      4.102      9.957
REMARK SMILES Cc1ccccc1-c1c(Cl)ccc2c1C=C(C(=O)NCCCCNC(=O)c1ccc(-c3c4nc(c(-c5c(F)c(F)c(F)c(F)c5F)c5ccc([nH]5)c(-c5c(F)c(F)c(F)c(F)c5F)c5nc(c(-c6c(F)c(F)c(F)c(F)c6F)c6ccc3[nH]6)C=C5)C=C4)cc1)[C@@H](C(F)(F)F)O2
REMARK SMILES IDX 22 1 21 2 20 3 19 4 17 5 18 6 16 8 8 9 9 10 14 11 10 12
REMARK SMILES IDX 11 13 13 14 15 15 12 16 95 17 90 18 7 19 1 20 2 21 3 22 4 23
REMARK SMILES IDX 6 24 5 25 91 26 92 27 93 28 94 29 23 30 24 31 25 32 26 34
REMARK SMILES IDX 27 35 28 36 89 37 29 38 88 39 30 40 31 41 32 42 82 43 33 44
REMARK SMILES IDX 87 45 81 46 83 47 34 48 86 49 80 50 79 51 35 53 67 54 47 55
REMARK SMILES IDX 66 56 48 57 51 58 65 59 84 60 49 61 50 62 64 64 85 65 52 66
REMARK SMILES IDX 36 67 37 68 45 69 38 70 39 71 43 72 46 73 40 74 41 75 44 76
REMARK SMILES IDX 42 77 68 78 69 79 77 80 70 81 71 82 75 83 78 84 72 85 73 86
REMARK SMILES IDX 76 87 74 88 53 89 54 90 62 91 55 92 56 93 60 94 63 95 57 96
REMARK SMILES IDX 58 97 61 98 59 99
REMARK H PARENT 19 7 24 33 83 52 51 63
REMARK Flexibility Score: inf
ROOT
ATOM      1  C   UNL A   1      32.889  31.045  26.986  1.00  0.00     0.023 C 
ENDROOT
BRANCH   1   2
ATOM      2  C   UNL A   1      31.850  29.919  27.031  1.00  0.00     0.023 C 
BRANCH   2   3
ATOM      3  C   UNL A   1      32.325  28.589  27.626  1.00  0.00     0.116 C 
BRANCH   3   4
ATOM      4  N   UNL A   1      31.366  27.520  27.439  1.00  0.00    -0.352 N 
ATOM      5  C   UNL A   1      31.124  26.682  26.400  1.00  0.00     0.251 C 
ATOM      6  O   UNL A   1      30.157  25.928  26.502  1.00  0.00    -0.270 OA
ATOM      7  H   UNL A   1      30.775  27.375  28.214  1.00  0.00     0.163 HD
BRANCH   5   8
ATOM      8  C   UNL A   1      31.981  26.674  25.160  1.00  0.00     0.067 C 
ATOM      9  C   UNL A   1      33.213  23.246  24.342  1.00  0.00     0.012 A 
ATOM     10  C   UNL A   1      32.593  22.081  23.821  1.00  0.00     0.049 A 
ATOM     11  C   UNL A   1      32.454  24.446  24.337  1.00  0.00     0.027 A 
ATOM     12  Cl  UNL A   1      33.353  20.523  23.895  1.00  0.00    -0.084 Cl
ATOM     13  C   UNL A   1      31.324  22.127  23.233  1.00  0.00     0.025 A 
ATOM     14  C   UNL A   1      31.217  24.488  23.665  1.00  0.00     0.128 A 
ATOM     15  C   UNL A   1      32.845  25.642  25.108  1.00  0.00     0.026 C 
ATOM     16  C   UNL A   1      30.653  23.337  23.124  1.00  0.00     0.049 A 
ATOM     17  O   UNL A   1      30.475  25.632  23.503  1.00  0.00    -0.475 OA
ATOM     18  C   UNL A   1      31.101  26.863  23.930  1.00  0.00     0.314 C 
BRANCH   9  19
ATOM     19  C   UNL A   1      34.642  23.216  24.748  1.00  0.00    -0.013 A 
ATOM     20  C   UNL A   1      34.197  22.951  27.259  1.00  0.00     0.045 C 
ATOM     21  C   UNL A   1      35.107  23.077  26.072  1.00  0.00    -0.043 A 
ATOM     22  C   UNL A   1      36.494  23.093  26.326  1.00  0.00     0.004 A 
ATOM     23  C   UNL A   1      37.419  23.210  25.291  1.00  0.00     0.000 A 
ATOM     24  C   UNL A   1      35.606  23.343  23.720  1.00  0.00     0.009 A 
ATOM     25  C   UNL A   1      36.975  23.328  23.983  1.00  0.00     0.001 A 
ENDBRANCH   9  19
BRANCH  18  26
ATOM     26  C   UNL A   1      31.879  27.537  22.787  1.00  0.00     0.429 C 
ATOM     27  F   UNL A   1      31.091  28.378  22.077  1.00  0.00    -0.167 F 
ATOM     28  F   UNL A   1      32.905  28.281  23.274  1.00  0.00    -0.167 F 
ATOM     29  F   UNL A   1      32.413  26.651  21.915  1.00  0.00    -0.167 F 
ENDBRANCH  18  26
ENDBRANCH   5   8
ENDBRANCH   3   4
ENDBRANCH   2   3
ENDBRANCH   1   2
BRANCH   1  30
ATOM     30  C   UNL A   1      34.344  30.603  27.110  1.00  0.00     0.116 C 
BRANCH  30  31
ATOM     31  N   UNL A   1      35.231  31.578  27.729  1.00  0.00    -0.352 N 
ATOM     32  C   UNL A   1      36.433  31.401  28.395  1.00  0.00     0.251 C 
ATOM     33  H   UNL A   1      34.927  32.512  27.664  1.00  0.00     0.163 HD
ATOM     34  O   UNL A   1      36.969  32.358  28.931  1.00  0.00    -0.269 OA
BRANCH  32  35
ATOM     35  C   UNL A   1      37.148  30.094  28.343  1.00  0.00     0.039 A 
ATOM     36  C   UNL A   1      37.171  29.307  29.506  1.00  0.00     0.014 A 
ATOM     37  C   UNL A   1      37.925  29.723  27.253  1.00  0.00     0.014 A 
ATOM     38  C   UNL A   1      38.154  28.329  29.662  1.00  0.00     0.010 A 
ATOM     39  C   UNL A   1      38.965  28.838  27.441  1.00  0.00     0.010 A 
ATOM     40  C   UNL A   1      39.124  28.197  28.673  1.00  0.00    -0.014 A 
BRANCH  40  41
ATOM     41  C   UNL A   1      40.416  27.555  28.870  1.00  0.00     0.031 A 
ATOM     42  C   UNL A   1      40.604  26.118  28.593  1.00  0.00     0.074 A 
ATOM     43  C   UNL A   1      41.486  28.355  29.075  1.00  0.00     0.049 A 
ATOM     44  N   UNL A   1      41.645  25.440  28.937  1.00  0.00    -0.248 NA
ATOM     45  C   UNL A   1      39.589  25.308  27.936  1.00  0.00     0.031 C 
ATOM     46  C   UNL A   1      42.893  28.033  28.863  1.00  0.00     0.029 A 
ATOM     47  N   UNL A   1      41.506  29.615  29.694  1.00  0.00    -0.354 N 
ATOM     48  C   UNL A   1      41.590  24.223  28.293  1.00  0.00     0.074 A 
ATOM     49  C   UNL A   1      40.240  24.151  27.786  1.00  0.00     0.031 C 
ATOM     50  C   UNL A   1      43.646  28.889  29.571  1.00  0.00     0.029 A 
ATOM     51  C   UNL A   1      42.736  29.675  30.386  1.00  0.00     0.049 A 
ATOM     52  H   UNL A   1      40.808  30.310  29.655  1.00  0.00     0.167 HD
ATOM     53  C   UNL A   1      42.747  23.509  28.149  1.00  0.00     0.037 A 
ATOM     54  C   UNL A   1      42.778  29.737  31.749  1.00  0.00     0.037 A 
ATOM     55  C   UNL A   1      43.827  24.117  28.938  1.00  0.00     0.049 A 
ATOM     56  C   UNL A   1      43.521  28.585  32.384  1.00  0.00     0.074 A 
ATOM     57  C   UNL A   1      44.920  24.900  28.601  1.00  0.00     0.029 A 
ATOM     58  N   UNL A   1      43.705  24.192  30.324  1.00  0.00    -0.354 N 
ATOM     59  N   UNL A   1      43.731  27.442  31.792  1.00  0.00    -0.248 NA
ATOM     60  C   UNL A   1      44.057  28.618  33.741  1.00  0.00     0.031 C 
ATOM     61  C   UNL A   1      45.419  25.494  29.787  1.00  0.00     0.029 A 
ATOM     62  C   UNL A   1      44.645  25.057  30.850  1.00  0.00     0.049 A 
ATOM     63  H   UNL A   1      43.041  23.697  30.855  1.00  0.00     0.167 HD
ATOM     64  C   UNL A   1      44.393  26.600  32.643  1.00  0.00     0.074 A 
ATOM     65  C   UNL A   1      44.587  27.388  33.847  1.00  0.00     0.031 C 
ATOM     66  C   UNL A   1      44.710  25.321  32.281  1.00  0.00     0.037 A 
BRANCH  53  67
ATOM     67  C   UNL A   1      43.006  22.439  27.091  1.00  0.00     0.064 A 
ATOM     68  C   UNL A   1      42.326  21.198  27.146  1.00  0.00     0.173 A 
ATOM     69  C   UNL A   1      43.961  22.514  26.057  1.00  0.00     0.173 A 
ATOM     70  F   UNL A   1      41.313  20.991  27.997  1.00  0.00    -0.203 F 
ATOM     71  C   UNL A   1      42.654  20.111  26.325  1.00  0.00     0.198 A 
ATOM     72  C   UNL A   1      44.306  21.422  25.251  1.00  0.00     0.198 A 
ATOM     73  F   UNL A   1      44.575  23.651  25.735  1.00  0.00    -0.203 F 
ATOM     74  F   UNL A   1      41.986  18.955  26.454  1.00  0.00    -0.200 F 
ATOM     75  C   UNL A   1      43.664  20.214  25.395  1.00  0.00     0.200 A 
ATOM     76  F   UNL A   1      45.271  21.561  24.331  1.00  0.00    -0.200 F 
ATOM     77  F   UNL A   1      44.000  19.169  24.627  1.00  0.00    -0.200 F 
ENDBRANCH  53  67
BRANCH  54  78
ATOM     78  C   UNL A   1      41.588  30.410  32.333  1.00  0.00     0.064 A 
ATOM     79  C   UNL A   1      41.524  31.816  32.273  1.00  0.00     0.173 A 
ATOM     80  C   UNL A   1      40.392  29.716  32.554  1.00  0.00     0.173 A 
ATOM     81  F   UNL A   1      42.641  32.529  32.054  1.00  0.00    -0.203 F 
ATOM     82  C   UNL A   1      40.304  32.488  32.302  1.00  0.00     0.198 A 
ATOM     83  C   UNL A   1      39.172  30.396  32.600  1.00  0.00     0.198 A 
ATOM     84  F   UNL A   1      40.383  28.377  32.602  1.00  0.00    -0.203 F 
ATOM     85  F   UNL A   1      40.268  33.815  32.113  1.00  0.00    -0.200 F 
ATOM     86  C   UNL A   1      39.126  31.774  32.436  1.00  0.00     0.200 A 
ATOM     87  F   UNL A   1      38.028  29.704  32.697  1.00  0.00    -0.200 F 
ATOM     88  F   UNL A   1      37.946  32.404  32.362  1.00  0.00    -0.200 F 
ENDBRANCH  54  78
BRANCH  66  89
ATOM     89  C   UNL A   1      45.198  24.230  33.206  1.00  0.00     0.064 A 
ATOM     90  C   UNL A   1      44.429  23.114  33.581  1.00  0.00     0.173 A 
ATOM     91  C   UNL A   1      46.550  24.204  33.632  1.00  0.00     0.173 A 
ATOM     92  F   UNL A   1      43.176  22.949  33.140  1.00  0.00    -0.203 F 
ATOM     93  C   UNL A   1      44.950  22.089  34.378  1.00  0.00     0.198 A 
ATOM     94  C   UNL A   1      47.081  23.150  34.374  1.00  0.00     0.198 A 
ATOM     95  F   UNL A   1      47.404  25.187  33.315  1.00  0.00    -0.203 F 
ATOM     96  F   UNL A   1      44.160  21.070  34.743  1.00  0.00    -0.200 F 
ATOM     97  C   UNL A   1      46.276  22.101  34.763  1.00  0.00     0.200 A 
ATOM     98  F   UNL A   1      48.384  23.149  34.691  1.00  0.00    -0.200 F 
ATOM     99  F   UNL A   1      46.782  21.092  35.484  1.00  0.00    -0.200 F 
ENDBRANCH  66  89
ENDBRANCH  40  41
ENDBRANCH  32  35
ENDBRANCH  30  31
ENDBRANCH   1  30
TORSDOF 13
ENDMDL
MODEL 3
REMARK VINA RESULT:     -14.2      4.036      9.475
REMARK SMILES Cc1ccccc1-c1c(Cl)ccc2c1C=C(C(=O)NCCCCNC(=O)c1ccc(-c3c4nc(c(-c5c(F)c(F)c(F)c(F)c5F)c5ccc([nH]5)c(-c5c(F)c(F)c(F)c(F)c5F)c5nc(c(-c6c(F)c(F)c(F)c(F)c6F)c6ccc3[nH]6)C=C5)C=C4)cc1)[C@@H](C(F)(F)F)O2
REMARK SMILES IDX 22 1 21 2 20 3 19 4 17 5 18 6 16 8 8 9 9 10 14 11 10 12
REMARK SMILES IDX 11 13 13 14 15 15 12 16 95 17 90 18 7 19 1 20 2 21 3 22 4 23
REMARK SMILES IDX 6 24 5 25 91 26 92 27 93 28 94 29 23 30 24 31 25 32 26 34
REMARK SMILES IDX 27 35 28 36 89 37 29 38 88 39 30 40 31 41 32 42 82 43 33 44
REMARK SMILES IDX 87 45 81 46 83 47 34 48 86 49 80 50 79 51 35 53 67 54 47 55
REMARK SMILES IDX 66 56 48 57 51 58 65 59 84 60 49 61 50 62 64 64 85 65 52 66
REMARK SMILES IDX 36 67 37 68 45 69 38 70 39 71 43 72 46 73 40 74 41 75 44 76
REMARK SMILES IDX 42 77 68 78 69 79 77 80 70 81 71 82 75 83 78 84 72 85 73 86
REMARK SMILES IDX 76 87 74 88 53 89 54 90 62 91 55 92 56 93 60 94 63 95 57 96
REMARK SMILES IDX 58 97 61 98 59 99
REMARK H PARENT 19 7 24 33 83 52 51 63
REMARK Flexibility Score: inf
ROOT
ATOM      1  C   UNL A   1      35.214  30.824  28.563  1.00  0.00     0.023 C 
ENDROOT
BRANCH   1   2
ATOM      2  C   UNL A   1      35.576  29.654  27.641  1.00  0.00     0.023 C 
BRANCH   2   3
ATOM      3  C   UNL A   1      34.454  29.146  26.728  1.00  0.00     0.116 C 
BRANCH   3   4
ATOM      4  N   UNL A   1      33.313  28.649  27.470  1.00  0.00    -0.352 N 
ATOM      5  C   UNL A   1      32.268  27.860  27.116  1.00  0.00     0.251 C 
ATOM      6  O   UNL A   1      31.385  27.689  27.957  1.00  0.00    -0.270 OA
ATOM      7  H   UNL A   1      33.291  28.942  28.410  1.00  0.00     0.163 HD
BRANCH   5   8
ATOM      8  C   UNL A   1      32.167  27.227  25.752  1.00  0.00     0.067 C 
ATOM      9  C   UNL A   1      33.099  23.612  25.823  1.00  0.00     0.012 A 
ATOM     10  C   UNL A   1      32.462  22.447  26.320  1.00  0.00     0.049 A 
ATOM     11  C   UNL A   1      32.340  24.811  25.801  1.00  0.00     0.027 A 
ATOM     12  Cl  UNL A   1      33.317  20.951  26.532  1.00  0.00    -0.084 Cl
ATOM     13  C   UNL A   1      31.111  22.448  26.683  1.00  0.00     0.025 A 
ATOM     14  C   UNL A   1      30.961  24.771  26.089  1.00  0.00     0.128 A 
ATOM     15  C   UNL A   1      32.949  26.141  25.602  1.00  0.00     0.026 C 
ATOM     16  C   UNL A   1      30.354  23.601  26.533  1.00  0.00     0.049 A 
ATOM     17  O   UNL A   1      30.126  25.854  25.973  1.00  0.00    -0.475 OA
ATOM     18  C   UNL A   1      30.700  27.042  25.383  1.00  0.00     0.314 C 
BRANCH   9  19
ATOM     19  C   UNL A   1      34.461  23.529  25.232  1.00  0.00    -0.013 A 
ATOM     20  C   UNL A   1      33.681  22.991  22.850  1.00  0.00     0.045 C 
ATOM     21  C   UNL A   1      34.743  23.252  23.879  1.00  0.00    -0.043 A 
ATOM     22  C   UNL A   1      36.084  23.173  23.451  1.00  0.00     0.004 A 
ATOM     23  C   UNL A   1      37.140  23.395  24.332  1.00  0.00     0.000 A 
ATOM     24  C   UNL A   1      35.555  23.740  26.104  1.00  0.00     0.009 A 
ATOM     25  C   UNL A   1      36.875  23.686  25.661  1.00  0.00     0.001 A 
ENDBRANCH   9  19
BRANCH  18  26
ATOM     26  C   UNL A   1      30.502  27.077  23.857  1.00  0.00     0.429 C 
ATOM     27  F   UNL A   1      30.548  25.834  23.322  1.00  0.00    -0.167 F 
ATOM     28  F   UNL A   1      29.289  27.596  23.539  1.00  0.00    -0.167 F 
ATOM     29  F   UNL A   1      31.431  27.825  23.219  1.00  0.00    -0.167 F 
ENDBRANCH  18  26
ENDBRANCH   5   8
ENDBRANCH   3   4
ENDBRANCH   2   3
ENDBRANCH   1   2
BRANCH   1  30
ATOM     30  C   UNL A   1      34.899  32.141  27.862  1.00  0.00     0.116 C 
BRANCH  30  31
ATOM     31  N   UNL A   1      34.159  33.103  28.665  1.00  0.00    -0.352 N 
ATOM     32  C   UNL A   1      34.490  33.713  29.865  1.00  0.00     0.251 C 
ATOM     33  H   UNL A   1      33.283  33.361  28.298  1.00  0.00     0.163 HD
ATOM     34  O   UNL A   1      33.668  34.421  30.425  1.00  0.00    -0.269 OA
BRANCH  32  35
ATOM     35  C   UNL A   1      35.876  33.632  30.405  1.00  0.00     0.039 A 
ATOM     36  C   UNL A   1      36.930  34.076  29.588  1.00  0.00     0.014 A 
ATOM     37  C   UNL A   1      36.165  32.981  31.597  1.00  0.00     0.014 A 
ATOM     38  C   UNL A   1      38.230  33.634  29.834  1.00  0.00     0.010 A 
ATOM     39  C   UNL A   1      37.425  32.452  31.784  1.00  0.00     0.010 A 
ATOM     40  C   UNL A   1      38.439  32.718  30.860  1.00  0.00    -0.014 A 
BRANCH  40  41
ATOM     41  C   UNL A   1      39.611  31.859  30.968  1.00  0.00     0.031 A 
ATOM     42  C   UNL A   1      39.673  30.561  30.270  1.00  0.00     0.074 A 
ATOM     43  C   UNL A   1      40.725  32.390  31.519  1.00  0.00     0.049 A 
ATOM     44  N   UNL A   1      40.573  29.662  30.482  1.00  0.00    -0.248 NA
ATOM     45  C   UNL A   1      38.675  30.148  29.295  1.00  0.00     0.031 C 
ATOM     46  C   UNL A   1      42.103  31.940  31.355  1.00  0.00     0.029 A 
ATOM     47  N   UNL A   1      40.800  33.388  32.504  1.00  0.00    -0.354 N 
ATOM     48  C   UNL A   1      40.472  28.719  29.483  1.00  0.00     0.074 A 
ATOM     49  C   UNL A   1      39.207  29.006  28.850  1.00  0.00     0.031 C 
ATOM     50  C   UNL A   1      42.841  32.420  32.367  1.00  0.00     0.029 A 
ATOM     51  C   UNL A   1      41.921  33.052  33.296  1.00  0.00     0.049 A 
ATOM     52  H   UNL A   1      40.197  34.159  32.620  1.00  0.00     0.167 HD
ATOM     53  C   UNL A   1      41.550  27.916  29.234  1.00  0.00     0.037 A 
ATOM     54  C   UNL A   1      41.779  32.694  34.606  1.00  0.00     0.037 A 
ATOM     55  C   UNL A   1      42.571  28.089  30.276  1.00  0.00     0.049 A 
ATOM     56  C   UNL A   1      42.292  31.307  34.912  1.00  0.00     0.074 A 
ATOM     57  C   UNL A   1      43.782  28.763  30.312  1.00  0.00     0.029 A 
ATOM     58  N   UNL A   1      42.267  27.761  31.595  1.00  0.00    -0.354 N 
ATOM     59  N   UNL A   1      42.452  30.378  34.012  1.00  0.00    -0.248 NA
ATOM     60  C   UNL A   1      42.634  30.850  36.256  1.00  0.00     0.031 C 
ATOM     61  C   UNL A   1      44.174  28.891  31.668  1.00  0.00     0.029 A 
ATOM     62  C   UNL A   1      43.215  28.277  32.457  1.00  0.00     0.049 A 
ATOM     63  H   UNL A   1      41.483  27.235  31.875  1.00  0.00     0.167 HD
ATOM     64  C   UNL A   1      42.891  29.228  34.614  1.00  0.00     0.074 A 
ATOM     65  C   UNL A   1      43.003  29.579  36.017  1.00  0.00     0.031 C 
ATOM     66  C   UNL A   1      43.109  28.086  33.897  1.00  0.00     0.037 A 
BRANCH  53  67
ATOM     67  C   UNL A   1      41.832  27.188  27.922  1.00  0.00     0.064 A 
ATOM     68  C   UNL A   1      42.034  25.786  27.910  1.00  0.00     0.173 A 
ATOM     69  C   UNL A   1      42.010  27.794  26.662  1.00  0.00     0.173 A 
ATOM     70  F   UNL A   1      41.804  25.035  28.995  1.00  0.00    -0.203 F 
ATOM     71  C   UNL A   1      42.481  25.089  26.779  1.00  0.00     0.198 A 
ATOM     72  C   UNL A   1      42.479  27.103  25.537  1.00  0.00     0.198 A 
ATOM     73  F   UNL A   1      41.696  29.068  26.433  1.00  0.00    -0.203 F 
ATOM     74  F   UNL A   1      42.680  23.764  26.850  1.00  0.00    -0.200 F 
ATOM     75  C   UNL A   1      42.731  25.753  25.599  1.00  0.00     0.200 A 
ATOM     76  F   UNL A   1      42.681  27.770  24.391  1.00  0.00    -0.200 F 
ATOM     77  F   UNL A   1      43.184  25.095  24.524  1.00  0.00    -0.200 F 
ENDBRANCH  53  67
BRANCH  54  78
ATOM     78  C   UNL A   1      40.602  33.331  35.254  1.00  0.00     0.064 A 
ATOM     79  C   UNL A   1      39.421  32.573  35.380  1.00  0.00     0.173 A 
ATOM     80  C   UNL A   1      40.742  34.453  36.080  1.00  0.00     0.173 A 
ATOM     81  F   UNL A   1      39.241  31.482  34.616  1.00  0.00    -0.203 F 
ATOM     82  C   UNL A   1      38.485  32.849  36.373  1.00  0.00     0.198 A 
ATOM     83  C   UNL A   1      39.792  34.737  37.064  1.00  0.00     0.198 A 
ATOM     84  F   UNL A   1      41.851  35.203  36.023  1.00  0.00    -0.203 F 
ATOM     85  F   UNL A   1      37.436  32.031  36.548  1.00  0.00    -0.200 F 
ATOM     86  C   UNL A   1      38.686  33.914  37.233  1.00  0.00     0.200 A 
ATOM     87  F   UNL A   1      40.000  35.747  37.920  1.00  0.00    -0.200 F 
ATOM     88  F   UNL A   1      37.843  34.122  38.254  1.00  0.00    -0.200 F 
ENDBRANCH  54  78
BRANCH  66  89
ATOM     89  C   UNL A   1      43.338  26.706  34.472  1.00  0.00     0.064 A 
ATOM     90  C   UNL A   1      42.312  25.870  34.944  1.00  0.00     0.173 A 
ATOM     91  C   UNL A   1      44.625  26.114  34.421  1.00  0.00     0.173 A 
ATOM     92  F   UNL A   1      41.030  26.259  34.925  1.00  0.00    -0.203 F 
ATOM     93  C   UNL A   1      42.562  24.570  35.396  1.00  0.00     0.198 A 
ATOM     94  C   UNL A   1      44.860  24.797  34.814  1.00  0.00     0.198 A 
ATOM     95  F   UNL A   1      45.689  26.787  33.960  1.00  0.00    -0.203 F 
ATOM     96  F   UNL A   1      41.553  23.831  35.877  1.00  0.00    -0.200 F 
ATOM     97  C   UNL A   1      43.832  24.031  35.320  1.00  0.00     0.200 A 
ATOM     98  F   UNL A   1      46.086  24.271  34.681  1.00  0.00    -0.200 F 
ATOM     99  F   UNL A   1      44.057  22.769  35.707  1.00  0.00    -0.200 F 
ENDBRANCH  66  89
ENDBRANCH  40  41
ENDBRANCH  32  35
ENDBRANCH  30  31
ENDBRANCH   1  30
TORSDOF 13
ENDMDL
