MODEL 1
REMARK VINA RESULT:     -12.5      0.000      0.000
REMARK SMILES O=C(COc1cc(-c2ccccc2)nc(Nc2ccccc2Br)n1)NCCCCNC(=O)c1ccc(-c2c3nc(c(-c4c(F)c(F)c(F)c(F)c4F)c4ccc([nH]4)c(-c4c(F)c(F)c(F)c(F)c4F)c4nc(c(-c5c(F)c(F)c(F)c(F)c5F)c5ccc2[nH]5)C=C4)C=C3)cc1
REMARK SMILES IDX 26 1 25 2 1 3 2 4 3 6 4 7 5 8 6 9 24 10 7 11 15 12 14 13
REMARK SMILES IDX 8 14 9 15 13 16 10 17 12 18 11 19 16 20 17 22 18 23 22 24
REMARK SMILES IDX 19 25 21 26 23 27 20 28 27 29 28 30 29 31 30 32 31 33 32 35
REMARK SMILES IDX 33 36 34 37 95 38 35 39 94 40 36 41 37 42 38 43 88 44 39 45
REMARK SMILES IDX 93 46 87 47 89 48 40 49 92 50 86 51 85 52 41 54 73 55 53 56
REMARK SMILES IDX 72 57 54 58 57 59 71 60 90 61 55 62 56 63 70 65 91 66 58 67
REMARK SMILES IDX 42 68 43 69 51 70 44 71 45 72 49 73 52 74 46 75 47 76 50 77
REMARK SMILES IDX 48 78 74 79 75 80 83 81 76 82 77 83 81 84 84 85 78 86 79 87
REMARK SMILES IDX 82 88 80 89 59 90 60 91 68 92 61 93 62 94 66 95 69 96 63 97
REMARK SMILES IDX 64 98 67 99 65 100
REMARK H PARENT 25 5 16 21 30 34 89 53 57 64
REMARK Flexibility Score: inf
ROOT
ATOM      1  C   UNL A   1      35.210  33.109  28.024  1.00  0.00     0.116 C 
ENDROOT
BRANCH   1   2
ATOM      2  N   UNL A   1      35.101  31.664  28.005  1.00  0.00    -0.353 N 
ATOM      3  O   UNL A   1      32.930  31.579  27.251  1.00  0.00    -0.271 OA
ATOM      4  C   UNL A   1      33.987  31.014  27.506  1.00  0.00     0.258 C 
ATOM      5  H   UNL A   1      35.845  31.127  28.360  1.00  0.00     0.163 HD
BRANCH   4   6
ATOM      6  C   UNL A   1      34.207  29.519  27.243  1.00  0.00     0.331 C 
BRANCH   6   7
ATOM      7  O   UNL A   1      32.999  28.803  26.979  1.00  0.00    -0.467 OA
BRANCH   7   8
ATOM      8  C   UNL A   1      33.061  28.070  25.817  1.00  0.00     0.219 A 
ATOM      9  C   UNL A   1      33.772  26.902  25.752  1.00  0.00     0.097 A 
ATOM     10  N   UNL A   1      32.260  28.487  24.833  1.00  0.00    -0.177 NA
ATOM     11  C   UNL A   1      33.639  26.164  24.600  1.00  0.00     0.080 A 
ATOM     12  C   UNL A   1      32.205  27.730  23.725  1.00  0.00     0.231 A 
ATOM     13  N   UNL A   1      32.862  26.567  23.577  1.00  0.00    -0.212 NA
BRANCH  11  14
ATOM     14  C   UNL A   1      34.338  24.880  24.472  1.00  0.00     0.000 A 
ATOM     15  C   UNL A   1      34.300  24.148  23.277  1.00  0.00     0.010 A 
ATOM     16  C   UNL A   1      35.139  24.393  25.523  1.00  0.00     0.010 A 
ATOM     17  C   UNL A   1      35.064  22.987  23.126  1.00  0.00     0.001 A 
ATOM     18  C   UNL A   1      35.900  23.232  25.375  1.00  0.00     0.001 A 
ATOM     19  C   UNL A   1      35.868  22.534  24.172  1.00  0.00     0.000 A 
ENDBRANCH  11  14
BRANCH  12  20
ATOM     20  N   UNL A   1      31.372  28.092  22.670  1.00  0.00    -0.323 N 
ATOM     21  H   UNL A   1      31.715  27.876  21.772  1.00  0.00     0.170 HD
BRANCH  20  22
ATOM     22  C   UNL A   1      30.120  28.716  22.697  1.00  0.00     0.055 A 
ATOM     23  C   UNL A   1      30.034  30.038  22.227  1.00  0.00     0.027 A 
ATOM     24  C   UNL A   1      28.933  28.091  23.122  1.00  0.00     0.041 A 
ATOM     25  C   UNL A   1      28.808  30.708  22.158  1.00  0.00     0.002 A 
ATOM     26  C   UNL A   1      27.705  28.764  23.057  1.00  0.00     0.018 A 
ATOM     27  Br  UNL A   1      28.916  26.369  23.938  1.00  0.00    -0.049 Br
ATOM     28  C   UNL A   1      27.643  30.067  22.569  1.00  0.00     0.001 A 
ENDBRANCH  20  22
ENDBRANCH  12  20
ENDBRANCH   7   8
ENDBRANCH   6   7
ENDBRANCH   4   6
ENDBRANCH   1   2
BRANCH   1  29
ATOM     29  C   UNL A   1      34.525  33.749  29.224  1.00  0.00     0.023 C 
BRANCH  29  30
ATOM     30  C   UNL A   1      33.348  34.665  28.881  1.00  0.00     0.023 C 
BRANCH  30  31
ATOM     31  C   UNL A   1      33.389  36.056  29.507  1.00  0.00     0.116 C 
BRANCH  31  32
ATOM     32  N   UNL A   1      32.421  36.229  30.579  1.00  0.00    -0.352 N 
ATOM     33  C   UNL A   1      32.455  35.766  31.872  1.00  0.00     0.251 C 
ATOM     34  H   UNL A   1      31.624  36.757  30.343  1.00  0.00     0.163 HD
ATOM     35  O   UNL A   1      31.470  35.900  32.597  1.00  0.00    -0.269 OA
BRANCH  33  36
ATOM     36  C   UNL A   1      33.656  35.076  32.394  1.00  0.00     0.039 A 
ATOM     37  C   UNL A   1      33.527  33.771  32.877  1.00  0.00     0.014 A 
ATOM     38  C   UNL A   1      34.903  35.706  32.413  1.00  0.00     0.014 A 
ATOM     39  C   UNL A   1      34.659  33.072  33.307  1.00  0.00     0.010 A 
ATOM     40  C   UNL A   1      36.041  34.983  32.769  1.00  0.00     0.010 A 
ATOM     41  C   UNL A   1      35.932  33.657  33.217  1.00  0.00    -0.014 A 
BRANCH  41  42
ATOM     42  C   UNL A   1      37.159  32.893  33.572  1.00  0.00     0.031 A 
ATOM     43  C   UNL A   1      37.900  33.193  34.846  1.00  0.00     0.074 A 
ATOM     44  C   UNL A   1      37.643  31.973  32.715  1.00  0.00     0.049 A 
ATOM     45  N   UNL A   1      39.022  32.684  35.292  1.00  0.00    -0.248 NA
ATOM     46  C   UNL A   1      37.316  34.217  35.725  1.00  0.00     0.031 C 
ATOM     47  C   UNL A   1      37.046  31.620  31.427  1.00  0.00     0.029 A 
ATOM     48  N   UNL A   1      38.757  31.173  32.794  1.00  0.00    -0.354 N 
ATOM     49  C   UNL A   1      39.281  33.332  36.492  1.00  0.00     0.074 A 
ATOM     50  C   UNL A   1      38.232  34.311  36.677  1.00  0.00     0.031 C 
ATOM     51  C   UNL A   1      37.785  30.663  30.845  1.00  0.00     0.029 A 
ATOM     52  C   UNL A   1      38.933  30.364  31.696  1.00  0.00     0.049 A 
ATOM     53  H   UNL A   1      39.372  31.178  33.562  1.00  0.00     0.167 HD
ATOM     54  C   UNL A   1      40.287  33.114  37.373  1.00  0.00     0.037 A 
ATOM     55  C   UNL A   1      39.915  29.490  31.402  1.00  0.00     0.037 A 
ATOM     56  C   UNL A   1      41.324  32.130  37.193  1.00  0.00     0.049 A 
ATOM     57  C   UNL A   1      41.035  29.283  32.386  1.00  0.00     0.074 A 
ATOM     58  C   UNL A   1      42.357  31.799  38.052  1.00  0.00     0.029 A 
ATOM     59  N   UNL A   1      41.462  31.322  36.074  1.00  0.00    -0.354 N 
ATOM     60  N   UNL A   1      41.231  29.852  33.551  1.00  0.00    -0.248 NA
ATOM     61  C   UNL A   1      42.068  28.304  32.018  1.00  0.00     0.031 C 
ATOM     62  C   UNL A   1      43.153  30.832  37.429  1.00  0.00     0.029 A 
ATOM     63  C   UNL A   1      42.579  30.513  36.209  1.00  0.00     0.049 A 
ATOM     64  H   UNL A   1      40.856  31.322  35.298  1.00  0.00     0.167 HD
ATOM     65  C   UNL A   1      42.388  29.282  34.065  1.00  0.00     0.074 A 
ATOM     66  C   UNL A   1      42.841  28.309  33.093  1.00  0.00     0.031 C 
ATOM     67  C   UNL A   1      43.017  29.541  35.238  1.00  0.00     0.037 A 
BRANCH  54  68
ATOM     68  C   UNL A   1      40.319  33.958  38.615  1.00  0.00     0.064 A 
ATOM     69  C   UNL A   1      39.641  33.577  39.783  1.00  0.00     0.173 A 
ATOM     70  C   UNL A   1      41.067  35.146  38.653  1.00  0.00     0.173 A 
ATOM     71  F   UNL A   1      38.903  32.456  39.801  1.00  0.00    -0.203 F 
ATOM     72  C   UNL A   1      39.682  34.368  40.929  1.00  0.00     0.198 A 
ATOM     73  C   UNL A   1      41.135  35.916  39.811  1.00  0.00     0.198 A 
ATOM     74  F   UNL A   1      41.742  35.555  37.568  1.00  0.00    -0.203 F 
ATOM     75  F   UNL A   1      38.981  34.009  42.014  1.00  0.00    -0.200 F 
ATOM     76  C   UNL A   1      40.434  35.532  40.945  1.00  0.00     0.200 A 
ATOM     77  F   UNL A   1      41.876  37.032  39.829  1.00  0.00    -0.200 F 
ATOM     78  F   UNL A   1      40.480  36.287  42.051  1.00  0.00    -0.200 F 
ENDBRANCH  54  68
BRANCH  55  79
ATOM     79  C   UNL A   1      39.876  28.732  30.123  1.00  0.00     0.064 A 
ATOM     80  C   UNL A   1      39.317  27.448  30.061  1.00  0.00     0.173 A 
ATOM     81  C   UNL A   1      40.405  29.269  28.940  1.00  0.00     0.173 A 
ATOM     82  F   UNL A   1      38.817  26.881  31.170  1.00  0.00    -0.203 F 
ATOM     83  C   UNL A   1      39.309  26.721  28.872  1.00  0.00     0.198 A 
ATOM     84  C   UNL A   1      40.368  28.554  27.744  1.00  0.00     0.198 A 
ATOM     85  F   UNL A   1      40.947  30.495  28.943  1.00  0.00    -0.203 F 
ATOM     86  F   UNL A   1      38.815  25.476  28.854  1.00  0.00    -0.200 F 
ATOM     87  C   UNL A   1      39.829  27.278  27.713  1.00  0.00     0.200 A 
ATOM     88  F   UNL A   1      40.855  29.103  26.623  1.00  0.00    -0.200 F 
ATOM     89  F   UNL A   1      39.818  26.580  26.569  1.00  0.00    -0.200 F 
ENDBRANCH  55  79
BRANCH  67  90
ATOM     90  C   UNL A   1      44.244  28.734  35.558  1.00  0.00     0.064 A 
ATOM     91  C   UNL A   1      45.529  29.166  35.200  1.00  0.00     0.173 A 
ATOM     92  C   UNL A   1      44.131  27.527  36.268  1.00  0.00     0.173 A 
ATOM     93  F   UNL A   1      45.690  30.303  34.507  1.00  0.00    -0.203 F 
ATOM     94  C   UNL A   1      46.653  28.407  35.515  1.00  0.00     0.198 A 
ATOM     95  C   UNL A   1      45.260  26.789  36.612  1.00  0.00     0.198 A 
ATOM     96  F   UNL A   1      42.926  27.072  36.642  1.00  0.00    -0.203 F 
ATOM     97  F   UNL A   1      47.866  28.812  35.116  1.00  0.00    -0.200 F 
ATOM     98  C   UNL A   1      46.519  27.224  36.227  1.00  0.00     0.200 A 
ATOM     99  F   UNL A   1      45.129  25.656  37.315  1.00  0.00    -0.200 F 
ATOM    100  F   UNL A   1      47.603  26.500  36.538  1.00  0.00    -0.200 F 
ENDBRANCH  67  90
ENDBRANCH  41  42
ENDBRANCH  33  36
ENDBRANCH  31  32
ENDBRANCH  30  31
ENDBRANCH  29  30
ENDBRANCH   1  29
TORSDOF 16
ENDMDL
MODEL 2
REMARK VINA RESULT:     -12.4      4.426     10.666
REMARK SMILES O=C(COc1cc(-c2ccccc2)nc(Nc2ccccc2Br)n1)NCCCCNC(=O)c1ccc(-c2c3nc(c(-c4c(F)c(F)c(F)c(F)c4F)c4ccc([nH]4)c(-c4c(F)c(F)c(F)c(F)c4F)c4nc(c(-c5c(F)c(F)c(F)c(F)c5F)c5ccc2[nH]5)C=C4)C=C3)cc1
REMARK SMILES IDX 26 1 25 2 1 3 2 4 3 6 4 7 5 8 6 9 24 10 7 11 15 12 14 13
REMARK SMILES IDX 8 14 9 15 13 16 10 17 12 18 11 19 16 20 17 22 18 23 22 24
REMARK SMILES IDX 19 25 21 26 23 27 20 28 27 29 28 30 29 31 30 32 31 33 32 35
REMARK SMILES IDX 33 36 34 37 95 38 35 39 94 40 36 41 37 42 38 43 88 44 39 45
REMARK SMILES IDX 93 46 87 47 89 48 40 49 92 50 86 51 85 52 41 54 73 55 53 56
REMARK SMILES IDX 72 57 54 58 57 59 71 60 90 61 55 62 56 63 70 65 91 66 58 67
REMARK SMILES IDX 42 68 43 69 51 70 44 71 45 72 49 73 52 74 46 75 47 76 50 77
REMARK SMILES IDX 48 78 74 79 75 80 83 81 76 82 77 83 81 84 84 85 78 86 79 87
REMARK SMILES IDX 82 88 80 89 59 90 60 91 68 92 61 93 62 94 66 95 69 96 63 97
REMARK SMILES IDX 64 98 67 99 65 100
REMARK H PARENT 25 5 16 21 30 34 89 53 57 64
REMARK Flexibility Score: inf
ROOT
ATOM      1  C   UNL A   1      32.263  35.866  32.711  1.00  0.00     0.116 C 
ENDROOT
BRANCH   1   2
ATOM      2  N   UNL A   1      33.609  35.662  33.207  1.00  0.00    -0.353 N 
ATOM      3  O   UNL A   1      33.515  33.365  33.269  1.00  0.00    -0.271 OA
ATOM      4  C   UNL A   1      34.165  34.402  33.339  1.00  0.00     0.258 C 
ATOM      5  H   UNL A   1      34.147  36.447  33.457  1.00  0.00     0.163 HD
BRANCH   4   6
ATOM      6  C   UNL A   1      35.686  34.412  33.528  1.00  0.00     0.331 C 
BRANCH   6   7
ATOM      7  O   UNL A   1      36.091  34.453  34.897  1.00  0.00    -0.467 OA
BRANCH   7   8
ATOM      8  C   UNL A   1      36.746  33.310  35.291  1.00  0.00     0.219 A 
ATOM      9  C   UNL A   1      37.102  32.349  34.384  1.00  0.00     0.097 A 
ATOM     10  N   UNL A   1      37.143  33.287  36.566  1.00  0.00    -0.177 NA
ATOM     11  C   UNL A   1      37.892  31.325  34.851  1.00  0.00     0.080 A 
ATOM     12  C   UNL A   1      37.886  32.239  36.958  1.00  0.00     0.231 A 
ATOM     13  N   UNL A   1      38.289  31.255  36.135  1.00  0.00    -0.212 NA
BRANCH  11  14
ATOM     14  C   UNL A   1      38.350  30.278  33.930  1.00  0.00     0.000 A 
ATOM     15  C   UNL A   1      39.674  29.819  33.950  1.00  0.00     0.010 A 
ATOM     16  C   UNL A   1      37.441  29.646  33.058  1.00  0.00     0.010 A 
ATOM     17  C   UNL A   1      40.068  28.741  33.152  1.00  0.00     0.001 A 
ATOM     18  C   UNL A   1      37.835  28.572  32.257  1.00  0.00     0.001 A 
ATOM     19  C   UNL A   1      39.148  28.116  32.312  1.00  0.00     0.000 A 
ENDBRANCH  11  14
BRANCH  12  20
ATOM     20  N   UNL A   1      38.356  32.163  38.266  1.00  0.00    -0.323 N 
ATOM     21  H   UNL A   1      38.882  31.358  38.477  1.00  0.00     0.170 HD
BRANCH  20  22
ATOM     22  C   UNL A   1      38.190  33.063  39.326  1.00  0.00     0.055 A 
ATOM     23  C   UNL A   1      39.034  34.186  39.372  1.00  0.00     0.027 A 
ATOM     24  C   UNL A   1      37.205  32.939  40.322  1.00  0.00     0.041 A 
ATOM     25  C   UNL A   1      38.889  35.165  40.360  1.00  0.00     0.002 A 
ATOM     26  C   UNL A   1      37.062  33.918  41.315  1.00  0.00     0.018 A 
ATOM     27  Br  UNL A   1      36.102  31.393  40.487  1.00  0.00    -0.049 Br
ATOM     28  C   UNL A   1      37.897  35.032  41.328  1.00  0.00     0.001 A 
ENDBRANCH  20  22
ENDBRANCH  12  20
ENDBRANCH   7   8
ENDBRANCH   6   7
ENDBRANCH   4   6
ENDBRANCH   1   2
BRANCH   1  29
ATOM     29  C   UNL A   1      32.197  36.030  31.198  1.00  0.00     0.023 C 
BRANCH  29  30
ATOM     30  C   UNL A   1      33.372  36.794  30.582  1.00  0.00     0.023 C 
BRANCH  30  31
ATOM     31  C   UNL A   1      33.526  36.661  29.070  1.00  0.00     0.116 C 
BRANCH  31  32
ATOM     32  N   UNL A   1      32.836  35.502  28.525  1.00  0.00    -0.352 N 
ATOM     33  C   UNL A   1      33.284  34.213  28.361  1.00  0.00     0.251 C 
ATOM     34  H   UNL A   1      31.911  35.665  28.229  1.00  0.00     0.163 HD
ATOM     35  O   UNL A   1      32.596  33.398  27.750  1.00  0.00    -0.269 OA
BRANCH  33  36
ATOM     36  C   UNL A   1      34.605  33.804  28.888  1.00  0.00     0.039 A 
ATOM     37  C   UNL A   1      34.654  32.937  29.984  1.00  0.00     0.014 A 
ATOM     38  C   UNL A   1      35.791  34.268  28.314  1.00  0.00     0.014 A 
ATOM     39  C   UNL A   1      35.888  32.477  30.454  1.00  0.00     0.010 A 
ATOM     40  C   UNL A   1      37.016  33.750  28.734  1.00  0.00     0.010 A 
ATOM     41  C   UNL A   1      37.078  32.846  29.806  1.00  0.00    -0.014 A 
BRANCH  41  42
ATOM     42  C   UNL A   1      38.391  32.287  30.227  1.00  0.00     0.031 A 
ATOM     43  C   UNL A   1      38.872  30.974  29.673  1.00  0.00     0.074 A 
ATOM     44  C   UNL A   1      39.123  32.930  31.157  1.00  0.00     0.049 A 
ATOM     45  N   UNL A   1      39.951  30.293  29.970  1.00  0.00    -0.248 NA
ATOM     46  C   UNL A   1      38.013  30.325  28.670  1.00  0.00     0.031 C 
ATOM     47  C   UNL A   1      38.750  34.188  31.806  1.00  0.00     0.029 A 
ATOM     48  N   UNL A   1      40.330  32.609  31.728  1.00  0.00    -0.354 N 
ATOM     49  C   UNL A   1      39.895  29.138  29.202  1.00  0.00     0.074 A 
ATOM     50  C   UNL A   1      38.648  29.181  28.468  1.00  0.00     0.031 C 
ATOM     51  C   UNL A   1      39.714  34.542  32.669  1.00  0.00     0.029 A 
ATOM     52  C   UNL A   1      40.753  33.516  32.670  1.00  0.00     0.049 A 
ATOM     53  H   UNL A   1      40.844  31.805  31.488  1.00  0.00     0.167 HD
ATOM     54  C   UNL A   1      40.811  28.145  29.097  1.00  0.00     0.037 A 
ATOM     55  C   UNL A   1      41.849  33.518  33.454  1.00  0.00     0.037 A 
ATOM     56  C   UNL A   1      42.057  28.111  29.818  1.00  0.00     0.049 A 
ATOM     57  C   UNL A   1      42.839  32.391  33.336  1.00  0.00     0.074 A 
ATOM     58  C   UNL A   1      43.073  27.174  29.742  1.00  0.00     0.029 A 
ATOM     59  N   UNL A   1      42.456  29.055  30.754  1.00  0.00    -0.354 N 
ATOM     60  N   UNL A   1      42.808  31.338  32.555  1.00  0.00    -0.248 NA
ATOM     61  C   UNL A   1      44.022  32.454  34.206  1.00  0.00     0.031 C 
ATOM     62  C   UNL A   1      44.059  27.519  30.672  1.00  0.00     0.029 A 
ATOM     63  C   UNL A   1      43.689  28.707  31.282  1.00  0.00     0.049 A 
ATOM     64  H   UNL A   1      41.939  29.854  31.007  1.00  0.00     0.167 HD
ATOM     65  C   UNL A   1      43.977  30.634  32.815  1.00  0.00     0.074 A 
ATOM     66  C   UNL A   1      44.703  31.387  33.815  1.00  0.00     0.031 C 
ATOM     67  C   UNL A   1      44.408  29.468  32.273  1.00  0.00     0.037 A 
BRANCH  54  68
ATOM     68  C   UNL A   1      40.498  27.007  28.167  1.00  0.00     0.064 A 
ATOM     69  C   UNL A   1      41.131  26.878  26.921  1.00  0.00     0.173 A 
ATOM     70  C   UNL A   1      39.582  26.010  28.540  1.00  0.00     0.173 A 
ATOM     71  F   UNL A   1      42.007  27.807  26.509  1.00  0.00    -0.203 F 
ATOM     72  C   UNL A   1      40.834  25.817  26.070  1.00  0.00     0.198 A 
ATOM     73  C   UNL A   1      39.315  24.930  27.703  1.00  0.00     0.198 A 
ATOM     74  F   UNL A   1      38.955  26.078  29.724  1.00  0.00    -0.203 F 
ATOM     75  F   UNL A   1      41.411  25.746  24.863  1.00  0.00    -0.200 F 
ATOM     76  C   UNL A   1      39.933  24.839  26.464  1.00  0.00     0.200 A 
ATOM     77  F   UNL A   1      38.455  23.980  28.093  1.00  0.00    -0.200 F 
ATOM     78  F   UNL A   1      39.655  23.814  25.648  1.00  0.00    -0.200 F 
ENDBRANCH  54  68
BRANCH  55  79
ATOM     79  C   UNL A   1      42.074  34.632  34.413  1.00  0.00     0.064 A 
ATOM     80  C   UNL A   1      41.681  34.519  35.755  1.00  0.00     0.173 A 
ATOM     81  C   UNL A   1      42.675  35.833  34.010  1.00  0.00     0.173 A 
ATOM     82  F   UNL A   1      41.082  33.399  36.186  1.00  0.00    -0.203 F 
ATOM     83  C   UNL A   1      41.860  35.573  36.649  1.00  0.00     0.198 A 
ATOM     84  C   UNL A   1      42.883  36.873  34.913  1.00  0.00     0.198 A 
ATOM     85  F   UNL A   1      43.075  35.990  32.740  1.00  0.00    -0.203 F 
ATOM     86  F   UNL A   1      41.428  35.457  37.912  1.00  0.00    -0.200 F 
ATOM     87  C   UNL A   1      42.467  36.747  36.229  1.00  0.00     0.200 A 
ATOM     88  F   UNL A   1      43.486  37.999  34.507  1.00  0.00    -0.200 F 
ATOM     89  F   UNL A   1      42.642  37.758  37.090  1.00  0.00    -0.200 F 
ENDBRANCH  55  79
BRANCH  67  90
ATOM     90  C   UNL A   1      45.747  28.952  32.719  1.00  0.00     0.064 A 
ATOM     91  C   UNL A   1      45.879  28.092  33.819  1.00  0.00     0.173 A 
ATOM     92  C   UNL A   1      46.909  29.294  32.010  1.00  0.00     0.173 A 
ATOM     93  F   UNL A   1      44.802  27.747  34.541  1.00  0.00    -0.203 F 
ATOM     94  C   UNL A   1      47.129  27.617  34.210  1.00  0.00     0.198 A 
ATOM     95  C   UNL A   1      48.152  28.788  32.382  1.00  0.00     0.198 A 
ATOM     96  F   UNL A   1      46.838  30.107  30.945  1.00  0.00    -0.203 F 
ATOM     97  F   UNL A   1      47.238  26.840  35.296  1.00  0.00    -0.200 F 
ATOM     98  C   UNL A   1      48.262  27.958  33.487  1.00  0.00     0.200 A 
ATOM     99  F   UNL A   1      49.243  29.106  31.672  1.00  0.00    -0.200 F 
ATOM    100  F   UNL A   1      49.463  27.493  33.859  1.00  0.00    -0.200 F 
ENDBRANCH  67  90
ENDBRANCH  41  42
ENDBRANCH  33  36
ENDBRANCH  31  32
ENDBRANCH  30  31
ENDBRANCH  29  30
ENDBRANCH   1  29
TORSDOF 16
ENDMDL
MODEL 3
REMARK VINA RESULT:     -12.4      4.485      9.128
REMARK SMILES O=C(COc1cc(-c2ccccc2)nc(Nc2ccccc2Br)n1)NCCCCNC(=O)c1ccc(-c2c3nc(c(-c4c(F)c(F)c(F)c(F)c4F)c4ccc([nH]4)c(-c4c(F)c(F)c(F)c(F)c4F)c4nc(c(-c5c(F)c(F)c(F)c(F)c5F)c5ccc2[nH]5)C=C4)C=C3)cc1
REMARK SMILES IDX 26 1 25 2 1 3 2 4 3 6 4 7 5 8 6 9 24 10 7 11 15 12 14 13
REMARK SMILES IDX 8 14 9 15 13 16 10 17 12 18 11 19 16 20 17 22 18 23 22 24
REMARK SMILES IDX 19 25 21 26 23 27 20 28 27 29 28 30 29 31 30 32 31 33 32 35
REMARK SMILES IDX 33 36 34 37 95 38 35 39 94 40 36 41 37 42 38 43 88 44 39 45
REMARK SMILES IDX 93 46 87 47 89 48 40 49 92 50 86 51 85 52 41 54 73 55 53 56
REMARK SMILES IDX 72 57 54 58 57 59 71 60 90 61 55 62 56 63 70 65 91 66 58 67
REMARK SMILES IDX 42 68 43 69 51 70 44 71 45 72 49 73 52 74 46 75 47 76 50 77
REMARK SMILES IDX 48 78 74 79 75 80 83 81 76 82 77 83 81 84 84 85 78 86 79 87
REMARK SMILES IDX 82 88 80 89 59 90 60 91 68 92 61 93 62 94 66 95 69 96 63 97
REMARK SMILES IDX 64 98 67 99 65 100
REMARK H PARENT 25 5 16 21 30 34 89 53 57 64
REMARK Flexibility Score: inf
ROOT
ATOM      1  C   UNL A   1      33.444  35.943  29.938  1.00  0.00     0.116 C 
ENDROOT
BRANCH   1   2
ATOM      2  N   UNL A   1      34.140  35.473  31.119  1.00  0.00    -0.353 N 
ATOM      3  O   UNL A   1      32.261  35.079  32.386  1.00  0.00    -0.271 OA
ATOM      4  C   UNL A   1      33.471  34.969  32.220  1.00  0.00     0.258 C 
ATOM      5  H   UNL A   1      35.123  35.513  31.139  1.00  0.00     0.163 HD
BRANCH   4   6
ATOM      6  C   UNL A   1      34.371  34.203  33.197  1.00  0.00     0.331 C 
BRANCH   6   7
ATOM      7  O   UNL A   1      35.078  33.119  32.591  1.00  0.00    -0.467 OA
BRANCH   7   8
ATOM      8  C   UNL A   1      36.023  32.570  33.425  1.00  0.00     0.219 A 
ATOM      9  C   UNL A   1      36.796  31.514  33.023  1.00  0.00     0.097 A 
ATOM     10  N   UNL A   1      36.238  33.233  34.564  1.00  0.00    -0.177 NA
ATOM     11  C   UNL A   1      37.818  31.145  33.864  1.00  0.00     0.080 A 
ATOM     12  C   UNL A   1      37.233  32.795  35.351  1.00  0.00     0.231 A 
ATOM     13  N   UNL A   1      38.047  31.772  35.033  1.00  0.00    -0.212 NA
BRANCH  11  14
ATOM     14  C   UNL A   1      38.716  30.048  33.483  1.00  0.00     0.000 A 
ATOM     15  C   UNL A   1      40.067  30.051  33.857  1.00  0.00     0.010 A 
ATOM     16  C   UNL A   1      38.218  28.919  32.804  1.00  0.00     0.010 A 
ATOM     17  C   UNL A   1      40.884  28.948  33.592  1.00  0.00     0.001 A 
ATOM     18  C   UNL A   1      39.034  27.818  32.535  1.00  0.00     0.001 A 
ATOM     19  C   UNL A   1      40.366  27.831  32.937  1.00  0.00     0.000 A 
ENDBRANCH  11  14
BRANCH  12  20
ATOM     20  N   UNL A   1      37.528  33.454  36.540  1.00  0.00    -0.323 N 
ATOM     21  H   UNL A   1      36.905  33.280  37.282  1.00  0.00     0.170 HD
BRANCH  20  22
ATOM     22  C   UNL A   1      38.581  34.327  36.838  1.00  0.00     0.055 A 
ATOM     23  C   UNL A   1      39.129  35.080  35.785  1.00  0.00     0.027 A 
ATOM     24  C   UNL A   1      39.095  34.534  38.131  1.00  0.00     0.041 A 
ATOM     25  C   UNL A   1      40.136  36.022  36.012  1.00  0.00     0.002 A 
ATOM     26  C   UNL A   1      40.108  35.476  38.358  1.00  0.00     0.018 A 
ATOM     27  Br  UNL A   1      38.573  33.472  39.625  1.00  0.00    -0.049 Br
ATOM     28  C   UNL A   1      40.621  36.224  37.301  1.00  0.00     0.001 A 
ENDBRANCH  20  22
ENDBRANCH  12  20
ENDBRANCH   7   8
ENDBRANCH   6   7
ENDBRANCH   4   6
ENDBRANCH   1   2
BRANCH   1  29
ATOM     29  C   UNL A   1      33.237  34.857  28.890  1.00  0.00     0.023 C 
BRANCH  29  30
ATOM     30  C   UNL A   1      34.509  34.117  28.471  1.00  0.00     0.023 C 
BRANCH  30  31
ATOM     31  C   UNL A   1      34.666  32.706  29.030  1.00  0.00     0.116 C 
BRANCH  31  32
ATOM     32  N   UNL A   1      33.939  31.703  28.266  1.00  0.00    -0.352 N 
ATOM     33  C   UNL A   1      34.374  30.501  27.762  1.00  0.00     0.251 C 
ATOM     34  H   UNL A   1      32.996  31.918  28.083  1.00  0.00     0.163 HD
ATOM     35  O   UNL A   1      33.644  29.849  27.018  1.00  0.00    -0.269 OA
BRANCH  33  36
ATOM     36  C   UNL A   1      35.729  29.997  28.081  1.00  0.00     0.039 A 
ATOM     37  C   UNL A   1      36.732  30.104  27.113  1.00  0.00     0.014 A 
ATOM     38  C   UNL A   1      36.015  29.420  29.320  1.00  0.00     0.014 A 
ATOM     39  C   UNL A   1      38.037  29.703  27.415  1.00  0.00     0.010 A 
ATOM     40  C   UNL A   1      37.330  29.092  29.647  1.00  0.00     0.010 A 
ATOM     41  C   UNL A   1      38.357  29.233  28.700  1.00  0.00    -0.014 A 
BRANCH  41  42
ATOM     42  C   UNL A   1      39.758  28.899  29.072  1.00  0.00     0.031 A 
ATOM     43  C   UNL A   1      40.595  29.880  29.845  1.00  0.00     0.074 A 
ATOM     44  C   UNL A   1      40.299  27.736  28.659  1.00  0.00     0.049 A 
ATOM     45  N   UNL A   1      41.853  29.798  30.200  1.00  0.00    -0.248 NA
ATOM     46  C   UNL A   1      39.938  31.132  30.252  1.00  0.00     0.031 C 
ATOM     47  C   UNL A   1      39.609  26.717  27.865  1.00  0.00     0.029 A 
ATOM     48  N   UNL A   1      41.558  27.218  28.838  1.00  0.00    -0.354 N 
ATOM     49  C   UNL A   1      42.139  30.986  30.860  1.00  0.00     0.074 A 
ATOM     50  C   UNL A   1      40.942  31.796  30.806  1.00  0.00     0.031 C 
ATOM     51  C   UNL A   1      40.445  25.691  27.643  1.00  0.00     0.029 A 
ATOM     52  C   UNL A   1      41.742  25.995  28.239  1.00  0.00     0.049 A 
ATOM     53  H   UNL A   1      42.264  27.679  29.347  1.00  0.00     0.167 HD
ATOM     54  C   UNL A   1      43.287  31.356  31.478  1.00  0.00     0.037 A 
ATOM     55  C   UNL A   1      42.836  25.212  28.168  1.00  0.00     0.037 A 
ATOM     56  C   UNL A   1      44.474  30.543  31.542  1.00  0.00     0.049 A 
ATOM     57  C   UNL A   1      44.106  25.657  28.841  1.00  0.00     0.074 A 
ATOM     58  C   UNL A   1      45.669  30.809  32.186  1.00  0.00     0.029 A 
ATOM     59  N   UNL A   1      44.618  29.304  30.932  1.00  0.00    -0.354 N 
ATOM     60  N   UNL A   1      44.343  26.752  29.522  1.00  0.00    -0.248 NA
ATOM     61  C   UNL A   1      45.261  24.753  28.743  1.00  0.00     0.031 C 
ATOM     62  C   UNL A   1      46.554  29.760  31.921  1.00  0.00     0.029 A 
ATOM     63  C   UNL A   1      45.890  28.808  31.165  1.00  0.00     0.049 A 
ATOM     64  H   UNL A   1      43.919  28.846  30.413  1.00  0.00     0.167 HD
ATOM     65  C   UNL A   1      45.659  26.655  29.957  1.00  0.00     0.074 A 
ATOM     66  C   UNL A   1      46.163  25.386  29.477  1.00  0.00     0.031 C 
ATOM     67  C   UNL A   1      46.382  27.539  30.688  1.00  0.00     0.037 A 
BRANCH  54  68
ATOM     68  C   UNL A   1      43.317  32.707  32.135  1.00  0.00     0.064 A 
ATOM     69  C   UNL A   1      43.534  33.881  31.398  1.00  0.00     0.173 A 
ATOM     70  C   UNL A   1      43.087  32.836  33.515  1.00  0.00     0.173 A 
ATOM     71  F   UNL A   1      43.768  33.817  30.078  1.00  0.00    -0.203 F 
ATOM     72  C   UNL A   1      43.555  35.127  32.019  1.00  0.00     0.198 A 
ATOM     73  C   UNL A   1      43.073  34.086  34.127  1.00  0.00     0.198 A 
ATOM     74  F   UNL A   1      42.864  31.747  34.267  1.00  0.00    -0.203 F 
ATOM     75  F   UNL A   1      43.820  36.228  31.302  1.00  0.00    -0.200 F 
ATOM     76  C   UNL A   1      43.317  35.230  33.382  1.00  0.00     0.200 A 
ATOM     77  F   UNL A   1      42.827  34.184  35.441  1.00  0.00    -0.200 F 
ATOM     78  F   UNL A   1      43.329  36.430  33.977  1.00  0.00    -0.200 F 
ENDBRANCH  54  68
BRANCH  55  79
ATOM     79  C   UNL A   1      42.775  23.916  27.440  1.00  0.00     0.064 A 
ATOM     80  C   UNL A   1      43.178  23.821  26.100  1.00  0.00     0.173 A 
ATOM     81  C   UNL A   1      42.304  22.750  28.061  1.00  0.00     0.173 A 
ATOM     82  F   UNL A   1      43.616  24.912  25.454  1.00  0.00    -0.203 F 
ATOM     83  C   UNL A   1      43.091  22.617  25.404  1.00  0.00     0.198 A 
ATOM     84  C   UNL A   1      42.248  21.539  27.374  1.00  0.00     0.198 A 
ATOM     85  F   UNL A   1      41.910  22.784  29.342  1.00  0.00    -0.203 F 
ATOM     86  F   UNL A   1      43.434  22.568  24.110  1.00  0.00    -0.200 F 
ATOM     87  C   UNL A   1      42.632  21.475  26.044  1.00  0.00     0.200 A 
ATOM     88  F   UNL A   1      41.820  20.435  28.001  1.00  0.00    -0.200 F 
ATOM     89  F   UNL A   1      42.552  20.317  25.376  1.00  0.00    -0.200 F 
ENDBRANCH  55  79
BRANCH  67  90
ATOM     90  C   UNL A   1      47.787  27.149  31.051  1.00  0.00     0.064 A 
ATOM     91  C   UNL A   1      48.066  26.333  32.157  1.00  0.00     0.173 A 
ATOM     92  C   UNL A   1      48.866  27.570  30.257  1.00  0.00     0.173 A 
ATOM     93  F   UNL A   1      47.073  25.916  32.957  1.00  0.00    -0.203 F 
ATOM     94  C   UNL A   1      49.375  25.975  32.470  1.00  0.00     0.198 A 
ATOM     95  C   UNL A   1      50.169  27.181  30.553  1.00  0.00     0.198 A 
ATOM     96  F   UNL A   1      48.653  28.347  29.184  1.00  0.00    -0.203 F 
ATOM     97  F   UNL A   1      49.623  25.238  33.562  1.00  0.00    -0.200 F 
ATOM     98  C   UNL A   1      50.424  26.392  31.665  1.00  0.00     0.200 A 
ATOM     99  F   UNL A   1      51.179  27.571  29.763  1.00  0.00    -0.200 F 
ATOM    100  F   UNL A   1      51.682  26.039  31.962  1.00  0.00    -0.200 F 
ENDBRANCH  67  90
ENDBRANCH  41  42
ENDBRANCH  33  36
ENDBRANCH  31  32
ENDBRANCH  30  31
ENDBRANCH  29  30
ENDBRANCH   1  29
TORSDOF 16
ENDMDL
