MODEL 1
REMARK VINA RESULT:     -12.6      0.000      0.000
REMARK SMILES CC[C@H](Oc1ccccc1/C=C1\SC(N)=[NH+]C1=O)C(=O)NCCCCNC(=O)c1ccc(-c2c3nc(c(-c4c(F)c(F)c(F)c(F)c4F)c4ccc([nH]4)c(-c4c(F)c(F)c(F)c(F)c4F)c4nc(c(-c5c(F)c(F)c(F)c(F)c5F)c5ccc2[nH]5)C=C4)C=C3)cc1
REMARK SMILES IDX 23 1 22 2 21 3 19 4 20 5 3 7 2 8 1 9 4 10 5 11 6 12 10 13
REMARK SMILES IDX 7 14 9 15 8 16 11 17 12 18 13 19 17 20 14 21 16 22 18 23
REMARK SMILES IDX 15 24 24 28 25 29 26 30 27 31 28 33 29 34 30 35 91 36 31 37
REMARK SMILES IDX 90 38 32 39 33 40 34 41 84 42 35 43 89 44 83 45 85 46 36 47
REMARK SMILES IDX 88 48 82 49 81 50 37 52 69 53 49 54 68 55 50 56 53 57 67 58
REMARK SMILES IDX 86 59 51 60 52 61 66 63 87 64 54 65 38 66 39 67 47 68 40 69
REMARK SMILES IDX 41 70 45 71 48 72 42 73 43 74 46 75 44 76 70 77 71 78 79 79
REMARK SMILES IDX 72 80 73 81 77 82 80 83 74 84 75 85 78 86 76 87 55 88 56 89
REMARK SMILES IDX 64 90 57 91 58 92 62 93 65 94 59 95 60 96 63 97 61 98
REMARK H PARENT 21 6 16 25 15 26 15 27 26 32 85 51 53 62
REMARK Flexibility Score: inf
ROOT
ATOM      1  C   UNL A   1      31.783  30.485  26.495  1.00  0.00     0.023 C 
ENDROOT
BRANCH   1   2
ATOM      2  C   UNL A   1      33.195  30.017  26.775  1.00  0.00     0.116 C 
BRANCH   2   3
ATOM      3  N   UNL A   1      33.911  29.705  25.544  1.00  0.00    -0.353 N 
ATOM      4  C   UNL A   1      33.797  28.581  24.752  1.00  0.00     0.261 C 
ATOM      5  O   UNL A   1      34.512  28.498  23.753  1.00  0.00    -0.271 OA
ATOM      6  H   UNL A   1      34.558  30.382  25.240  1.00  0.00     0.163 HD
BRANCH   4   7
ATOM      7  C   UNL A   1      32.726  27.516  25.090  1.00  0.00     0.261 C 
BRANCH   7   8
ATOM      8  C   UNL A   1      33.526  26.452  25.905  1.00  0.00     0.052 C 
ATOM      9  C   UNL A   1      34.250  25.303  25.238  1.00  0.00     0.008 C 
ENDBRANCH   7   8
BRANCH   7  10
ATOM     10  O   UNL A   1      32.151  27.321  23.785  1.00  0.00    -0.480 OA
BRANCH  10  11
ATOM     11  C   UNL A   1      30.824  27.291  23.498  1.00  0.00     0.127 A 
ATOM     12  C   UNL A   1      30.130  28.321  22.887  1.00  0.00     0.047 A 
ATOM     13  C   UNL A   1      30.099  26.151  23.909  1.00  0.00     0.018 A 
ATOM     14  C   UNL A   1      28.740  28.390  22.986  1.00  0.00     0.004 A 
ATOM     15  C   UNL A   1      28.706  26.226  24.035  1.00  0.00     0.012 A 
ATOM     16  C   UNL A   1      28.034  27.377  23.628  1.00  0.00     0.001 A 
BRANCH  13  17
ATOM     17  C   UNL A   1      30.705  24.811  23.783  1.00  0.00     0.036 C 
ATOM     18  C   UNL A   1      30.917  23.818  24.651  1.00  0.00     0.110 C 
ATOM     19  S   UNL A   1      30.667  23.739  26.337  1.00  0.00     0.006 SA
ATOM     20  C   UNL A   1      31.664  22.591  24.224  1.00  0.00     0.346 C 
ATOM     21  C   UNL A   1      31.971  22.570  26.408  1.00  0.00     0.314 C 
ATOM     22  N   UNL A   1      32.332  22.034  25.294  1.00  0.00    -0.200 N 
ATOM     23  O   UNL A   1      31.697  22.179  23.078  1.00  0.00    -0.240 OA
ATOM     24  N   UNL A   1      32.576  22.339  27.591  1.00  0.00    -0.281 N 
ATOM     25  H   UNL A   1      33.003  21.318  25.217  1.00  0.00     0.316 HD
ATOM     26  H   UNL A   1      32.248  22.782  28.407  1.00  0.00     0.302 HD
ATOM     27  H   UNL A   1      33.345  21.728  27.639  1.00  0.00     0.302 HD
ENDBRANCH  13  17
ENDBRANCH  10  11
ENDBRANCH   7  10
ENDBRANCH   4   7
ENDBRANCH   2   3
ENDBRANCH   1   2
BRANCH   1  28
ATOM     28  C   UNL A   1      31.495  31.925  26.877  1.00  0.00     0.023 C 
BRANCH  28  29
ATOM     29  C   UNL A   1      32.710  32.677  27.391  1.00  0.00     0.116 C 
BRANCH  29  30
ATOM     30  N   UNL A   1      32.440  34.092  27.621  1.00  0.00    -0.352 N 
ATOM     31  C   UNL A   1      33.000  34.968  28.524  1.00  0.00     0.251 C 
ATOM     32  H   UNL A   1      31.747  34.482  27.041  1.00  0.00     0.163 HD
ATOM     33  O   UNL A   1      32.512  36.080  28.690  1.00  0.00    -0.269 OA
BRANCH  31  34
ATOM     34  C   UNL A   1      34.170  34.547  29.326  1.00  0.00     0.039 A 
ATOM     35  C   UNL A   1      33.973  34.000  30.597  1.00  0.00     0.014 A 
ATOM     36  C   UNL A   1      35.459  34.661  28.811  1.00  0.00     0.014 A 
ATOM     37  C   UNL A   1      35.063  33.479  31.300  1.00  0.00     0.010 A 
ATOM     38  C   UNL A   1      36.511  34.013  29.440  1.00  0.00     0.010 A 
ATOM     39  C   UNL A   1      36.332  33.430  30.703  1.00  0.00    -0.014 A 
BRANCH  39  40
ATOM     40  C   UNL A   1      37.507  32.814  31.372  1.00  0.00     0.031 A 
ATOM     41  C   UNL A   1      38.195  31.639  30.728  1.00  0.00     0.074 A 
ATOM     42  C   UNL A   1      37.884  33.227  32.598  1.00  0.00     0.049 A 
ATOM     43  N   UNL A   1      39.120  30.849  31.210  1.00  0.00    -0.248 NA
ATOM     44  C   UNL A   1      37.743  31.271  29.376  1.00  0.00     0.031 C 
ATOM     45  C   UNL A   1      37.265  34.317  33.353  1.00  0.00     0.029 A 
ATOM     46  N   UNL A   1      38.866  32.759  33.436  1.00  0.00    -0.354 N 
ATOM     47  C   UNL A   1      39.329  29.879  30.240  1.00  0.00     0.074 A 
ATOM     48  C   UNL A   1      38.387  30.133  29.173  1.00  0.00     0.031 C 
ATOM     49  C   UNL A   1      37.890  34.444  34.534  1.00  0.00     0.029 A 
ATOM     50  C   UNL A   1      38.916  33.413  34.644  1.00  0.00     0.049 A 
ATOM     51  H   UNL A   1      39.476  32.026  33.195  1.00  0.00     0.167 HD
ATOM     52  C   UNL A   1      40.243  28.880  30.225  1.00  0.00     0.037 A 
ATOM     53  C   UNL A   1      39.685  33.190  35.728  1.00  0.00     0.037 A 
ATOM     54  C   UNL A   1      41.203  28.658  31.272  1.00  0.00     0.049 A 
ATOM     55  C   UNL A   1      40.699  32.077  35.690  1.00  0.00     0.074 A 
ATOM     56  C   UNL A   1      42.228  27.732  31.318  1.00  0.00     0.029 A 
ATOM     57  N   UNL A   1      41.249  29.370  32.463  1.00  0.00    -0.354 N 
ATOM     58  N   UNL A   1      40.944  31.214  34.735  1.00  0.00    -0.248 NA
ATOM     59  C   UNL A   1      41.546  31.909  36.879  1.00  0.00     0.031 C 
ATOM     60  C   UNL A   1      42.852  27.837  32.565  1.00  0.00     0.029 A 
ATOM     61  C   UNL A   1      42.264  28.879  33.266  1.00  0.00     0.049 A 
ATOM     62  H   UNL A   1      40.650  30.114  32.700  1.00  0.00     0.167 HD
ATOM     63  C   UNL A   1      41.988  30.421  35.191  1.00  0.00     0.074 A 
ATOM     64  C   UNL A   1      42.337  30.912  36.507  1.00  0.00     0.031 C 
ATOM     65  C   UNL A   1      42.605  29.385  34.573  1.00  0.00     0.037 A 
BRANCH  52  66
ATOM     66  C   UNL A   1      40.238  27.949  29.044  1.00  0.00     0.064 A 
ATOM     67  C   UNL A   1      40.938  28.242  27.862  1.00  0.00     0.173 A 
ATOM     68  C   UNL A   1      39.531  26.738  29.099  1.00  0.00     0.173 A 
ATOM     69  F   UNL A   1      41.623  29.390  27.749  1.00  0.00    -0.203 F 
ATOM     70  C   UNL A   1      40.888  27.384  26.766  1.00  0.00     0.198 A 
ATOM     71  C   UNL A   1      39.517  25.863  28.016  1.00  0.00     0.198 A 
ATOM     72  F   UNL A   1      38.850  26.402  30.206  1.00  0.00    -0.203 F 
ATOM     73  F   UNL A   1      41.502  27.723  25.624  1.00  0.00    -0.200 F 
ATOM     74  C   UNL A   1      40.184  26.193  26.847  1.00  0.00     0.200 A 
ATOM     75  F   UNL A   1      38.850  24.704  28.102  1.00  0.00    -0.200 F 
ATOM     76  F   UNL A   1      40.139  25.367  25.792  1.00  0.00    -0.200 F 
ENDBRANCH  52  66
BRANCH  53  77
ATOM     77  C   UNL A   1      39.525  34.046  36.933  1.00  0.00     0.064 A 
ATOM     78  C   UNL A   1      38.747  33.627  38.020  1.00  0.00     0.173 A 
ATOM     79  C   UNL A   1      40.162  35.293  37.031  1.00  0.00     0.173 A 
ATOM     80  F   UNL A   1      38.103  32.451  37.970  1.00  0.00    -0.203 F 
ATOM     81  C   UNL A   1      38.599  34.428  39.153  1.00  0.00     0.198 A 
ATOM     82  C   UNL A   1      40.039  36.078  38.175  1.00  0.00     0.198 A 
ATOM     83  F   UNL A   1      40.926  35.736  36.023  1.00  0.00    -0.203 F 
ATOM     84  F   UNL A   1      37.816  34.019  40.160  1.00  0.00    -0.200 F 
ATOM     85  C   UNL A   1      39.252  35.648  39.233  1.00  0.00     0.200 A 
ATOM     86  F   UNL A   1      40.689  37.247  38.255  1.00  0.00    -0.200 F 
ATOM     87  F   UNL A   1      39.119  36.411  40.325  1.00  0.00    -0.200 F 
ENDBRANCH  53  77
BRANCH  65  88
ATOM     88  C   UNL A   1      43.751  28.728  35.286  1.00  0.00     0.064 A 
ATOM     89  C   UNL A   1      45.071  29.177  35.136  1.00  0.00     0.173 A 
ATOM     90  C   UNL A   1      43.512  27.685  36.195  1.00  0.00     0.173 A 
ATOM     91  F   UNL A   1      45.355  30.162  34.270  1.00  0.00    -0.203 F 
ATOM     92  C   UNL A   1      46.110  28.598  35.860  1.00  0.00     0.198 A 
ATOM     93  C   UNL A   1      44.547  27.132  36.942  1.00  0.00     0.198 A 
ATOM     94  F   UNL A   1      42.266  27.223  36.381  1.00  0.00    -0.203 F 
ATOM     95  F   UNL A   1      47.369  29.019  35.675  1.00  0.00    -0.200 F 
ATOM     96  C   UNL A   1      45.845  27.585  36.770  1.00  0.00     0.200 A 
ATOM     97  F   UNL A   1      44.286  26.167  37.835  1.00  0.00    -0.200 F 
ATOM     98  F   UNL A   1      46.845  27.045  37.482  1.00  0.00    -0.200 F 
ENDBRANCH  65  88
ENDBRANCH  39  40
ENDBRANCH  31  34
ENDBRANCH  29  30
ENDBRANCH  28  29
ENDBRANCH   1  28
TORSDOF 15
ENDMDL
MODEL 2
REMARK VINA RESULT:     -12.4      1.194      2.600
REMARK SMILES CC[C@H](Oc1ccccc1/C=C1\SC(N)=[NH+]C1=O)C(=O)NCCCCNC(=O)c1ccc(-c2c3nc(c(-c4c(F)c(F)c(F)c(F)c4F)c4ccc([nH]4)c(-c4c(F)c(F)c(F)c(F)c4F)c4nc(c(-c5c(F)c(F)c(F)c(F)c5F)c5ccc2[nH]5)C=C4)C=C3)cc1
REMARK SMILES IDX 23 1 22 2 21 3 19 4 20 5 3 7 2 8 1 9 4 10 5 11 6 12 10 13
REMARK SMILES IDX 7 14 9 15 8 16 11 17 12 18 13 19 17 20 14 21 16 22 18 23
REMARK SMILES IDX 15 24 24 28 25 29 26 30 27 31 28 33 29 34 30 35 91 36 31 37
REMARK SMILES IDX 90 38 32 39 33 40 34 41 84 42 35 43 89 44 83 45 85 46 36 47
REMARK SMILES IDX 88 48 82 49 81 50 37 52 69 53 49 54 68 55 50 56 53 57 67 58
REMARK SMILES IDX 86 59 51 60 52 61 66 63 87 64 54 65 38 66 39 67 47 68 40 69
REMARK SMILES IDX 41 70 45 71 48 72 42 73 43 74 46 75 44 76 70 77 71 78 79 79
REMARK SMILES IDX 72 80 73 81 77 82 80 83 74 84 75 85 78 86 76 87 55 88 56 89
REMARK SMILES IDX 64 90 57 91 58 92 62 93 65 94 59 95 60 96 63 97 61 98
REMARK H PARENT 21 6 16 25 15 26 15 27 26 32 85 51 53 62
REMARK Flexibility Score: inf
ROOT
ATOM      1  C   UNL A   1      34.652  31.042  28.070  1.00  0.00     0.023 C 
ENDROOT
BRANCH   1   2
ATOM      2  C   UNL A   1      34.443  29.688  27.426  1.00  0.00     0.116 C 
BRANCH   2   3
ATOM      3  N   UNL A   1      33.211  29.058  27.884  1.00  0.00    -0.353 N 
ATOM      4  C   UNL A   1      32.158  28.593  27.124  1.00  0.00     0.261 C 
ATOM      5  O   UNL A   1      31.188  28.107  27.708  1.00  0.00    -0.271 OA
ATOM      6  H   UNL A   1      33.119  28.952  28.858  1.00  0.00     0.163 HD
BRANCH   4   7
ATOM      7  C   UNL A   1      32.262  28.616  25.580  1.00  0.00     0.261 C 
BRANCH   7   8
ATOM      8  C   UNL A   1      31.443  29.886  25.186  1.00  0.00     0.052 C 
ATOM      9  C   UNL A   1      30.366  29.852  24.125  1.00  0.00     0.008 C 
ENDBRANCH   7   8
BRANCH   7  10
ATOM     10  O   UNL A   1      31.900  27.255  25.287  1.00  0.00    -0.480 OA
BRANCH  10  11
ATOM     11  C   UNL A   1      32.375  26.510  24.256  1.00  0.00     0.127 A 
ATOM     12  C   UNL A   1      33.344  26.933  23.363  1.00  0.00     0.047 A 
ATOM     13  C   UNL A   1      31.792  25.240  24.054  1.00  0.00     0.018 A 
ATOM     14  C   UNL A   1      33.489  26.300  22.128  1.00  0.00     0.004 A 
ATOM     15  C   UNL A   1      31.913  24.614  22.806  1.00  0.00     0.012 A 
ATOM     16  C   UNL A   1      32.718  25.183  21.822  1.00  0.00     0.001 A 
BRANCH  13  17
ATOM     17  C   UNL A   1      31.452  24.394  25.216  1.00  0.00     0.036 C 
ATOM     18  C   UNL A   1      32.182  23.839  26.187  1.00  0.00     0.110 C 
ATOM     19  S   UNL A   1      33.871  23.788  26.422  1.00  0.00     0.006 SA
ATOM     20  C   UNL A   1      31.535  22.932  27.189  1.00  0.00     0.346 C 
ATOM     21  C   UNL A   1      33.639  22.274  27.274  1.00  0.00     0.314 C 
ATOM     22  N   UNL A   1      32.438  21.996  27.647  1.00  0.00    -0.200 N 
ATOM     23  O   UNL A   1      30.363  23.001  27.513  1.00  0.00    -0.240 OA
ATOM     24  N   UNL A   1      34.693  21.449  27.435  1.00  0.00    -0.281 N 
ATOM     25  H   UNL A   1      32.196  21.211  28.190  1.00  0.00     0.316 HD
ATOM     26  H   UNL A   1      35.586  21.724  27.127  1.00  0.00     0.302 HD
ATOM     27  H   UNL A   1      34.569  20.571  27.862  1.00  0.00     0.302 HD
ENDBRANCH  13  17
ENDBRANCH  10  11
ENDBRANCH   7  10
ENDBRANCH   4   7
ENDBRANCH   2   3
ENDBRANCH   1   2
BRANCH   1  28
ATOM     28  C   UNL A   1      34.089  32.218  27.293  1.00  0.00     0.023 C 
BRANCH  28  29
ATOM     29  C   UNL A   1      32.664  32.580  27.675  1.00  0.00     0.116 C 
BRANCH  29  30
ATOM     30  N   UNL A   1      32.468  34.018  27.815  1.00  0.00    -0.352 N 
ATOM     31  C   UNL A   1      33.091  34.923  28.645  1.00  0.00     0.251 C 
ATOM     32  H   UNL A   1      31.781  34.402  27.224  1.00  0.00     0.163 HD
ATOM     33  O   UNL A   1      32.660  36.067  28.745  1.00  0.00    -0.269 OA
BRANCH  31  34
ATOM     34  C   UNL A   1      34.258  34.500  29.449  1.00  0.00     0.039 A 
ATOM     35  C   UNL A   1      34.055  33.842  30.664  1.00  0.00     0.014 A 
ATOM     36  C   UNL A   1      35.553  34.721  28.986  1.00  0.00     0.014 A 
ATOM     37  C   UNL A   1      35.151  33.322  31.359  1.00  0.00     0.010 A 
ATOM     38  C   UNL A   1      36.620  34.079  29.596  1.00  0.00     0.010 A 
ATOM     39  C   UNL A   1      36.438  33.387  30.802  1.00  0.00    -0.014 A 
BRANCH  39  40
ATOM     40  C   UNL A   1      37.624  32.780  31.458  1.00  0.00     0.031 A 
ATOM     41  C   UNL A   1      38.319  31.616  30.803  1.00  0.00     0.074 A 
ATOM     42  C   UNL A   1      38.007  33.192  32.683  1.00  0.00     0.049 A 
ATOM     43  N   UNL A   1      39.257  30.834  31.273  1.00  0.00    -0.248 NA
ATOM     44  C   UNL A   1      37.860  31.250  29.452  1.00  0.00     0.031 C 
ATOM     45  C   UNL A   1      37.383  34.271  33.449  1.00  0.00     0.029 A 
ATOM     46  N   UNL A   1      39.001  32.730  33.511  1.00  0.00    -0.354 N 
ATOM     47  C   UNL A   1      39.468  29.871  30.296  1.00  0.00     0.074 A 
ATOM     48  C   UNL A   1      38.514  30.121  29.238  1.00  0.00     0.031 C 
ATOM     49  C   UNL A   1      38.016  34.399  34.626  1.00  0.00     0.029 A 
ATOM     50  C   UNL A   1      39.054  33.377  34.721  1.00  0.00     0.049 A 
ATOM     51  H   UNL A   1      39.617  32.005  33.261  1.00  0.00     0.167 HD
ATOM     52  C   UNL A   1      40.392  28.881  30.268  1.00  0.00     0.037 A 
ATOM     53  C   UNL A   1      39.835  33.157  35.798  1.00  0.00     0.037 A 
ATOM     54  C   UNL A   1      41.363  28.664  31.306  1.00  0.00     0.049 A 
ATOM     55  C   UNL A   1      40.860  32.056  35.746  1.00  0.00     0.074 A 
ATOM     56  C   UNL A   1      42.398  27.749  31.339  1.00  0.00     0.029 A 
ATOM     57  N   UNL A   1      41.411  29.371  32.500  1.00  0.00    -0.354 N 
ATOM     58  N   UNL A   1      41.106  31.200  34.784  1.00  0.00    -0.248 NA
ATOM     59  C   UNL A   1      41.719  31.890  36.927  1.00  0.00     0.031 C 
ATOM     60  C   UNL A   1      43.031  27.854  32.581  1.00  0.00     0.029 A 
ATOM     61  C   UNL A   1      42.438  28.886  33.292  1.00  0.00     0.049 A 
ATOM     62  H   UNL A   1      40.806  30.108  32.746  1.00  0.00     0.167 HD
ATOM     63  C   UNL A   1      42.162  30.416  35.228  1.00  0.00     0.074 A 
ATOM     64  C   UNL A   1      42.517  30.904  36.543  1.00  0.00     0.031 C 
ATOM     65  C   UNL A   1      42.784  29.389  34.599  1.00  0.00     0.037 A 
BRANCH  52  66
ATOM     66  C   UNL A   1      40.387  27.957  29.082  1.00  0.00     0.064 A 
ATOM     67  C   UNL A   1      39.621  26.780  29.058  1.00  0.00     0.173 A 
ATOM     68  C   UNL A   1      41.154  28.259  27.946  1.00  0.00     0.173 A 
ATOM     69  F   UNL A   1      38.877  26.436  30.121  1.00  0.00    -0.203 F 
ATOM     70  C   UNL A   1      39.662  25.919  27.965  1.00  0.00     0.198 A 
ATOM     71  C   UNL A   1      41.160  27.415  26.837  1.00  0.00     0.198 A 
ATOM     72  F   UNL A   1      41.900  29.373  27.909  1.00  0.00    -0.203 F 
ATOM     73  F   UNL A   1      38.980  24.765  27.999  1.00  0.00    -0.200 F 
ATOM     74  C   UNL A   1      40.425  26.240  26.854  1.00  0.00     0.200 A 
ATOM     75  F   UNL A   1      41.885  27.736  25.758  1.00  0.00    -0.200 F 
ATOM     76  F   UNL A   1      40.462  25.411  25.801  1.00  0.00    -0.200 F 
ENDBRANCH  52  66
BRANCH  53  77
ATOM     77  C   UNL A   1      39.675  34.006  37.009  1.00  0.00     0.064 A 
ATOM     78  C   UNL A   1      40.319  35.246  37.113  1.00  0.00     0.173 A 
ATOM     79  C   UNL A   1      38.862  33.603  38.079  1.00  0.00     0.173 A 
ATOM     80  F   UNL A   1      41.122  35.670  36.125  1.00  0.00    -0.203 F 
ATOM     81  C   UNL A   1      40.168  36.044  38.246  1.00  0.00     0.198 A 
ATOM     82  C   UNL A   1      38.686  34.415  39.197  1.00  0.00     0.198 A 
ATOM     83  F   UNL A   1      38.215  32.429  38.025  1.00  0.00    -0.203 F 
ATOM     84  F   UNL A   1      40.827  37.207  38.336  1.00  0.00    -0.200 F 
ATOM     85  C   UNL A   1      39.345  35.632  39.283  1.00  0.00     0.200 A 
ATOM     86  F   UNL A   1      37.873  34.021  40.187  1.00  0.00    -0.200 F 
ATOM     87  F   UNL A   1      39.190  36.405  40.366  1.00  0.00    -0.200 F 
ENDBRANCH  53  77
BRANCH  65  88
ATOM     88  C   UNL A   1      43.944  28.741  35.299  1.00  0.00     0.064 A 
ATOM     89  C   UNL A   1      43.780  27.608  36.108  1.00  0.00     0.173 A 
ATOM     90  C   UNL A   1      45.249  29.216  35.090  1.00  0.00     0.173 A 
ATOM     91  F   UNL A   1      42.553  27.122  36.350  1.00  0.00    -0.203 F 
ATOM     92  C   UNL A   1      44.878  26.981  36.692  1.00  0.00     0.198 A 
ATOM     93  C   UNL A   1      46.346  28.568  35.647  1.00  0.00     0.198 A 
ATOM     94  F   UNL A   1      45.461  30.293  34.318  1.00  0.00    -0.203 F 
ATOM     95  F   UNL A   1      44.695  25.921  37.491  1.00  0.00    -0.200 F 
ATOM     96  C   UNL A   1      46.160  27.455  36.451  1.00  0.00     0.200 A 
ATOM     97  F   UNL A   1      47.585  29.014  35.397  1.00  0.00    -0.200 F 
ATOM     98  F   UNL A   1      47.217  26.836  36.997  1.00  0.00    -0.200 F 
ENDBRANCH  65  88
ENDBRANCH  39  40
ENDBRANCH  31  34
ENDBRANCH  29  30
ENDBRANCH  28  29
ENDBRANCH   1  28
TORSDOF 15
ENDMDL
MODEL 3
REMARK VINA RESULT:     -12.2      1.308      2.397
REMARK SMILES CC[C@H](Oc1ccccc1/C=C1\SC(N)=[NH+]C1=O)C(=O)NCCCCNC(=O)c1ccc(-c2c3nc(c(-c4c(F)c(F)c(F)c(F)c4F)c4ccc([nH]4)c(-c4c(F)c(F)c(F)c(F)c4F)c4nc(c(-c5c(F)c(F)c(F)c(F)c5F)c5ccc2[nH]5)C=C4)C=C3)cc1
REMARK SMILES IDX 23 1 22 2 21 3 19 4 20 5 3 7 2 8 1 9 4 10 5 11 6 12 10 13
REMARK SMILES IDX 7 14 9 15 8 16 11 17 12 18 13 19 17 20 14 21 16 22 18 23
REMARK SMILES IDX 15 24 24 28 25 29 26 30 27 31 28 33 29 34 30 35 91 36 31 37
REMARK SMILES IDX 90 38 32 39 33 40 34 41 84 42 35 43 89 44 83 45 85 46 36 47
REMARK SMILES IDX 88 48 82 49 81 50 37 52 69 53 49 54 68 55 50 56 53 57 67 58
REMARK SMILES IDX 86 59 51 60 52 61 66 63 87 64 54 65 38 66 39 67 47 68 40 69
REMARK SMILES IDX 41 70 45 71 48 72 42 73 43 74 46 75 44 76 70 77 71 78 79 79
REMARK SMILES IDX 72 80 73 81 77 82 80 83 74 84 75 85 78 86 76 87 55 88 56 89
REMARK SMILES IDX 64 90 57 91 58 92 62 93 65 94 59 95 60 96 63 97 61 98
REMARK H PARENT 21 6 16 25 15 26 15 27 26 32 85 51 53 62
REMARK Flexibility Score: inf
ROOT
ATOM      1  C   UNL A   1      31.767  30.453  26.512  1.00  0.00     0.023 C 
ENDROOT
BRANCH   1   2
ATOM      2  C   UNL A   1      31.312  29.786  25.232  1.00  0.00     0.116 C 
BRANCH   2   3
ATOM      3  N   UNL A   1      32.425  29.562  24.317  1.00  0.00    -0.353 N 
ATOM      4  C   UNL A   1      33.554  28.796  24.521  1.00  0.00     0.261 C 
ATOM      5  O   UNL A   1      34.396  28.750  23.623  1.00  0.00    -0.271 OA
ATOM      6  H   UNL A   1      32.363  30.014  23.445  1.00  0.00     0.163 HD
BRANCH   4   7
ATOM      7  C   UNL A   1      33.685  27.959  25.817  1.00  0.00     0.261 C 
BRANCH   7   8
ATOM      8  C   UNL A   1      34.931  28.585  26.521  1.00  0.00     0.052 C 
ATOM      9  C   UNL A   1      34.803  29.513  27.708  1.00  0.00     0.008 C 
ENDBRANCH   7   8
BRANCH   7  10
ATOM     10  O   UNL A   1      33.607  26.633  25.264  1.00  0.00    -0.480 OA
BRANCH  10  11
ATOM     11  C   UNL A   1      32.567  25.771  25.410  1.00  0.00     0.127 A 
ATOM     12  C   UNL A   1      31.305  25.967  24.879  1.00  0.00     0.047 A 
ATOM     13  C   UNL A   1      32.784  24.628  26.211  1.00  0.00     0.018 A 
ATOM     14  C   UNL A   1      30.210  25.270  25.389  1.00  0.00     0.004 A 
ATOM     15  C   UNL A   1      31.686  23.942  26.747  1.00  0.00     0.012 A 
ATOM     16  C   UNL A   1      30.393  24.308  26.379  1.00  0.00     0.001 A 
BRANCH  13  17
ATOM     17  C   UNL A   1      34.071  23.909  26.132  1.00  0.00     0.036 C 
ATOM     18  C   UNL A   1      34.464  22.807  25.489  1.00  0.00     0.110 C 
ATOM     19  S   UNL A   1      33.580  21.683  24.558  1.00  0.00     0.006 SA
ATOM     20  C   UNL A   1      35.847  22.266  25.697  1.00  0.00     0.346 C 
ATOM     21  C   UNL A   1      34.755  20.470  25.026  1.00  0.00     0.314 C 
ATOM     22  N   UNL A   1      35.861  20.898  25.529  1.00  0.00    -0.200 N 
ATOM     23  O   UNL A   1      36.804  22.951  26.011  1.00  0.00    -0.240 OA
ATOM     24  N   UNL A   1      34.430  19.168  24.910  1.00  0.00    -0.281 N 
ATOM     25  H   UNL A   1      36.622  20.319  25.765  1.00  0.00     0.316 HD
ATOM     26  H   UNL A   1      33.566  18.909  24.514  1.00  0.00     0.302 HD
ATOM     27  H   UNL A   1      35.056  18.474  25.220  1.00  0.00     0.302 HD
ENDBRANCH  13  17
ENDBRANCH  10  11
ENDBRANCH   7  10
ENDBRANCH   4   7
ENDBRANCH   2   3
ENDBRANCH   1   2
BRANCH   1  28
ATOM     28  C   UNL A   1      31.673  31.968  26.518  1.00  0.00     0.023 C 
BRANCH  28  29
ATOM     29  C   UNL A   1      32.727  32.644  27.377  1.00  0.00     0.116 C 
BRANCH  29  30
ATOM     30  N   UNL A   1      32.421  34.045  27.643  1.00  0.00    -0.352 N 
ATOM     31  C   UNL A   1      32.963  34.913  28.565  1.00  0.00     0.251 C 
ATOM     32  H   UNL A   1      31.717  34.431  27.075  1.00  0.00     0.163 HD
ATOM     33  O   UNL A   1      32.447  36.008  28.759  1.00  0.00    -0.269 OA
BRANCH  31  34
ATOM     34  C   UNL A   1      34.147  34.503  29.352  1.00  0.00     0.039 A 
ATOM     35  C   UNL A   1      33.973  33.982  30.637  1.00  0.00     0.014 A 
ATOM     36  C   UNL A   1      35.426  34.602  28.809  1.00  0.00     0.014 A 
ATOM     37  C   UNL A   1      35.074  33.470  31.329  1.00  0.00     0.010 A 
ATOM     38  C   UNL A   1      36.487  33.962  29.431  1.00  0.00     0.010 A 
ATOM     39  C   UNL A   1      36.331  33.404  30.708  1.00  0.00    -0.014 A 
BRANCH  39  40
ATOM     40  C   UNL A   1      37.517  32.797  31.366  1.00  0.00     0.031 A 
ATOM     41  C   UNL A   1      38.208  31.628  30.715  1.00  0.00     0.074 A 
ATOM     42  C   UNL A   1      37.901  33.212  32.589  1.00  0.00     0.049 A 
ATOM     43  N   UNL A   1      39.144  30.845  31.188  1.00  0.00    -0.248 NA
ATOM     44  C   UNL A   1      37.747  31.258  29.366  1.00  0.00     0.031 C 
ATOM     45  C   UNL A   1      37.280  34.296  33.351  1.00  0.00     0.029 A 
ATOM     46  N   UNL A   1      38.894  32.751  33.418  1.00  0.00    -0.354 N 
ATOM     47  C   UNL A   1      39.352  29.877  30.214  1.00  0.00     0.074 A 
ATOM     48  C   UNL A   1      38.398  30.126  29.156  1.00  0.00     0.031 C 
ATOM     49  C   UNL A   1      37.914  34.426  34.527  1.00  0.00     0.029 A 
ATOM     50  C   UNL A   1      38.949  33.403  34.626  1.00  0.00     0.049 A 
ATOM     51  H   UNL A   1      39.508  32.023  33.171  1.00  0.00     0.167 HD
ATOM     52  C   UNL A   1      40.273  28.886  30.190  1.00  0.00     0.037 A 
ATOM     53  C   UNL A   1      39.730  33.185  35.703  1.00  0.00     0.037 A 
ATOM     54  C   UNL A   1      41.244  28.670  31.229  1.00  0.00     0.049 A 
ATOM     55  C   UNL A   1      40.752  32.080  35.655  1.00  0.00     0.074 A 
ATOM     56  C   UNL A   1      42.277  27.752  31.265  1.00  0.00     0.029 A 
ATOM     57  N   UNL A   1      41.295  29.381  32.420  1.00  0.00    -0.354 N 
ATOM     58  N   UNL A   1      40.995  31.220  34.696  1.00  0.00    -0.248 NA
ATOM     59  C   UNL A   1      41.611  31.917  36.837  1.00  0.00     0.031 C 
ATOM     60  C   UNL A   1      42.911  27.860  32.506  1.00  0.00     0.029 A 
ATOM     61  C   UNL A   1      42.321  28.897  33.214  1.00  0.00     0.049 A 
ATOM     62  H   UNL A   1      40.692  30.120  32.664  1.00  0.00     0.167 HD
ATOM     63  C   UNL A   1      42.050  30.435  35.143  1.00  0.00     0.074 A 
ATOM     64  C   UNL A   1      42.406  30.927  36.457  1.00  0.00     0.031 C 
ATOM     65  C   UNL A   1      42.669  29.404  34.518  1.00  0.00     0.037 A 
BRANCH  52  66
ATOM     66  C   UNL A   1      40.266  27.957  29.008  1.00  0.00     0.064 A 
ATOM     67  C   UNL A   1      39.539  26.755  29.010  1.00  0.00     0.173 A 
ATOM     68  C   UNL A   1      40.989  28.279  27.849  1.00  0.00     0.173 A 
ATOM     69  F   UNL A   1      38.837  26.391  30.094  1.00  0.00    -0.203 F 
ATOM     70  C   UNL A   1      39.577  25.891  27.919  1.00  0.00     0.198 A 
ATOM     71  C   UNL A   1      40.991  27.431  26.744  1.00  0.00     0.198 A 
ATOM     72  F   UNL A   1      41.696  29.418  27.787  1.00  0.00    -0.203 F 
ATOM     73  F   UNL A   1      38.936  24.715  27.976  1.00  0.00    -0.200 F 
ATOM     74  C   UNL A   1      40.297  26.232  26.785  1.00  0.00     0.200 A 
ATOM     75  F   UNL A   1      41.675  27.772  25.643  1.00  0.00    -0.200 F 
ATOM     76  F   UNL A   1      40.331  25.401  25.735  1.00  0.00    -0.200 F 
ENDBRANCH  52  66
BRANCH  53  77
ATOM     77  C   UNL A   1      39.573  34.038  36.911  1.00  0.00     0.064 A 
ATOM     78  C   UNL A   1      38.798  33.617  38.000  1.00  0.00     0.173 A 
ATOM     79  C   UNL A   1      40.210  35.284  37.010  1.00  0.00     0.173 A 
ATOM     80  F   UNL A   1      38.154  32.441  37.949  1.00  0.00    -0.203 F 
ATOM     81  C   UNL A   1      38.654  34.415  39.134  1.00  0.00     0.198 A 
ATOM     82  C   UNL A   1      40.091  36.067  38.156  1.00  0.00     0.198 A 
ATOM     83  F   UNL A   1      40.972  35.730  36.000  1.00  0.00    -0.203 F 
ATOM     84  F   UNL A   1      37.874  34.004  40.143  1.00  0.00    -0.200 F 
ATOM     85  C   UNL A   1      39.307  35.635  39.215  1.00  0.00     0.200 A 
ATOM     86  F   UNL A   1      40.741  37.236  38.237  1.00  0.00    -0.200 F 
ATOM     87  F   UNL A   1      39.178  36.396  40.310  1.00  0.00    -0.200 F 
ENDBRANCH  53  77
BRANCH  65  88
ATOM     88  C   UNL A   1      43.827  28.755  35.220  1.00  0.00     0.064 A 
ATOM     89  C   UNL A   1      43.653  27.654  36.070  1.00  0.00     0.173 A 
ATOM     90  C   UNL A   1      45.137  29.195  34.973  1.00  0.00     0.173 A 
ATOM     91  F   UNL A   1      42.421  27.203  36.349  1.00  0.00    -0.203 F 
ATOM     92  C   UNL A   1      44.749  27.024  36.657  1.00  0.00     0.198 A 
ATOM     93  C   UNL A   1      46.230  28.543  35.533  1.00  0.00     0.198 A 
ATOM     94  F   UNL A   1      45.358  30.240  34.162  1.00  0.00    -0.203 F 
ATOM     95  F   UNL A   1      44.558  25.996  37.494  1.00  0.00    -0.200 F 
ATOM     96  C   UNL A   1      46.036  27.462  36.379  1.00  0.00     0.200 A 
ATOM     97  F   UNL A   1      47.473  28.954  35.248  1.00  0.00    -0.200 F 
ATOM     98  F   UNL A   1      47.089  26.840  36.927  1.00  0.00    -0.200 F 
ENDBRANCH  65  88
ENDBRANCH  39  40
ENDBRANCH  31  34
ENDBRANCH  29  30
ENDBRANCH  28  29
ENDBRANCH   1  28
TORSDOF 15
ENDMDL
