MODEL 1
REMARK VINA RESULT:     -13.6      0.000      0.000
REMARK SMILES Cc1ccccc1CNc1ccc(C(=O)NCCCCNC(=O)c2ccc(-c3c4nc(c(-c5c(F)c(F)c(F)c(F)c5F)c5ccc([nH]5)c(-c5c(F)c(F)c(F)c(F)c5F)c5nc(c(-c6c(F)c(F)c(F)c(F)c6F)c6ccc3[nH]6)C=C5)C=C4)cc2)c(F)c1F
REMARK SMILES IDX 18 1 17 2 16 3 14 4 15 5 13 7 10 8 11 9 89 10 12 11 87 12
REMARK SMILES IDX 90 13 88 14 9 15 8 17 7 18 1 19 2 20 3 21 4 22 6 23 5 24
REMARK SMILES IDX 19 25 20 26 21 27 22 28 23 30 24 31 25 32 86 33 26 34 85 35
REMARK SMILES IDX 27 36 28 37 29 38 79 39 30 40 84 41 78 42 80 43 31 44 83 45
REMARK SMILES IDX 77 46 76 47 32 49 64 50 44 51 63 52 45 53 48 54 62 55 81 56
REMARK SMILES IDX 46 57 47 58 61 60 82 61 49 62 33 63 34 64 42 65 35 66 36 67
REMARK SMILES IDX 40 68 43 69 37 70 38 71 41 72 39 73 65 74 66 75 74 76 67 77
REMARK SMILES IDX 68 78 72 79 75 80 69 81 70 82 73 83 71 84 50 85 51 86 59 87
REMARK SMILES IDX 52 88 53 89 57 90 60 91 54 92 55 93 58 94 56 95
REMARK H PARENT 16 6 9 16 21 29 80 48 48 59
REMARK Flexibility Score: inf
ROOT
ATOM      1  C   UNL A   1      36.592  20.898  25.262  1.00  0.00     0.023 C 
ENDROOT
BRANCH   1   2
ATOM      2  C   UNL A   1      35.215  21.371  24.796  1.00  0.00     0.116 C 
BRANCH   2   3
ATOM      3  N   UNL A   1      34.171  20.358  24.892  1.00  0.00    -0.352 N 
ATOM      4  C   UNL A   1      32.808  20.440  25.071  1.00  0.00     0.254 C 
ATOM      5  O   UNL A   1      32.165  19.395  25.136  1.00  0.00    -0.269 OA
ATOM      6  H   UNL A   1      34.506  19.435  24.815  1.00  0.00     0.163 HD
BRANCH   4   7
ATOM      7  C   UNL A   1      32.108  21.738  25.163  1.00  0.00     0.078 A 
ATOM      8  C   UNL A   1      30.741  24.215  25.330  1.00  0.00     0.074 A 
ATOM      9  C   UNL A   1      31.283  23.610  26.465  1.00  0.00     0.030 A 
ATOM     10  C   UNL A   1      30.920  23.554  24.102  1.00  0.00     0.182 A 
ATOM     11  C   UNL A   1      32.011  22.423  26.374  1.00  0.00     0.019 A 
ATOM     12  C   UNL A   1      31.586  22.331  24.014  1.00  0.00     0.173 A 
ATOM     13  F   UNL A   1      30.442  24.122  22.980  1.00  0.00    -0.201 F 
ATOM     14  F   UNL A   1      31.703  21.746  22.813  1.00  0.00    -0.203 F 
BRANCH   8  15
ATOM     15  N   UNL A   1      30.078  25.427  25.375  1.00  0.00    -0.379 N 
ATOM     16  H   UNL A   1      29.210  25.449  25.837  1.00  0.00     0.161 HD
BRANCH  15  17
ATOM     17  C   UNL A   1      30.556  26.670  24.797  1.00  0.00     0.149 C 
BRANCH  17  18
ATOM     18  C   UNL A   1      31.681  27.250  25.629  1.00  0.00    -0.026 A 
ATOM     19  C   UNL A   1      33.536  26.309  24.114  1.00  0.00     0.044 C 
ATOM     20  C   UNL A   1      33.041  27.102  25.293  1.00  0.00    -0.046 A 
ATOM     21  C   UNL A   1      34.013  27.704  26.113  1.00  0.00     0.004 A 
ATOM     22  C   UNL A   1      33.655  28.473  27.220  1.00  0.00     0.000 A 
ATOM     23  C   UNL A   1      31.339  28.056  26.737  1.00  0.00     0.006 A 
ATOM     24  C   UNL A   1      32.315  28.657  27.528  1.00  0.00     0.000 A 
ENDBRANCH  17  18
ENDBRANCH  15  17
ENDBRANCH   8  15
ENDBRANCH   4   7
ENDBRANCH   2   3
ENDBRANCH   1   2
BRANCH   1  25
ATOM     25  C   UNL A   1      37.767  21.801  24.899  1.00  0.00     0.023 C 
BRANCH  25  26
ATOM     26  C   UNL A   1      38.281  22.668  26.038  1.00  0.00     0.116 C 
BRANCH  26  27
ATOM     27  N   UNL A   1      39.723  22.685  26.198  1.00  0.00    -0.352 N 
ATOM     28  C   UNL A   1      40.594  23.748  26.418  1.00  0.00     0.251 C 
ATOM     29  H   UNL A   1      40.155  21.803  26.140  1.00  0.00     0.163 HD
ATOM     30  O   UNL A   1      41.787  23.552  26.368  1.00  0.00    -0.269 OA
BRANCH  28  31
ATOM     31  C   UNL A   1      40.077  25.078  26.862  1.00  0.00     0.039 A 
ATOM     32  C   UNL A   1      40.546  26.217  26.185  1.00  0.00     0.014 A 
ATOM     33  C   UNL A   1      39.312  25.240  28.009  1.00  0.00     0.014 A 
ATOM     34  C   UNL A   1      40.466  27.469  26.794  1.00  0.00     0.010 A 
ATOM     35  C   UNL A   1      39.336  26.448  28.670  1.00  0.00     0.010 A 
ATOM     36  C   UNL A   1      39.971  27.545  28.091  1.00  0.00    -0.014 A 
BRANCH  36  37
ATOM     37  C   UNL A   1      40.145  28.687  28.974  1.00  0.00     0.031 A 
ATOM     38  C   UNL A   1      39.086  29.707  29.080  1.00  0.00     0.074 A 
ATOM     39  C   UNL A   1      41.193  28.673  29.824  1.00  0.00     0.049 A 
ATOM     40  N   UNL A   1      39.246  30.874  29.602  1.00  0.00    -0.248 NA
ATOM     41  C   UNL A   1      37.739  29.491  28.567  1.00  0.00     0.031 C 
ATOM     42  C   UNL A   1      41.394  29.494  31.014  1.00  0.00     0.029 A 
ATOM     43  N   UNL A   1      42.416  27.998  29.659  1.00  0.00    -0.354 N 
ATOM     44  C   UNL A   1      38.005  31.456  29.737  1.00  0.00     0.074 A 
ATOM     45  C   UNL A   1      37.107  30.576  29.027  1.00  0.00     0.031 C 
ATOM     46  C   UNL A   1      42.706  29.528  31.299  1.00  0.00     0.029 A 
ATOM     47  C   UNL A   1      43.393  28.861  30.207  1.00  0.00     0.049 A 
ATOM     48  H   UNL A   1      42.560  27.114  29.250  1.00  0.00     0.167 HD
ATOM     49  C   UNL A   1      37.879  32.552  30.543  1.00  0.00     0.037 A 
ATOM     50  C   UNL A   1      44.330  29.449  29.406  1.00  0.00     0.037 A 
ATOM     51  C   UNL A   1      39.191  32.986  31.023  1.00  0.00     0.049 A 
ATOM     52  C   UNL A   1      44.270  30.958  29.411  1.00  0.00     0.074 A 
ATOM     53  C   UNL A   1      39.881  32.757  32.203  1.00  0.00     0.029 A 
ATOM     54  N   UNL A   1      40.120  33.479  30.113  1.00  0.00    -0.354 N 
ATOM     55  N   UNL A   1      43.220  31.644  29.769  1.00  0.00    -0.248 NA
ATOM     56  C   UNL A   1      45.380  31.811  28.993  1.00  0.00     0.031 C 
ATOM     57  C   UNL A   1      41.249  33.044  31.972  1.00  0.00     0.029 A 
ATOM     58  C   UNL A   1      41.387  33.476  30.663  1.00  0.00     0.049 A 
ATOM     59  H   UNL A   1      39.905  33.788  29.203  1.00  0.00     0.167 HD
ATOM     60  C   UNL A   1      43.477  32.981  29.627  1.00  0.00     0.074 A 
ATOM     61  C   UNL A   1      44.849  33.035  29.156  1.00  0.00     0.031 C 
ATOM     62  C   UNL A   1      42.535  33.933  29.896  1.00  0.00     0.037 A 
BRANCH  49  63
ATOM     63  C   UNL A   1      36.570  33.059  31.118  1.00  0.00     0.064 A 
ATOM     64  C   UNL A   1      35.700  33.853  30.336  1.00  0.00     0.173 A 
ATOM     65  C   UNL A   1      36.135  32.858  32.441  1.00  0.00     0.173 A 
ATOM     66  F   UNL A   1      35.915  34.048  29.028  1.00  0.00    -0.203 F 
ATOM     67  C   UNL A   1      34.568  34.483  30.865  1.00  0.00     0.198 A 
ATOM     68  C   UNL A   1      35.034  33.529  32.986  1.00  0.00     0.198 A 
ATOM     69  F   UNL A   1      36.714  31.954  33.238  1.00  0.00    -0.203 F 
ATOM     70  F   UNL A   1      33.789  35.230  30.070  1.00  0.00    -0.200 F 
ATOM     71  C   UNL A   1      34.256  34.352  32.201  1.00  0.00     0.200 A 
ATOM     72  F   UNL A   1      34.730  33.362  34.282  1.00  0.00    -0.200 F 
ATOM     73  F   UNL A   1      33.196  34.986  32.720  1.00  0.00    -0.200 F 
ENDBRANCH  49  63
BRANCH  50  74
ATOM     74  C   UNL A   1      44.701  28.606  28.235  1.00  0.00     0.064 A 
ATOM     75  C   UNL A   1      45.454  27.437  28.470  1.00  0.00     0.173 A 
ATOM     76  C   UNL A   1      44.019  28.699  27.016  1.00  0.00     0.173 A 
ATOM     77  F   UNL A   1      46.125  27.295  29.625  1.00  0.00    -0.203 F 
ATOM     78  C   UNL A   1      45.419  26.361  27.587  1.00  0.00     0.198 A 
ATOM     79  C   UNL A   1      44.003  27.623  26.123  1.00  0.00     0.198 A 
ATOM     80  F   UNL A   1      43.270  29.775  26.737  1.00  0.00    -0.203 F 
ATOM     81  F   UNL A   1      46.045  25.218  27.904  1.00  0.00    -0.200 F 
ATOM     82  C   UNL A   1      44.670  26.445  26.427  1.00  0.00     0.200 A 
ATOM     83  F   UNL A   1      43.257  27.691  25.011  1.00  0.00    -0.200 F 
ATOM     84  F   UNL A   1      44.555  25.377  25.623  1.00  0.00    -0.200 F 
ENDBRANCH  50  74
BRANCH  62  85
ATOM     85  C   UNL A   1      42.630  35.396  29.539  1.00  0.00     0.064 A 
ATOM     86  C   UNL A   1      43.422  36.322  30.240  1.00  0.00     0.173 A 
ATOM     87  C   UNL A   1      42.032  35.882  28.350  1.00  0.00     0.173 A 
ATOM     88  F   UNL A   1      44.134  35.957  31.315  1.00  0.00    -0.203 F 
ATOM     89  C   UNL A   1      43.556  37.647  29.819  1.00  0.00     0.198 A 
ATOM     90  C   UNL A   1      42.219  37.187  27.900  1.00  0.00     0.198 A 
ATOM     91  F   UNL A   1      41.273  35.094  27.576  1.00  0.00    -0.203 F 
ATOM     92  F   UNL A   1      44.289  38.501  30.545  1.00  0.00    -0.200 F 
ATOM     93  C   UNL A   1      42.968  38.076  28.642  1.00  0.00     0.200 A 
ATOM     94  F   UNL A   1      41.688  37.571  26.731  1.00  0.00    -0.200 F 
ATOM     95  F   UNL A   1      43.143  39.333  28.216  1.00  0.00    -0.200 F 
ENDBRANCH  62  85
ENDBRANCH  36  37
ENDBRANCH  28  31
ENDBRANCH  26  27
ENDBRANCH  25  26
ENDBRANCH   1  25
TORSDOF 14
ENDMDL
MODEL 2
REMARK VINA RESULT:     -13.6      3.891     10.069
REMARK SMILES Cc1ccccc1CNc1ccc(C(=O)NCCCCNC(=O)c2ccc(-c3c4nc(c(-c5c(F)c(F)c(F)c(F)c5F)c5ccc([nH]5)c(-c5c(F)c(F)c(F)c(F)c5F)c5nc(c(-c6c(F)c(F)c(F)c(F)c6F)c6ccc3[nH]6)C=C5)C=C4)cc2)c(F)c1F
REMARK SMILES IDX 18 1 17 2 16 3 14 4 15 5 13 7 10 8 11 9 89 10 12 11 87 12
REMARK SMILES IDX 90 13 88 14 9 15 8 17 7 18 1 19 2 20 3 21 4 22 6 23 5 24
REMARK SMILES IDX 19 25 20 26 21 27 22 28 23 30 24 31 25 32 86 33 26 34 85 35
REMARK SMILES IDX 27 36 28 37 29 38 79 39 30 40 84 41 78 42 80 43 31 44 83 45
REMARK SMILES IDX 77 46 76 47 32 49 64 50 44 51 63 52 45 53 48 54 62 55 81 56
REMARK SMILES IDX 46 57 47 58 61 60 82 61 49 62 33 63 34 64 42 65 35 66 36 67
REMARK SMILES IDX 40 68 43 69 37 70 38 71 41 72 39 73 65 74 66 75 74 76 67 77
REMARK SMILES IDX 68 78 72 79 75 80 69 81 70 82 73 83 71 84 50 85 51 86 59 87
REMARK SMILES IDX 52 88 53 89 57 90 60 91 54 92 55 93 58 94 56 95
REMARK H PARENT 16 6 9 16 21 29 80 48 48 59
REMARK Flexibility Score: inf
ROOT
ATOM      1  C   UNL A   1      31.960  30.271  25.982  1.00  0.00     0.023 C 
ENDROOT
BRANCH   1   2
ATOM      2  C   UNL A   1      32.237  29.322  24.815  1.00  0.00     0.116 C 
BRANCH   2   3
ATOM      3  N   UNL A   1      31.295  29.446  23.708  1.00  0.00    -0.352 N 
ATOM      4  C   UNL A   1      30.886  28.565  22.732  1.00  0.00     0.254 C 
ATOM      5  O   UNL A   1      30.077  28.958  21.896  1.00  0.00    -0.269 OA
ATOM      6  H   UNL A   1      30.871  30.332  23.646  1.00  0.00     0.163 HD
BRANCH   4   7
ATOM      7  C   UNL A   1      31.375  27.171  22.681  1.00  0.00     0.078 A 
ATOM      8  C   UNL A   1      32.289  24.491  22.566  1.00  0.00     0.074 A 
ATOM      9  C   UNL A   1      33.069  25.544  22.083  1.00  0.00     0.030 A 
ATOM     10  C   UNL A   1      31.043  24.821  23.128  1.00  0.00     0.182 A 
ATOM     11  C   UNL A   1      32.646  26.869  22.198  1.00  0.00     0.019 A 
ATOM     12  C   UNL A   1      30.584  26.137  23.182  1.00  0.00     0.173 A 
ATOM     13  F   UNL A   1      30.277  23.839  23.636  1.00  0.00    -0.201 F 
ATOM     14  F   UNL A   1      29.377  26.378  23.714  1.00  0.00    -0.203 F 
BRANCH   8  15
ATOM     15  N   UNL A   1      32.710  23.175  22.535  1.00  0.00    -0.379 N 
ATOM     16  H   UNL A   1      32.783  22.747  21.652  1.00  0.00     0.161 HD
BRANCH  15  17
ATOM     17  C   UNL A   1      33.051  22.372  23.696  1.00  0.00     0.149 C 
BRANCH  17  18
ATOM     18  C   UNL A   1      34.370  22.822  24.287  1.00  0.00    -0.026 A 
ATOM     19  C   UNL A   1      33.487  22.859  26.704  1.00  0.00     0.044 C 
ATOM     20  C   UNL A   1      34.568  23.015  25.668  1.00  0.00    -0.046 A 
ATOM     21  C   UNL A   1      35.840  23.405  26.126  1.00  0.00     0.004 A 
ATOM     22  C   UNL A   1      36.912  23.561  25.247  1.00  0.00     0.000 A 
ATOM     23  C   UNL A   1      35.476  22.958  23.418  1.00  0.00     0.006 A 
ATOM     24  C   UNL A   1      36.732  23.328  23.891  1.00  0.00     0.000 A 
ENDBRANCH  17  18
ENDBRANCH  15  17
ENDBRANCH   8  15
ENDBRANCH   4   7
ENDBRANCH   2   3
ENDBRANCH   1   2
BRANCH   1  25
ATOM     25  C   UNL A   1      32.745  30.004  27.261  1.00  0.00     0.023 C 
BRANCH  25  26
ATOM     26  C   UNL A   1      34.244  30.236  27.151  1.00  0.00     0.116 C 
BRANCH  26  27
ATOM     27  N   UNL A   1      34.798  31.164  28.119  1.00  0.00    -0.352 N 
ATOM     28  C   UNL A   1      35.851  31.012  29.015  1.00  0.00     0.251 C 
ATOM     29  H   UNL A   1      34.358  32.044  28.145  1.00  0.00     0.163 HD
ATOM     30  O   UNL A   1      36.048  31.871  29.845  1.00  0.00    -0.269 OA
BRANCH  28  31
ATOM     31  C   UNL A   1      36.822  29.886  28.867  1.00  0.00     0.039 A 
ATOM     32  C   UNL A   1      36.990  29.023  29.964  1.00  0.00     0.014 A 
ATOM     33  C   UNL A   1      37.678  29.773  27.780  1.00  0.00     0.014 A 
ATOM     34  C   UNL A   1      38.147  28.251  30.070  1.00  0.00     0.010 A 
ATOM     35  C   UNL A   1      38.875  29.109  27.930  1.00  0.00     0.010 A 
ATOM     36  C   UNL A   1      39.136  28.404  29.104  1.00  0.00    -0.014 A 
BRANCH  36  37
ATOM     37  C   UNL A   1      40.510  27.951  29.253  1.00  0.00     0.031 A 
ATOM     38  C   UNL A   1      40.919  26.640  28.717  1.00  0.00     0.074 A 
ATOM     39  C   UNL A   1      41.421  28.839  29.706  1.00  0.00     0.049 A 
ATOM     40  N   UNL A   1      42.010  26.032  29.031  1.00  0.00    -0.248 NA
ATOM     41  C   UNL A   1      40.092  25.885  27.784  1.00  0.00     0.031 C 
ATOM     42  C   UNL A   1      42.875  28.755  29.618  1.00  0.00     0.029 A 
ATOM     43  N   UNL A   1      41.186  29.956  30.527  1.00  0.00    -0.354 N 
ATOM     44  C   UNL A   1      42.166  24.964  28.174  1.00  0.00     0.074 A 
ATOM     45  C   UNL A   1      40.917  24.886  27.454  1.00  0.00     0.031 C 
ATOM     46  C   UNL A   1      43.410  29.547  30.562  1.00  0.00     0.029 A 
ATOM     47  C   UNL A   1      42.312  30.033  31.379  1.00  0.00     0.049 A 
ATOM     48  H   UNL A   1      40.406  30.557  30.511  1.00  0.00     0.167 HD
ATOM     49  C   UNL A   1      43.387  24.356  28.099  1.00  0.00     0.037 A 
ATOM     50  C   UNL A   1      42.185  29.809  32.721  1.00  0.00     0.037 A 
ATOM     51  C   UNL A   1      44.297  24.915  29.098  1.00  0.00     0.049 A 
ATOM     52  C   UNL A   1      42.995  28.635  33.218  1.00  0.00     0.074 A 
ATOM     53  C   UNL A   1      45.281  25.890  29.031  1.00  0.00     0.029 A 
ATOM     54  N   UNL A   1      44.029  24.719  30.449  1.00  0.00    -0.354 N 
ATOM     55  N   UNL A   1      43.429  27.673  32.452  1.00  0.00    -0.248 NA
ATOM     56  C   UNL A   1      43.361  28.443  34.619  1.00  0.00     0.031 C 
ATOM     57  C   UNL A   1      45.547  26.334  30.350  1.00  0.00     0.029 A 
ATOM     58  C   UNL A   1      44.750  25.609  31.221  1.00  0.00     0.049 A 
ATOM     59  H   UNL A   1      43.412  24.040  30.806  1.00  0.00     0.167 HD
ATOM     60  C   UNL A   1      44.095  26.749  33.212  1.00  0.00     0.074 A 
ATOM     61  C   UNL A   1      44.041  27.285  34.559  1.00  0.00     0.031 C 
ATOM     62  C   UNL A   1      44.626  25.612  32.670  1.00  0.00     0.037 A 
BRANCH  49  63
ATOM     63  C   UNL A   1      43.844  23.466  26.958  1.00  0.00     0.064 A 
ATOM     64  C   UNL A   1      43.294  22.175  26.788  1.00  0.00     0.173 A 
ATOM     65  C   UNL A   1      44.856  23.789  26.035  1.00  0.00     0.173 A 
ATOM     66  F   UNL A   1      42.249  21.757  27.515  1.00  0.00    -0.203 F 
ATOM     67  C   UNL A   1      43.795  21.254  25.861  1.00  0.00     0.198 A 
ATOM     68  C   UNL A   1      45.393  22.853  25.144  1.00  0.00     0.198 A 
ATOM     69  F   UNL A   1      45.316  25.038  25.910  1.00  0.00    -0.203 F 
ATOM     70  F   UNL A   1      43.232  20.042  25.756  1.00  0.00    -0.200 F 
ATOM     71  C   UNL A   1      44.871  21.581  25.064  1.00  0.00     0.200 A 
ATOM     72  F   UNL A   1      46.421  23.203  24.356  1.00  0.00    -0.200 F 
ATOM     73  F   UNL A   1      45.379  20.689  24.204  1.00  0.00    -0.200 F 
ENDBRANCH  49  63
BRANCH  50  74
ATOM     74  C   UNL A   1      40.858  30.227  33.254  1.00  0.00     0.064 A 
ATOM     75  C   UNL A   1      40.583  31.607  33.341  1.00  0.00     0.173 A 
ATOM     76  C   UNL A   1      39.768  29.349  33.287  1.00  0.00     0.173 A 
ATOM     77  F   UNL A   1      41.591  32.493  33.311  1.00  0.00    -0.203 F 
ATOM     78  C   UNL A   1      39.276  32.089  33.329  1.00  0.00     0.198 A 
ATOM     79  C   UNL A   1      38.458  29.838  33.295  1.00  0.00     0.198 A 
ATOM     80  F   UNL A   1      39.959  28.026  33.191  1.00  0.00    -0.203 F 
ATOM     81  F   UNL A   1      39.053  33.411  33.285  1.00  0.00    -0.200 F 
ATOM     82  C   UNL A   1      38.215  31.203  33.277  1.00  0.00     0.200 A 
ATOM     83  F   UNL A   1      37.429  28.982  33.218  1.00  0.00    -0.200 F 
ATOM     84  F   UNL A   1      36.960  31.664  33.167  1.00  0.00    -0.200 F 
ENDBRANCH  50  74
BRANCH  62  85
ATOM     85  C   UNL A   1      45.151  24.427  33.443  1.00  0.00     0.064 A 
ATOM     86  C   UNL A   1      44.394  23.275  33.716  1.00  0.00     0.173 A 
ATOM     87  C   UNL A   1      46.520  24.356  33.799  1.00  0.00     0.173 A 
ATOM     88  F   UNL A   1      43.117  23.171  33.323  1.00  0.00    -0.203 F 
ATOM     89  C   UNL A   1      44.948  22.162  34.352  1.00  0.00     0.198 A 
ATOM     90  C   UNL A   1      47.083  23.220  34.376  1.00  0.00     0.198 A 
ATOM     91  F   UNL A   1      47.357  25.378  33.570  1.00  0.00    -0.203 F 
ATOM     92  F   UNL A   1      44.174  21.103  34.627  1.00  0.00    -0.200 F 
ATOM     93  C   UNL A   1      46.294  22.128  34.668  1.00  0.00     0.200 A 
ATOM     94  F   UNL A   1      48.400  23.183  34.626  1.00  0.00    -0.200 F 
ATOM     95  F   UNL A   1      46.831  21.037  35.231  1.00  0.00    -0.200 F 
ENDBRANCH  62  85
ENDBRANCH  36  37
ENDBRANCH  28  31
ENDBRANCH  26  27
ENDBRANCH  25  26
ENDBRANCH   1  25
TORSDOF 14
ENDMDL
MODEL 3
REMARK VINA RESULT:     -13.5      1.214      1.486
REMARK SMILES Cc1ccccc1CNc1ccc(C(=O)NCCCCNC(=O)c2ccc(-c3c4nc(c(-c5c(F)c(F)c(F)c(F)c5F)c5ccc([nH]5)c(-c5c(F)c(F)c(F)c(F)c5F)c5nc(c(-c6c(F)c(F)c(F)c(F)c6F)c6ccc3[nH]6)C=C5)C=C4)cc2)c(F)c1F
REMARK SMILES IDX 18 1 17 2 16 3 14 4 15 5 13 7 10 8 11 9 89 10 12 11 87 12
REMARK SMILES IDX 90 13 88 14 9 15 8 17 7 18 1 19 2 20 3 21 4 22 6 23 5 24
REMARK SMILES IDX 19 25 20 26 21 27 22 28 23 30 24 31 25 32 86 33 26 34 85 35
REMARK SMILES IDX 27 36 28 37 29 38 79 39 30 40 84 41 78 42 80 43 31 44 83 45
REMARK SMILES IDX 77 46 76 47 32 49 64 50 44 51 63 52 45 53 48 54 62 55 81 56
REMARK SMILES IDX 46 57 47 58 61 60 82 61 49 62 33 63 34 64 42 65 35 66 36 67
REMARK SMILES IDX 40 68 43 69 37 70 38 71 41 72 39 73 65 74 66 75 74 76 67 77
REMARK SMILES IDX 68 78 72 79 75 80 69 81 70 82 73 83 71 84 50 85 51 86 59 87
REMARK SMILES IDX 52 88 53 89 57 90 60 91 54 92 55 93 58 94 56 95
REMARK H PARENT 16 6 9 16 21 29 80 48 48 59
REMARK Flexibility Score: inf
ROOT
ATOM      1  C   UNL A   1      36.647  20.252  24.999  1.00  0.00     0.023 C 
ENDROOT
BRANCH   1   2
ATOM      2  C   UNL A   1      35.141  20.516  24.983  1.00  0.00     0.116 C 
BRANCH   2   3
ATOM      3  N   UNL A   1      34.567  20.782  26.298  1.00  0.00    -0.352 N 
ATOM      4  C   UNL A   1      33.935  21.882  26.832  1.00  0.00     0.254 C 
ATOM      5  O   UNL A   1      33.564  21.830  28.001  1.00  0.00    -0.269 OA
ATOM      6  H   UNL A   1      34.649  20.028  26.925  1.00  0.00     0.163 HD
BRANCH   4   7
ATOM      7  C   UNL A   1      33.675  23.099  26.034  1.00  0.00     0.078 A 
ATOM      8  C   UNL A   1      33.156  25.441  24.524  1.00  0.00     0.074 A 
ATOM      9  C   UNL A   1      34.409  25.209  25.094  1.00  0.00     0.030 A 
ATOM     10  C   UNL A   1      32.173  24.454  24.713  1.00  0.00     0.182 A 
ATOM     11  C   UNL A   1      34.683  24.028  25.784  1.00  0.00     0.019 A 
ATOM     12  C   UNL A   1      32.419  23.302  25.462  1.00  0.00     0.173 A 
ATOM     13  F   UNL A   1      30.963  24.622  24.151  1.00  0.00    -0.201 F 
ATOM     14  F   UNL A   1      31.429  22.411  25.619  1.00  0.00    -0.203 F 
BRANCH   8  15
ATOM     15  N   UNL A   1      32.874  26.566  23.773  1.00  0.00    -0.379 N 
ATOM     16  H   UNL A   1      32.079  26.534  23.194  1.00  0.00     0.161 HD
BRANCH  15  17
ATOM     17  C   UNL A   1      33.653  27.791  23.767  1.00  0.00     0.149 C 
BRANCH  17  18
ATOM     18  C   UNL A   1      33.282  28.666  24.946  1.00  0.00    -0.026 A 
ATOM     19  C   UNL A   1      30.989  29.319  23.978  1.00  0.00     0.044 C 
ATOM     20  C   UNL A   1      32.049  29.340  25.046  1.00  0.00    -0.046 A 
ATOM     21  C   UNL A   1      31.783  30.106  26.196  1.00  0.00     0.004 A 
ATOM     22  C   UNL A   1      32.695  30.175  27.249  1.00  0.00     0.000 A 
ATOM     23  C   UNL A   1      34.179  28.728  26.036  1.00  0.00     0.006 A 
ATOM     24  C   UNL A   1      33.892  29.478  27.173  1.00  0.00     0.000 A 
ENDBRANCH  17  18
ENDBRANCH  15  17
ENDBRANCH   8  15
ENDBRANCH   4   7
ENDBRANCH   2   3
ENDBRANCH   1   2
BRANCH   1  25
ATOM     25  C   UNL A   1      37.535  21.426  24.602  1.00  0.00     0.023 C 
BRANCH  25  26
ATOM     26  C   UNL A   1      37.997  22.297  25.760  1.00  0.00     0.116 C 
BRANCH  26  27
ATOM     27  N   UNL A   1      39.404  22.181  26.096  1.00  0.00    -0.352 N 
ATOM     28  C   UNL A   1      40.330  23.156  26.454  1.00  0.00     0.251 C 
ATOM     29  H   UNL A   1      39.762  21.265  26.066  1.00  0.00     0.163 HD
ATOM     30  O   UNL A   1      41.498  22.855  26.546  1.00  0.00    -0.269 OA
BRANCH  28  31
ATOM     31  C   UNL A   1      39.880  24.519  26.871  1.00  0.00     0.039 A 
ATOM     32  C   UNL A   1      40.434  25.622  26.198  1.00  0.00     0.014 A 
ATOM     33  C   UNL A   1      39.092  24.738  27.994  1.00  0.00     0.014 A 
ATOM     34  C   UNL A   1      40.411  26.883  26.794  1.00  0.00     0.010 A 
ATOM     35  C   UNL A   1      39.167  25.949  28.645  1.00  0.00     0.010 A 
ATOM     36  C   UNL A   1      39.884  27.000  28.075  1.00  0.00    -0.014 A 
BRANCH  36  37
ATOM     37  C   UNL A   1      40.098  28.140  28.953  1.00  0.00     0.031 A 
ATOM     38  C   UNL A   1      39.103  29.226  29.013  1.00  0.00     0.074 A 
ATOM     39  C   UNL A   1      41.114  28.070  29.840  1.00  0.00     0.049 A 
ATOM     40  N   UNL A   1      39.318  30.386  29.528  1.00  0.00    -0.248 NA
ATOM     41  C   UNL A   1      37.763  29.089  28.454  1.00  0.00     0.031 C 
ATOM     42  C   UNL A   1      41.324  28.891  31.028  1.00  0.00     0.029 A 
ATOM     43  N   UNL A   1      42.296  27.318  29.724  1.00  0.00    -0.354 N 
ATOM     44  C   UNL A   1      38.112  31.046  29.615  1.00  0.00     0.074 A 
ATOM     45  C   UNL A   1      37.186  30.215  28.882  1.00  0.00     0.031 C 
ATOM     46  C   UNL A   1      42.625  28.845  31.359  1.00  0.00     0.029 A 
ATOM     47  C   UNL A   1      43.306  28.124  30.298  1.00  0.00     0.049 A 
ATOM     48  H   UNL A   1      42.399  26.422  29.328  1.00  0.00     0.167 HD
ATOM     49  C   UNL A   1      38.027  32.156  30.405  1.00  0.00     0.037 A 
ATOM     50  C   UNL A   1      44.306  28.643  29.524  1.00  0.00     0.037 A 
ATOM     51  C   UNL A   1      39.347  32.513  30.928  1.00  0.00     0.049 A 
ATOM     52  C   UNL A   1      44.341  30.153  29.513  1.00  0.00     0.074 A 
ATOM     53  C   UNL A   1      39.980  32.255  32.133  1.00  0.00     0.029 A 
ATOM     54  N   UNL A   1      40.336  32.937  30.046  1.00  0.00    -0.354 N 
ATOM     55  N   UNL A   1      43.324  30.907  29.827  1.00  0.00    -0.248 NA
ATOM     56  C   UNL A   1      45.516  30.930  29.127  1.00  0.00     0.031 C 
ATOM     57  C   UNL A   1      41.371  32.453  31.947  1.00  0.00     0.029 A 
ATOM     58  C   UNL A   1      41.580  32.861  30.640  1.00  0.00     0.049 A 
ATOM     59  H   UNL A   1      40.172  33.248  29.126  1.00  0.00     0.167 HD
ATOM     60  C   UNL A   1      43.670  32.224  29.682  1.00  0.00     0.074 A 
ATOM     61  C   UNL A   1      45.057  32.187  29.259  1.00  0.00     0.031 C 
ATOM     62  C   UNL A   1      42.781  33.236  29.910  1.00  0.00     0.037 A 
BRANCH  49  63
ATOM     63  C   UNL A   1      36.734  32.752  30.930  1.00  0.00     0.064 A 
ATOM     64  C   UNL A   1      35.926  33.561  30.099  1.00  0.00     0.173 A 
ATOM     65  C   UNL A   1      36.258  32.621  32.248  1.00  0.00     0.173 A 
ATOM     66  F   UNL A   1      36.180  33.697  28.791  1.00  0.00    -0.203 F 
ATOM     67  C   UNL A   1      34.816  34.267  30.577  1.00  0.00     0.198 A 
ATOM     68  C   UNL A   1      35.182  33.367  32.741  1.00  0.00     0.198 A 
ATOM     69  F   UNL A   1      36.771  31.717  33.090  1.00  0.00    -0.203 F 
ATOM     70  F   UNL A   1      34.096  35.024  29.737  1.00  0.00    -0.200 F 
ATOM     71  C   UNL A   1      34.467  34.200  31.909  1.00  0.00     0.200 A 
ATOM     72  F   UNL A   1      34.840  33.263  34.034  1.00  0.00    -0.200 F 
ATOM     73  F   UNL A   1      33.430  34.907  32.379  1.00  0.00    -0.200 F 
ENDBRANCH  49  63
BRANCH  50  74
ATOM     74  C   UNL A   1      44.663  27.765  28.375  1.00  0.00     0.064 A 
ATOM     75  C   UNL A   1      45.339  26.558  28.646  1.00  0.00     0.173 A 
ATOM     76  C   UNL A   1      44.025  27.882  27.134  1.00  0.00     0.173 A 
ATOM     77  F   UNL A   1      45.965  26.392  29.823  1.00  0.00    -0.203 F 
ATOM     78  C   UNL A   1      45.269  25.474  27.775  1.00  0.00     0.198 A 
ATOM     79  C   UNL A   1      43.975  26.797  26.253  1.00  0.00     0.198 A 
ATOM     80  F   UNL A   1      43.350  28.996  26.819  1.00  0.00    -0.203 F 
ATOM     81  F   UNL A   1      45.818  24.301  28.123  1.00  0.00    -0.200 F 
ATOM     82  C   UNL A   1      44.562  25.586  26.591  1.00  0.00     0.200 A 
ATOM     83  F   UNL A   1      43.268  26.894  25.118  1.00  0.00    -0.200 F 
ATOM     84  F   UNL A   1      44.410  24.517  25.795  1.00  0.00    -0.200 F 
ENDBRANCH  50  74
BRANCH  62  85
ATOM     85  C   UNL A   1      42.980  34.686  29.543  1.00  0.00     0.064 A 
ATOM     86  C   UNL A   1      43.252  35.699  30.478  1.00  0.00     0.173 A 
ATOM     87  C   UNL A   1      43.062  35.075  28.183  1.00  0.00     0.173 A 
ATOM     88  F   UNL A   1      43.322  35.435  31.790  1.00  0.00    -0.203 F 
ATOM     89  C   UNL A   1      43.524  37.012  30.087  1.00  0.00     0.198 A 
ATOM     90  C   UNL A   1      43.395  36.371  27.795  1.00  0.00     0.198 A 
ATOM     91  F   UNL A   1      42.849  34.199  27.191  1.00  0.00    -0.203 F 
ATOM     92  F   UNL A   1      43.737  37.950  31.020  1.00  0.00    -0.200 F 
ATOM     93  C   UNL A   1      43.611  37.344  28.747  1.00  0.00     0.200 A 
ATOM     94  F   UNL A   1      43.528  36.663  26.494  1.00  0.00    -0.200 F 
ATOM     95  F   UNL A   1      43.923  38.594  28.378  1.00  0.00    -0.200 F 
ENDBRANCH  62  85
ENDBRANCH  36  37
ENDBRANCH  28  31
ENDBRANCH  26  27
ENDBRANCH  25  26
ENDBRANCH   1  25
TORSDOF 14
ENDMDL
