MODEL 1
REMARK VINA RESULT:     -10.9      0.000      0.000
REMARK SMILES CCCC[C@H](C(=O)NCCCCNC(=O)c1ccc(-c2c3nc(c(-c4c(F)c(F)c(F)c(F)c4F)c4ccc([nH]4)c(-c4c(F)c(F)c(F)c(F)c4F)c4nc(c(-c5c(F)c(F)c(F)c(F)c5F)c5ccc2[nH]5)C=C4)C=C3)cc1)c1ccnn1C
REMARK SMILES IDX 10 1 9 2 8 3 6 4 7 5 5 7 4 8 3 9 2 10 1 11 79 12 80 13 83 14
REMARK SMILES IDX 81 15 82 16 84 17 11 18 12 19 13 20 14 21 15 23 16 24 17 25
REMARK SMILES IDX 78 26 18 27 77 28 19 29 20 30 21 31 71 32 22 33 76 34 70 35
REMARK SMILES IDX 72 36 23 37 75 38 69 39 68 40 24 42 56 43 36 44 55 45 37 46
REMARK SMILES IDX 40 47 54 48 73 49 38 50 39 51 53 53 74 54 41 55 25 56 26 57
REMARK SMILES IDX 34 58 27 59 28 60 32 61 35 62 29 63 30 64 33 65 31 66 57 67
REMARK SMILES IDX 58 68 66 69 59 70 60 71 64 72 67 73 61 74 62 75 65 76 63 77
REMARK SMILES IDX 42 78 43 79 51 80 44 81 45 82 49 83 52 84 46 85 47 86 50 87
REMARK SMILES IDX 48 88
REMARK H PARENT 8 6 13 22 72 41 40 52
REMARK Flexibility Score: inf
ROOT
ATOM      1  C   UNL A   1      32.208  27.414  26.816  1.00  0.00     0.023 C 
ENDROOT
BRANCH   1   2
ATOM      2  C   UNL A   1      31.512  26.355  25.966  1.00  0.00     0.116 C 
BRANCH   2   3
ATOM      3  N   UNL A   1      31.273  25.109  26.672  1.00  0.00    -0.356 N 
ATOM      4  C   UNL A   1      32.028  23.961  26.685  1.00  0.00     0.229 C 
ATOM      5  O   UNL A   1      31.735  23.099  27.517  1.00  0.00    -0.274 OA
ATOM      6  H   UNL A   1      30.455  25.083  27.220  1.00  0.00     0.163 HD
BRANCH   4   7
ATOM      7  C   UNL A   1      33.172  23.796  25.677  1.00  0.00     0.127 C 
BRANCH   7   8
ATOM      8  C   UNL A   1      34.615  23.823  26.210  1.00  0.00     0.020 C 
BRANCH   8   9
ATOM      9  C   UNL A   1      35.835  24.070  25.302  1.00  0.00     0.001 C 
BRANCH   9  10
ATOM     10  C   UNL A   1      37.167  23.341  25.493  1.00  0.00    -0.003 C 
ATOM     11  C   UNL A   1      38.185  24.031  26.378  1.00  0.00     0.004 C 
ENDBRANCH   9  10
ENDBRANCH   8   9
ENDBRANCH   7   8
BRANCH   7  12
ATOM     12  C   UNL A   1      32.830  22.692  24.677  1.00  0.00     0.050 A 
ATOM     13  C   UNL A   1      32.293  22.882  23.408  1.00  0.00     0.046 A 
ATOM     14  N   UNL A   1      32.909  21.320  24.812  1.00  0.00    -0.272 N 
ATOM     15  C   UNL A   1      32.122  21.605  22.865  1.00  0.00     0.135 A 
ATOM     16  N   UNL A   1      32.526  20.654  23.699  1.00  0.00    -0.182 NA
ATOM     17  C   UNL A   1      33.344  20.483  25.902  1.00  0.00     0.174 C 
ENDBRANCH   7  12
ENDBRANCH   4   7
ENDBRANCH   2   3
ENDBRANCH   1   2
BRANCH   1  18
ATOM     18  C   UNL A   1      31.742  28.856  26.590  1.00  0.00     0.023 C 
BRANCH  18  19
ATOM     19  C   UNL A   1      32.756  29.799  25.943  1.00  0.00     0.116 C 
BRANCH  19  20
ATOM     20  N   UNL A   1      32.593  31.182  26.358  1.00  0.00    -0.352 N 
ATOM     21  C   UNL A   1      33.316  31.942  27.246  1.00  0.00     0.251 C 
ATOM     22  H   UNL A   1      31.840  31.653  25.934  1.00  0.00     0.163 HD
ATOM     23  O   UNL A   1      32.910  33.062  27.546  1.00  0.00    -0.269 OA
BRANCH  21  24
ATOM     24  C   UNL A   1      34.558  31.428  27.872  1.00  0.00     0.039 A 
ATOM     25  C   UNL A   1      35.643  32.302  28.002  1.00  0.00     0.014 A 
ATOM     26  C   UNL A   1      34.688  30.101  28.288  1.00  0.00     0.014 A 
ATOM     27  C   UNL A   1      36.825  31.866  28.606  1.00  0.00     0.010 A 
ATOM     28  C   UNL A   1      35.844  29.684  28.953  1.00  0.00     0.010 A 
ATOM     29  C   UNL A   1      36.925  30.563  29.121  1.00  0.00    -0.014 A 
BRANCH  29  30
ATOM     30  C   UNL A   1      38.145  30.136  29.857  1.00  0.00     0.031 A 
ATOM     31  C   UNL A   1      38.416  30.612  31.256  1.00  0.00     0.074 A 
ATOM     32  C   UNL A   1      39.038  29.336  29.240  1.00  0.00     0.049 A 
ATOM     33  N   UNL A   1      39.410  30.310  32.055  1.00  0.00    -0.248 NA
ATOM     34  C   UNL A   1      37.462  31.573  31.827  1.00  0.00     0.031 C 
ATOM     35  C   UNL A   1      38.934  28.865  27.858  1.00  0.00     0.029 A 
ATOM     36  N   UNL A   1      40.208  28.780  29.693  1.00  0.00    -0.354 N 
ATOM     37  C   UNL A   1      39.206  31.047  33.214  1.00  0.00     0.074 A 
ATOM     38  C   UNL A   1      38.021  31.850  32.997  1.00  0.00     0.031 C 
ATOM     39  C   UNL A   1      39.977  28.065  27.587  1.00  0.00     0.029 A 
ATOM     40  C   UNL A   1      40.833  27.984  28.766  1.00  0.00     0.049 A 
ATOM     41  H   UNL A   1      40.564  28.937  30.598  1.00  0.00     0.167 HD
ATOM     42  C   UNL A   1      39.927  31.039  34.362  1.00  0.00     0.037 A 
ATOM     43  C   UNL A   1      41.963  27.256  28.858  1.00  0.00     0.037 A 
ATOM     44  C   UNL A   1      41.093  30.222  34.587  1.00  0.00     0.049 A 
ATOM     45  C   UNL A   1      42.716  27.225  30.158  1.00  0.00     0.074 A 
ATOM     46  C   UNL A   1      41.848  30.093  35.741  1.00  0.00     0.029 A 
ATOM     47  N   UNL A   1      41.674  29.397  33.637  1.00  0.00    -0.354 N 
ATOM     48  N   UNL A   1      42.460  27.855  31.278  1.00  0.00    -0.248 NA
ATOM     49  C   UNL A   1      43.907  26.364  30.212  1.00  0.00     0.031 C 
ATOM     50  C   UNL A   1      42.909  29.219  35.475  1.00  0.00     0.029 A 
ATOM     51  C   UNL A   1      42.788  28.768  34.172  1.00  0.00     0.049 A 
ATOM     52  H   UNL A   1      41.345  29.274  32.716  1.00  0.00     0.167 HD
ATOM     53  C   UNL A   1      43.438  27.449  32.177  1.00  0.00     0.074 A 
ATOM     54  C   UNL A   1      44.281  26.504  31.476  1.00  0.00     0.031 C 
ATOM     55  C   UNL A   1      43.620  27.828  33.466  1.00  0.00     0.037 A 
BRANCH  42  56
ATOM     56  C   UNL A   1      39.470  31.939  35.473  1.00  0.00     0.064 A 
ATOM     57  C   UNL A   1      38.572  31.494  36.457  1.00  0.00     0.173 A 
ATOM     58  C   UNL A   1      39.964  33.247  35.581  1.00  0.00     0.173 A 
ATOM     59  F   UNL A   1      38.063  30.255  36.394  1.00  0.00    -0.203 F 
ATOM     60  C   UNL A   1      38.165  32.336  37.489  1.00  0.00     0.198 A 
ATOM     61  C   UNL A   1      39.577  34.076  36.631  1.00  0.00     0.198 A 
ATOM     62  F   UNL A   1      40.831  33.720  34.672  1.00  0.00    -0.203 F 
ATOM     63  F   UNL A   1      37.271  31.903  38.388  1.00  0.00    -0.200 F 
ATOM     64  C   UNL A   1      38.672  33.622  37.579  1.00  0.00     0.200 A 
ATOM     65  F   UNL A   1      40.078  35.317  36.724  1.00  0.00    -0.200 F 
ATOM     66  F   UNL A   1      38.284  34.429  38.577  1.00  0.00    -0.200 F 
ENDBRANCH  42  56
BRANCH  43  67
ATOM     67  C   UNL A   1      42.419  26.453  27.695  1.00  0.00     0.064 A 
ATOM     68  C   UNL A   1      43.385  26.953  26.811  1.00  0.00     0.173 A 
ATOM     69  C   UNL A   1      41.907  25.172  27.448  1.00  0.00     0.173 A 
ATOM     70  F   UNL A   1      43.889  28.182  26.996  1.00  0.00    -0.203 F 
ATOM     71  C   UNL A   1      43.810  26.209  25.713  1.00  0.00     0.198 A 
ATOM     72  C   UNL A   1      42.351  24.418  26.365  1.00  0.00     0.198 A 
ATOM     73  F   UNL A   1      40.986  24.647  28.269  1.00  0.00    -0.203 F 
ATOM     74  F   UNL A   1      44.704  26.727  24.861  1.00  0.00    -0.200 F 
ATOM     75  C   UNL A   1      43.296  24.939  25.494  1.00  0.00     0.200 A 
ATOM     76  F   UNL A   1      41.865  23.185  26.164  1.00  0.00    -0.200 F 
ATOM     77  F   UNL A   1      43.709  24.221  24.440  1.00  0.00    -0.200 F 
ENDBRANCH  43  67
BRANCH  55  78
ATOM     78  C   UNL A   1      44.761  27.195  34.208  1.00  0.00     0.064 A 
ATOM     79  C   UNL A   1      46.032  27.788  34.250  1.00  0.00     0.173 A 
ATOM     80  C   UNL A   1      44.578  25.984  34.893  1.00  0.00     0.173 A 
ATOM     81  F   UNL A   1      46.263  28.937  33.598  1.00  0.00    -0.203 F 
ATOM     82  C   UNL A   1      47.086  27.174  34.922  1.00  0.00     0.198 A 
ATOM     83  C   UNL A   1      45.626  25.388  35.588  1.00  0.00     0.198 A 
ATOM     84  F   UNL A   1      43.381  25.380  34.889  1.00  0.00    -0.203 F 
ATOM     85  F   UNL A   1      48.306  27.730  34.899  1.00  0.00    -0.200 F 
ATOM     86  C   UNL A   1      46.882  25.978  35.592  1.00  0.00     0.200 A 
ATOM     87  F   UNL A   1      45.425  24.238  36.245  1.00  0.00    -0.200 F 
ATOM     88  F   UNL A   1      47.899  25.386  36.235  1.00  0.00    -0.200 F 
ENDBRANCH  55  78
ENDBRANCH  29  30
ENDBRANCH  21  24
ENDBRANCH  19  20
ENDBRANCH  18  19
ENDBRANCH   1  18
TORSDOF 15
ENDMDL
MODEL 2
REMARK VINA RESULT:     -10.9      2.234      3.879
REMARK SMILES CCCC[C@H](C(=O)NCCCCNC(=O)c1ccc(-c2c3nc(c(-c4c(F)c(F)c(F)c(F)c4F)c4ccc([nH]4)c(-c4c(F)c(F)c(F)c(F)c4F)c4nc(c(-c5c(F)c(F)c(F)c(F)c5F)c5ccc2[nH]5)C=C4)C=C3)cc1)c1ccnn1C
REMARK SMILES IDX 10 1 9 2 8 3 6 4 7 5 5 7 4 8 3 9 2 10 1 11 79 12 80 13 83 14
REMARK SMILES IDX 81 15 82 16 84 17 11 18 12 19 13 20 14 21 15 23 16 24 17 25
REMARK SMILES IDX 78 26 18 27 77 28 19 29 20 30 21 31 71 32 22 33 76 34 70 35
REMARK SMILES IDX 72 36 23 37 75 38 69 39 68 40 24 42 56 43 36 44 55 45 37 46
REMARK SMILES IDX 40 47 54 48 73 49 38 50 39 51 53 53 74 54 41 55 25 56 26 57
REMARK SMILES IDX 34 58 27 59 28 60 32 61 35 62 29 63 30 64 33 65 31 66 57 67
REMARK SMILES IDX 58 68 66 69 59 70 60 71 64 72 67 73 61 74 62 75 65 76 63 77
REMARK SMILES IDX 42 78 43 79 51 80 44 81 45 82 49 83 52 84 46 85 47 86 50 87
REMARK SMILES IDX 48 88
REMARK H PARENT 8 6 13 22 72 41 40 52
REMARK Flexibility Score: inf
ROOT
ATOM      1  C   UNL A   1      31.322  31.008  25.794  1.00  0.00     0.023 C 
ENDROOT
BRANCH   1   2
ATOM      2  C   UNL A   1      32.508  30.050  25.845  1.00  0.00     0.116 C 
BRANCH   2   3
ATOM      3  N   UNL A   1      32.984  29.646  24.534  1.00  0.00    -0.356 N 
ATOM      4  C   UNL A   1      32.373  28.848  23.597  1.00  0.00     0.229 C 
ATOM      5  O   UNL A   1      32.876  28.806  22.473  1.00  0.00    -0.274 OA
ATOM      6  H   UNL A   1      33.870  29.994  24.280  1.00  0.00     0.163 HD
BRANCH   4   7
ATOM      7  C   UNL A   1      31.122  28.049  23.985  1.00  0.00     0.127 C 
BRANCH   7   8
ATOM      8  C   UNL A   1      29.857  28.225  23.126  1.00  0.00     0.020 C 
BRANCH   8   9
ATOM      9  C   UNL A   1      29.279  29.607  22.767  1.00  0.00     0.001 C 
BRANCH   9  10
ATOM     10  C   UNL A   1      27.846  30.017  23.116  1.00  0.00    -0.003 C 
ATOM     11  C   UNL A   1      27.635  31.476  23.467  1.00  0.00     0.004 C 
ENDBRANCH   9  10
ENDBRANCH   8   9
ENDBRANCH   7   8
BRANCH   7  12
ATOM     12  C   UNL A   1      31.511  26.617  24.349  1.00  0.00     0.050 A 
ATOM     13  C   UNL A   1      31.616  26.106  25.638  1.00  0.00     0.046 A 
ATOM     14  N   UNL A   1      31.890  25.568  23.535  1.00  0.00    -0.272 N 
ATOM     15  C   UNL A   1      32.019  24.774  25.496  1.00  0.00     0.135 A 
ATOM     16  N   UNL A   1      32.154  24.433  24.220  1.00  0.00    -0.182 NA
ATOM     17  C   UNL A   1      32.028  25.461  22.104  1.00  0.00     0.174 C 
ENDBRANCH   7  12
ENDBRANCH   4   7
ENDBRANCH   2   3
ENDBRANCH   1   2
BRANCH   1  18
ATOM     18  C   UNL A   1      31.299  32.093  26.876  1.00  0.00     0.023 C 
BRANCH  18  19
ATOM     19  C   UNL A   1      32.583  32.904  27.044  1.00  0.00     0.116 C 
BRANCH  19  20
ATOM     20  N   UNL A   1      32.353  34.224  27.608  1.00  0.00    -0.352 N 
ATOM     21  C   UNL A   1      32.995  34.889  28.625  1.00  0.00     0.251 C 
ATOM     22  H   UNL A   1      31.615  34.725  27.193  1.00  0.00     0.163 HD
ATOM     23  O   UNL A   1      32.538  35.956  29.026  1.00  0.00    -0.269 OA
BRANCH  21  24
ATOM     24  C   UNL A   1      34.210  34.331  29.267  1.00  0.00     0.039 A 
ATOM     25  C   UNL A   1      34.046  33.509  30.388  1.00  0.00     0.014 A 
ATOM     26  C   UNL A   1      35.497  34.636  28.817  1.00  0.00     0.014 A 
ATOM     27  C   UNL A   1      35.162  32.944  31.011  1.00  0.00     0.010 A 
ATOM     28  C   UNL A   1      36.608  34.017  29.397  1.00  0.00     0.010 A 
ATOM     29  C   UNL A   1      36.453  33.163  30.499  1.00  0.00    -0.014 A 
BRANCH  29  30
ATOM     30  C   UNL A   1      37.627  32.475  31.100  1.00  0.00     0.031 A 
ATOM     31  C   UNL A   1      38.137  32.854  32.461  1.00  0.00     0.074 A 
ATOM     32  C   UNL A   1      38.262  31.520  30.392  1.00  0.00     0.049 A 
ATOM     33  N   UNL A   1      39.124  32.335  33.149  1.00  0.00    -0.248 NA
ATOM     34  C   UNL A   1      37.472  33.982  33.130  1.00  0.00     0.031 C 
ATOM     35  C   UNL A   1      37.917  31.110  29.030  1.00  0.00     0.029 A 
ATOM     36  N   UNL A   1      39.331  30.722  30.718  1.00  0.00    -0.354 N 
ATOM     37  C   UNL A   1      39.202  33.073  34.322  1.00  0.00     0.074 A 
ATOM     38  C   UNL A   1      38.196  34.110  34.233  1.00  0.00     0.031 C 
ATOM     39  C   UNL A   1      38.734  30.116  28.649  1.00  0.00     0.029 A 
ATOM     40  C   UNL A   1      39.674  29.833  29.730  1.00  0.00     0.049 A 
ATOM     41  H   UNL A   1      39.805  30.782  31.579  1.00  0.00     0.167 HD
ATOM     42  C   UNL A   1      40.023  32.891  35.387  1.00  0.00     0.037 A 
ATOM     43  C   UNL A   1      40.629  28.884  29.701  1.00  0.00     0.037 A 
ATOM     44  C   UNL A   1      41.008  31.845  35.486  1.00  0.00     0.049 A 
ATOM     45  C   UNL A   1      41.492  28.669  30.913  1.00  0.00     0.074 A 
ATOM     46  C   UNL A   1      41.837  31.536  36.552  1.00  0.00     0.029 A 
ATOM     47  N   UNL A   1      41.300  30.936  34.480  1.00  0.00    -0.354 N 
ATOM     48  N   UNL A   1      41.492  29.314  32.053  1.00  0.00    -0.248 NA
ATOM     49  C   UNL A   1      42.474  27.578  30.840  1.00  0.00     0.031 C 
ATOM     50  C   UNL A   1      42.657  30.466  36.176  1.00  0.00     0.029 A 
ATOM     51  C   UNL A   1      42.307  30.077  34.894  1.00  0.00     0.049 A 
ATOM     52  H   UNL A   1      40.858  30.904  33.601  1.00  0.00     0.167 HD
ATOM     53  C   UNL A   1      42.453  28.695  32.842  1.00  0.00     0.074 A 
ATOM     54  C   UNL A   1      43.000  27.609  32.056  1.00  0.00     0.031 C 
ATOM     55  C   UNL A   1      42.845  29.000  34.103  1.00  0.00     0.037 A 
BRANCH  42  56
ATOM     56  C   UNL A   1      39.884  33.843  36.539  1.00  0.00     0.064 A 
ATOM     57  C   UNL A   1      39.034  33.567  37.622  1.00  0.00     0.173 A 
ATOM     58  C   UNL A   1      40.638  35.025  36.583  1.00  0.00     0.173 A 
ATOM     59  F   UNL A   1      38.285  32.455  37.624  1.00  0.00    -0.203 F 
ATOM     60  C   UNL A   1      38.924  34.452  38.691  1.00  0.00     0.198 A 
ATOM     61  C   UNL A   1      40.546  35.894  37.667  1.00  0.00     0.198 A 
ATOM     62  F   UNL A   1      41.471  35.334  35.578  1.00  0.00    -0.203 F 
ATOM     63  F   UNL A   1      38.070  34.189  39.690  1.00  0.00    -0.200 F 
ATOM     64  C   UNL A   1      39.684  35.611  38.716  1.00  0.00     0.200 A 
ATOM     65  F   UNL A   1      41.291  37.009  37.696  1.00  0.00    -0.200 F 
ATOM     66  F   UNL A   1      39.581  36.460  39.749  1.00  0.00    -0.200 F 
ENDBRANCH  42  56
BRANCH  43  67
ATOM     67  C   UNL A   1      40.781  28.028  28.497  1.00  0.00     0.064 A 
ATOM     68  C   UNL A   1      41.590  28.433  27.426  1.00  0.00     0.173 A 
ATOM     69  C   UNL A   1      40.132  26.790  28.396  1.00  0.00     0.173 A 
ATOM     70  F   UNL A   1      42.216  29.619  27.470  1.00  0.00    -0.203 F 
ATOM     71  C   UNL A   1      41.729  27.639  26.290  1.00  0.00     0.198 A 
ATOM     72  C   UNL A   1      40.293  25.985  27.270  1.00  0.00     0.198 A 
ATOM     73  F   UNL A   1      39.353  26.356  29.397  1.00  0.00    -0.203 F 
ATOM     74  F   UNL A   1      42.475  28.068  25.263  1.00  0.00    -0.200 F 
ATOM     75  C   UNL A   1      41.084  26.413  26.215  1.00  0.00     0.200 A 
ATOM     76  F   UNL A   1      39.681  24.795  27.207  1.00  0.00    -0.200 F 
ATOM     77  F   UNL A   1      41.223  25.647  25.124  1.00  0.00    -0.200 F 
ENDBRANCH  43  67
BRANCH  55  78
ATOM     78  C   UNL A   1      43.899  28.128  34.720  1.00  0.00     0.064 A 
ATOM     79  C   UNL A   1      43.574  26.937  35.388  1.00  0.00     0.173 A 
ATOM     80  C   UNL A   1      45.254  28.482  34.634  1.00  0.00     0.173 A 
ATOM     81  F   UNL A   1      42.292  26.562  35.511  1.00  0.00    -0.203 F 
ATOM     82  C   UNL A   1      44.563  26.153  35.977  1.00  0.00     0.198 A 
ATOM     83  C   UNL A   1      46.243  27.682  35.198  1.00  0.00     0.198 A 
ATOM     84  F   UNL A   1      45.619  29.607  34.001  1.00  0.00    -0.203 F 
ATOM     85  F   UNL A   1      44.222  25.051  36.659  1.00  0.00    -0.200 F 
ATOM     86  C   UNL A   1      45.895  26.523  35.879  1.00  0.00     0.200 A 
ATOM     87  F   UNL A   1      47.531  28.034  35.093  1.00  0.00    -0.200 F 
ATOM     88  F   UNL A   1      46.845  25.769  36.449  1.00  0.00    -0.200 F 
ENDBRANCH  55  78
ENDBRANCH  29  30
ENDBRANCH  21  24
ENDBRANCH  19  20
ENDBRANCH  18  19
ENDBRANCH   1  18
TORSDOF 15
ENDMDL
MODEL 3
REMARK VINA RESULT:     -10.8      4.764     10.246
REMARK SMILES CCCC[C@H](C(=O)NCCCCNC(=O)c1ccc(-c2c3nc(c(-c4c(F)c(F)c(F)c(F)c4F)c4ccc([nH]4)c(-c4c(F)c(F)c(F)c(F)c4F)c4nc(c(-c5c(F)c(F)c(F)c(F)c5F)c5ccc2[nH]5)C=C4)C=C3)cc1)c1ccnn1C
REMARK SMILES IDX 10 1 9 2 8 3 6 4 7 5 5 7 4 8 3 9 2 10 1 11 79 12 80 13 83 14
REMARK SMILES IDX 81 15 82 16 84 17 11 18 12 19 13 20 14 21 15 23 16 24 17 25
REMARK SMILES IDX 78 26 18 27 77 28 19 29 20 30 21 31 71 32 22 33 76 34 70 35
REMARK SMILES IDX 72 36 23 37 75 38 69 39 68 40 24 42 56 43 36 44 55 45 37 46
REMARK SMILES IDX 40 47 54 48 73 49 38 50 39 51 53 53 74 54 41 55 25 56 26 57
REMARK SMILES IDX 34 58 27 59 28 60 32 61 35 62 29 63 30 64 33 65 31 66 57 67
REMARK SMILES IDX 58 68 66 69 59 70 60 71 64 72 67 73 61 74 62 75 65 76 63 77
REMARK SMILES IDX 42 78 43 79 51 80 44 81 45 82 49 83 52 84 46 85 47 86 50 87
REMARK SMILES IDX 48 88
REMARK H PARENT 8 6 13 22 72 41 40 52
REMARK Flexibility Score: inf
ROOT
ATOM      1  C   UNL A   1      42.491  22.507  28.469  1.00  0.00     0.023 C 
ENDROOT
BRANCH   1   2
ATOM      2  C   UNL A   1      43.244  23.464  27.550  1.00  0.00     0.116 C 
BRANCH   2   3
ATOM      3  N   UNL A   1      44.688  23.344  27.647  1.00  0.00    -0.356 N 
ATOM      4  C   UNL A   1      45.653  23.731  26.748  1.00  0.00     0.229 C 
ATOM      5  O   UNL A   1      46.824  23.714  27.130  1.00  0.00    -0.274 OA
ATOM      6  H   UNL A   1      45.024  22.927  28.473  1.00  0.00     0.163 HD
BRANCH   4   7
ATOM      7  C   UNL A   1      45.241  24.150  25.331  1.00  0.00     0.127 C 
BRANCH   7   8
ATOM      8  C   UNL A   1      44.360  23.184  24.518  1.00  0.00     0.020 C 
BRANCH   8   9
ATOM      9  C   UNL A   1      44.817  21.764  24.133  1.00  0.00     0.001 C 
BRANCH   9  10
ATOM     10  C   UNL A   1      44.746  20.583  25.104  1.00  0.00    -0.003 C 
ATOM     11  C   UNL A   1      44.829  19.203  24.484  1.00  0.00     0.004 C 
ENDBRANCH   9  10
ENDBRANCH   8   9
ENDBRANCH   7   8
BRANCH   7  12
ATOM     12  C   UNL A   1      44.835  25.623  25.320  1.00  0.00     0.050 A 
ATOM     13  C   UNL A   1      43.540  26.107  25.175  1.00  0.00     0.046 A 
ATOM     14  N   UNL A   1      45.619  26.758  25.384  1.00  0.00    -0.272 N 
ATOM     15  C   UNL A   1      43.643  27.502  25.198  1.00  0.00     0.135 A 
ATOM     16  N   UNL A   1      44.898  27.902  25.359  1.00  0.00    -0.182 NA
ATOM     17  C   UNL A   1      47.044  26.939  25.498  1.00  0.00     0.174 C 
ENDBRANCH   7  12
ENDBRANCH   4   7
ENDBRANCH   2   3
ENDBRANCH   1   2
BRANCH   1  18
ATOM     18  C   UNL A   1      41.570  21.502  27.769  1.00  0.00     0.023 C 
BRANCH  18  19
ATOM     19  C   UNL A   1      41.338  21.727  26.276  1.00  0.00     0.116 C 
BRANCH  19  20
ATOM     20  N   UNL A   1      39.929  21.781  25.920  1.00  0.00    -0.352 N 
ATOM     21  C   UNL A   1      38.991  22.765  26.122  1.00  0.00     0.251 C 
ATOM     22  H   UNL A   1      39.591  20.980  25.459  1.00  0.00     0.163 HD
ATOM     23  O   UNL A   1      37.814  22.535  25.854  1.00  0.00    -0.269 OA
BRANCH  21  24
ATOM     24  C   UNL A   1      39.364  24.086  26.682  1.00  0.00     0.039 A 
ATOM     25  C   UNL A   1      39.051  24.348  28.020  1.00  0.00     0.014 A 
ATOM     26  C   UNL A   1      39.971  25.078  25.908  1.00  0.00     0.014 A 
ATOM     27  C   UNL A   1      39.405  25.571  28.596  1.00  0.00     0.010 A 
ATOM     28  C   UNL A   1      40.385  26.274  26.501  1.00  0.00     0.010 A 
ATOM     29  C   UNL A   1      40.108  26.534  27.852  1.00  0.00    -0.014 A 
BRANCH  29  30
ATOM     30  C   UNL A   1      40.575  27.790  28.497  1.00  0.00     0.031 A 
ATOM     31  C   UNL A   1      42.017  27.981  28.875  1.00  0.00     0.074 A 
ATOM     32  C   UNL A   1      39.679  28.757  28.777  1.00  0.00     0.049 A 
ATOM     33  N   UNL A   1      42.600  29.025  29.411  1.00  0.00    -0.248 NA
ATOM     34  C   UNL A   1      42.919  26.843  28.648  1.00  0.00     0.031 C 
ATOM     35  C   UNL A   1      38.238  28.668  28.532  1.00  0.00     0.029 A 
ATOM     36  N   UNL A   1      39.845  30.002  29.329  1.00  0.00    -0.354 N 
ATOM     37  C   UNL A   1      43.930  28.668  29.591  1.00  0.00     0.074 A 
ATOM     38  C   UNL A   1      44.058  27.293  29.155  1.00  0.00     0.031 C 
ATOM     39  C   UNL A   1      37.658  29.820  28.900  1.00  0.00     0.029 A 
ATOM     40  C   UNL A   1      38.679  30.721  29.426  1.00  0.00     0.049 A 
ATOM     41  H   UNL A   1      40.718  30.348  29.626  1.00  0.00     0.167 HD
ATOM     42  C   UNL A   1      44.955  29.423  30.057  1.00  0.00     0.037 A 
ATOM     43  C   UNL A   1      38.458  31.971  29.875  1.00  0.00     0.037 A 
ATOM     44  C   UNL A   1      44.833  30.798  30.469  1.00  0.00     0.049 A 
ATOM     45  C   UNL A   1      39.619  32.805  30.339  1.00  0.00     0.074 A 
ATOM     46  C   UNL A   1      45.827  31.667  30.888  1.00  0.00     0.029 A 
ATOM     47  N   UNL A   1      43.642  31.506  30.516  1.00  0.00    -0.354 N 
ATOM     48  N   UNL A   1      40.887  32.487  30.416  1.00  0.00    -0.248 NA
ATOM     49  C   UNL A   1      39.318  34.181  30.758  1.00  0.00     0.031 C 
ATOM     50  C   UNL A   1      45.230  32.887  31.226  1.00  0.00     0.029 A 
ATOM     51  C   UNL A   1      43.872  32.795  30.972  1.00  0.00     0.049 A 
ATOM     52  H   UNL A   1      42.760  31.147  30.262  1.00  0.00     0.167 HD
ATOM     53  C   UNL A   1      41.540  33.626  30.868  1.00  0.00     0.074 A 
ATOM     54  C   UNL A   1      40.528  34.649  31.028  1.00  0.00     0.031 C 
ATOM     55  C   UNL A   1      42.858  33.806  31.127  1.00  0.00     0.037 A 
BRANCH  42  56
ATOM     56  C   UNL A   1      46.309  28.779  30.139  1.00  0.00     0.064 A 
ATOM     57  C   UNL A   1      46.772  28.190  31.327  1.00  0.00     0.173 A 
ATOM     58  C   UNL A   1      47.137  28.712  29.009  1.00  0.00     0.173 A 
ATOM     59  F   UNL A   1      46.022  28.236  32.438  1.00  0.00    -0.203 F 
ATOM     60  C   UNL A   1      48.024  27.585  31.387  1.00  0.00     0.198 A 
ATOM     61  C   UNL A   1      48.377  28.080  29.065  1.00  0.00     0.198 A 
ATOM     62  F   UNL A   1      46.740  29.251  27.846  1.00  0.00    -0.203 F 
ATOM     63  F   UNL A   1      48.463  27.073  32.544  1.00  0.00    -0.200 F 
ATOM     64  C   UNL A   1      48.823  27.524  30.255  1.00  0.00     0.200 A 
ATOM     65  F   UNL A   1      49.144  28.011  27.967  1.00  0.00    -0.200 F 
ATOM     66  F   UNL A   1      50.026  26.936  30.313  1.00  0.00    -0.200 F 
ENDBRANCH  42  56
BRANCH  43  67
ATOM     67  C   UNL A   1      37.081  32.528  29.855  1.00  0.00     0.064 A 
ATOM     68  C   UNL A   1      36.593  33.198  28.724  1.00  0.00     0.173 A 
ATOM     69  C   UNL A   1      36.225  32.394  30.956  1.00  0.00     0.173 A 
ATOM     70  F   UNL A   1      37.383  33.366  27.653  1.00  0.00    -0.203 F 
ATOM     71  C   UNL A   1      35.306  33.731  28.703  1.00  0.00     0.198 A 
ATOM     72  C   UNL A   1      34.929  32.904  30.925  1.00  0.00     0.198 A 
ATOM     73  F   UNL A   1      36.643  31.755  32.059  1.00  0.00    -0.203 F 
ATOM     74  F   UNL A   1      34.879  34.402  27.626  1.00  0.00    -0.200 F 
ATOM     75  C   UNL A   1      34.473  33.578  29.802  1.00  0.00     0.200 A 
ATOM     76  F   UNL A   1      34.121  32.743  31.982  1.00  0.00    -0.200 F 
ATOM     77  F   UNL A   1      33.233  34.086  29.780  1.00  0.00    -0.200 F 
ENDBRANCH  43  67
BRANCH  55  78
ATOM     78  C   UNL A   1      43.284  35.170  31.585  1.00  0.00     0.064 A 
ATOM     79  C   UNL A   1      43.232  35.545  32.936  1.00  0.00     0.173 A 
ATOM     80  C   UNL A   1      43.757  36.114  30.660  1.00  0.00     0.173 A 
ATOM     81  F   UNL A   1      42.772  34.685  33.857  1.00  0.00    -0.203 F 
ATOM     82  C   UNL A   1      43.606  36.824  33.340  1.00  0.00     0.198 A 
ATOM     83  C   UNL A   1      44.157  37.382  31.071  1.00  0.00     0.198 A 
ATOM     84  F   UNL A   1      43.832  35.805  29.357  1.00  0.00    -0.203 F 
ATOM     85  F   UNL A   1      43.493  37.177  34.628  1.00  0.00    -0.200 F 
ATOM     86  C   UNL A   1      44.071  37.740  32.409  1.00  0.00     0.200 A 
ATOM     87  F   UNL A   1      44.618  38.263  30.172  1.00  0.00    -0.200 F 
ATOM     88  F   UNL A   1      44.428  38.972  32.799  1.00  0.00    -0.200 F 
ENDBRANCH  55  78
ENDBRANCH  29  30
ENDBRANCH  21  24
ENDBRANCH  19  20
ENDBRANCH  18  19
ENDBRANCH   1  18
TORSDOF 15
ENDMDL
