MODEL 1
REMARK VINA RESULT:     -12.5      0.000      0.000
REMARK SMILES CC(C)Cc1ccc(C[N@@H+]2CCO[C@@H](C(=O)NCCCCNC(=O)c3ccc(-c4c5nc(c(-c6c(F)c(F)c(F)c(F)c6F)c6ccc([nH]6)c(-c6c(F)c(F)c(F)c(F)c6F)c6nc(c(-c7c(F)c(F)c(F)c(F)c7F)c7ccc4[nH]7)C=C6)C=C5)cc3)C2)cc1
REMARK SMILES IDX 18 1 17 2 15 3 16 4 14 6 10 7 11 8 88 9 12 11 13 12 9 13
REMARK SMILES IDX 8 14 5 15 6 16 90 17 7 18 89 19 4 20 2 21 1 22 3 23 19 24
REMARK SMILES IDX 20 25 21 26 22 27 23 28 24 30 25 31 26 32 87 33 27 34 86 35
REMARK SMILES IDX 28 36 29 37 30 38 80 39 31 40 85 41 79 42 81 43 32 44 84 45
REMARK SMILES IDX 78 46 77 47 33 49 65 50 45 51 64 52 46 53 49 54 63 55 82 56
REMARK SMILES IDX 47 57 48 58 62 60 83 61 50 62 34 63 35 64 43 65 36 66 37 67
REMARK SMILES IDX 41 68 44 69 38 70 39 71 42 72 40 73 66 74 67 75 75 76 68 77
REMARK SMILES IDX 69 78 73 79 76 80 70 81 71 82 74 83 72 84 51 85 52 86 60 87
REMARK SMILES IDX 53 88 54 89 58 90 61 91 55 92 56 93 59 94 57 95
REMARK H PARENT 17 5 10 10 22 29 81 48 49 59
REMARK Flexibility Score: inf
ROOT
ATOM      1  C   UNL A   1      35.831  21.186  25.393  1.00  0.00     0.116 C 
ENDROOT
BRANCH   1   2
ATOM      2  N   UNL A   1      34.733  20.618  24.631  1.00  0.00    -0.354 N 
ATOM      3  C   UNL A   1      33.452  21.086  24.506  1.00  0.00     0.255 C 
ATOM      4  O   UNL A   1      32.646  20.409  23.863  1.00  0.00    -0.272 OA
ATOM      5  H   UNL A   1      34.936  19.790  24.141  1.00  0.00     0.163 HD
BRANCH   3   6
ATOM      6  C   UNL A   1      33.039  22.386  25.205  1.00  0.00     0.261 C 
ATOM      7  N   UNL A   1      31.241  24.196  25.027  1.00  0.00    -0.327 N 
ATOM      8  C   UNL A   1      31.021  23.946  26.459  1.00  0.00     0.291 C 
ATOM      9  C   UNL A   1      31.911  23.055  24.384  1.00  0.00     0.305 C 
ATOM     10  H   UNL A   1      30.307  24.263  24.619  1.00  0.00     0.348 HD
ATOM     11  C   UNL A   1      32.177  23.270  27.220  1.00  0.00     0.222 C 
ATOM     12  O   UNL A   1      32.654  22.102  26.558  1.00  0.00    -0.357 OA
BRANCH   7  13
ATOM     13  C   UNL A   1      31.779  25.513  24.671  1.00  0.00     0.299 C 
BRANCH  13  14
ATOM     14  C   UNL A   1      30.765  26.548  24.257  1.00  0.00     0.006 A 
ATOM     15  C   UNL A   1      28.951  28.369  23.126  1.00  0.00    -0.048 A 
ATOM     16  C   UNL A   1      30.297  28.716  23.291  1.00  0.00     0.004 A 
ATOM     17  C   UNL A   1      28.503  27.128  23.588  1.00  0.00     0.004 A 
ATOM     18  C   UNL A   1      31.186  27.830  23.889  1.00  0.00     0.010 A 
ATOM     19  C   UNL A   1      29.406  26.221  24.146  1.00  0.00     0.010 A 
BRANCH  15  20
ATOM     20  C   UNL A   1      28.002  29.343  22.476  1.00  0.00     0.038 C 
BRANCH  20  21
ATOM     21  C   UNL A   1      28.485  30.803  22.544  1.00  0.00    -0.013 C 
ATOM     22  C   UNL A   1      28.403  31.519  21.192  1.00  0.00     0.008 C 
ATOM     23  C   UNL A   1      27.653  31.567  23.574  1.00  0.00     0.008 C 
ENDBRANCH  20  21
ENDBRANCH  15  20
ENDBRANCH  13  14
ENDBRANCH   7  13
ENDBRANCH   3   6
ENDBRANCH   1   2
BRANCH   1  24
ATOM     24  C   UNL A   1      37.143  21.103  24.621  1.00  0.00     0.023 C 
BRANCH  24  25
ATOM     25  C   UNL A   1      38.012  19.910  25.002  1.00  0.00     0.023 C 
BRANCH  25  26
ATOM     26  C   UNL A   1      39.198  20.257  25.888  1.00  0.00     0.116 C 
BRANCH  26  27
ATOM     27  N   UNL A   1      40.180  19.187  25.965  1.00  0.00    -0.352 N 
ATOM     28  C   UNL A   1      41.543  19.288  26.120  1.00  0.00     0.251 C 
ATOM     29  H   UNL A   1      39.823  18.272  25.898  1.00  0.00     0.163 HD
ATOM     30  O   UNL A   1      42.260  18.307  26.029  1.00  0.00    -0.269 OA
BRANCH  28  31
ATOM     31  C   UNL A   1      42.125  20.622  26.369  1.00  0.00     0.039 A 
ATOM     32  C   UNL A   1      42.464  21.426  25.280  1.00  0.00     0.014 A 
ATOM     33  C   UNL A   1      42.293  21.086  27.676  1.00  0.00     0.014 A 
ATOM     34  C   UNL A   1      42.931  22.720  25.504  1.00  0.00     0.010 A 
ATOM     35  C   UNL A   1      42.669  22.405  27.894  1.00  0.00     0.010 A 
ATOM     36  C   UNL A   1      43.012  23.227  26.812  1.00  0.00    -0.014 A 
BRANCH  36  37
ATOM     37  C   UNL A   1      43.500  24.602  27.073  1.00  0.00     0.031 A 
ATOM     38  C   UNL A   1      42.562  25.628  27.646  1.00  0.00     0.074 A 
ATOM     39  C   UNL A   1      44.760  24.942  26.745  1.00  0.00     0.049 A 
ATOM     40  N   UNL A   1      42.776  26.891  27.916  1.00  0.00    -0.248 NA
ATOM     41  C   UNL A   1      41.187  25.182  27.923  1.00  0.00     0.031 C 
ATOM     42  C   UNL A   1      45.748  24.049  26.138  1.00  0.00     0.029 A 
ATOM     43  N   UNL A   1      45.426  26.134  26.877  1.00  0.00    -0.354 N 
ATOM     44  C   UNL A   1      41.562  27.390  28.367  1.00  0.00     0.074 A 
ATOM     45  C   UNL A   1      40.600  26.314  28.274  1.00  0.00     0.031 C 
ATOM     46  C   UNL A   1      46.906  24.712  25.990  1.00  0.00     0.029 A 
ATOM     47  C   UNL A   1      46.732  26.084  26.456  1.00  0.00     0.049 A 
ATOM     48  H   UNL A   1      45.007  26.948  27.239  1.00  0.00     0.167 HD
ATOM     49  C   UNL A   1      41.280  28.626  28.844  1.00  0.00     0.037 A 
ATOM     50  C   UNL A   1      47.680  27.040  26.455  1.00  0.00     0.037 A 
ATOM     51  C   UNL A   1      42.250  29.680  28.964  1.00  0.00     0.049 A 
ATOM     52  C   UNL A   1      47.343  28.407  26.987  1.00  0.00     0.074 A 
ATOM     53  C   UNL A   1      42.091  30.945  29.500  1.00  0.00     0.029 A 
ATOM     54  N   UNL A   1      43.566  29.592  28.531  1.00  0.00    -0.354 N 
ATOM     55  N   UNL A   1      46.215  28.846  27.491  1.00  0.00    -0.248 NA
ATOM     56  C   UNL A   1      48.417  29.407  26.958  1.00  0.00     0.031 C 
ATOM     57  C   UNL A   1      43.293  31.641  29.342  1.00  0.00     0.029 A 
ATOM     58  C   UNL A   1      44.222  30.789  28.763  1.00  0.00     0.049 A 
ATOM     59  H   UNL A   1      43.974  28.795  28.120  1.00  0.00     0.167 HD
ATOM     60  C   UNL A   1      46.453  30.159  27.874  1.00  0.00     0.074 A 
ATOM     61  C   UNL A   1      47.837  30.441  27.552  1.00  0.00     0.031 C 
ATOM     62  C   UNL A   1      45.605  31.049  28.448  1.00  0.00     0.037 A 
BRANCH  49  63
ATOM     63  C   UNL A   1      39.861  28.896  29.260  1.00  0.00     0.064 A 
ATOM     64  C   UNL A   1      39.419  28.679  30.575  1.00  0.00     0.173 A 
ATOM     65  C   UNL A   1      38.928  29.375  28.329  1.00  0.00     0.173 A 
ATOM     66  F   UNL A   1      40.265  28.211  31.505  1.00  0.00    -0.203 F 
ATOM     67  C   UNL A   1      38.087  28.883  30.928  1.00  0.00     0.198 A 
ATOM     68  C   UNL A   1      37.606  29.614  28.694  1.00  0.00     0.198 A 
ATOM     69  F   UNL A   1      39.295  29.606  27.059  1.00  0.00    -0.203 F 
ATOM     70  F   UNL A   1      37.674  28.598  32.170  1.00  0.00    -0.200 F 
ATOM     71  C   UNL A   1      37.183  29.355  29.989  1.00  0.00     0.200 A 
ATOM     72  F   UNL A   1      36.737  30.085  27.788  1.00  0.00    -0.200 F 
ATOM     73  F   UNL A   1      35.901  29.550  30.329  1.00  0.00    -0.200 F 
ENDBRANCH  49  63
BRANCH  50  74
ATOM     74  C   UNL A   1      49.055  26.719  25.993  1.00  0.00     0.064 A 
ATOM     75  C   UNL A   1      49.449  27.004  24.678  1.00  0.00     0.173 A 
ATOM     76  C   UNL A   1      50.001  26.132  26.845  1.00  0.00     0.173 A 
ATOM     77  F   UNL A   1      48.573  27.548  23.820  1.00  0.00    -0.203 F 
ATOM     78  C   UNL A   1      50.732  26.697  24.227  1.00  0.00     0.198 A 
ATOM     79  C   UNL A   1      51.291  25.850  26.401  1.00  0.00     0.198 A 
ATOM     80  F   UNL A   1      49.676  25.845  28.114  1.00  0.00    -0.203 F 
ATOM     81  F   UNL A   1      51.068  26.942  22.953  1.00  0.00    -0.200 F 
ATOM     82  C   UNL A   1      51.654  26.126  25.091  1.00  0.00     0.200 A 
ATOM     83  F   UNL A   1      52.185  25.311  27.243  1.00  0.00    -0.200 F 
ATOM     84  F   UNL A   1      52.888  25.836  24.658  1.00  0.00    -0.200 F 
ENDBRANCH  50  74
BRANCH  62  85
ATOM     85  C   UNL A   1      46.163  32.394  28.814  1.00  0.00     0.064 A 
ATOM     86  C   UNL A   1      46.115  33.484  27.933  1.00  0.00     0.173 A 
ATOM     87  C   UNL A   1      46.726  32.602  30.084  1.00  0.00     0.173 A 
ATOM     88  F   UNL A   1      45.602  33.334  26.702  1.00  0.00    -0.203 F 
ATOM     89  C   UNL A   1      46.637  34.723  28.297  1.00  0.00     0.198 A 
ATOM     90  C   UNL A   1      47.214  33.850  30.458  1.00  0.00     0.198 A 
ATOM     91  F   UNL A   1      46.789  31.595  30.969  1.00  0.00    -0.203 F 
ATOM     92  F   UNL A   1      46.630  35.734  27.418  1.00  0.00    -0.200 F 
ATOM     93  C   UNL A   1      47.179  34.907  29.561  1.00  0.00     0.200 A 
ATOM     94  F   UNL A   1      47.722  34.029  31.685  1.00  0.00    -0.200 F 
ATOM     95  F   UNL A   1      47.673  36.101  29.911  1.00  0.00    -0.200 F 
ENDBRANCH  62  85
ENDBRANCH  36  37
ENDBRANCH  28  31
ENDBRANCH  26  27
ENDBRANCH  25  26
ENDBRANCH  24  25
ENDBRANCH   1  24
TORSDOF 15
ENDMDL
MODEL 2
REMARK VINA RESULT:     -12.4      5.672     11.459
REMARK SMILES CC(C)Cc1ccc(C[N@@H+]2CCO[C@@H](C(=O)NCCCCNC(=O)c3ccc(-c4c5nc(c(-c6c(F)c(F)c(F)c(F)c6F)c6ccc([nH]6)c(-c6c(F)c(F)c(F)c(F)c6F)c6nc(c(-c7c(F)c(F)c(F)c(F)c7F)c7ccc4[nH]7)C=C6)C=C5)cc3)C2)cc1
REMARK SMILES IDX 18 1 17 2 15 3 16 4 14 6 10 7 11 8 88 9 12 11 13 12 9 13
REMARK SMILES IDX 8 14 5 15 6 16 90 17 7 18 89 19 4 20 2 21 1 22 3 23 19 24
REMARK SMILES IDX 20 25 21 26 22 27 23 28 24 30 25 31 26 32 87 33 27 34 86 35
REMARK SMILES IDX 28 36 29 37 30 38 80 39 31 40 85 41 79 42 81 43 32 44 84 45
REMARK SMILES IDX 78 46 77 47 33 49 65 50 45 51 64 52 46 53 49 54 63 55 82 56
REMARK SMILES IDX 47 57 48 58 62 60 83 61 50 62 34 63 35 64 43 65 36 66 37 67
REMARK SMILES IDX 41 68 44 69 38 70 39 71 42 72 40 73 66 74 67 75 75 76 68 77
REMARK SMILES IDX 69 78 73 79 76 80 70 81 71 82 74 83 72 84 51 85 52 86 60 87
REMARK SMILES IDX 53 88 54 89 58 90 61 91 55 92 56 93 59 94 57 95
REMARK H PARENT 17 5 10 10 22 29 81 48 49 59
REMARK Flexibility Score: inf
ROOT
ATOM      1  C   UNL A   1      32.174  29.905  25.586  1.00  0.00     0.116 C 
ENDROOT
BRANCH   1   2
ATOM      2  N   UNL A   1      31.179  29.840  24.531  1.00  0.00    -0.354 N 
ATOM      3  C   UNL A   1      31.017  28.876  23.572  1.00  0.00     0.255 C 
ATOM      4  O   UNL A   1      30.145  29.049  22.716  1.00  0.00    -0.272 OA
ATOM      5  H   UNL A   1      30.538  30.586  24.502  1.00  0.00     0.163 HD
BRANCH   3   6
ATOM      6  C   UNL A   1      31.944  27.656  23.547  1.00  0.00     0.261 C 
ATOM      7  N   UNL A   1      31.788  25.103  23.496  1.00  0.00    -0.327 N 
ATOM      8  C   UNL A   1      32.702  25.193  22.348  1.00  0.00     0.291 C 
ATOM      9  C   UNL A   1      31.089  26.378  23.721  1.00  0.00     0.305 C 
ATOM     10  H   UNL A   1      31.082  24.418  23.225  1.00  0.00     0.348 HD
ATOM     11  C   UNL A   1      33.520  26.492  22.225  1.00  0.00     0.222 C 
ATOM     12  O   UNL A   1      32.707  27.658  22.332  1.00  0.00    -0.357 OA
BRANCH   7  13
ATOM     13  C   UNL A   1      32.322  24.467  24.705  1.00  0.00     0.299 C 
BRANCH  13  14
ATOM     14  C   UNL A   1      32.865  23.073  24.529  1.00  0.00     0.006 A 
ATOM     15  C   UNL A   1      33.797  20.424  24.572  1.00  0.00    -0.048 A 
ATOM     16  C   UNL A   1      34.646  21.482  24.915  1.00  0.00     0.004 A 
ATOM     17  C   UNL A   1      32.494  20.703  24.147  1.00  0.00     0.004 A 
ATOM     18  C   UNL A   1      34.197  22.797  24.853  1.00  0.00     0.010 A 
ATOM     19  C   UNL A   1      32.030  22.019  24.129  1.00  0.00     0.010 A 
BRANCH  15  20
ATOM     20  C   UNL A   1      34.301  19.006  24.645  1.00  0.00     0.038 C 
BRANCH  20  21
ATOM     21  C   UNL A   1      33.272  17.966  24.167  1.00  0.00    -0.013 C 
ATOM     22  C   UNL A   1      33.871  16.937  23.204  1.00  0.00     0.008 C 
ATOM     23  C   UNL A   1      32.678  17.244  25.376  1.00  0.00     0.008 C 
ENDBRANCH  20  21
ENDBRANCH  15  20
ENDBRANCH  13  14
ENDBRANCH   7  13
ENDBRANCH   3   6
ENDBRANCH   1   2
BRANCH   1  24
ATOM     24  C   UNL A   1      31.621  30.594  26.828  1.00  0.00     0.023 C 
BRANCH  24  25
ATOM     25  C   UNL A   1      31.525  32.110  26.706  1.00  0.00     0.023 C 
BRANCH  25  26
ATOM     26  C   UNL A   1      32.740  32.860  27.232  1.00  0.00     0.116 C 
BRANCH  26  27
ATOM     27  N   UNL A   1      32.440  34.234  27.603  1.00  0.00    -0.352 N 
ATOM     28  C   UNL A   1      33.002  34.988  28.606  1.00  0.00     0.251 C 
ATOM     29  H   UNL A   1      31.747  34.681  27.066  1.00  0.00     0.163 HD
ATOM     30  O   UNL A   1      32.555  36.085  28.892  1.00  0.00    -0.269 OA
BRANCH  28  31
ATOM     31  C   UNL A   1      34.145  34.426  29.354  1.00  0.00     0.039 A 
ATOM     32  C   UNL A   1      33.898  33.705  30.522  1.00  0.00     0.014 A 
ATOM     33  C   UNL A   1      35.448  34.580  28.873  1.00  0.00     0.014 A 
ATOM     34  C   UNL A   1      34.962  33.095  31.187  1.00  0.00     0.010 A 
ATOM     35  C   UNL A   1      36.490  33.895  29.482  1.00  0.00     0.010 A 
ATOM     36  C   UNL A   1      36.261  33.165  30.657  1.00  0.00    -0.014 A 
BRANCH  36  37
ATOM     37  C   UNL A   1      37.405  32.519  31.344  1.00  0.00     0.031 A 
ATOM     38  C   UNL A   1      38.151  31.407  30.660  1.00  0.00     0.074 A 
ATOM     39  C   UNL A   1      37.736  32.891  32.594  1.00  0.00     0.049 A 
ATOM     40  N   UNL A   1      39.154  30.687  31.097  1.00  0.00    -0.248 NA
ATOM     41  C   UNL A   1      37.684  31.029  29.316  1.00  0.00     0.031 C 
ATOM     42  C   UNL A   1      37.057  33.923  33.378  1.00  0.00     0.029 A 
ATOM     43  N   UNL A   1      38.730  32.441  33.425  1.00  0.00    -0.354 N 
ATOM     44  C   UNL A   1      39.417  29.763  30.096  1.00  0.00     0.074 A 
ATOM     45  C   UNL A   1      38.430  29.967  29.059  1.00  0.00     0.031 C 
ATOM     46  C   UNL A   1      37.681  34.057  34.560  1.00  0.00     0.029 A 
ATOM     47  C   UNL A   1      38.778  33.097  34.630  1.00  0.00     0.049 A 
ATOM     48  H   UNL A   1      39.351  31.716  33.180  1.00  0.00     0.167 HD
ATOM     49  C   UNL A   1      40.411  28.844  30.033  1.00  0.00     0.037 A 
ATOM     50  C   UNL A   1      39.620  32.942  35.669  1.00  0.00     0.037 A 
ATOM     51  C   UNL A   1      41.407  28.669  31.054  1.00  0.00     0.049 A 
ATOM     52  C   UNL A   1      40.714  31.912  35.578  1.00  0.00     0.074 A 
ATOM     53  C   UNL A   1      42.499  27.820  31.060  1.00  0.00     0.029 A 
ATOM     54  N   UNL A   1      41.427  29.355  32.260  1.00  0.00    -0.354 N 
ATOM     55  N   UNL A   1      41.009  31.100  34.592  1.00  0.00    -0.248 NA
ATOM     56  C   UNL A   1      41.599  31.788  36.743  1.00  0.00     0.031 C 
ATOM     57  C   UNL A   1      43.149  27.953  32.292  1.00  0.00     0.029 A 
ATOM     58  C   UNL A   1      42.497  28.929  33.030  1.00  0.00     0.049 A 
ATOM     59  H   UNL A   1      40.777  30.044  32.530  1.00  0.00     0.167 HD
ATOM     60  C   UNL A   1      42.134  30.396  35.000  1.00  0.00     0.074 A 
ATOM     61  C   UNL A   1      42.473  30.885  36.321  1.00  0.00     0.031 C 
ATOM     62  C   UNL A   1      42.828  29.436  34.338  1.00  0.00     0.037 A 
BRANCH  49  63
ATOM     63  C   UNL A   1      40.452  27.958  28.819  1.00  0.00     0.064 A 
ATOM     64  C   UNL A   1      39.770  26.731  28.772  1.00  0.00     0.173 A 
ATOM     65  C   UNL A   1      41.188  28.339  27.688  1.00  0.00     0.173 A 
ATOM     66  F   UNL A   1      39.060  26.311  29.830  1.00  0.00    -0.203 F 
ATOM     67  C   UNL A   1      39.866  25.899  27.660  1.00  0.00     0.198 A 
ATOM     68  C   UNL A   1      41.251  27.522  26.562  1.00  0.00     0.198 A 
ATOM     69  F   UNL A   1      41.855  29.504  27.674  1.00  0.00    -0.203 F 
ATOM     70  F   UNL A   1      39.266  24.701  27.668  1.00  0.00    -0.200 F 
ATOM     71  C   UNL A   1      40.601  26.297  26.554  1.00  0.00     0.200 A 
ATOM     72  F   UNL A   1      41.951  27.915  25.488  1.00  0.00    -0.200 F 
ATOM     73  F   UNL A   1      40.693  25.495  25.484  1.00  0.00    -0.200 F 
ENDBRANCH  49  63
BRANCH  50  74
ATOM     74  C   UNL A   1      39.501  33.824  36.858  1.00  0.00     0.064 A 
ATOM     75  C   UNL A   1      38.759  33.418  37.976  1.00  0.00     0.173 A 
ATOM     76  C   UNL A   1      40.121  35.080  36.909  1.00  0.00     0.173 A 
ATOM     77  F   UNL A   1      38.130  32.232  37.967  1.00  0.00    -0.203 F 
ATOM     78  C   UNL A   1      38.627  34.240  39.093  1.00  0.00     0.198 A 
ATOM     79  C   UNL A   1      40.012  35.891  38.037  1.00  0.00     0.198 A 
ATOM     80  F   UNL A   1      40.848  35.514  35.868  1.00  0.00    -0.203 F 
ATOM     81  F   UNL A   1      37.878  33.843  40.130  1.00  0.00    -0.200 F 
ATOM     82  C   UNL A   1      39.259  35.474  39.125  1.00  0.00     0.200 A 
ATOM     83  F   UNL A   1      40.636  37.077  38.071  1.00  0.00    -0.200 F 
ATOM     84  F   UNL A   1      39.137  36.262  40.201  1.00  0.00    -0.200 F 
ENDBRANCH  50  74
BRANCH  62  85
ATOM     85  C   UNL A   1      44.056  28.889  35.009  1.00  0.00     0.064 A 
ATOM     86  C   UNL A   1      44.009  27.759  35.837  1.00  0.00     0.173 A 
ATOM     87  C   UNL A   1      45.306  29.490  34.789  1.00  0.00     0.173 A 
ATOM     88  F   UNL A   1      42.837  27.156  36.091  1.00  0.00    -0.203 F 
ATOM     89  C   UNL A   1      45.162  27.268  36.445  1.00  0.00     0.198 A 
ATOM     90  C   UNL A   1      46.462  28.976  35.369  1.00  0.00     0.198 A 
ATOM     91  F   UNL A   1      45.408  30.569  33.998  1.00  0.00    -0.203 F 
ATOM     92  F   UNL A   1      45.084  26.220  37.276  1.00  0.00    -0.200 F 
ATOM     93  C   UNL A   1      46.387  27.872  36.205  1.00  0.00     0.200 A 
ATOM     94  F   UNL A   1      47.647  29.552  35.123  1.00  0.00    -0.200 F 
ATOM     95  F   UNL A   1      47.496  27.394  36.785  1.00  0.00    -0.200 F 
ENDBRANCH  62  85
ENDBRANCH  36  37
ENDBRANCH  28  31
ENDBRANCH  26  27
ENDBRANCH  25  26
ENDBRANCH  24  25
ENDBRANCH   1  24
TORSDOF 15
ENDMDL
MODEL 3
REMARK VINA RESULT:     -12.3      0.926      7.438
REMARK SMILES CC(C)Cc1ccc(C[N@@H+]2CCO[C@@H](C(=O)NCCCCNC(=O)c3ccc(-c4c5nc(c(-c6c(F)c(F)c(F)c(F)c6F)c6ccc([nH]6)c(-c6c(F)c(F)c(F)c(F)c6F)c6nc(c(-c7c(F)c(F)c(F)c(F)c7F)c7ccc4[nH]7)C=C6)C=C5)cc3)C2)cc1
REMARK SMILES IDX 18 1 17 2 15 3 16 4 14 6 10 7 11 8 88 9 12 11 13 12 9 13
REMARK SMILES IDX 8 14 5 15 6 16 90 17 7 18 89 19 4 20 2 21 1 22 3 23 19 24
REMARK SMILES IDX 20 25 21 26 22 27 23 28 24 30 25 31 26 32 87 33 27 34 86 35
REMARK SMILES IDX 28 36 29 37 30 38 80 39 31 40 85 41 79 42 81 43 32 44 84 45
REMARK SMILES IDX 78 46 77 47 33 49 65 50 45 51 64 52 46 53 49 54 63 55 82 56
REMARK SMILES IDX 47 57 48 58 62 60 83 61 50 62 34 63 35 64 43 65 36 66 37 67
REMARK SMILES IDX 41 68 44 69 38 70 39 71 42 72 40 73 66 74 67 75 75 76 68 77
REMARK SMILES IDX 69 78 73 79 76 80 70 81 71 82 74 83 72 84 51 85 52 86 60 87
REMARK SMILES IDX 53 88 54 89 58 90 61 91 55 92 56 93 59 94 57 95
REMARK H PARENT 17 5 10 10 22 29 81 48 49 59
REMARK Flexibility Score: inf
ROOT
ATOM      1  C   UNL A   1      36.075  21.307  25.370  1.00  0.00     0.116 C 
ENDROOT
BRANCH   1   2
ATOM      2  N   UNL A   1      35.128  20.286  24.961  1.00  0.00    -0.354 N 
ATOM      3  C   UNL A   1      33.769  20.385  24.838  1.00  0.00     0.255 C 
ATOM      4  O   UNL A   1      33.134  19.368  24.543  1.00  0.00    -0.272 OA
ATOM      5  H   UNL A   1      35.515  19.407  24.744  1.00  0.00     0.163 HD
BRANCH   3   6
ATOM      6  C   UNL A   1      33.069  21.719  25.124  1.00  0.00     0.261 C 
ATOM      7  N   UNL A   1      32.248  23.787  23.863  1.00  0.00    -0.327 N 
ATOM      8  C   UNL A   1      30.969  23.545  24.546  1.00  0.00     0.291 C 
ATOM      9  C   UNL A   1      33.074  22.570  23.833  1.00  0.00     0.305 C 
ATOM     10  H   UNL A   1      32.000  24.005  22.898  1.00  0.00     0.348 HD
ATOM     11  C   UNL A   1      31.028  22.684  25.823  1.00  0.00     0.222 C 
ATOM     12  O   UNL A   1      31.748  21.470  25.626  1.00  0.00    -0.357 OA
BRANCH   7  13
ATOM     13  C   UNL A   1      32.963  25.013  24.235  1.00  0.00     0.299 C 
BRANCH  13  14
ATOM     14  C   UNL A   1      32.239  26.305  23.958  1.00  0.00     0.006 A 
ATOM     15  C   UNL A   1      30.567  28.515  23.501  1.00  0.00    -0.048 A 
ATOM     16  C   UNL A   1      30.890  27.640  22.457  1.00  0.00     0.004 A 
ATOM     17  C   UNL A   1      31.137  28.314  24.762  1.00  0.00     0.004 A 
ATOM     18  C   UNL A   1      31.751  26.570  22.674  1.00  0.00     0.010 A 
ATOM     19  C   UNL A   1      31.964  27.214  24.990  1.00  0.00     0.010 A 
BRANCH  15  20
ATOM     20  C   UNL A   1      29.633  29.670  23.246  1.00  0.00     0.038 C 
BRANCH  20  21
ATOM     21  C   UNL A   1      28.448  29.305  22.334  1.00  0.00    -0.013 C 
ATOM     22  C   UNL A   1      27.240  28.773  23.112  1.00  0.00     0.008 C 
ATOM     23  C   UNL A   1      28.029  30.535  21.527  1.00  0.00     0.008 C 
ENDBRANCH  20  21
ENDBRANCH  15  20
ENDBRANCH  13  14
ENDBRANCH   7  13
ENDBRANCH   3   6
ENDBRANCH   1   2
BRANCH   1  24
ATOM     24  C   UNL A   1      37.391  21.179  24.611  1.00  0.00     0.023 C 
BRANCH  24  25
ATOM     25  C   UNL A   1      38.188  19.928  24.957  1.00  0.00     0.023 C 
BRANCH  25  26
ATOM     26  C   UNL A   1      39.237  20.132  26.039  1.00  0.00     0.116 C 
BRANCH  26  27
ATOM     27  N   UNL A   1      40.326  19.171  25.962  1.00  0.00    -0.352 N 
ATOM     28  C   UNL A   1      41.679  19.406  26.034  1.00  0.00     0.251 C 
ATOM     29  H   UNL A   1      40.060  18.231  25.843  1.00  0.00     0.163 HD
ATOM     30  O   UNL A   1      42.484  18.518  25.815  1.00  0.00    -0.269 OA
BRANCH  28  31
ATOM     31  C   UNL A   1      42.139  20.773  26.354  1.00  0.00     0.039 A 
ATOM     32  C   UNL A   1      42.340  21.680  25.312  1.00  0.00     0.014 A 
ATOM     33  C   UNL A   1      42.328  21.161  27.683  1.00  0.00     0.014 A 
ATOM     34  C   UNL A   1      42.688  22.997  25.609  1.00  0.00     0.010 A 
ATOM     35  C   UNL A   1      42.583  22.493  27.979  1.00  0.00     0.010 A 
ATOM     36  C   UNL A   1      42.787  23.419  26.946  1.00  0.00    -0.014 A 
BRANCH  36  37
ATOM     37  C   UNL A   1      43.149  24.815  27.285  1.00  0.00     0.031 A 
ATOM     38  C   UNL A   1      44.544  25.307  27.017  1.00  0.00     0.074 A 
ATOM     39  C   UNL A   1      42.248  25.618  27.880  1.00  0.00     0.049 A 
ATOM     40  N   UNL A   1      45.076  26.477  27.270  1.00  0.00    -0.248 NA
ATOM     41  C   UNL A   1      45.479  24.343  26.414  1.00  0.00     0.031 C 
ATOM     42  C   UNL A   1      40.880  25.239  28.235  1.00  0.00     0.029 A 
ATOM     43  N   UNL A   1      42.350  26.922  28.293  1.00  0.00    -0.354 N 
ATOM     44  C   UNL A   1      46.404  26.378  26.881  1.00  0.00     0.074 A 
ATOM     45  C   UNL A   1      46.617  25.018  26.437  1.00  0.00     0.031 C 
ATOM     46  C   UNL A   1      40.257  26.300  28.772  1.00  0.00     0.029 A 
ATOM     47  C   UNL A   1      41.191  27.420  28.834  1.00  0.00     0.049 A 
ATOM     48  H   UNL A   1      43.177  27.451  28.209  1.00  0.00     0.167 HD
ATOM     49  C   UNL A   1      47.357  27.341  26.868  1.00  0.00     0.037 A 
ATOM     50  C   UNL A   1      40.915  28.646  29.318  1.00  0.00     0.037 A 
ATOM     51  C   UNL A   1      47.129  28.700  27.281  1.00  0.00     0.049 A 
ATOM     52  C   UNL A   1      41.990  29.700  29.296  1.00  0.00     0.074 A 
ATOM     53  C   UNL A   1      47.999  29.773  27.240  1.00  0.00     0.029 A 
ATOM     54  N   UNL A   1      45.939  29.169  27.820  1.00  0.00    -0.354 N 
ATOM     55  N   UNL A   1      43.220  29.622  28.848  1.00  0.00    -0.248 NA
ATOM     56  C   UNL A   1      41.631  31.016  29.839  1.00  0.00     0.031 C 
ATOM     57  C   UNL A   1      47.356  30.879  27.805  1.00  0.00     0.029 A 
ATOM     58  C   UNL A   1      46.062  30.511  28.141  1.00  0.00     0.049 A 
ATOM     59  H   UNL A   1      45.126  28.629  27.954  1.00  0.00     0.167 HD
ATOM     60  C   UNL A   1      43.769  30.886  29.018  1.00  0.00     0.074 A 
ATOM     61  C   UNL A   1      42.734  31.713  29.603  1.00  0.00     0.031 C 
ATOM     62  C   UNL A   1      45.016  31.324  28.711  1.00  0.00     0.037 A 
BRANCH  49  63
ATOM     63  C   UNL A   1      48.729  26.947  26.398  1.00  0.00     0.064 A 
ATOM     64  C   UNL A   1      49.129  27.101  25.061  1.00  0.00     0.173 A 
ATOM     65  C   UNL A   1      49.657  26.403  27.298  1.00  0.00     0.173 A 
ATOM     66  F   UNL A   1      48.278  27.605  24.155  1.00  0.00    -0.203 F 
ATOM     67  C   UNL A   1      50.386  26.679  24.635  1.00  0.00     0.198 A 
ATOM     68  C   UNL A   1      50.927  26.018  26.877  1.00  0.00     0.198 A 
ATOM     69  F   UNL A   1      49.332  26.239  28.590  1.00  0.00    -0.203 F 
ATOM     70  F   UNL A   1      50.716  26.769  23.339  1.00  0.00    -0.200 F 
ATOM     71  C   UNL A   1      51.285  26.143  25.543  1.00  0.00     0.200 A 
ATOM     72  F   UNL A   1      51.800  25.513  27.759  1.00  0.00    -0.200 F 
ATOM     73  F   UNL A   1      52.494  25.736  25.131  1.00  0.00    -0.200 F 
ENDBRANCH  49  63
BRANCH  50  74
ATOM     74  C   UNL A   1      39.548  28.961  29.804  1.00  0.00     0.064 A 
ATOM     75  C   UNL A   1      38.587  29.494  28.934  1.00  0.00     0.173 A 
ATOM     76  C   UNL A   1      39.169  28.736  31.135  1.00  0.00     0.173 A 
ATOM     77  F   UNL A   1      38.908  29.746  27.656  1.00  0.00    -0.203 F 
ATOM     78  C   UNL A   1      37.304  29.807  29.380  1.00  0.00     0.198 A 
ATOM     79  C   UNL A   1      37.878  29.023  31.573  1.00  0.00     0.198 A 
ATOM     80  F   UNL A   1      40.050  28.222  32.006  1.00  0.00    -0.203 F 
ATOM     81  F   UNL A   1      36.419  30.354  28.536  1.00  0.00    -0.200 F 
ATOM     82  C   UNL A   1      36.949  29.565  30.698  1.00  0.00     0.200 A 
ATOM     83  F   UNL A   1      37.534  28.775  32.845  1.00  0.00    -0.200 F 
ATOM     84  F   UNL A   1      35.714  29.860  31.125  1.00  0.00    -0.200 F 
ENDBRANCH  50  74
BRANCH  62  85
ATOM     85  C   UNL A   1      45.314  32.776  28.952  1.00  0.00     0.064 A 
ATOM     86  C   UNL A   1      45.919  33.225  30.135  1.00  0.00     0.173 A 
ATOM     87  C   UNL A   1      45.018  33.729  27.964  1.00  0.00     0.173 A 
ATOM     88  F   UNL A   1      46.208  32.356  31.116  1.00  0.00    -0.203 F 
ATOM     89  C   UNL A   1      46.188  34.576  30.334  1.00  0.00     0.198 A 
ATOM     90  C   UNL A   1      45.321  35.075  28.151  1.00  0.00     0.198 A 
ATOM     91  F   UNL A   1      44.446  33.352  26.810  1.00  0.00    -0.203 F 
ATOM     92  F   UNL A   1      46.716  34.988  31.494  1.00  0.00    -0.200 F 
ATOM     93  C   UNL A   1      45.896  35.499  29.339  1.00  0.00     0.200 A 
ATOM     94  F   UNL A   1      45.052  35.961  27.183  1.00  0.00    -0.200 F 
ATOM     95  F   UNL A   1      46.162  36.797  29.530  1.00  0.00    -0.200 F 
ENDBRANCH  62  85
ENDBRANCH  36  37
ENDBRANCH  28  31
ENDBRANCH  26  27
ENDBRANCH  25  26
ENDBRANCH  24  25
ENDBRANCH   1  24
TORSDOF 15
ENDMDL
