MODEL 1
REMARK VINA RESULT:     -12.9      0.000      0.000
REMARK SMILES O=C(NCCCCNC(=O)c1cc(-c2ccccn2)nc2ccc(F)cc12)c1ccc(-c2c3nc(c(-c4c(F)c(F)c(F)c(F)c4F)c4ccc([nH]4)c(-c4c(F)c(F)c(F)c(F)c4F)c4nc(c(-c5c(F)c(F)c(F)c(F)c5F)c5ccc2[nH]5)C=C4)C=C3)cc1
REMARK SMILES IDX 5 1 4 2 3 3 1 4 2 5 28 7 29 8 90 9 30 10 89 11 31 12 32 13
REMARK SMILES IDX 33 14 83 15 34 16 88 17 82 18 84 19 35 20 87 21 81 22 80 23
REMARK SMILES IDX 36 25 68 26 48 27 67 28 49 29 52 30 66 31 85 32 50 33 51 34
REMARK SMILES IDX 65 36 86 37 53 38 37 39 38 40 46 41 39 42 40 43 44 44 47 45
REMARK SMILES IDX 41 46 42 47 45 48 43 49 69 50 70 51 78 52 71 53 72 54 76 55
REMARK SMILES IDX 79 56 73 57 74 58 77 59 75 60 54 61 55 62 63 63 56 64 57 65
REMARK SMILES IDX 61 66 64 67 58 68 59 69 62 70 60 71 6 72 7 73 8 74 9 75
REMARK SMILES IDX 10 77 11 78 12 79 27 80 13 81 21 82 26 83 20 84 22 85 24 86
REMARK SMILES IDX 23 87 25 88 14 89 15 90 19 91 16 92 18 93 17 94
REMARK H PARENT 3 6 84 24 52 35 8 76
REMARK Flexibility Score: inf
ROOT
ATOM      1  C   UNL A   1      39.249  21.134  25.593  1.00  0.00     0.023 C 
ENDROOT
BRANCH   1   2
ATOM      2  C   UNL A   1      39.599  19.962  26.503  1.00  0.00     0.116 C 
BRANCH   2   3
ATOM      3  N   UNL A   1      40.750  19.207  26.040  1.00  0.00    -0.352 N 
ATOM      4  O   UNL A   1      42.859  18.835  25.353  1.00  0.00    -0.269 OA
ATOM      5  C   UNL A   1      42.057  19.597  25.888  1.00  0.00     0.251 C 
ATOM      6  H   UNL A   1      40.563  18.272  25.798  1.00  0.00     0.163 HD
BRANCH   5   7
ATOM      7  C   UNL A   1      42.514  20.929  26.345  1.00  0.00     0.039 A 
ATOM      8  C   UNL A   1      42.541  21.191  27.718  1.00  0.00     0.014 A 
ATOM      9  C   UNL A   1      42.858  21.937  25.440  1.00  0.00     0.014 A 
ATOM     10  C   UNL A   1      42.943  22.446  28.184  1.00  0.00     0.010 A 
ATOM     11  C   UNL A   1      43.327  23.163  25.905  1.00  0.00     0.010 A 
ATOM     12  C   UNL A   1      43.352  23.438  27.281  1.00  0.00    -0.014 A 
BRANCH  12  13
ATOM     13  C   UNL A   1      43.733  24.795  27.751  1.00  0.00     0.031 A 
ATOM     14  C   UNL A   1      42.658  25.793  28.087  1.00  0.00     0.074 A 
ATOM     15  C   UNL A   1      45.029  25.142  27.852  1.00  0.00     0.049 A 
ATOM     16  N   UNL A   1      42.772  27.049  28.438  1.00  0.00    -0.248 NA
ATOM     17  C   UNL A   1      41.266  25.321  27.993  1.00  0.00     0.031 C 
ATOM     18  C   UNL A   1      46.164  24.273  27.543  1.00  0.00     0.029 A 
ATOM     19  N   UNL A   1      45.611  26.323  28.244  1.00  0.00    -0.354 N 
ATOM     20  C   UNL A   1      41.473  27.517  28.588  1.00  0.00     0.074 A 
ATOM     21  C   UNL A   1      40.585  26.430  28.242  1.00  0.00     0.031 C 
ATOM     22  C   UNL A   1      47.305  24.939  27.786  1.00  0.00     0.029 A 
ATOM     23  C   UNL A   1      46.983  26.292  28.232  1.00  0.00     0.049 A 
ATOM     24  H   UNL A   1      45.092  27.116  28.509  1.00  0.00     0.167 HD
ATOM     25  C   UNL A   1      41.057  28.737  29.003  1.00  0.00     0.037 A 
ATOM     26  C   UNL A   1      47.879  27.249  28.545  1.00  0.00     0.037 A 
ATOM     27  C   UNL A   1      41.938  29.806  29.390  1.00  0.00     0.049 A 
ATOM     28  C   UNL A   1      47.390  28.600  28.991  1.00  0.00     0.074 A 
ATOM     29  C   UNL A   1      41.611  31.063  29.865  1.00  0.00     0.029 A 
ATOM     30  N   UNL A   1      43.322  29.736  29.356  1.00  0.00    -0.354 N 
ATOM     31  N   UNL A   1      46.161  29.025  29.150  1.00  0.00    -0.248 NA
ATOM     32  C   UNL A   1      48.417  29.608  29.298  1.00  0.00     0.031 C 
ATOM     33  C   UNL A   1      42.798  31.766  30.091  1.00  0.00     0.029 A 
ATOM     34  C   UNL A   1      43.864  30.934  29.791  1.00  0.00     0.049 A 
ATOM     35  H   UNL A   1      43.843  28.952  29.066  1.00  0.00     0.167 HD
ATOM     36  C   UNL A   1      46.263  30.336  29.594  1.00  0.00     0.074 A 
ATOM     37  C   UNL A   1      47.676  30.636  29.693  1.00  0.00     0.031 C 
ATOM     38  C   UNL A   1      45.274  31.213  29.891  1.00  0.00     0.037 A 
BRANCH  25  39
ATOM     39  C   UNL A   1      39.579  28.977  29.080  1.00  0.00     0.064 A 
ATOM     40  C   UNL A   1      38.885  28.878  30.296  1.00  0.00     0.173 A 
ATOM     41  C   UNL A   1      38.857  29.359  27.940  1.00  0.00     0.173 A 
ATOM     42  F   UNL A   1      39.529  28.502  31.412  1.00  0.00    -0.203 F 
ATOM     43  C   UNL A   1      37.518  29.131  30.363  1.00  0.00     0.198 A 
ATOM     44  C   UNL A   1      37.495  29.639  28.016  1.00  0.00     0.198 A 
ATOM     45  F   UNL A   1      39.474  29.473  26.755  1.00  0.00    -0.203 F 
ATOM     46  F   UNL A   1      36.869  28.990  31.526  1.00  0.00    -0.200 F 
ATOM     47  C   UNL A   1      36.826  29.519  29.225  1.00  0.00     0.200 A 
ATOM     48  F   UNL A   1      36.829  30.024  26.919  1.00  0.00    -0.200 F 
ATOM     49  F   UNL A   1      35.513  29.773  29.293  1.00  0.00    -0.200 F 
ENDBRANCH  25  39
BRANCH  26  50
ATOM     50  C   UNL A   1      49.332  26.948  28.480  1.00  0.00     0.064 A 
ATOM     51  C   UNL A   1      50.013  26.474  29.610  1.00  0.00     0.173 A 
ATOM     52  C   UNL A   1      50.063  27.112  27.296  1.00  0.00     0.173 A 
ATOM     53  F   UNL A   1      49.359  26.323  30.771  1.00  0.00    -0.203 F 
ATOM     54  C   UNL A   1      51.375  26.183  29.559  1.00  0.00     0.198 A 
ATOM     55  C   UNL A   1      51.420  26.799  27.240  1.00  0.00     0.198 A 
ATOM     56  F   UNL A   1      49.456  27.562  26.187  1.00  0.00    -0.203 F 
ATOM     57  F   UNL A   1      52.008  25.762  30.661  1.00  0.00    -0.200 F 
ATOM     58  C   UNL A   1      52.076  26.339  28.373  1.00  0.00     0.200 A 
ATOM     59  F   UNL A   1      52.091  26.940  26.089  1.00  0.00    -0.200 F 
ATOM     60  F   UNL A   1      53.383  26.051  28.322  1.00  0.00    -0.200 F 
ENDBRANCH  26  50
BRANCH  38  61
ATOM     61  C   UNL A   1      45.673  32.576  30.369  1.00  0.00     0.064 A 
ATOM     62  C   UNL A   1      45.820  33.648  29.477  1.00  0.00     0.173 A 
ATOM     63  C   UNL A   1      45.830  32.832  31.740  1.00  0.00     0.173 A 
ATOM     64  F   UNL A   1      45.691  33.448  28.157  1.00  0.00    -0.203 F 
ATOM     65  C   UNL A   1      46.119  34.925  29.940  1.00  0.00     0.198 A 
ATOM     66  C   UNL A   1      46.104  34.116  32.201  1.00  0.00     0.198 A 
ATOM     67  F   UNL A   1      45.691  31.840  32.632  1.00  0.00    -0.203 F 
ATOM     68  F   UNL A   1      46.280  35.931  29.069  1.00  0.00    -0.200 F 
ATOM     69  C   UNL A   1      46.251  35.160  31.301  1.00  0.00     0.200 A 
ATOM     70  F   UNL A   1      46.219  34.344  33.516  1.00  0.00    -0.200 F 
ATOM     71  F   UNL A   1      46.522  36.396  31.745  1.00  0.00    -0.200 F 
ENDBRANCH  38  61
ENDBRANCH  12  13
ENDBRANCH   5   7
ENDBRANCH   2   3
ENDBRANCH   1   2
BRANCH   1  72
ATOM     72  C   UNL A   1      39.101  22.489  26.283  1.00  0.00     0.023 C 
BRANCH  72  73
ATOM     73  C   UNL A   1      37.815  23.250  25.976  1.00  0.00     0.116 C 
BRANCH  73  74
ATOM     74  N   UNL A   1      37.543  23.356  24.549  1.00  0.00    -0.352 N 
ATOM     75  C   UNL A   1      36.431  22.966  23.843  1.00  0.00     0.252 C 
ATOM     76  H   UNL A   1      38.259  23.766  24.013  1.00  0.00     0.163 HD
ATOM     77  O   UNL A   1      36.393  23.105  22.623  1.00  0.00    -0.269 OA
BRANCH  75  78
ATOM     78  C   UNL A   1      35.273  22.398  24.562  1.00  0.00     0.051 A 
ATOM     79  C   UNL A   1      35.167  21.011  24.598  1.00  0.00     0.045 A 
ATOM     80  C   UNL A   1      34.298  23.217  25.166  1.00  0.00     0.016 A 
ATOM     81  C   UNL A   1      34.025  20.450  25.137  1.00  0.00     0.090 A 
ATOM     82  C   UNL A   1      33.194  22.548  25.733  1.00  0.00     0.072 A 
ATOM     83  C   UNL A   1      34.354  24.632  25.224  1.00  0.00     0.050 A 
ATOM     84  N   UNL A   1      33.056  21.211  25.705  1.00  0.00    -0.246 NA
ATOM     85  C   UNL A   1      32.192  23.303  26.336  1.00  0.00     0.032 A 
ATOM     86  C   UNL A   1      33.339  25.350  25.842  1.00  0.00     0.123 A 
ATOM     87  C   UNL A   1      32.255  24.697  26.399  1.00  0.00     0.041 A 
ATOM     88  F   UNL A   1      33.411  26.685  25.899  1.00  0.00    -0.207 F 
BRANCH  81  89
ATOM     89  C   UNL A   1      33.790  19.002  25.026  1.00  0.00     0.089 A 
ATOM     90  C   UNL A   1      34.634  18.178  24.280  1.00  0.00     0.030 A 
ATOM     91  N   UNL A   1      32.631  18.542  25.568  1.00  0.00    -0.255 NA
ATOM     92  C   UNL A   1      34.281  16.844  24.084  1.00  0.00     0.004 A 
ATOM     93  C   UNL A   1      32.323  17.241  25.374  1.00  0.00     0.112 A 
ATOM     94  C   UNL A   1      33.102  16.366  24.639  1.00  0.00     0.020 A 
ENDBRANCH  81  89
ENDBRANCH  75  78
ENDBRANCH  73  74
ENDBRANCH  72  73
ENDBRANCH   1  72
TORSDOF 12
ENDMDL
MODEL 2
REMARK VINA RESULT:     -12.8      5.597     10.422
REMARK SMILES O=C(NCCCCNC(=O)c1cc(-c2ccccn2)nc2ccc(F)cc12)c1ccc(-c2c3nc(c(-c4c(F)c(F)c(F)c(F)c4F)c4ccc([nH]4)c(-c4c(F)c(F)c(F)c(F)c4F)c4nc(c(-c5c(F)c(F)c(F)c(F)c5F)c5ccc2[nH]5)C=C4)C=C3)cc1
REMARK SMILES IDX 5 1 4 2 3 3 1 4 2 5 28 7 29 8 90 9 30 10 89 11 31 12 32 13
REMARK SMILES IDX 33 14 83 15 34 16 88 17 82 18 84 19 35 20 87 21 81 22 80 23
REMARK SMILES IDX 36 25 68 26 48 27 67 28 49 29 52 30 66 31 85 32 50 33 51 34
REMARK SMILES IDX 65 36 86 37 53 38 37 39 38 40 46 41 39 42 40 43 44 44 47 45
REMARK SMILES IDX 41 46 42 47 45 48 43 49 69 50 70 51 78 52 71 53 72 54 76 55
REMARK SMILES IDX 79 56 73 57 74 58 77 59 75 60 54 61 55 62 63 63 56 64 57 65
REMARK SMILES IDX 61 66 64 67 58 68 59 69 62 70 60 71 6 72 7 73 8 74 9 75
REMARK SMILES IDX 10 77 11 78 12 79 27 80 13 81 21 82 26 83 20 84 22 85 24 86
REMARK SMILES IDX 23 87 25 88 14 89 15 90 19 91 16 92 18 93 17 94
REMARK H PARENT 3 6 84 24 52 35 8 76
REMARK Flexibility Score: inf
ROOT
ATOM      1  C   UNL A   1      31.349  32.248  26.503  1.00  0.00     0.023 C 
ENDROOT
BRANCH   1   2
ATOM      2  C   UNL A   1      32.570  32.817  27.217  1.00  0.00     0.116 C 
BRANCH   2   3
ATOM      3  N   UNL A   1      32.387  34.191  27.651  1.00  0.00    -0.352 N 
ATOM      4  O   UNL A   1      32.619  36.018  28.941  1.00  0.00    -0.269 OA
ATOM      5  C   UNL A   1      33.017  34.894  28.647  1.00  0.00     0.251 C 
ATOM      6  H   UNL A   1      31.705  34.696  27.152  1.00  0.00     0.163 HD
BRANCH   5   7
ATOM      7  C   UNL A   1      34.159  34.310  29.386  1.00  0.00     0.039 A 
ATOM      8  C   UNL A   1      35.451  34.528  28.897  1.00  0.00     0.014 A 
ATOM      9  C   UNL A   1      33.971  33.507  30.514  1.00  0.00     0.014 A 
ATOM     10  C   UNL A   1      36.552  33.971  29.555  1.00  0.00     0.010 A 
ATOM     11  C   UNL A   1      35.070  33.012  31.211  1.00  0.00     0.010 A 
ATOM     12  C   UNL A   1      36.371  33.219  30.726  1.00  0.00    -0.014 A 
BRANCH  12  13
ATOM     13  C   UNL A   1      37.521  32.576  31.411  1.00  0.00     0.031 A 
ATOM     14  C   UNL A   1      38.268  31.465  30.723  1.00  0.00     0.074 A 
ATOM     15  C   UNL A   1      37.880  32.963  32.649  1.00  0.00     0.049 A 
ATOM     16  N   UNL A   1      39.246  30.720  31.173  1.00  0.00    -0.248 NA
ATOM     17  C   UNL A   1      37.841  31.132  29.354  1.00  0.00     0.031 C 
ATOM     18  C   UNL A   1      37.230  34.017  33.428  1.00  0.00     0.029 A 
ATOM     19  N   UNL A   1      38.884  32.513  33.471  1.00  0.00    -0.354 N 
ATOM     20  C   UNL A   1      39.536  29.824  30.153  1.00  0.00     0.074 A 
ATOM     21  C   UNL A   1      38.600  30.082  29.081  1.00  0.00     0.031 C 
ATOM     22  C   UNL A   1      37.869  34.152  34.602  1.00  0.00     0.029 A 
ATOM     23  C   UNL A   1      38.950  33.172  34.674  1.00  0.00     0.049 A 
ATOM     24  H   UNL A   1      39.498  31.785  33.222  1.00  0.00     0.167 HD
ATOM     25  C   UNL A   1      40.513  28.888  30.102  1.00  0.00     0.037 A 
ATOM     26  C   UNL A   1      39.787  33.003  35.715  1.00  0.00     0.037 A 
ATOM     27  C   UNL A   1      41.472  28.660  31.149  1.00  0.00     0.049 A 
ATOM     28  C   UNL A   1      40.856  31.946  35.640  1.00  0.00     0.074 A 
ATOM     29  C   UNL A   1      42.525  27.764  31.173  1.00  0.00     0.029 A 
ATOM     30  N   UNL A   1      41.499  29.345  32.354  1.00  0.00    -0.354 N 
ATOM     31  N   UNL A   1      41.135  31.120  34.662  1.00  0.00    -0.248 NA
ATOM     32  C   UNL A   1      41.725  31.797  36.817  1.00  0.00     0.031 C 
ATOM     33  C   UNL A   1      43.174  27.885  32.406  1.00  0.00     0.029 A 
ATOM     34  C   UNL A   1      42.546  28.882  33.135  1.00  0.00     0.049 A 
ATOM     35  H   UNL A   1      40.869  30.055  32.617  1.00  0.00     0.167 HD
ATOM     36  C   UNL A   1      42.220  30.370  35.092  1.00  0.00     0.074 A 
ATOM     37  C   UNL A   1      42.560  30.846  36.416  1.00  0.00     0.031 C 
ATOM     38  C   UNL A   1      42.875  29.374  34.448  1.00  0.00     0.037 A 
BRANCH  25  39
ATOM     39  C   UNL A   1      40.607  28.049  28.863  1.00  0.00     0.064 A 
ATOM     40  C   UNL A   1      39.894  26.847  28.739  1.00  0.00     0.173 A 
ATOM     41  C   UNL A   1      41.378  28.472  27.772  1.00  0.00     0.173 A 
ATOM     42  F   UNL A   1      39.154  26.392  29.762  1.00  0.00    -0.203 F 
ATOM     43  C   UNL A   1      39.966  26.089  27.574  1.00  0.00     0.198 A 
ATOM     44  C   UNL A   1      41.426  27.726  26.597  1.00  0.00     0.198 A 
ATOM     45  F   UNL A   1      42.075  29.616  27.838  1.00  0.00    -0.203 F 
ATOM     46  F   UNL A   1      39.309  24.924  27.493  1.00  0.00    -0.200 F 
ATOM     47  C   UNL A   1      40.726  26.533  26.501  1.00  0.00     0.200 A 
ATOM     48  F   UNL A   1      42.152  28.160  25.557  1.00  0.00    -0.200 F 
ATOM     49  F   UNL A   1      40.786  25.808  25.376  1.00  0.00    -0.200 F 
ENDBRANCH  25  39
BRANCH  26  50
ATOM     50  C   UNL A   1      39.669  33.882  36.906  1.00  0.00     0.064 A 
ATOM     51  C   UNL A   1      40.323  35.121  36.946  1.00  0.00     0.173 A 
ATOM     52  C   UNL A   1      38.896  33.514  38.016  1.00  0.00     0.173 A 
ATOM     53  F   UNL A   1      41.092  35.505  35.917  1.00  0.00    -0.203 F 
ATOM     54  C   UNL A   1      40.214  35.956  38.056  1.00  0.00     0.198 A 
ATOM     55  C   UNL A   1      38.769  34.360  39.116  1.00  0.00     0.198 A 
ATOM     56  F   UNL A   1      38.250  32.338  38.025  1.00  0.00    -0.203 F 
ATOM     57  F   UNL A   1      40.875  37.121  38.082  1.00  0.00    -0.200 F 
ATOM     58  C   UNL A   1      39.432  35.578  39.137  1.00  0.00     0.200 A 
ATOM     59  F   UNL A   1      38.003  33.997  40.154  1.00  0.00    -0.200 F 
ATOM     60  F   UNL A   1      39.321  36.386  40.201  1.00  0.00    -0.200 F 
ENDBRANCH  26  50
BRANCH  38  61
ATOM     61  C   UNL A   1      44.036  28.738  35.150  1.00  0.00     0.064 A 
ATOM     62  C   UNL A   1      43.870  27.598  35.950  1.00  0.00     0.173 A 
ATOM     63  C   UNL A   1      45.338  29.223  34.954  1.00  0.00     0.173 A 
ATOM     64  F   UNL A   1      42.643  27.105  36.175  1.00  0.00    -0.203 F 
ATOM     65  C   UNL A   1      44.966  26.972  36.536  1.00  0.00     0.198 A 
ATOM     66  C   UNL A   1      46.434  28.580  35.522  1.00  0.00     0.198 A 
ATOM     67  F   UNL A   1      45.548  30.305  34.190  1.00  0.00    -0.203 F 
ATOM     68  F   UNL A   1      44.783  25.899  37.318  1.00  0.00    -0.200 F 
ATOM     69  C   UNL A   1      46.247  27.457  36.315  1.00  0.00     0.200 A 
ATOM     70  F   UNL A   1      47.671  29.041  35.297  1.00  0.00    -0.200 F 
ATOM     71  F   UNL A   1      47.302  26.843  36.867  1.00  0.00    -0.200 F 
ENDBRANCH  38  61
ENDBRANCH  12  13
ENDBRANCH   5   7
ENDBRANCH   2   3
ENDBRANCH   1   2
BRANCH   1  72
ATOM     72  C   UNL A   1      31.429  30.770  26.127  1.00  0.00     0.023 C 
BRANCH  72  73
ATOM     73  C   UNL A   1      32.814  30.139  26.217  1.00  0.00     0.116 C 
BRANCH  73  74
ATOM     74  N   UNL A   1      33.397  29.855  24.913  1.00  0.00    -0.352 N 
ATOM     75  C   UNL A   1      33.294  28.724  24.140  1.00  0.00     0.252 C 
ATOM     76  H   UNL A   1      33.943  30.578  24.529  1.00  0.00     0.163 HD
ATOM     77  O   UNL A   1      33.891  28.651  23.069  1.00  0.00    -0.269 OA
BRANCH  75  78
ATOM     78  C   UNL A   1      32.446  27.605  24.596  1.00  0.00     0.051 A 
ATOM     79  C   UNL A   1      33.051  26.630  25.385  1.00  0.00     0.045 A 
ATOM     80  C   UNL A   1      31.089  27.505  24.230  1.00  0.00     0.016 A 
ATOM     81  C   UNL A   1      32.326  25.500  25.708  1.00  0.00     0.090 A 
ATOM     82  C   UNL A   1      30.420  26.336  24.650  1.00  0.00     0.072 A 
ATOM     83  C   UNL A   1      30.380  28.474  23.477  1.00  0.00     0.050 A 
ATOM     84  N   UNL A   1      31.024  25.360  25.351  1.00  0.00    -0.246 NA
ATOM     85  C   UNL A   1      29.081  26.174  24.312  1.00  0.00     0.032 A 
ATOM     86  C   UNL A   1      29.041  28.280  23.167  1.00  0.00     0.123 A 
ATOM     87  C   UNL A   1      28.383  27.136  23.577  1.00  0.00     0.041 A 
ATOM     88  F   UNL A   1      28.382  29.209  22.464  1.00  0.00    -0.207 F 
BRANCH  81  89
ATOM     89  C   UNL A   1      32.983  24.367  26.379  1.00  0.00     0.089 A 
ATOM     90  C   UNL A   1      34.306  24.019  26.101  1.00  0.00     0.030 A 
ATOM     91  N   UNL A   1      32.189  23.598  27.170  1.00  0.00    -0.255 NA
ATOM     92  C   UNL A   1      34.830  22.850  26.649  1.00  0.00     0.004 A 
ATOM     93  C   UNL A   1      32.728  22.479  27.700  1.00  0.00     0.112 A 
ATOM     94  C   UNL A   1      34.025  22.062  27.462  1.00  0.00     0.020 A 
ENDBRANCH  81  89
ENDBRANCH  75  78
ENDBRANCH  73  74
ENDBRANCH  72  73
ENDBRANCH   1  72
TORSDOF 12
ENDMDL
MODEL 3
REMARK VINA RESULT:     -12.8      5.727     10.457
REMARK SMILES O=C(NCCCCNC(=O)c1cc(-c2ccccn2)nc2ccc(F)cc12)c1ccc(-c2c3nc(c(-c4c(F)c(F)c(F)c(F)c4F)c4ccc([nH]4)c(-c4c(F)c(F)c(F)c(F)c4F)c4nc(c(-c5c(F)c(F)c(F)c(F)c5F)c5ccc2[nH]5)C=C4)C=C3)cc1
REMARK SMILES IDX 5 1 4 2 3 3 1 4 2 5 28 7 29 8 90 9 30 10 89 11 31 12 32 13
REMARK SMILES IDX 33 14 83 15 34 16 88 17 82 18 84 19 35 20 87 21 81 22 80 23
REMARK SMILES IDX 36 25 68 26 48 27 67 28 49 29 52 30 66 31 85 32 50 33 51 34
REMARK SMILES IDX 65 36 86 37 53 38 37 39 38 40 46 41 39 42 40 43 44 44 47 45
REMARK SMILES IDX 41 46 42 47 45 48 43 49 69 50 70 51 78 52 71 53 72 54 76 55
REMARK SMILES IDX 79 56 73 57 74 58 77 59 75 60 54 61 55 62 63 63 56 64 57 65
REMARK SMILES IDX 61 66 64 67 58 68 59 69 62 70 60 71 6 72 7 73 8 74 9 75
REMARK SMILES IDX 10 77 11 78 12 79 27 80 13 81 21 82 26 83 20 84 22 85 24 86
REMARK SMILES IDX 23 87 25 88 14 89 15 90 19 91 16 92 18 93 17 94
REMARK H PARENT 3 6 84 24 52 35 8 76
REMARK Flexibility Score: inf
ROOT
ATOM      1  C   UNL A   1      31.384  32.338  26.501  1.00  0.00     0.023 C 
ENDROOT
BRANCH   1   2
ATOM      2  C   UNL A   1      32.594  32.885  27.251  1.00  0.00     0.116 C 
BRANCH   2   3
ATOM      3  N   UNL A   1      32.427  34.266  27.669  1.00  0.00    -0.352 N 
ATOM      4  O   UNL A   1      32.669  36.100  28.946  1.00  0.00    -0.269 OA
ATOM      5  C   UNL A   1      33.052  34.967  28.669  1.00  0.00     0.251 C 
ATOM      6  H   UNL A   1      31.762  34.778  27.154  1.00  0.00     0.163 HD
BRANCH   5   7
ATOM      7  C   UNL A   1      34.172  34.371  29.433  1.00  0.00     0.039 A 
ATOM      8  C   UNL A   1      35.465  34.469  28.908  1.00  0.00     0.014 A 
ATOM      9  C   UNL A   1      33.958  33.669  30.622  1.00  0.00     0.014 A 
ATOM     10  C   UNL A   1      36.542  33.896  29.589  1.00  0.00     0.010 A 
ATOM     11  C   UNL A   1      35.040  33.160  31.338  1.00  0.00     0.010 A 
ATOM     12  C   UNL A   1      36.340  33.248  30.817  1.00  0.00    -0.014 A 
BRANCH  12  13
ATOM     13  C   UNL A   1      37.462  32.588  31.531  1.00  0.00     0.031 A 
ATOM     14  C   UNL A   1      38.182  31.437  30.880  1.00  0.00     0.074 A 
ATOM     15  C   UNL A   1      37.820  32.996  32.763  1.00  0.00     0.049 A 
ATOM     16  N   UNL A   1      39.132  30.675  31.360  1.00  0.00    -0.248 NA
ATOM     17  C   UNL A   1      37.760  31.083  29.516  1.00  0.00     0.031 C 
ATOM     18  C   UNL A   1      37.194  34.088  33.508  1.00  0.00     0.029 A 
ATOM     19  N   UNL A   1      38.801  32.536  33.608  1.00  0.00    -0.354 N 
ATOM     20  C   UNL A   1      39.406  29.745  30.366  1.00  0.00     0.074 A 
ATOM     21  C   UNL A   1      38.490  30.003  29.277  1.00  0.00     0.031 C 
ATOM     22  C   UNL A   1      37.824  34.234  34.685  1.00  0.00     0.029 A 
ATOM     23  C   UNL A   1      38.874  33.224  34.794  1.00  0.00     0.049 A 
ATOM     24  H   UNL A   1      39.395  31.783  33.383  1.00  0.00     0.167 HD
ATOM     25  C   UNL A   1      40.353  28.779  30.350  1.00  0.00     0.037 A 
ATOM     26  C   UNL A   1      39.695  33.056  35.849  1.00  0.00     0.037 A 
ATOM     27  C   UNL A   1      41.294  28.548  31.413  1.00  0.00     0.049 A 
ATOM     28  C   UNL A   1      40.732  31.965  35.812  1.00  0.00     0.074 A 
ATOM     29  C   UNL A   1      42.319  27.621  31.471  1.00  0.00     0.029 A 
ATOM     30  N   UNL A   1      41.329  29.262  32.601  1.00  0.00    -0.354 N 
ATOM     31  N   UNL A   1      40.995  31.107  34.858  1.00  0.00    -0.248 NA
ATOM     32  C   UNL A   1      41.583  31.819  37.002  1.00  0.00     0.031 C 
ATOM     33  C   UNL A   1      42.958  27.754  32.708  1.00  0.00     0.029 A 
ATOM     34  C   UNL A   1      42.353  28.788  33.405  1.00  0.00     0.049 A 
ATOM     35  H   UNL A   1      40.718  29.998  32.838  1.00  0.00     0.167 HD
ATOM     36  C   UNL A   1      42.053  30.334  35.320  1.00  0.00     0.074 A 
ATOM     37  C   UNL A   1      42.393  30.834  36.635  1.00  0.00     0.031 C 
ATOM     38  C   UNL A   1      42.683  29.303  34.709  1.00  0.00     0.037 A 
BRANCH  25  39
ATOM     39  C   UNL A   1      40.436  27.905  29.133  1.00  0.00     0.064 A 
ATOM     40  C   UNL A   1      39.677  26.729  29.026  1.00  0.00     0.173 A 
ATOM     41  C   UNL A   1      41.241  28.271  28.046  1.00  0.00     0.173 A 
ATOM     42  F   UNL A   1      38.903  26.329  30.047  1.00  0.00    -0.203 F 
ATOM     43  C   UNL A   1      39.739  25.940  27.882  1.00  0.00     0.198 A 
ATOM     44  C   UNL A   1      41.279  27.494  26.890  1.00  0.00     0.198 A 
ATOM     45  F   UNL A   1      41.981  29.388  28.097  1.00  0.00    -0.203 F 
ATOM     46  F   UNL A   1      39.038  24.800  27.817  1.00  0.00    -0.200 F 
ATOM     47  C   UNL A   1      40.533  26.327  26.812  1.00  0.00     0.200 A 
ATOM     48  F   UNL A   1      42.037  27.874  25.853  1.00  0.00    -0.200 F 
ATOM     49  F   UNL A   1      40.583  25.572  25.706  1.00  0.00    -0.200 F 
ENDBRANCH  25  39
BRANCH  26  50
ATOM     50  C   UNL A   1      39.591  33.968  37.016  1.00  0.00     0.064 A 
ATOM     51  C   UNL A   1      38.833  33.607  38.138  1.00  0.00     0.173 A 
ATOM     52  C   UNL A   1      40.252  35.204  37.042  1.00  0.00     0.173 A 
ATOM     53  F   UNL A   1      38.165  32.445  38.148  1.00  0.00    -0.203 F 
ATOM     54  C   UNL A   1      38.734  34.453  39.241  1.00  0.00     0.198 A 
ATOM     55  C   UNL A   1      40.170  36.038  38.155  1.00  0.00     0.198 A 
ATOM     56  F   UNL A   1      40.991  35.594  35.993  1.00  0.00    -0.203 F 
ATOM     57  F   UNL A   1      37.977  34.097  40.288  1.00  0.00    -0.200 F 
ATOM     58  C   UNL A   1      39.408  35.664  39.252  1.00  0.00     0.200 A 
ATOM     59  F   UNL A   1      40.833  37.203  38.167  1.00  0.00    -0.200 F 
ATOM     60  F   UNL A   1      39.319  36.473  40.316  1.00  0.00    -0.200 F 
ENDBRANCH  26  50
BRANCH  38  61
ATOM     61  C   UNL A   1      43.817  28.650  35.439  1.00  0.00     0.064 A 
ATOM     62  C   UNL A   1      45.138  29.092  35.281  1.00  0.00     0.173 A 
ATOM     63  C   UNL A   1      43.571  27.627  36.368  1.00  0.00     0.173 A 
ATOM     64  F   UNL A   1      45.423  30.059  34.396  1.00  0.00    -0.203 F 
ATOM     65  C   UNL A   1      46.173  28.527  36.019  1.00  0.00     0.198 A 
ATOM     66  C   UNL A   1      44.605  27.082  37.123  1.00  0.00     0.198 A 
ATOM     67  F   UNL A   1      42.322  27.177  36.561  1.00  0.00    -0.203 F 
ATOM     68  F   UNL A   1      47.433  28.947  35.833  1.00  0.00    -0.200 F 
ATOM     69  C   UNL A   1      45.905  27.531  36.946  1.00  0.00     0.200 A 
ATOM     70  F   UNL A   1      44.343  26.129  38.027  1.00  0.00    -0.200 F 
ATOM     71  F   UNL A   1      46.902  27.000  37.668  1.00  0.00    -0.200 F 
ENDBRANCH  38  61
ENDBRANCH  12  13
ENDBRANCH   5   7
ENDBRANCH   2   3
ENDBRANCH   1   2
BRANCH   1  72
ATOM     72  C   UNL A   1      31.403  30.838  26.215  1.00  0.00     0.023 C 
BRANCH  72  73
ATOM     73  C   UNL A   1      32.776  30.174  26.260  1.00  0.00     0.116 C 
BRANCH  73  74
ATOM     74  N   UNL A   1      33.330  29.922  24.937  1.00  0.00    -0.352 N 
ATOM     75  C   UNL A   1      33.189  28.820  24.128  1.00  0.00     0.252 C 
ATOM     76  H   UNL A   1      33.887  30.645  24.569  1.00  0.00     0.163 HD
ATOM     77  O   UNL A   1      33.766  28.771  23.045  1.00  0.00    -0.269 OA
BRANCH  75  78
ATOM     78  C   UNL A   1      32.322  27.706  24.560  1.00  0.00     0.051 A 
ATOM     79  C   UNL A   1      32.907  26.712  25.339  1.00  0.00     0.045 A 
ATOM     80  C   UNL A   1      30.967  27.629  24.182  1.00  0.00     0.016 A 
ATOM     81  C   UNL A   1      32.165  25.586  25.639  1.00  0.00     0.090 A 
ATOM     82  C   UNL A   1      30.279  26.463  24.578  1.00  0.00     0.072 A 
ATOM     83  C   UNL A   1      30.277  28.619  23.438  1.00  0.00     0.050 A 
ATOM     84  N   UNL A   1      30.864  25.470  25.270  1.00  0.00    -0.246 NA
ATOM     85  C   UNL A   1      28.940  26.324  24.227  1.00  0.00     0.032 A 
ATOM     86  C   UNL A   1      28.938  28.448  23.114  1.00  0.00     0.123 A 
ATOM     87  C   UNL A   1      28.262  27.306  23.501  1.00  0.00     0.041 A 
ATOM     88  F   UNL A   1      28.297  29.396  22.419  1.00  0.00    -0.207 F 
BRANCH  81  89
ATOM     89  C   UNL A   1      32.801  24.435  26.298  1.00  0.00     0.089 A 
ATOM     90  C   UNL A   1      34.107  24.047  25.993  1.00  0.00     0.030 A 
ATOM     91  N   UNL A   1      32.001  23.691  27.106  1.00  0.00    -0.255 NA
ATOM     92  C   UNL A   1      34.607  22.864  26.532  1.00  0.00     0.004 A 
ATOM     93  C   UNL A   1      32.517  22.557  27.627  1.00  0.00     0.112 A 
ATOM     94  C   UNL A   1      33.796  22.101  27.364  1.00  0.00     0.020 A 
ENDBRANCH  81  89
ENDBRANCH  75  78
ENDBRANCH  73  74
ENDBRANCH  72  73
ENDBRANCH   1  72
TORSDOF 12
ENDMDL
