MODEL 1
REMARK VINA RESULT:     -12.7      0.000      0.000
REMARK SMILES C[C@@H](C(=O)NCCCCNC(=O)c1ccc(-c2c3nc(c(-c4c(F)c(F)c(F)c(F)c4F)c4ccc([nH]4)c(-c4c(F)c(F)c(F)c(F)c4F)c4nc(c(-c5c(F)c(F)c(F)c(F)c5F)c5ccc2[nH]5)C=C4)C=C3)cc1)c1ccc(C[C@H]2CCCC2=O)c(-c2ccc(OC(F)(F)F)cc2)c1
REMARK SMILES IDX 6 1 5 2 3 3 4 4 2 6 1 7 76 8 77 9 99 10 78 11 87 12 79 13
REMARK SMILES IDX 88 14 89 15 98 16 90 17 97 18 91 19 92 20 93 21 94 22 95 23
REMARK SMILES IDX 96 24 80 25 81 26 82 27 85 28 83 29 84 30 86 31 7 32 8 33
REMARK SMILES IDX 9 34 10 35 11 36 12 38 13 39 14 40 75 41 15 42 74 43 16 44
REMARK SMILES IDX 17 45 18 46 68 47 19 48 73 49 67 50 69 51 20 52 72 53 66 54
REMARK SMILES IDX 65 55 21 57 53 58 33 59 52 60 34 61 37 62 51 63 70 64 35 65
REMARK SMILES IDX 36 66 50 68 71 69 38 70 22 71 23 72 31 73 24 74 25 75 29 76
REMARK SMILES IDX 32 77 26 78 27 79 30 80 28 81 54 82 55 83 63 84 56 85 57 86
REMARK SMILES IDX 61 87 64 88 58 89 59 90 62 91 60 92 39 93 40 94 48 95 41 96
REMARK SMILES IDX 42 97 46 98 49 99 43 100 44 101 47 102 45 103
REMARK H PARENT 5 5 10 37 69 56 37 67
REMARK Flexibility Score: inf
ROOT
ATOM      1  C   UNL A   1      31.399  28.645  25.127  1.00  0.00     0.116 C 
ENDROOT
BRANCH   1   2
ATOM      2  N   UNL A   1      30.463  27.615  24.728  1.00  0.00    -0.356 N 
ATOM      3  C   UNL A   1      30.581  26.640  23.779  1.00  0.00     0.227 C 
ATOM      4  O   UNL A   1      29.574  25.968  23.550  1.00  0.00    -0.274 OA
ATOM      5  H   UNL A   1      29.608  27.619  25.216  1.00  0.00     0.163 HD
BRANCH   3   6
ATOM      6  C   UNL A   1      31.930  26.406  23.083  1.00  0.00     0.105 C 
ATOM      7  C   UNL A   1      31.765  25.819  21.674  1.00  0.00     0.023 C 
BRANCH   6   8
ATOM      8  C   UNL A   1      32.860  25.525  23.910  1.00  0.00    -0.035 A 
ATOM      9  C   UNL A   1      33.976  26.068  24.546  1.00  0.00     0.005 A 
ATOM     10  C   UNL A   1      32.625  24.148  24.045  1.00  0.00     0.013 A 
ATOM     11  C   UNL A   1      34.860  25.239  25.238  1.00  0.00     0.004 A 
ATOM     12  C   UNL A   1      33.521  23.281  24.703  1.00  0.00    -0.015 A 
ATOM     13  C   UNL A   1      34.680  23.840  25.287  1.00  0.00    -0.039 A 
BRANCH  12  14
ATOM     14  C   UNL A   1      33.195  21.842  24.697  1.00  0.00    -0.018 A 
ATOM     15  C   UNL A   1      33.266  21.059  25.855  1.00  0.00     0.012 A 
ATOM     16  C   UNL A   1      32.738  21.227  23.519  1.00  0.00     0.012 A 
ATOM     17  C   UNL A   1      32.931  19.702  25.824  1.00  0.00     0.047 A 
ATOM     18  C   UNL A   1      32.382  19.874  23.491  1.00  0.00     0.047 A 
ATOM     19  C   UNL A   1      32.485  19.100  24.643  1.00  0.00     0.129 A 
BRANCH  19  20
ATOM     20  O   UNL A   1      32.191  17.772  24.756  1.00  0.00    -0.406 OA
BRANCH  20  21
ATOM     21  C   UNL A   1      33.152  16.843  24.287  1.00  0.00     0.573 C 
ATOM     22  F   UNL A   1      33.206  16.837  22.938  1.00  0.00    -0.132 F 
ATOM     23  F   UNL A   1      34.379  17.113  24.785  1.00  0.00    -0.132 F 
ATOM     24  F   UNL A   1      32.799  15.606  24.699  1.00  0.00    -0.132 F 
ENDBRANCH  20  21
ENDBRANCH  19  20
ENDBRANCH  12  14
BRANCH  13  25
ATOM     25  C   UNL A   1      35.772  23.013  25.938  1.00  0.00     0.047 C 
BRANCH  25  26
ATOM     26  C   UNL A   1      37.128  22.966  25.218  1.00  0.00     0.060 C 
ATOM     27  C   UNL A   1      38.245  23.847  25.785  1.00  0.00     0.012 C 
ATOM     28  C   UNL A   1      37.762  21.594  25.254  1.00  0.00     0.136 C 
ATOM     29  C   UNL A   1      39.094  22.938  26.666  1.00  0.00     0.009 C 
ATOM     30  C   UNL A   1      39.087  21.586  25.968  1.00  0.00     0.076 C 
ATOM     31  O   UNL A   1      37.267  20.598  24.738  1.00  0.00    -0.299 OA
ENDBRANCH  25  26
ENDBRANCH  13  25
ENDBRANCH   6   8
ENDBRANCH   3   6
ENDBRANCH   1   2
BRANCH   1  32
ATOM     32  C   UNL A   1      31.551  28.690  26.648  1.00  0.00     0.023 C 
BRANCH  32  33
ATOM     33  C   UNL A   1      32.887  28.154  27.173  1.00  0.00     0.023 C 
BRANCH  33  34
ATOM     34  C   UNL A   1      34.089  29.060  26.931  1.00  0.00     0.116 C 
BRANCH  34  35
ATOM     35  N   UNL A   1      34.001  30.324  27.644  1.00  0.00    -0.352 N 
ATOM     36  C   UNL A   1      34.906  30.888  28.512  1.00  0.00     0.251 C 
ATOM     37  H   UNL A   1      33.182  30.845  27.485  1.00  0.00     0.163 HD
ATOM     38  O   UNL A   1      34.624  31.912  29.127  1.00  0.00    -0.269 OA
BRANCH  36  39
ATOM     39  C   UNL A   1      36.208  30.228  28.729  1.00  0.00     0.039 A 
ATOM     40  C   UNL A   1      37.181  30.314  27.730  1.00  0.00     0.014 A 
ATOM     41  C   UNL A   1      36.481  29.567  29.929  1.00  0.00     0.014 A 
ATOM     42  C   UNL A   1      38.462  29.811  27.969  1.00  0.00     0.010 A 
ATOM     43  C   UNL A   1      37.772  29.120  30.189  1.00  0.00     0.010 A 
ATOM     44  C   UNL A   1      38.778  29.253  29.218  1.00  0.00    -0.014 A 
BRANCH  44  45
ATOM     45  C   UNL A   1      40.164  28.841  29.554  1.00  0.00     0.031 A 
ATOM     46  C   UNL A   1      41.067  29.778  30.302  1.00  0.00     0.074 A 
ATOM     47  C   UNL A   1      40.637  27.669  29.086  1.00  0.00     0.049 A 
ATOM     48  N   UNL A   1      42.344  29.659  30.566  1.00  0.00    -0.248 NA
ATOM     49  C   UNL A   1      40.465  31.026  30.794  1.00  0.00     0.031 C 
ATOM     50  C   UNL A   1      39.869  26.699  28.304  1.00  0.00     0.029 A 
ATOM     51  N   UNL A   1      41.887  27.109  29.174  1.00  0.00    -0.354 N 
ATOM     52  C   UNL A   1      42.701  30.824  31.230  1.00  0.00     0.074 A 
ATOM     53  C   UNL A   1      41.516  31.652  31.303  1.00  0.00     0.031 C 
ATOM     54  C   UNL A   1      40.664  25.665  27.983  1.00  0.00     0.029 A 
ATOM     55  C   UNL A   1      42.006  25.918  28.499  1.00  0.00     0.049 A 
ATOM     56  H   UNL A   1      42.628  27.521  29.674  1.00  0.00     0.167 HD
ATOM     57  C   UNL A   1      43.908  31.163  31.743  1.00  0.00     0.037 A 
ATOM     58  C   UNL A   1      43.080  25.132  28.295  1.00  0.00     0.037 A 
ATOM     59  C   UNL A   1      45.071  30.317  31.706  1.00  0.00     0.049 A 
ATOM     60  C   UNL A   1      44.407  25.536  28.877  1.00  0.00     0.074 A 
ATOM     61  C   UNL A   1      46.304  30.525  32.297  1.00  0.00     0.029 A 
ATOM     62  N   UNL A   1      45.146  29.107  31.036  1.00  0.00    -0.354 N 
ATOM     63  N   UNL A   1      44.711  26.597  29.583  1.00  0.00    -0.248 NA
ATOM     64  C   UNL A   1      45.543  24.635  28.631  1.00  0.00     0.031 C 
ATOM     65  C   UNL A   1      47.142  29.464  31.941  1.00  0.00     0.029 A 
ATOM     66  C   UNL A   1      46.417  28.574  31.166  1.00  0.00     0.049 A 
ATOM     67  H   UNL A   1      44.405  28.688  30.540  1.00  0.00     0.167 HD
ATOM     68  C   UNL A   1      46.062  26.483  29.881  1.00  0.00     0.074 A 
ATOM     69  C   UNL A   1      46.517  25.241  29.295  1.00  0.00     0.031 C 
ATOM     70  C   UNL A   1      46.854  27.333  30.578  1.00  0.00     0.037 A 
BRANCH  57  71
ATOM     71  C   UNL A   1      44.040  32.507  32.395  1.00  0.00     0.064 A 
ATOM     72  C   UNL A   1      44.409  33.647  31.666  1.00  0.00     0.173 A 
ATOM     73  C   UNL A   1      43.728  32.667  33.753  1.00  0.00     0.173 A 
ATOM     74  F   UNL A   1      44.725  33.543  30.366  1.00  0.00    -0.203 F 
ATOM     75  C   UNL A   1      44.477  34.895  32.278  1.00  0.00     0.198 A 
ATOM     76  C   UNL A   1      43.773  33.921  34.356  1.00  0.00     0.198 A 
ATOM     77  F   UNL A   1      43.365  31.609  34.494  1.00  0.00    -0.203 F 
ATOM     78  F   UNL A   1      44.863  35.966  31.570  1.00  0.00    -0.200 F 
ATOM     79  C   UNL A   1      44.152  35.033  33.619  1.00  0.00     0.200 A 
ATOM     80  F   UNL A   1      43.446  34.054  35.649  1.00  0.00    -0.200 F 
ATOM     81  F   UNL A   1      44.205  36.239  34.202  1.00  0.00    -0.200 F 
ENDBRANCH  57  71
BRANCH  58  82
ATOM     82  C   UNL A   1      42.951  23.887  27.495  1.00  0.00     0.064 A 
ATOM     83  C   UNL A   1      42.569  22.680  28.096  1.00  0.00     0.173 A 
ATOM     84  C   UNL A   1      43.222  23.874  26.118  1.00  0.00     0.173 A 
ATOM     85  F   UNL A   1      42.321  22.638  29.413  1.00  0.00    -0.203 F 
ATOM     86  C   UNL A   1      42.484  21.503  27.356  1.00  0.00     0.198 A 
ATOM     87  C   UNL A   1      43.109  22.702  25.374  1.00  0.00     0.198 A 
ATOM     88  F   UNL A   1      43.587  25.003  25.495  1.00  0.00    -0.203 F 
ATOM     89  F   UNL A   1      42.164  20.353  27.965  1.00  0.00    -0.200 F 
ATOM     90  C   UNL A   1      42.750  21.515  25.995  1.00  0.00     0.200 A 
ATOM     91  F   UNL A   1      43.354  22.720  24.057  1.00  0.00    -0.200 F 
ATOM     92  F   UNL A   1      42.668  20.382  25.284  1.00  0.00    -0.200 F 
ENDBRANCH  58  82
BRANCH  70  93
ATOM     93  C   UNL A   1      48.291  26.945  30.759  1.00  0.00     0.064 A 
ATOM     94  C   UNL A   1      49.294  27.442  29.915  1.00  0.00     0.173 A 
ATOM     95  C   UNL A   1      48.674  26.113  31.821  1.00  0.00     0.173 A 
ATOM     96  F   UNL A   1      48.973  28.228  28.876  1.00  0.00    -0.203 F 
ATOM     97  C   UNL A   1      50.630  27.109  30.121  1.00  0.00     0.198 A 
ATOM     98  C   UNL A   1      50.014  25.804  32.039  1.00  0.00     0.198 A 
ATOM     99  F   UNL A   1      47.752  25.616  32.659  1.00  0.00    -0.203 F 
ATOM    100  F   UNL A   1      51.569  27.567  29.281  1.00  0.00    -0.200 F 
ATOM    101  C   UNL A   1      50.989  26.298  31.187  1.00  0.00     0.200 A 
ATOM    102  F   UNL A   1      50.361  25.030  33.077  1.00  0.00    -0.200 F 
ATOM    103  F   UNL A   1      52.277  25.989  31.390  1.00  0.00    -0.200 F 
ENDBRANCH  70  93
ENDBRANCH  44  45
ENDBRANCH  36  39
ENDBRANCH  34  35
ENDBRANCH  33  34
ENDBRANCH  32  33
ENDBRANCH   1  32
TORSDOF 17
ENDMDL
MODEL 2
REMARK VINA RESULT:     -12.5      3.486      8.242
REMARK SMILES C[C@@H](C(=O)NCCCCNC(=O)c1ccc(-c2c3nc(c(-c4c(F)c(F)c(F)c(F)c4F)c4ccc([nH]4)c(-c4c(F)c(F)c(F)c(F)c4F)c4nc(c(-c5c(F)c(F)c(F)c(F)c5F)c5ccc2[nH]5)C=C4)C=C3)cc1)c1ccc(C[C@H]2CCCC2=O)c(-c2ccc(OC(F)(F)F)cc2)c1
REMARK SMILES IDX 6 1 5 2 3 3 4 4 2 6 1 7 76 8 77 9 99 10 78 11 87 12 79 13
REMARK SMILES IDX 88 14 89 15 98 16 90 17 97 18 91 19 92 20 93 21 94 22 95 23
REMARK SMILES IDX 96 24 80 25 81 26 82 27 85 28 83 29 84 30 86 31 7 32 8 33
REMARK SMILES IDX 9 34 10 35 11 36 12 38 13 39 14 40 75 41 15 42 74 43 16 44
REMARK SMILES IDX 17 45 18 46 68 47 19 48 73 49 67 50 69 51 20 52 72 53 66 54
REMARK SMILES IDX 65 55 21 57 53 58 33 59 52 60 34 61 37 62 51 63 70 64 35 65
REMARK SMILES IDX 36 66 50 68 71 69 38 70 22 71 23 72 31 73 24 74 25 75 29 76
REMARK SMILES IDX 32 77 26 78 27 79 30 80 28 81 54 82 55 83 63 84 56 85 57 86
REMARK SMILES IDX 61 87 64 88 58 89 59 90 62 91 60 92 39 93 40 94 48 95 41 96
REMARK SMILES IDX 42 97 46 98 49 99 43 100 44 101 47 102 45 103
REMARK H PARENT 5 5 10 37 69 56 37 67
REMARK Flexibility Score: inf
ROOT
ATOM      1  C   UNL A   1      31.937  28.470  26.105  1.00  0.00     0.116 C 
ENDROOT
BRANCH   1   2
ATOM      2  N   UNL A   1      31.117  27.372  26.574  1.00  0.00    -0.356 N 
ATOM      3  C   UNL A   1      30.650  26.276  25.907  1.00  0.00     0.227 C 
ATOM      4  O   UNL A   1      29.858  25.555  26.515  1.00  0.00    -0.274 OA
ATOM      5  H   UNL A   1      30.854  27.425  27.522  1.00  0.00     0.163 HD
BRANCH   3   6
ATOM      6  C   UNL A   1      31.142  25.978  24.482  1.00  0.00     0.105 C 
ATOM      7  C   UNL A   1      30.038  25.381  23.597  1.00  0.00     0.023 C 
BRANCH   6   8
ATOM      8  C   UNL A   1      32.367  25.071  24.474  1.00  0.00    -0.035 A 
ATOM      9  C   UNL A   1      33.645  25.600  24.297  1.00  0.00     0.005 A 
ATOM     10  C   UNL A   1      32.242  23.682  24.633  1.00  0.00     0.013 A 
ATOM     11  C   UNL A   1      34.749  24.753  24.216  1.00  0.00     0.004 A 
ATOM     12  C   UNL A   1      33.334  22.799  24.516  1.00  0.00    -0.015 A 
ATOM     13  C   UNL A   1      34.612  23.349  24.273  1.00  0.00    -0.039 A 
BRANCH  12  14
ATOM     14  C   UNL A   1      33.048  21.355  24.620  1.00  0.00    -0.018 A 
ATOM     15  C   UNL A   1      32.813  20.561  23.490  1.00  0.00     0.012 A 
ATOM     16  C   UNL A   1      33.066  20.719  25.873  1.00  0.00     0.012 A 
ATOM     17  C   UNL A   1      32.565  19.191  23.617  1.00  0.00     0.047 A 
ATOM     18  C   UNL A   1      32.839  19.345  26.000  1.00  0.00     0.047 A 
ATOM     19  C   UNL A   1      32.577  18.573  24.872  1.00  0.00     0.129 A 
BRANCH  19  20
ATOM     20  O   UNL A   1      32.322  17.232  24.849  1.00  0.00    -0.406 OA
BRANCH  20  21
ATOM     21  C   UNL A   1      33.395  16.363  24.534  1.00  0.00     0.573 C 
ATOM     22  F   UNL A   1      33.503  16.186  23.199  1.00  0.00    -0.132 F 
ATOM     23  F   UNL A   1      34.564  16.830  25.022  1.00  0.00    -0.132 F 
ATOM     24  F   UNL A   1      33.160  15.158  25.100  1.00  0.00    -0.132 F 
ENDBRANCH  20  21
ENDBRANCH  19  20
ENDBRANCH  12  14
BRANCH  13  25
ATOM     25  C   UNL A   1      35.853  22.511  24.030  1.00  0.00     0.047 C 
BRANCH  25  26
ATOM     26  C   UNL A   1      36.415  21.738  25.231  1.00  0.00     0.060 C 
ATOM     27  C   UNL A   1      36.533  20.218  25.085  1.00  0.00     0.012 C 
ATOM     28  C   UNL A   1      37.835  22.131  25.569  1.00  0.00     0.136 C 
ATOM     29  C   UNL A   1      37.981  19.942  24.697  1.00  0.00     0.009 C 
ATOM     30  C   UNL A   1      38.799  20.982  25.447  1.00  0.00     0.076 C 
ATOM     31  O   UNL A   1      38.167  23.256  25.926  1.00  0.00    -0.299 OA
ENDBRANCH  25  26
ENDBRANCH  13  25
ENDBRANCH   6   8
ENDBRANCH   3   6
ENDBRANCH   1   2
BRANCH   1  32
ATOM     32  C   UNL A   1      32.224  29.462  27.234  1.00  0.00     0.023 C 
BRANCH  32  33
ATOM     33  C   UNL A   1      31.987  30.931  26.869  1.00  0.00     0.023 C 
BRANCH  33  34
ATOM     34  C   UNL A   1      33.118  31.883  27.240  1.00  0.00     0.116 C 
BRANCH  34  35
ATOM     35  N   UNL A   1      32.667  33.250  27.442  1.00  0.00    -0.352 N 
ATOM     36  C   UNL A   1      33.126  34.185  28.340  1.00  0.00     0.251 C 
ATOM     37  H   UNL A   1      31.932  33.546  26.858  1.00  0.00     0.163 HD
ATOM     38  O   UNL A   1      32.554  35.263  28.465  1.00  0.00    -0.269 OA
BRANCH  36  39
ATOM     39  C   UNL A   1      34.295  33.864  29.182  1.00  0.00     0.039 A 
ATOM     40  C   UNL A   1      34.106  33.091  30.330  1.00  0.00     0.014 A 
ATOM     41  C   UNL A   1      35.575  34.288  28.816  1.00  0.00     0.014 A 
ATOM     42  C   UNL A   1      35.215  32.667  31.066  1.00  0.00     0.010 A 
ATOM     43  C   UNL A   1      36.681  33.818  29.515  1.00  0.00     0.010 A 
ATOM     44  C   UNL A   1      36.512  32.989  30.636  1.00  0.00    -0.014 A 
BRANCH  44  45
ATOM     45  C   UNL A   1      37.712  32.436  31.312  1.00  0.00     0.031 A 
ATOM     46  C   UNL A   1      38.441  31.268  30.716  1.00  0.00     0.074 A 
ATOM     47  C   UNL A   1      38.073  32.918  32.518  1.00  0.00     0.049 A 
ATOM     48  N   UNL A   1      39.419  30.559  31.221  1.00  0.00    -0.248 NA
ATOM     49  C   UNL A   1      37.995  30.817  29.389  1.00  0.00     0.031 C 
ATOM     50  C   UNL A   1      37.410  34.018  33.222  1.00  0.00     0.029 A 
ATOM     51  N   UNL A   1      39.068  32.526  33.379  1.00  0.00    -0.354 N 
ATOM     52  C   UNL A   1      39.686  29.567  30.288  1.00  0.00     0.074 A 
ATOM     53  C   UNL A   1      38.749  29.744  29.199  1.00  0.00     0.031 C 
ATOM     54  C   UNL A   1      38.014  34.210  34.405  1.00  0.00     0.029 A 
ATOM     55  C   UNL A   1      39.078  33.223  34.562  1.00  0.00     0.049 A 
ATOM     56  H   UNL A   1      39.713  31.813  33.167  1.00  0.00     0.167 HD
ATOM     57  C   UNL A   1      40.637  28.605  30.334  1.00  0.00     0.037 A 
ATOM     58  C   UNL A   1      39.841  33.067  35.662  1.00  0.00     0.037 A 
ATOM     59  C   UNL A   1      41.595  28.460  31.398  1.00  0.00     0.049 A 
ATOM     60  C   UNL A   1      40.888  31.988  35.682  1.00  0.00     0.074 A 
ATOM     61  C   UNL A   1      42.666  27.589  31.479  1.00  0.00     0.029 A 
ATOM     62  N   UNL A   1      41.591  29.201  32.569  1.00  0.00    -0.354 N 
ATOM     63  N   UNL A   1      41.193  31.115  34.754  1.00  0.00    -0.248 NA
ATOM     64  C   UNL A   1      41.698  31.871  36.904  1.00  0.00     0.031 C 
ATOM     65  C   UNL A   1      43.281  27.768  32.722  1.00  0.00     0.029 A 
ATOM     66  C   UNL A   1      42.619  28.781  33.396  1.00  0.00     0.049 A 
ATOM     67  H   UNL A   1      40.951  29.920  32.781  1.00  0.00     0.167 HD
ATOM     68  C   UNL A   1      42.237  30.359  35.270  1.00  0.00     0.074 A 
ATOM     69  C   UNL A   1      42.527  30.887  36.586  1.00  0.00     0.031 C 
ATOM     70  C   UNL A   1      42.896  29.320  34.703  1.00  0.00     0.037 A 
BRANCH  57  71
ATOM     71  C   UNL A   1      40.700  27.626  29.199  1.00  0.00     0.064 A 
ATOM     72  C   UNL A   1      41.656  27.740  28.179  1.00  0.00     0.173 A 
ATOM     73  C   UNL A   1      39.835  26.521  29.170  1.00  0.00     0.173 A 
ATOM     74  F   UNL A   1      42.499  28.783  28.159  1.00  0.00    -0.203 F 
ATOM     75  C   UNL A   1      41.732  26.793  27.161  1.00  0.00     0.198 A 
ATOM     76  C   UNL A   1      39.930  25.563  28.164  1.00  0.00     0.198 A 
ATOM     77  F   UNL A   1      38.906  26.364  30.124  1.00  0.00    -0.203 F 
ATOM     78  F   UNL A   1      42.632  26.940  26.178  1.00  0.00    -0.200 F 
ATOM     79  C   UNL A   1      40.876  25.702  27.159  1.00  0.00     0.200 A 
ATOM     80  F   UNL A   1      39.110  24.503  28.170  1.00  0.00    -0.200 F 
ATOM     81  F   UNL A   1      40.960  24.785  26.185  1.00  0.00    -0.200 F 
ENDBRANCH  57  71
BRANCH  58  82
ATOM     82  C   UNL A   1      39.635  33.948  36.841  1.00  0.00     0.064 A 
ATOM     83  C   UNL A   1      40.251  35.204  36.918  1.00  0.00     0.173 A 
ATOM     84  C   UNL A   1      38.836  33.545  37.922  1.00  0.00     0.173 A 
ATOM     85  F   UNL A   1      41.043  35.623  35.920  1.00  0.00    -0.203 F 
ATOM     86  C   UNL A   1      40.092  36.016  38.039  1.00  0.00     0.198 A 
ATOM     87  C   UNL A   1      38.655  34.369  39.029  1.00  0.00     0.198 A 
ATOM     88  F   UNL A   1      38.222  32.353  37.895  1.00  0.00    -0.203 F 
ATOM     89  F   UNL A   1      40.731  37.192  38.108  1.00  0.00    -0.200 F 
ATOM     90  C   UNL A   1      39.291  35.600  39.092  1.00  0.00     0.200 A 
ATOM     91  F   UNL A   1      37.870  33.970  40.039  1.00  0.00    -0.200 F 
ATOM     92  F   UNL A   1      39.139  36.382  40.170  1.00  0.00    -0.200 F 
ENDBRANCH  58  82
BRANCH  70  93
ATOM     93  C   UNL A   1      44.004  28.692  35.494  1.00  0.00     0.064 A 
ATOM     94  C   UNL A   1      45.321  29.164  35.407  1.00  0.00     0.173 A 
ATOM     95  C   UNL A   1      43.735  27.646  36.389  1.00  0.00     0.173 A 
ATOM     96  F   UNL A   1      45.630  30.150  34.552  1.00  0.00    -0.203 F 
ATOM     97  C   UNL A   1      46.333  28.601  36.180  1.00  0.00     0.198 A 
ATOM     98  C   UNL A   1      44.744  27.105  37.180  1.00  0.00     0.198 A 
ATOM     99  F   UNL A   1      42.489  27.164  36.511  1.00  0.00    -0.203 F 
ATOM    100  F   UNL A   1      47.592  29.043  36.055  1.00  0.00    -0.200 F 
ATOM    101  C   UNL A   1      46.042  27.579  37.071  1.00  0.00     0.200 A 
ATOM    102  F   UNL A   1      44.460  26.125  38.049  1.00  0.00    -0.200 F 
ATOM    103  F   UNL A   1      47.016  27.048  37.823  1.00  0.00    -0.200 F 
ENDBRANCH  70  93
ENDBRANCH  44  45
ENDBRANCH  36  39
ENDBRANCH  34  35
ENDBRANCH  33  34
ENDBRANCH  32  33
ENDBRANCH   1  32
TORSDOF 17
ENDMDL
MODEL 3
REMARK VINA RESULT:     -12.5      2.922      7.486
REMARK SMILES C[C@@H](C(=O)NCCCCNC(=O)c1ccc(-c2c3nc(c(-c4c(F)c(F)c(F)c(F)c4F)c4ccc([nH]4)c(-c4c(F)c(F)c(F)c(F)c4F)c4nc(c(-c5c(F)c(F)c(F)c(F)c5F)c5ccc2[nH]5)C=C4)C=C3)cc1)c1ccc(C[C@H]2CCCC2=O)c(-c2ccc(OC(F)(F)F)cc2)c1
REMARK SMILES IDX 6 1 5 2 3 3 4 4 2 6 1 7 76 8 77 9 99 10 78 11 87 12 79 13
REMARK SMILES IDX 88 14 89 15 98 16 90 17 97 18 91 19 92 20 93 21 94 22 95 23
REMARK SMILES IDX 96 24 80 25 81 26 82 27 85 28 83 29 84 30 86 31 7 32 8 33
REMARK SMILES IDX 9 34 10 35 11 36 12 38 13 39 14 40 75 41 15 42 74 43 16 44
REMARK SMILES IDX 17 45 18 46 68 47 19 48 73 49 67 50 69 51 20 52 72 53 66 54
REMARK SMILES IDX 65 55 21 57 53 58 33 59 52 60 34 61 37 62 51 63 70 64 35 65
REMARK SMILES IDX 36 66 50 68 71 69 38 70 22 71 23 72 31 73 24 74 25 75 29 76
REMARK SMILES IDX 32 77 26 78 27 79 30 80 28 81 54 82 55 83 63 84 56 85 57 86
REMARK SMILES IDX 61 87 64 88 58 89 59 90 62 91 60 92 39 93 40 94 48 95 41 96
REMARK SMILES IDX 42 97 46 98 49 99 43 100 44 101 47 102 45 103
REMARK H PARENT 5 5 10 37 69 56 37 67
REMARK Flexibility Score: inf
ROOT
ATOM      1  C   UNL A   1      32.238  27.096  27.160  1.00  0.00     0.116 C 
ENDROOT
BRANCH   1   2
ATOM      2  N   UNL A   1      31.022  26.359  26.881  1.00  0.00    -0.356 N 
ATOM      3  C   UNL A   1      30.512  25.924  25.691  1.00  0.00     0.227 C 
ATOM      4  O   UNL A   1      29.385  25.428  25.722  1.00  0.00    -0.274 OA
ATOM      5  H   UNL A   1      30.479  26.138  27.671  1.00  0.00     0.163 HD
BRANCH   3   6
ATOM      6  C   UNL A   1      31.352  26.036  24.409  1.00  0.00     0.105 C 
ATOM      7  C   UNL A   1      30.513  25.819  23.142  1.00  0.00     0.023 C 
BRANCH   6   8
ATOM      8  C   UNL A   1      32.544  25.086  24.416  1.00  0.00    -0.035 A 
ATOM      9  C   UNL A   1      33.843  25.571  24.266  1.00  0.00     0.005 A 
ATOM     10  C   UNL A   1      32.366  23.702  24.563  1.00  0.00     0.013 A 
ATOM     11  C   UNL A   1      34.918  24.685  24.199  1.00  0.00     0.004 A 
ATOM     12  C   UNL A   1      33.429  22.780  24.460  1.00  0.00    -0.015 A 
ATOM     13  C   UNL A   1      34.730  23.286  24.243  1.00  0.00    -0.039 A 
BRANCH  12  14
ATOM     14  C   UNL A   1      33.090  21.347  24.548  1.00  0.00    -0.018 A 
ATOM     15  C   UNL A   1      32.748  20.594  23.418  1.00  0.00     0.012 A 
ATOM     16  C   UNL A   1      33.163  20.678  25.781  1.00  0.00     0.012 A 
ATOM     17  C   UNL A   1      32.452  19.231  23.528  1.00  0.00     0.047 A 
ATOM     18  C   UNL A   1      32.887  19.311  25.891  1.00  0.00     0.047 A 
ATOM     19  C   UNL A   1      32.520  18.580  24.764  1.00  0.00     0.129 A 
BRANCH  19  20
ATOM     20  O   UNL A   1      32.208  17.252  24.727  1.00  0.00    -0.406 OA
BRANCH  20  21
ATOM     21  C   UNL A   1      33.263  16.334  24.502  1.00  0.00     0.573 C 
ATOM     22  F   UNL A   1      32.913  15.087  24.882  1.00  0.00    -0.132 F 
ATOM     23  F   UNL A   1      33.634  16.322  23.204  1.00  0.00    -0.132 F 
ATOM     24  F   UNL A   1      34.332  16.712  25.237  1.00  0.00    -0.132 F 
ENDBRANCH  20  21
ENDBRANCH  19  20
ENDBRANCH  12  14
BRANCH  13  25
ATOM     25  C   UNL A   1      35.944  22.406  24.016  1.00  0.00     0.047 C 
BRANCH  25  26
ATOM     26  C   UNL A   1      36.463  21.614  25.225  1.00  0.00     0.060 C 
ATOM     27  C   UNL A   1      36.684  20.112  25.027  1.00  0.00     0.012 C 
ATOM     28  C   UNL A   1      37.828  22.074  25.683  1.00  0.00     0.136 C 
ATOM     29  C   UNL A   1      38.171  19.938  24.738  1.00  0.00     0.009 C 
ATOM     30  C   UNL A   1      38.868  20.989  25.589  1.00  0.00     0.076 C 
ATOM     31  O   UNL A   1      38.064  23.200  26.110  1.00  0.00    -0.299 OA
ENDBRANCH  25  26
ENDBRANCH  13  25
ENDBRANCH   6   8
ENDBRANCH   3   6
ENDBRANCH   1   2
BRANCH   1  32
ATOM     32  C   UNL A   1      31.926  28.540  27.556  1.00  0.00     0.023 C 
BRANCH  32  33
ATOM     33  C   UNL A   1      31.752  29.502  26.376  1.00  0.00     0.023 C 
BRANCH  33  34
ATOM     34  C   UNL A   1      32.920  30.453  26.137  1.00  0.00     0.116 C 
BRANCH  34  35
ATOM     35  N   UNL A   1      32.665  31.798  26.625  1.00  0.00    -0.352 N 
ATOM     36  C   UNL A   1      33.405  32.549  27.508  1.00  0.00     0.251 C 
ATOM     37  H   UNL A   1      31.852  32.230  26.277  1.00  0.00     0.163 HD
ATOM     38  O   UNL A   1      32.987  33.630  27.910  1.00  0.00    -0.269 OA
BRANCH  36  39
ATOM     39  C   UNL A   1      34.695  32.025  27.998  1.00  0.00     0.039 A 
ATOM     40  C   UNL A   1      35.808  32.869  28.003  1.00  0.00     0.014 A 
ATOM     41  C   UNL A   1      34.793  30.721  28.492  1.00  0.00     0.014 A 
ATOM     42  C   UNL A   1      37.001  32.435  28.584  1.00  0.00     0.010 A 
ATOM     43  C   UNL A   1      35.963  30.311  29.122  1.00  0.00     0.010 A 
ATOM     44  C   UNL A   1      37.072  31.170  29.189  1.00  0.00    -0.014 A 
BRANCH  44  45
ATOM     45  C   UNL A   1      38.276  30.736  29.939  1.00  0.00     0.031 A 
ATOM     46  C   UNL A   1      39.208  29.720  29.344  1.00  0.00     0.074 A 
ATOM     47  C   UNL A   1      38.466  31.176  31.199  1.00  0.00     0.049 A 
ATOM     48  N   UNL A   1      40.230  29.115  29.895  1.00  0.00    -0.248 NA
ATOM     49  C   UNL A   1      38.940  29.310  27.958  1.00  0.00     0.031 C 
ATOM     50  C   UNL A   1      37.601  32.125  31.902  1.00  0.00     0.029 A 
ATOM     51  N   UNL A   1      39.430  30.860  32.123  1.00  0.00    -0.354 N 
ATOM     52  C   UNL A   1      40.708  28.236  28.933  1.00  0.00     0.074 A 
ATOM     53  C   UNL A   1      39.850  28.362  27.776  1.00  0.00     0.031 C 
ATOM     54  C   UNL A   1      38.072  32.312  33.145  1.00  0.00     0.029 A 
ATOM     55  C   UNL A   1      39.246  31.467  33.341  1.00  0.00     0.049 A 
ATOM     56  H   UNL A   1      40.184  30.256  31.930  1.00  0.00     0.167 HD
ATOM     57  C   UNL A   1      41.777  27.408  29.010  1.00  0.00     0.037 A 
ATOM     58  C   UNL A   1      39.929  31.337  34.495  1.00  0.00     0.037 A 
ATOM     59  C   UNL A   1      42.654  27.318  30.147  1.00  0.00     0.049 A 
ATOM     60  C   UNL A   1      41.111  30.409  34.548  1.00  0.00     0.074 A 
ATOM     61  C   UNL A   1      43.826  26.594  30.275  1.00  0.00     0.029 A 
ATOM     62  N   UNL A   1      42.450  27.967  31.354  1.00  0.00    -0.354 N 
ATOM     63  N   UNL A   1      41.610  29.651  33.602  1.00  0.00    -0.248 NA
ATOM     64  C   UNL A   1      41.825  30.314  35.830  1.00  0.00     0.031 C 
ATOM     65  C   UNL A   1      44.304  26.765  31.577  1.00  0.00     0.029 A 
ATOM     66  C   UNL A   1      43.454  27.631  32.246  1.00  0.00     0.049 A 
ATOM     67  H   UNL A   1      41.701  28.577  31.549  1.00  0.00     0.167 HD
ATOM     68  C   UNL A   1      42.703  29.007  34.166  1.00  0.00     0.074 A 
ATOM     69  C   UNL A   1      42.806  29.475  35.532  1.00  0.00     0.031 C 
ATOM     70  C   UNL A   1      43.544  28.107  33.602  1.00  0.00     0.037 A 
BRANCH  57  71
ATOM     71  C   UNL A   1      42.070  26.529  27.830  1.00  0.00     0.064 A 
ATOM     72  C   UNL A   1      43.015  26.889  26.859  1.00  0.00     0.173 A 
ATOM     73  C   UNL A   1      41.443  25.279  27.708  1.00  0.00     0.173 A 
ATOM     74  F   UNL A   1      43.633  28.077  26.928  1.00  0.00    -0.203 F 
ATOM     75  C   UNL A   1      43.310  26.037  25.798  1.00  0.00     0.198 A 
ATOM     76  C   UNL A   1      41.759  24.419  26.660  1.00  0.00     0.198 A 
ATOM     77  F   UNL A   1      40.535  24.886  28.613  1.00  0.00    -0.203 F 
ATOM     78  F   UNL A   1      44.193  26.416  24.863  1.00  0.00    -0.200 F 
ATOM     79  C   UNL A   1      42.689  24.801  25.703  1.00  0.00     0.200 A 
ATOM     80  F   UNL A   1      41.167  23.220  26.577  1.00  0.00    -0.200 F 
ATOM     81  F   UNL A   1      42.985  23.977  24.689  1.00  0.00    -0.200 F 
ENDBRANCH  57  71
BRANCH  58  82
ATOM     82  C   UNL A   1      39.506  32.096  35.700  1.00  0.00     0.064 A 
ATOM     83  C   UNL A   1      38.522  31.592  36.561  1.00  0.00     0.173 A 
ATOM     84  C   UNL A   1      40.064  33.347  36.006  1.00  0.00     0.173 A 
ATOM     85  F   UNL A   1      37.943  30.412  36.297  1.00  0.00    -0.203 F 
ATOM     86  C   UNL A   1      38.095  32.320  37.670  1.00  0.00     0.198 A 
ATOM     87  C   UNL A   1      39.657  34.060  37.131  1.00  0.00     0.198 A 
ATOM     88  F   UNL A   1      41.012  33.871  35.216  1.00  0.00    -0.203 F 
ATOM     89  F   UNL A   1      37.118  31.837  38.450  1.00  0.00    -0.200 F 
ATOM     90  C   UNL A   1      38.666  33.551  37.957  1.00  0.00     0.200 A 
ATOM     91  F   UNL A   1      40.219  35.243  37.413  1.00  0.00    -0.200 F 
ATOM     92  F   UNL A   1      38.255  34.249  39.024  1.00  0.00    -0.200 F 
ENDBRANCH  58  82
BRANCH  70  93
ATOM     93  C   UNL A   1      44.660  27.579  34.453  1.00  0.00     0.064 A 
ATOM     94  C   UNL A   1      44.521  26.391  35.185  1.00  0.00     0.173 A 
ATOM     95  C   UNL A   1      45.898  28.237  34.492  1.00  0.00     0.173 A 
ATOM     96  F   UNL A   1      43.350  25.736  35.192  1.00  0.00    -0.203 F 
ATOM     97  C   UNL A   1      45.579  25.888  35.936  1.00  0.00     0.198 A 
ATOM     98  C   UNL A   1      46.962  27.716  35.223  1.00  0.00     0.198 A 
ATOM     99  F   UNL A   1      46.081  29.375  33.805  1.00  0.00    -0.203 F 
ATOM    100  F   UNL A   1      45.414  24.769  36.656  1.00  0.00    -0.200 F 
ATOM    101  C   UNL A   1      46.800  26.545  35.947  1.00  0.00     0.200 A 
ATOM    102  F   UNL A   1      48.145  28.346  35.224  1.00  0.00    -0.200 F 
ATOM    103  F   UNL A   1      47.821  26.051  36.662  1.00  0.00    -0.200 F 
ENDBRANCH  70  93
ENDBRANCH  44  45
ENDBRANCH  36  39
ENDBRANCH  34  35
ENDBRANCH  33  34
ENDBRANCH  32  33
ENDBRANCH   1  32
TORSDOF 17
ENDMDL
