MODEL 1
REMARK VINA RESULT:     -13.4      0.000      0.000
REMARK SMILES Cc1ccccc1/[NH+]=C1\S[C@@H](CC(=O)Nc2ccc(C(=O)NCCCCNC(=O)c3ccc(-c4c5nc(c(-c6c(F)c(F)c(F)c(F)c6F)c6ccc([nH]6)c(-c6c(F)c(F)c(F)c(F)c6F)c6nc(c(-c7c(F)c(F)c(F)c(F)c7F)c7ccc4[nH]7)C=C6)C=C5)cc3)cc2)C(=O)N1C
REMARK SMILES IDX 23 1 22 2 20 3 21 4 19 6 16 7 17 8 94 9 18 10 93 11 15 12
REMARK SMILES IDX 13 13 14 14 12 16 11 17 8 18 9 19 10 21 97 22 95 23 98 24
REMARK SMILES IDX 96 25 7 26 1 27 2 28 3 29 4 30 6 31 5 32 24 33 25 34 26 35
REMARK SMILES IDX 27 36 28 37 29 39 30 40 31 41 92 42 32 43 91 44 33 45 34 46
REMARK SMILES IDX 35 47 85 48 36 49 90 50 84 51 86 52 37 53 89 54 83 55 82 56
REMARK SMILES IDX 38 58 70 59 50 60 69 61 51 62 54 63 68 64 87 65 52 66 53 67
REMARK SMILES IDX 67 69 88 70 55 71 39 72 40 73 48 74 41 75 42 76 46 77 49 78
REMARK SMILES IDX 43 79 44 80 47 81 45 82 71 83 72 84 80 85 73 86 74 87 78 88
REMARK SMILES IDX 81 89 75 90 76 91 79 92 77 93 56 94 57 95 65 96 58 97 59 98
REMARK SMILES IDX 63 99 66 100 60 101 61 102 64 103 62 104
REMARK H PARENT 22 5 15 15 8 20 27 38 86 57 54 68
REMARK Flexibility Score: inf
ROOT
ATOM      1  C   UNL A   1      38.730  21.621  26.127  1.00  0.00     0.116 C 
ENDROOT
BRANCH   1   2
ATOM      2  N   UNL A   1      38.200  21.995  24.818  1.00  0.00    -0.352 N 
ATOM      3  C   UNL A   1      36.965  22.417  24.372  1.00  0.00     0.251 C 
ATOM      4  O   UNL A   1      36.903  22.873  23.229  1.00  0.00    -0.269 OA
ATOM      5  H   UNL A   1      38.870  21.935  24.099  1.00  0.00     0.163 HD
BRANCH   3   6
ATOM      6  C   UNL A   1      35.714  22.363  25.180  1.00  0.00     0.039 A 
ATOM      7  C   UNL A   1      33.278  22.227  26.602  1.00  0.00     0.041 A 
ATOM      8  C   UNL A   1      34.194  23.248  26.813  1.00  0.00     0.027 A 
ATOM      9  C   UNL A   1      33.660  21.156  25.812  1.00  0.00     0.027 A 
ATOM     10  C   UNL A   1      35.382  23.338  26.103  1.00  0.00     0.016 A 
ATOM     11  C   UNL A   1      34.869  21.234  25.091  1.00  0.00     0.016 A 
BRANCH   7  12
ATOM     12  N   UNL A   1      32.012  22.296  27.202  1.00  0.00    -0.326 N 
ATOM     13  C   UNL A   1      30.924  23.006  26.728  1.00  0.00     0.226 C 
ATOM     14  O   UNL A   1      29.959  23.249  27.452  1.00  0.00    -0.275 OA
ATOM     15  H   UNL A   1      31.886  21.791  28.038  1.00  0.00     0.169 HD
BRANCH  13  16
ATOM     16  C   UNL A   1      30.859  23.267  25.231  1.00  0.00     0.128 C 
BRANCH  16  17
ATOM     17  C   UNL A   1      31.494  24.549  24.736  1.00  0.00     0.183 C 
ATOM     18  N   UNL A   1      31.594  27.775  23.090  1.00  0.00    -0.234 N 
ATOM     19  C   UNL A   1      31.278  26.542  23.256  1.00  0.00     0.319 C 
ATOM     20  H   UNL A   1      32.287  27.934  22.409  1.00  0.00     0.313 HD
ATOM     21  S   UNL A   1      30.165  25.745  24.310  1.00  0.00    -0.022 SA
ATOM     22  N   UNL A   1      31.957  25.555  22.614  1.00  0.00    -0.193 N 
ATOM     23  C   UNL A   1      32.325  24.519  23.453  1.00  0.00     0.324 C 
ATOM     24  C   UNL A   1      32.420  25.644  21.247  1.00  0.00     0.301 C 
ATOM     25  O   UNL A   1      33.239  23.752  23.240  1.00  0.00    -0.245 OA
BRANCH  18  26
ATOM     26  C   UNL A   1      31.113  28.935  23.718  1.00  0.00     0.128 A 
ATOM     27  C   UNL A   1      28.955  29.466  22.379  1.00  0.00     0.049 C 
ATOM     28  C   UNL A   1      30.001  29.745  23.419  1.00  0.00    -0.004 A 
ATOM     29  C   UNL A   1      29.784  30.925  24.165  1.00  0.00     0.008 A 
ATOM     30  C   UNL A   1      30.562  31.244  25.272  1.00  0.00     0.001 A 
ATOM     31  C   UNL A   1      31.835  29.247  24.890  1.00  0.00     0.052 A 
ATOM     32  C   UNL A   1      31.571  30.381  25.660  1.00  0.00     0.004 A 
ENDBRANCH  18  26
ENDBRANCH  16  17
ENDBRANCH  13  16
ENDBRANCH   7  12
ENDBRANCH   3   6
ENDBRANCH   1   2
BRANCH   1  33
ATOM     33  C   UNL A   1      39.718  22.648  26.714  1.00  0.00     0.023 C 
BRANCH  33  34
ATOM     34  C   UNL A   1      41.117  22.674  26.087  1.00  0.00     0.023 C 
BRANCH  34  35
ATOM     35  C   UNL A   1      42.001  21.491  26.470  1.00  0.00     0.116 C 
BRANCH  35  36
ATOM     36  N   UNL A   1      42.818  20.918  25.401  1.00  0.00    -0.352 N 
ATOM     37  C   UNL A   1      44.014  21.400  24.878  1.00  0.00     0.251 C 
ATOM     38  H   UNL A   1      42.479  20.085  24.999  1.00  0.00     0.163 HD
ATOM     39  O   UNL A   1      44.581  20.821  23.958  1.00  0.00    -0.269 OA
BRANCH  37  40
ATOM     40  C   UNL A   1      44.673  22.550  25.548  1.00  0.00     0.039 A 
ATOM     41  C   UNL A   1      45.133  22.376  26.857  1.00  0.00     0.014 A 
ATOM     42  C   UNL A   1      44.529  23.827  25.019  1.00  0.00     0.014 A 
ATOM     43  C   UNL A   1      45.134  23.468  27.722  1.00  0.00     0.010 A 
ATOM     44  C   UNL A   1      44.394  24.880  25.895  1.00  0.00     0.010 A 
ATOM     45  C   UNL A   1      44.629  24.682  27.258  1.00  0.00    -0.014 A 
BRANCH  45  46
ATOM     46  C   UNL A   1      44.333  25.817  28.117  1.00  0.00     0.031 A 
ATOM     47  C   UNL A   1      43.033  26.482  27.983  1.00  0.00     0.074 A 
ATOM     48  C   UNL A   1      45.192  26.195  29.088  1.00  0.00     0.049 A 
ATOM     49  N   UNL A   1      42.811  27.717  28.268  1.00  0.00    -0.248 NA
ATOM     50  C   UNL A   1      41.861  25.779  27.484  1.00  0.00     0.031 C 
ATOM     51  C   UNL A   1      44.988  27.189  30.140  1.00  0.00     0.029 A 
ATOM     52  N   UNL A   1      46.556  25.910  29.159  1.00  0.00    -0.354 N 
ATOM     53  C   UNL A   1      41.447  27.879  28.326  1.00  0.00     0.074 A 
ATOM     54  C   UNL A   1      40.906  26.678  27.733  1.00  0.00     0.031 C 
ATOM     55  C   UNL A   1      46.182  27.702  30.483  1.00  0.00     0.029 A 
ATOM     56  C   UNL A   1      47.162  27.115  29.592  1.00  0.00     0.049 A 
ATOM     57  H   UNL A   1      47.001  25.055  28.953  1.00  0.00     0.167 HD
ATOM     58  C   UNL A   1      40.946  28.933  29.035  1.00  0.00     0.037 A 
ATOM     59  C   UNL A   1      48.042  27.781  28.789  1.00  0.00     0.037 A 
ATOM     60  C   UNL A   1      42.025  29.815  29.489  1.00  0.00     0.049 A 
ATOM     61  C   UNL A   1      47.588  29.184  28.481  1.00  0.00     0.074 A 
ATOM     62  C   UNL A   1      42.686  29.936  30.702  1.00  0.00     0.029 A 
ATOM     63  N   UNL A   1      42.817  30.475  28.548  1.00  0.00    -0.354 N 
ATOM     64  N   UNL A   1      46.344  29.561  28.591  1.00  0.00    -0.248 NA
ATOM     65  C   UNL A   1      48.463  30.264  28.032  1.00  0.00     0.031 C 
ATOM     66  C   UNL A   1      43.920  30.594  30.468  1.00  0.00     0.029 A 
ATOM     67  C   UNL A   1      44.006  30.891  29.119  1.00  0.00     0.049 A 
ATOM     68  H   UNL A   1      42.564  30.623  27.608  1.00  0.00     0.167 HD
ATOM     69  C   UNL A   1      46.238  30.885  28.272  1.00  0.00     0.074 A 
ATOM     70  C   UNL A   1      47.590  31.282  27.922  1.00  0.00     0.031 C 
ATOM     71  C   UNL A   1      45.045  31.546  28.334  1.00  0.00     0.037 A 
BRANCH  58  72
ATOM     72  C   UNL A   1      39.538  28.945  29.599  1.00  0.00     0.064 A 
ATOM     73  C   UNL A   1      38.458  29.457  28.845  1.00  0.00     0.173 A 
ATOM     74  C   UNL A   1      39.194  28.537  30.902  1.00  0.00     0.173 A 
ATOM     75  F   UNL A   1      38.595  29.783  27.555  1.00  0.00    -0.203 F 
ATOM     76  C   UNL A   1      37.186  29.658  29.390  1.00  0.00     0.198 A 
ATOM     77  C   UNL A   1      37.940  28.793  31.467  1.00  0.00     0.198 A 
ATOM     78  F   UNL A   1      40.039  27.821  31.652  1.00  0.00    -0.203 F 
ATOM     79  F   UNL A   1      36.207  30.157  28.622  1.00  0.00    -0.200 F 
ATOM     80  C   UNL A   1      36.937  29.364  30.713  1.00  0.00     0.200 A 
ATOM     81  F   UNL A   1      37.712  28.476  32.750  1.00  0.00    -0.200 F 
ATOM     82  F   UNL A   1      35.731  29.596  31.248  1.00  0.00    -0.200 F 
ENDBRANCH  58  72
BRANCH  59  83
ATOM     83  C   UNL A   1      48.756  26.840  27.880  1.00  0.00     0.064 A 
ATOM     84  C   UNL A   1      48.306  26.821  26.538  1.00  0.00     0.173 A 
ATOM     85  C   UNL A   1      50.045  26.366  28.129  1.00  0.00     0.173 A 
ATOM     86  F   UNL A   1      47.079  27.281  26.243  1.00  0.00    -0.203 F 
ATOM     87  C   UNL A   1      49.164  26.542  25.483  1.00  0.00     0.198 A 
ATOM     88  C   UNL A   1      50.889  26.026  27.064  1.00  0.00     0.198 A 
ATOM     89  F   UNL A   1      50.540  26.351  29.374  1.00  0.00    -0.203 F 
ATOM     90  F   UNL A   1      48.753  26.738  24.221  1.00  0.00    -0.200 F 
ATOM     91  C   UNL A   1      50.464  26.165  25.747  1.00  0.00     0.200 A 
ATOM     92  F   UNL A   1      52.160  25.679  27.311  1.00  0.00    -0.200 F 
ATOM     93  F   UNL A   1      51.322  25.990  24.734  1.00  0.00    -0.200 F 
ENDBRANCH  59  83
BRANCH  71  94
ATOM     94  C   UNL A   1      44.804  32.924  27.787  1.00  0.00     0.064 A 
ATOM     95  C   UNL A   1      44.235  33.165  26.526  1.00  0.00     0.173 A 
ATOM     96  C   UNL A   1      45.034  34.066  28.588  1.00  0.00     0.173 A 
ATOM     97  F   UNL A   1      43.842  32.156  25.737  1.00  0.00    -0.203 F 
ATOM     98  C   UNL A   1      44.007  34.461  26.057  1.00  0.00     0.198 A 
ATOM     99  C   UNL A   1      44.750  35.354  28.140  1.00  0.00     0.198 A 
ATOM    100  F   UNL A   1      45.520  33.962  29.833  1.00  0.00    -0.203 F 
ATOM    101  F   UNL A   1      43.522  34.641  24.822  1.00  0.00    -0.200 F 
ATOM    102  C   UNL A   1      44.261  35.553  26.865  1.00  0.00     0.200 A 
ATOM    103  F   UNL A   1      44.942  36.400  28.956  1.00  0.00    -0.200 F 
ATOM    104  F   UNL A   1      44.015  36.793  26.422  1.00  0.00    -0.200 F 
ENDBRANCH  71  94
ENDBRANCH  45  46
ENDBRANCH  37  40
ENDBRANCH  35  36
ENDBRANCH  34  35
ENDBRANCH  33  34
ENDBRANCH   1  33
TORSDOF 15
ENDMDL
MODEL 2
REMARK VINA RESULT:     -13.3      2.670      4.406
REMARK SMILES Cc1ccccc1/[NH+]=C1\S[C@@H](CC(=O)Nc2ccc(C(=O)NCCCCNC(=O)c3ccc(-c4c5nc(c(-c6c(F)c(F)c(F)c(F)c6F)c6ccc([nH]6)c(-c6c(F)c(F)c(F)c(F)c6F)c6nc(c(-c7c(F)c(F)c(F)c(F)c7F)c7ccc4[nH]7)C=C6)C=C5)cc3)cc2)C(=O)N1C
REMARK SMILES IDX 23 1 22 2 20 3 21 4 19 6 16 7 17 8 94 9 18 10 93 11 15 12
REMARK SMILES IDX 13 13 14 14 12 16 11 17 8 18 9 19 10 21 97 22 95 23 98 24
REMARK SMILES IDX 96 25 7 26 1 27 2 28 3 29 4 30 6 31 5 32 24 33 25 34 26 35
REMARK SMILES IDX 27 36 28 37 29 39 30 40 31 41 92 42 32 43 91 44 33 45 34 46
REMARK SMILES IDX 35 47 85 48 36 49 90 50 84 51 86 52 37 53 89 54 83 55 82 56
REMARK SMILES IDX 38 58 70 59 50 60 69 61 51 62 54 63 68 64 87 65 52 66 53 67
REMARK SMILES IDX 67 69 88 70 55 71 39 72 40 73 48 74 41 75 42 76 46 77 49 78
REMARK SMILES IDX 43 79 44 80 47 81 45 82 71 83 72 84 80 85 73 86 74 87 78 88
REMARK SMILES IDX 81 89 75 90 76 91 79 92 77 93 56 94 57 95 65 96 58 97 59 98
REMARK SMILES IDX 63 99 66 100 60 101 61 102 64 103 62 104
REMARK H PARENT 22 5 15 15 8 20 27 38 86 57 54 68
REMARK Flexibility Score: inf
ROOT
ATOM      1  C   UNL A   1      37.283  23.265  26.101  1.00  0.00     0.116 C 
ENDROOT
BRANCH   1   2
ATOM      2  N   UNL A   1      36.038  23.028  26.827  1.00  0.00    -0.352 N 
ATOM      3  C   UNL A   1      34.702  23.115  26.490  1.00  0.00     0.251 C 
ATOM      4  O   UNL A   1      33.889  22.627  27.276  1.00  0.00    -0.269 OA
ATOM      5  H   UNL A   1      36.182  22.745  27.759  1.00  0.00     0.163 HD
BRANCH   3   6
ATOM      6  C   UNL A   1      34.188  23.750  25.244  1.00  0.00     0.039 A 
ATOM      7  C   UNL A   1      33.248  24.846  22.818  1.00  0.00     0.041 A 
ATOM      8  C   UNL A   1      33.956  25.605  23.739  1.00  0.00     0.027 A 
ATOM      9  C   UNL A   1      32.836  23.578  23.190  1.00  0.00     0.027 A 
ATOM     10  C   UNL A   1      34.443  25.071  24.922  1.00  0.00     0.016 A 
ATOM     11  C   UNL A   1      33.319  23.028  24.395  1.00  0.00     0.016 A 
BRANCH   7  12
ATOM     12  N   UNL A   1      32.953  25.384  21.555  1.00  0.00    -0.326 N 
ATOM     13  C   UNL A   1      31.741  25.923  21.164  1.00  0.00     0.226 C 
ATOM     14  O   UNL A   1      31.479  26.100  19.975  1.00  0.00    -0.275 OA
ATOM     15  H   UNL A   1      33.676  25.378  20.887  1.00  0.00     0.169 HD
BRANCH  13  16
ATOM     16  C   UNL A   1      30.849  26.502  22.251  1.00  0.00     0.128 C 
BRANCH  16  17
ATOM     17  C   UNL A   1      31.216  27.875  22.772  1.00  0.00     0.183 C 
ATOM     18  N   UNL A   1      31.507  30.512  25.240  1.00  0.00    -0.234 N 
ATOM     19  C   UNL A   1      30.953  29.545  24.604  1.00  0.00     0.319 C 
ATOM     20  H   UNL A   1      31.156  31.405  25.017  1.00  0.00     0.313 HD
ATOM     21  S   UNL A   1      31.208  27.836  24.609  1.00  0.00    -0.022 SA
ATOM     22  N   UNL A   1      30.047  29.784  23.620  1.00  0.00    -0.193 N 
ATOM     23  C   UNL A   1      30.292  29.055  22.470  1.00  0.00     0.324 C 
ATOM     24  C   UNL A   1      29.040  30.821  23.677  1.00  0.00     0.301 C 
ATOM     25  O   UNL A   1      29.904  29.363  21.364  1.00  0.00    -0.245 OA
BRANCH  18  26
ATOM     26  C   UNL A   1      32.529  30.508  26.202  1.00  0.00     0.128 A 
ATOM     27  C   UNL A   1      32.254  32.818  27.350  1.00  0.00     0.049 C 
ATOM     28  C   UNL A   1      32.937  31.503  27.110  1.00  0.00    -0.004 A 
ATOM     29  C   UNL A   1      34.069  31.275  27.924  1.00  0.00     0.008 A 
ATOM     30  C   UNL A   1      34.718  30.046  27.947  1.00  0.00     0.001 A 
ATOM     31  C   UNL A   1      33.162  29.250  26.305  1.00  0.00     0.052 A 
ATOM     32  C   UNL A   1      34.239  29.014  27.160  1.00  0.00     0.004 A 
ENDBRANCH  18  26
ENDBRANCH  16  17
ENDBRANCH  13  16
ENDBRANCH   7  12
ENDBRANCH   3   6
ENDBRANCH   1   2
BRANCH   1  33
ATOM     33  C   UNL A   1      37.756  22.056  25.270  1.00  0.00     0.023 C 
BRANCH  33  34
ATOM     34  C   UNL A   1      39.036  21.364  25.756  1.00  0.00     0.023 C 
BRANCH  34  35
ATOM     35  C   UNL A   1      39.881  22.200  26.711  1.00  0.00     0.116 C 
BRANCH  35  36
ATOM     36  N   UNL A   1      41.192  22.622  26.218  1.00  0.00    -0.352 N 
ATOM     37  C   UNL A   1      41.674  23.917  26.050  1.00  0.00     0.251 C 
ATOM     38  H   UNL A   1      41.813  21.898  25.975  1.00  0.00     0.163 HD
ATOM     39  O   UNL A   1      42.796  24.121  25.601  1.00  0.00    -0.269 OA
BRANCH  37  40
ATOM     40  C   UNL A   1      40.860  25.052  26.558  1.00  0.00     0.039 A 
ATOM     41  C   UNL A   1      41.063  26.314  25.992  1.00  0.00     0.014 A 
ATOM     42  C   UNL A   1      40.181  24.924  27.764  1.00  0.00     0.014 A 
ATOM     43  C   UNL A   1      40.877  27.445  26.784  1.00  0.00     0.010 A 
ATOM     44  C   UNL A   1      40.126  26.019  28.596  1.00  0.00     0.010 A 
ATOM     45  C   UNL A   1      40.542  27.267  28.126  1.00  0.00    -0.014 A 
BRANCH  45  46
ATOM     46  C   UNL A   1      40.571  28.332  29.116  1.00  0.00     0.031 A 
ATOM     47  C   UNL A   1      39.579  29.408  29.022  1.00  0.00     0.074 A 
ATOM     48  C   UNL A   1      41.427  28.287  30.158  1.00  0.00     0.049 A 
ATOM     49  N   UNL A   1      39.756  30.605  29.459  1.00  0.00    -0.248 NA
ATOM     50  C   UNL A   1      38.283  29.203  28.393  1.00  0.00     0.031 C 
ATOM     51  C   UNL A   1      41.481  29.168  31.324  1.00  0.00     0.029 A 
ATOM     52  N   UNL A   1      42.610  27.551  30.242  1.00  0.00    -0.354 N 
ATOM     53  C   UNL A   1      38.522  31.212  29.487  1.00  0.00     0.074 A 
ATOM     54  C   UNL A   1      37.663  30.338  28.722  1.00  0.00     0.031 C 
ATOM     55  C   UNL A   1      42.747  29.205  31.776  1.00  0.00     0.029 A 
ATOM     56  C   UNL A   1      43.545  28.425  30.852  1.00  0.00     0.049 A 
ATOM     57  H   UNL A   1      42.763  26.626  29.941  1.00  0.00     0.167 HD
ATOM     58  C   UNL A   1      38.343  32.287  30.310  1.00  0.00     0.037 A 
ATOM     59  C   UNL A   1      44.656  28.840  30.177  1.00  0.00     0.037 A 
ATOM     60  C   UNL A   1      39.614  32.695  30.916  1.00  0.00     0.049 A 
ATOM     61  C   UNL A   1      44.717  30.338  30.039  1.00  0.00     0.074 A 
ATOM     62  C   UNL A   1      40.181  32.450  32.157  1.00  0.00     0.029 A 
ATOM     63  N   UNL A   1      40.651  33.150  30.099  1.00  0.00    -0.354 N 
ATOM     64  N   UNL A   1      43.663  31.099  30.152  1.00  0.00    -0.248 NA
ATOM     65  C   UNL A   1      45.932  31.102  29.768  1.00  0.00     0.031 C 
ATOM     66  C   UNL A   1      41.577  32.674  32.058  1.00  0.00     0.029 A 
ATOM     67  C   UNL A   1      41.862  33.073  30.764  1.00  0.00     0.049 A 
ATOM     68  H   UNL A   1      40.537  33.478  29.179  1.00  0.00     0.167 HD
ATOM     69  C   UNL A   1      44.026  32.408  30.006  1.00  0.00     0.074 A 
ATOM     70  C   UNL A   1      45.457  32.360  29.762  1.00  0.00     0.031 C 
ATOM     71  C   UNL A   1      43.117  33.421  30.111  1.00  0.00     0.037 A 
BRANCH  58  72
ATOM     72  C   UNL A   1      36.979  32.710  30.818  1.00  0.00     0.064 A 
ATOM     73  C   UNL A   1      36.104  33.468  30.007  1.00  0.00     0.173 A 
ATOM     74  C   UNL A   1      36.500  32.470  32.120  1.00  0.00     0.173 A 
ATOM     75  F   UNL A   1      36.362  33.687  28.712  1.00  0.00    -0.203 F 
ATOM     76  C   UNL A   1      34.923  34.035  30.495  1.00  0.00     0.198 A 
ATOM     77  C   UNL A   1      35.349  33.086  32.627  1.00  0.00     0.198 A 
ATOM     78  F   UNL A   1      37.091  31.581  32.926  1.00  0.00    -0.203 F 
ATOM     79  F   UNL A   1      34.142  34.750  29.673  1.00  0.00    -0.200 F 
ATOM     80  C   UNL A   1      34.565  33.877  31.816  1.00  0.00     0.200 A 
ATOM     81  F   UNL A   1      35.007  32.899  33.910  1.00  0.00    -0.200 F 
ATOM     82  F   UNL A   1      33.456  34.456  32.296  1.00  0.00    -0.200 F 
ENDBRANCH  58  72
BRANCH  59  83
ATOM     83  C   UNL A   1      45.088  27.821  29.178  1.00  0.00     0.064 A 
ATOM     84  C   UNL A   1      44.746  28.094  27.832  1.00  0.00     0.173 A 
ATOM     85  C   UNL A   1      46.136  26.926  29.403  1.00  0.00     0.173 A 
ATOM     86  F   UNL A   1      43.755  28.960  27.562  1.00  0.00    -0.203 F 
ATOM     87  C   UNL A   1      45.537  27.666  26.776  1.00  0.00     0.198 A 
ATOM     88  C   UNL A   1      46.894  26.446  28.328  1.00  0.00     0.198 A 
ATOM     89  F   UNL A   1      46.516  26.617  30.650  1.00  0.00    -0.203 F 
ATOM     90  F   UNL A   1      45.296  28.120  25.536  1.00  0.00    -0.200 F 
ATOM     91  C   UNL A   1      46.626  26.857  27.026  1.00  0.00     0.200 A 
ATOM     92  F   UNL A   1      47.967  25.677  28.565  1.00  0.00    -0.200 F 
ATOM     93  F   UNL A   1      47.448  26.522  26.024  1.00  0.00    -0.200 F 
ENDBRANCH  59  83
BRANCH  71  94
ATOM     94  C   UNL A   1      43.390  34.852  29.742  1.00  0.00     0.064 A 
ATOM     95  C   UNL A   1      43.691  35.848  30.685  1.00  0.00     0.173 A 
ATOM     96  C   UNL A   1      43.476  35.242  28.386  1.00  0.00     0.173 A 
ATOM     97  F   UNL A   1      43.781  35.563  31.992  1.00  0.00    -0.203 F 
ATOM     98  C   UNL A   1      43.959  37.165  30.305  1.00  0.00     0.198 A 
ATOM     99  C   UNL A   1      43.802  36.542  28.008  1.00  0.00     0.198 A 
ATOM    100  F   UNL A   1      43.267  34.367  27.391  1.00  0.00    -0.203 F 
ATOM    101  F   UNL A   1      44.178  38.094  31.245  1.00  0.00    -0.200 F 
ATOM    102  C   UNL A   1      44.018  37.510  28.968  1.00  0.00     0.200 A 
ATOM    103  F   UNL A   1      43.917  36.848  26.708  1.00  0.00    -0.200 F 
ATOM    104  F   UNL A   1      44.303  38.767  28.606  1.00  0.00    -0.200 F 
ENDBRANCH  71  94
ENDBRANCH  45  46
ENDBRANCH  37  40
ENDBRANCH  35  36
ENDBRANCH  34  35
ENDBRANCH  33  34
ENDBRANCH   1  33
TORSDOF 15
ENDMDL
MODEL 3
REMARK VINA RESULT:     -13.3      4.027     10.211
REMARK SMILES Cc1ccccc1/[NH+]=C1\S[C@@H](CC(=O)Nc2ccc(C(=O)NCCCCNC(=O)c3ccc(-c4c5nc(c(-c6c(F)c(F)c(F)c(F)c6F)c6ccc([nH]6)c(-c6c(F)c(F)c(F)c(F)c6F)c6nc(c(-c7c(F)c(F)c(F)c(F)c7F)c7ccc4[nH]7)C=C6)C=C5)cc3)cc2)C(=O)N1C
REMARK SMILES IDX 23 1 22 2 20 3 21 4 19 6 16 7 17 8 94 9 18 10 93 11 15 12
REMARK SMILES IDX 13 13 14 14 12 16 11 17 8 18 9 19 10 21 97 22 95 23 98 24
REMARK SMILES IDX 96 25 7 26 1 27 2 28 3 29 4 30 6 31 5 32 24 33 25 34 26 35
REMARK SMILES IDX 27 36 28 37 29 39 30 40 31 41 92 42 32 43 91 44 33 45 34 46
REMARK SMILES IDX 35 47 85 48 36 49 90 50 84 51 86 52 37 53 89 54 83 55 82 56
REMARK SMILES IDX 38 58 70 59 50 60 69 61 51 62 54 63 68 64 87 65 52 66 53 67
REMARK SMILES IDX 67 69 88 70 55 71 39 72 40 73 48 74 41 75 42 76 46 77 49 78
REMARK SMILES IDX 43 79 44 80 47 81 45 82 71 83 72 84 80 85 73 86 74 87 78 88
REMARK SMILES IDX 81 89 75 90 76 91 79 92 77 93 56 94 57 95 65 96 58 97 59 98
REMARK SMILES IDX 63 99 66 100 60 101 61 102 64 103 62 104
REMARK H PARENT 22 5 15 15 8 20 27 38 86 57 54 68
REMARK Flexibility Score: inf
ROOT
ATOM      1  C   UNL A   1      32.088  31.630  26.842  1.00  0.00     0.116 C 
ENDROOT
BRANCH   1   2
ATOM      2  N   UNL A   1      31.774  30.361  27.494  1.00  0.00    -0.352 N 
ATOM      3  C   UNL A   1      31.911  29.038  27.128  1.00  0.00     0.251 C 
ATOM      4  O   UNL A   1      31.753  28.190  28.008  1.00  0.00    -0.269 OA
ATOM      5  H   UNL A   1      31.381  30.475  28.389  1.00  0.00     0.163 HD
BRANCH   3   6
ATOM      6  C   UNL A   1      32.238  28.575  25.750  1.00  0.00     0.039 A 
ATOM      7  C   UNL A   1      32.746  27.633  23.137  1.00  0.00     0.041 A 
ATOM      8  C   UNL A   1      33.733  27.656  24.113  1.00  0.00     0.027 A 
ATOM      9  C   UNL A   1      31.542  28.261  23.407  1.00  0.00     0.027 A 
ATOM     10  C   UNL A   1      33.489  28.094  25.405  1.00  0.00     0.016 A 
ATOM     11  C   UNL A   1      31.286  28.716  24.716  1.00  0.00     0.016 A 
BRANCH   7  12
ATOM     12  N   UNL A   1      32.997  26.998  21.911  1.00  0.00    -0.326 N 
ATOM     13  C   UNL A   1      32.769  25.665  21.624  1.00  0.00     0.226 C 
ATOM     14  O   UNL A   1      33.279  25.130  20.640  1.00  0.00    -0.275 OA
ATOM     15  H   UNL A   1      33.369  27.554  21.189  1.00  0.00     0.169 HD
BRANCH  13  16
ATOM     16  C   UNL A   1      31.688  24.952  22.423  1.00  0.00     0.128 C 
BRANCH  16  17
ATOM     17  C   UNL A   1      32.152  24.094  23.580  1.00  0.00     0.183 C 
ATOM     18  N   UNL A   1      32.393  21.085  25.584  1.00  0.00    -0.234 N 
ATOM     19  C   UNL A   1      31.823  21.989  24.873  1.00  0.00     0.319 C 
ATOM     20  H   UNL A   1      32.214  21.148  26.550  1.00  0.00     0.313 HD
ATOM     21  S   UNL A   1      31.829  22.330  23.179  1.00  0.00    -0.022 SA
ATOM     22  N   UNL A   1      31.138  23.007  25.456  1.00  0.00    -0.193 N 
ATOM     23  C   UNL A   1      31.468  24.247  24.939  1.00  0.00     0.324 C 
ATOM     24  C   UNL A   1      30.293  22.857  26.621  1.00  0.00     0.301 C 
ATOM     25  O   UNL A   1      31.319  25.299  25.523  1.00  0.00    -0.245 OA
BRANCH  18  26
ATOM     26  C   UNL A   1      33.228  20.020  25.211  1.00  0.00     0.128 A 
ATOM     27  C   UNL A   1      35.594  21.079  25.307  1.00  0.00     0.049 C 
ATOM     28  C   UNL A   1      34.622  19.972  25.021  1.00  0.00    -0.004 A 
ATOM     29  C   UNL A   1      35.215  18.778  24.553  1.00  0.00     0.008 A 
ATOM     30  C   UNL A   1      34.481  17.608  24.396  1.00  0.00     0.001 A 
ATOM     31  C   UNL A   1      32.527  18.798  25.116  1.00  0.00     0.052 A 
ATOM     32  C   UNL A   1      33.135  17.608  24.716  1.00  0.00     0.004 A 
ENDBRANCH  18  26
ENDBRANCH  16  17
ENDBRANCH  13  16
ENDBRANCH   7  12
ENDBRANCH   3   6
ENDBRANCH   1   2
BRANCH   1  33
ATOM     33  C   UNL A   1      33.346  32.322  27.402  1.00  0.00     0.023 C 
BRANCH  33  34
ATOM     34  C   UNL A   1      33.140  33.724  27.988  1.00  0.00     0.023 C 
BRANCH  34  35
ATOM     35  C   UNL A   1      34.342  34.271  28.751  1.00  0.00     0.116 C 
BRANCH  35  36
ATOM     36  N   UNL A   1      34.303  34.136  30.207  1.00  0.00    -0.352 N 
ATOM     37  C   UNL A   1      34.812  33.106  30.992  1.00  0.00     0.251 C 
ATOM     38  H   UNL A   1      33.860  34.868  30.695  1.00  0.00     0.163 HD
ATOM     39  O   UNL A   1      34.684  33.115  32.211  1.00  0.00    -0.269 OA
BRANCH  37  40
ATOM     40  C   UNL A   1      35.643  32.059  30.342  1.00  0.00     0.039 A 
ATOM     41  C   UNL A   1      35.840  30.855  31.025  1.00  0.00     0.014 A 
ATOM     42  C   UNL A   1      36.456  32.398  29.267  1.00  0.00     0.014 A 
ATOM     43  C   UNL A   1      37.035  30.163  30.839  1.00  0.00     0.010 A 
ATOM     44  C   UNL A   1      37.694  31.801  29.178  1.00  0.00     0.010 A 
ATOM     45  C   UNL A   1      38.007  30.727  30.015  1.00  0.00    -0.014 A 
BRANCH  45  46
ATOM     46  C   UNL A   1      39.379  30.252  29.938  1.00  0.00     0.031 A 
ATOM     47  C   UNL A   1      39.625  28.887  29.462  1.00  0.00     0.074 A 
ATOM     48  C   UNL A   1      40.415  31.075  30.203  1.00  0.00     0.049 A 
ATOM     49  N   UNL A   1      40.643  28.172  29.789  1.00  0.00    -0.248 NA
ATOM     50  C   UNL A   1      38.698  28.208  28.569  1.00  0.00     0.031 C 
ATOM     51  C   UNL A   1      41.842  30.824  30.016  1.00  0.00     0.029 A 
ATOM     52  N   UNL A   1      40.380  32.255  30.949  1.00  0.00    -0.354 N 
ATOM     53  C   UNL A   1      40.692  27.113  28.912  1.00  0.00     0.074 A 
ATOM     54  C   UNL A   1      39.411  27.126  28.246  1.00  0.00     0.031 C 
ATOM     55  C   UNL A   1      42.529  31.557  30.909  1.00  0.00     0.029 A 
ATOM     56  C   UNL A   1      41.551  32.220  31.747  1.00  0.00     0.049 A 
ATOM     57  H   UNL A   1      39.690  32.958  30.927  1.00  0.00     0.167 HD
ATOM     58  C   UNL A   1      41.883  26.470  28.734  1.00  0.00     0.037 A 
ATOM     59  C   UNL A   1      41.466  32.165  33.108  1.00  0.00     0.037 A 
ATOM     60  C   UNL A   1      42.889  26.965  29.678  1.00  0.00     0.049 A 
ATOM     61  C   UNL A   1      42.140  30.943  33.675  1.00  0.00     0.074 A 
ATOM     62  C   UNL A   1      43.919  27.885  29.551  1.00  0.00     0.029 A 
ATOM     63  N   UNL A   1      42.692  26.791  31.049  1.00  0.00    -0.354 N 
ATOM     64  N   UNL A   1      42.379  29.877  32.962  1.00  0.00    -0.248 NA
ATOM     65  C   UNL A   1      42.593  30.806  35.056  1.00  0.00     0.031 C 
ATOM     66  C   UNL A   1      44.277  28.329  30.848  1.00  0.00     0.029 A 
ATOM     67  C   UNL A   1      43.482  27.669  31.769  1.00  0.00     0.049 A 
ATOM     68  H   UNL A   1      42.075  26.136  31.447  1.00  0.00     0.167 HD
ATOM     69  C   UNL A   1      43.018  28.946  33.731  1.00  0.00     0.074 A 
ATOM     70  C   UNL A   1      43.125  29.571  35.038  1.00  0.00     0.031 C 
ATOM     71  C   UNL A   1      43.415  27.743  33.222  1.00  0.00     0.037 A 
BRANCH  58  72
ATOM     72  C   UNL A   1      42.203  25.672  27.484  1.00  0.00     0.064 A 
ATOM     73  C   UNL A   1      41.636  24.395  27.273  1.00  0.00     0.173 A 
ATOM     74  C   UNL A   1      43.118  26.072  26.492  1.00  0.00     0.173 A 
ATOM     75  F   UNL A   1      40.668  23.918  28.063  1.00  0.00    -0.203 F 
ATOM     76  C   UNL A   1      42.043  23.551  26.235  1.00  0.00     0.198 A 
ATOM     77  C   UNL A   1      43.570  25.207  25.488  1.00  0.00     0.198 A 
ATOM     78  F   UNL A   1      43.557  27.333  26.419  1.00  0.00    -0.203 F 
ATOM     79  F   UNL A   1      41.470  22.348  26.095  1.00  0.00    -0.200 F 
ATOM     80  C   UNL A   1      43.039  23.941  25.366  1.00  0.00     0.200 A 
ATOM     81  F   UNL A   1      44.523  25.616  24.639  1.00  0.00    -0.200 F 
ATOM     82  F   UNL A   1      43.460  23.117  24.398  1.00  0.00    -0.200 F 
ENDBRANCH  58  72
BRANCH  59  83
ATOM     83  C   UNL A   1      40.218  32.819  33.595  1.00  0.00     0.064 A 
ATOM     84  C   UNL A   1      39.177  31.944  33.984  1.00  0.00     0.173 A 
ATOM     85  C   UNL A   1      40.184  34.119  34.101  1.00  0.00     0.173 A 
ATOM     86  F   UNL A   1      39.172  30.677  33.536  1.00  0.00    -0.203 F 
ATOM     87  C   UNL A   1      38.273  32.280  34.982  1.00  0.00     0.198 A 
ATOM     88  C   UNL A   1      39.231  34.475  35.064  1.00  0.00     0.198 A 
ATOM     89  F   UNL A   1      41.135  35.006  33.777  1.00  0.00    -0.203 F 
ATOM     90  F   UNL A   1      37.436  31.349  35.465  1.00  0.00    -0.200 F 
ATOM     91  C   UNL A   1      38.314  33.542  35.538  1.00  0.00     0.200 A 
ATOM     92  F   UNL A   1      39.278  35.692  35.625  1.00  0.00    -0.200 F 
ATOM     93  F   UNL A   1      37.511  33.840  36.567  1.00  0.00    -0.200 F 
ENDBRANCH  59  83
BRANCH  71  94
ATOM     94  C   UNL A   1      43.912  26.590  34.048  1.00  0.00     0.064 A 
ATOM     95  C   UNL A   1      45.274  26.324  34.260  1.00  0.00     0.173 A 
ATOM     96  C   UNL A   1      43.007  25.774  34.763  1.00  0.00     0.173 A 
ATOM     97  F   UNL A   1      46.226  27.119  33.750  1.00  0.00    -0.203 F 
ATOM     98  C   UNL A   1      45.701  25.255  35.051  1.00  0.00     0.198 A 
ATOM     99  C   UNL A   1      43.436  24.746  35.597  1.00  0.00     0.198 A 
ATOM    100  F   UNL A   1      41.681  25.967  34.688  1.00  0.00    -0.203 F 
ATOM    101  F   UNL A   1      47.011  25.003  35.172  1.00  0.00    -0.200 F 
ATOM    102  C   UNL A   1      44.782  24.470  35.721  1.00  0.00     0.200 A 
ATOM    103  F   UNL A   1      42.537  24.032  36.291  1.00  0.00    -0.200 F 
ATOM    104  F   UNL A   1      45.196  23.462  36.501  1.00  0.00    -0.200 F 
ENDBRANCH  71  94
ENDBRANCH  45  46
ENDBRANCH  37  40
ENDBRANCH  35  36
ENDBRANCH  34  35
ENDBRANCH  33  34
ENDBRANCH   1  33
TORSDOF 15
ENDMDL
