MODEL 1
REMARK VINA RESULT:     -13.3      0.000      0.000
REMARK SMILES NC(=O)C1CC[NH+](CC[C@H]2CN(C(=O)c3ccccc3)CC[C@H]2CC(=O)NCCCCNC(=O)c2ccc(-c3c4nc(c(-c5c(F)c(F)c(F)c(F)c5F)c5ccc([nH]5)c(-c5c(F)c(F)c(F)c(F)c5F)c5nc(c(-c6c(F)c(F)c(F)c(F)c6F)c6ccc3[nH]6)C=C5)C=C4)cc2)CC1
REMARK SMILES IDX 28 1 27 2 25 3 26 4 24 6 23 7 10 8 11 9 12 10 22 11 21 12
REMARK SMILES IDX 9 13 8 14 7 15 4 16 5 17 99 18 6 19 98 20 2 22 1 23 3 26
REMARK SMILES IDX 13 27 14 28 15 29 16 30 20 31 17 32 19 33 18 34 29 35 30 36
REMARK SMILES IDX 31 37 32 38 33 39 34 41 35 42 36 43 97 44 37 45 96 46 38 47
REMARK SMILES IDX 39 48 40 49 90 50 41 51 95 52 89 53 91 54 42 55 94 56 88 57
REMARK SMILES IDX 87 58 43 60 75 61 55 62 74 63 56 64 59 65 73 66 92 67 57 68
REMARK SMILES IDX 58 69 72 71 93 72 60 73 44 74 45 75 53 76 46 77 47 78 51 79
REMARK SMILES IDX 54 80 48 81 49 82 52 83 50 84 76 85 77 86 85 87 78 88 79 89
REMARK SMILES IDX 83 90 86 91 80 92 81 93 84 94 82 95 61 96 62 97 70 98 63 99
REMARK SMILES IDX 64 100 68 101 71 102 65 103 66 104 69 105 67 106
REMARK H PARENT 27 5 7 21 1 24 1 25 32 40 91 59 59 70
REMARK Flexibility Score: inf
ROOT
ATOM      1  C   UNL A   1      32.978  21.105  25.542  1.00  0.00     0.116 C 
ENDROOT
BRANCH   1   2
ATOM      2  N   UNL A   1      32.155  21.814  26.498  1.00  0.00    -0.356 N 
ATOM      3  C   UNL A   1      31.280  22.841  26.327  1.00  0.00     0.220 C 
ATOM      4  O   UNL A   1      30.692  23.275  27.319  1.00  0.00    -0.275 OA
ATOM      5  H   UNL A   1      32.242  21.500  27.427  1.00  0.00     0.163 HD
BRANCH   3   6
ATOM      6  C   UNL A   1      31.037  23.434  24.950  1.00  0.00     0.104 C 
BRANCH   6   7
ATOM      7  C   UNL A   1      32.169  24.362  24.481  1.00  0.00     0.005 C 
ATOM      8  C   UNL A   1      31.783  25.468  23.445  1.00  0.00     0.018 C 
ATOM      9  C   UNL A   1      33.139  26.055  22.978  1.00  0.00     0.124 C 
ATOM     10  N   UNL A   1      33.772  26.732  24.103  1.00  0.00    -0.338 N 
ATOM     11  C   UNL A   1      32.933  24.983  25.673  1.00  0.00     0.026 C 
ATOM     12  C   UNL A   1      34.113  25.868  25.235  1.00  0.00     0.120 C 
BRANCH   8  13
ATOM     13  C   UNL A   1      30.897  26.671  23.918  1.00  0.00     0.067 C 
BRANCH  13  14
ATOM     14  C   UNL A   1      30.374  27.728  22.923  1.00  0.00     0.262 C 
BRANCH  14  15
ATOM     15  N   UNL A   1      29.436  28.746  23.450  1.00  0.00    -0.335 N 
ATOM     16  C   UNL A   1      27.748  31.125  22.944  1.00  0.00     0.089 C 
ATOM     17  C   UNL A   1      29.081  31.234  23.676  1.00  0.00     0.075 C 
ATOM     18  C   UNL A   1      27.144  29.748  23.218  1.00  0.00     0.075 C 
ATOM     19  C   UNL A   1      30.018  30.082  23.341  1.00  0.00     0.263 C 
ATOM     20  C   UNL A   1      28.103  28.614  22.843  1.00  0.00     0.263 C 
ATOM     21  H   UNL A   1      29.290  28.584  24.446  1.00  0.00     0.348 HD
BRANCH  16  22
ATOM     22  C   UNL A   1      27.880  31.378  21.444  1.00  0.00     0.220 C 
ATOM     23  N   UNL A   1      27.972  32.683  21.075  1.00  0.00    -0.369 N 
ATOM     24  H   UNL A   1      28.058  32.922  20.124  1.00  0.00     0.159 HD
ATOM     25  H   UNL A   1      27.952  33.391  21.760  1.00  0.00     0.159 HD
ATOM     26  O   UNL A   1      27.875  30.511  20.578  1.00  0.00    -0.275 OA
ENDBRANCH  16  22
ENDBRANCH  14  15
ENDBRANCH  13  14
ENDBRANCH   8  13
BRANCH  10  27
ATOM     27  C   UNL A   1      33.789  28.124  24.092  1.00  0.00     0.253 C 
ATOM     28  O   UNL A   1      33.924  28.799  23.071  1.00  0.00    -0.269 OA
BRANCH  27  29
ATOM     29  C   UNL A   1      33.614  28.870  25.344  1.00  0.00     0.040 A 
ATOM     30  C   UNL A   1      32.484  29.681  25.497  1.00  0.00     0.014 A 
ATOM     31  C   UNL A   1      34.641  28.883  26.288  1.00  0.00     0.014 A 
ATOM     32  C   UNL A   1      32.379  30.506  26.616  1.00  0.00     0.001 A 
ATOM     33  C   UNL A   1      34.531  29.711  27.403  1.00  0.00     0.001 A 
ATOM     34  C   UNL A   1      33.404  30.523  27.565  1.00  0.00     0.000 A 
ENDBRANCH  27  29
ENDBRANCH  10  27
ENDBRANCH   6   7
ENDBRANCH   3   6
ENDBRANCH   1   2
BRANCH   1  35
ATOM     35  C   UNL A   1      34.455  21.118  25.953  1.00  0.00     0.023 C 
BRANCH  35  36
ATOM     36  C   UNL A   1      35.395  21.489  24.819  1.00  0.00     0.023 C 
BRANCH  36  37
ATOM     37  C   UNL A   1      36.726  22.057  25.288  1.00  0.00     0.116 C 
BRANCH  37  38
ATOM     38  N   UNL A   1      37.839  21.114  25.242  1.00  0.00    -0.352 N 
ATOM     39  C   UNL A   1      39.074  21.186  25.867  1.00  0.00     0.251 C 
ATOM     40  H   UNL A   1      37.693  20.314  24.687  1.00  0.00     0.163 HD
ATOM     41  O   UNL A   1      39.909  20.323  25.727  1.00  0.00    -0.269 OA
BRANCH  39  42
ATOM     42  C   UNL A   1      39.381  22.407  26.649  1.00  0.00     0.039 A 
ATOM     43  C   UNL A   1      40.379  22.333  27.622  1.00  0.00     0.014 A 
ATOM     44  C   UNL A   1      38.831  23.633  26.277  1.00  0.00     0.014 A 
ATOM     45  C   UNL A   1      40.943  23.513  28.105  1.00  0.00     0.010 A 
ATOM     46  C   UNL A   1      39.474  24.798  26.669  1.00  0.00     0.010 A 
ATOM     47  C   UNL A   1      40.558  24.749  27.562  1.00  0.00    -0.014 A 
BRANCH  47  48
ATOM     48  C   UNL A   1      41.304  25.998  27.865  1.00  0.00     0.031 A 
ATOM     49  C   UNL A   1      40.617  27.120  28.588  1.00  0.00     0.074 A 
ATOM     50  C   UNL A   1      42.557  26.165  27.390  1.00  0.00     0.049 A 
ATOM     51  N   UNL A   1      41.035  28.338  28.819  1.00  0.00    -0.248 NA
ATOM     52  C   UNL A   1      39.254  26.850  29.074  1.00  0.00     0.031 C 
ATOM     53  C   UNL A   1      43.309  25.182  26.606  1.00  0.00     0.029 A 
ATOM     54  N   UNL A   1      43.416  27.233  27.485  1.00  0.00    -0.354 N 
ATOM     55  C   UNL A   1      39.977  28.985  29.439  1.00  0.00     0.074 A 
ATOM     56  C   UNL A   1      38.879  28.046  29.501  1.00  0.00     0.031 C 
ATOM     57  C   UNL A   1      44.525  25.676  26.324  1.00  0.00     0.029 A 
ATOM     58  C   UNL A   1      44.626  27.026  26.867  1.00  0.00     0.049 A 
ATOM     59  H   UNL A   1      43.185  28.068  27.952  1.00  0.00     0.167 HD
ATOM     60  C   UNL A   1      39.933  30.242  29.939  1.00  0.00     0.037 A 
ATOM     61  C   UNL A   1      45.694  27.838  26.750  1.00  0.00     0.037 A 
ATOM     62  C   UNL A   1      41.046  31.152  29.930  1.00  0.00     0.049 A 
ATOM     63  C   UNL A   1      45.640  29.211  27.361  1.00  0.00     0.074 A 
ATOM     64  C   UNL A   1      41.131  32.418  30.481  1.00  0.00     0.029 A 
ATOM     65  N   UNL A   1      42.277  30.883  29.349  1.00  0.00    -0.354 N 
ATOM     66  N   UNL A   1      44.655  29.790  28.003  1.00  0.00    -0.248 NA
ATOM     67  C   UNL A   1      46.845  30.043  27.235  1.00  0.00     0.031 C 
ATOM     68  C   UNL A   1      42.406  32.927  30.210  1.00  0.00     0.029 A 
ATOM     69  C   UNL A   1      43.126  31.963  29.522  1.00  0.00     0.049 A 
ATOM     70  H   UNL A   1      42.511  30.048  28.883  1.00  0.00     0.167 HD
ATOM     71  C   UNL A   1      45.127  31.040  28.379  1.00  0.00     0.074 A 
ATOM     72  C   UNL A   1      46.492  31.132  27.903  1.00  0.00     0.031 C 
ATOM     73  C   UNL A   1      44.486  32.024  29.055  1.00  0.00     0.037 A 
BRANCH  60  74
ATOM     74  C   UNL A   1      38.641  30.694  30.552  1.00  0.00     0.064 A 
ATOM     75  C   UNL A   1      37.576  31.152  29.762  1.00  0.00     0.173 A 
ATOM     76  C   UNL A   1      38.462  30.662  31.942  1.00  0.00     0.173 A 
ATOM     77  F   UNL A   1      37.704  31.217  28.427  1.00  0.00    -0.203 F 
ATOM     78  C   UNL A   1      36.392  31.596  30.343  1.00  0.00     0.198 A 
ATOM     79  C   UNL A   1      37.264  31.079  32.518  1.00  0.00     0.198 A 
ATOM     80  F   UNL A   1      39.448  30.231  32.742  1.00  0.00    -0.203 F 
ATOM     81  F   UNL A   1      35.410  32.084  29.572  1.00  0.00    -0.200 F 
ATOM     82  C   UNL A   1      36.235  31.554  31.720  1.00  0.00     0.200 A 
ATOM     83  F   UNL A   1      37.111  31.029  33.849  1.00  0.00    -0.200 F 
ATOM     84  F   UNL A   1      35.094  31.981  32.279  1.00  0.00    -0.200 F 
ENDBRANCH  60  74
BRANCH  61  85
ATOM     85  C   UNL A   1      46.921  27.362  26.058  1.00  0.00     0.064 A 
ATOM     86  C   UNL A   1      47.923  26.680  26.765  1.00  0.00     0.173 A 
ATOM     87  C   UNL A   1      47.123  27.580  24.688  1.00  0.00     0.173 A 
ATOM     88  F   UNL A   1      47.784  26.467  28.082  1.00  0.00    -0.203 F 
ATOM     89  C   UNL A   1      49.087  26.251  26.132  1.00  0.00     0.198 A 
ATOM     90  C   UNL A   1      48.279  27.129  24.051  1.00  0.00     0.198 A 
ATOM     91  F   UNL A   1      46.195  28.223  23.965  1.00  0.00    -0.203 F 
ATOM     92  F   UNL A   1      50.046  25.639  26.840  1.00  0.00    -0.200 F 
ATOM     93  C   UNL A   1      49.262  26.471  24.774  1.00  0.00     0.200 A 
ATOM     94  F   UNL A   1      48.440  27.334  22.737  1.00  0.00    -0.200 F 
ATOM     95  F   UNL A   1      50.382  26.058  24.165  1.00  0.00    -0.200 F 
ENDBRANCH  61  85
BRANCH  73  96
ATOM     96  C   UNL A   1      45.264  33.270  29.354  1.00  0.00     0.064 A 
ATOM     97  C   UNL A   1      46.050  33.384  30.508  1.00  0.00     0.173 A 
ATOM     98  C   UNL A   1      45.267  34.336  28.442  1.00  0.00     0.173 A 
ATOM     99  F   UNL A   1      46.065  32.396  31.414  1.00  0.00    -0.203 F 
ATOM    100  C   UNL A   1      46.801  34.531  30.747  1.00  0.00     0.198 A 
ATOM    101  C   UNL A   1      46.039  35.471  28.672  1.00  0.00     0.198 A 
ATOM    102  F   UNL A   1      44.534  34.269  27.320  1.00  0.00    -0.203 F 
ATOM    103  F   UNL A   1      47.521  34.636  31.873  1.00  0.00    -0.200 F 
ATOM    104  C   UNL A   1      46.802  35.569  29.826  1.00  0.00     0.200 A 
ATOM    105  F   UNL A   1      46.047  36.468  27.776  1.00  0.00    -0.200 F 
ATOM    106  F   UNL A   1      47.535  36.667  30.052  1.00  0.00    -0.200 F 
ENDBRANCH  73  96
ENDBRANCH  47  48
ENDBRANCH  39  42
ENDBRANCH  37  38
ENDBRANCH  36  37
ENDBRANCH  35  36
ENDBRANCH   1  35
TORSDOF 18
ENDMDL
MODEL 2
REMARK VINA RESULT:     -13.3      5.125      9.365
REMARK SMILES NC(=O)C1CC[NH+](CC[C@H]2CN(C(=O)c3ccccc3)CC[C@H]2CC(=O)NCCCCNC(=O)c2ccc(-c3c4nc(c(-c5c(F)c(F)c(F)c(F)c5F)c5ccc([nH]5)c(-c5c(F)c(F)c(F)c(F)c5F)c5nc(c(-c6c(F)c(F)c(F)c(F)c6F)c6ccc3[nH]6)C=C5)C=C4)cc2)CC1
REMARK SMILES IDX 28 1 27 2 25 3 26 4 24 6 23 7 10 8 11 9 12 10 22 11 21 12
REMARK SMILES IDX 9 13 8 14 7 15 4 16 5 17 99 18 6 19 98 20 2 22 1 23 3 26
REMARK SMILES IDX 13 27 14 28 15 29 16 30 20 31 17 32 19 33 18 34 29 35 30 36
REMARK SMILES IDX 31 37 32 38 33 39 34 41 35 42 36 43 97 44 37 45 96 46 38 47
REMARK SMILES IDX 39 48 40 49 90 50 41 51 95 52 89 53 91 54 42 55 94 56 88 57
REMARK SMILES IDX 87 58 43 60 75 61 55 62 74 63 56 64 59 65 73 66 92 67 57 68
REMARK SMILES IDX 58 69 72 71 93 72 60 73 44 74 45 75 53 76 46 77 47 78 51 79
REMARK SMILES IDX 54 80 48 81 49 82 52 83 50 84 76 85 77 86 85 87 78 88 79 89
REMARK SMILES IDX 83 90 86 91 80 92 81 93 84 94 82 95 61 96 62 97 70 98 63 99
REMARK SMILES IDX 64 100 68 101 71 102 65 103 66 104 69 105 67 106
REMARK H PARENT 27 5 7 21 1 24 1 25 32 40 91 59 59 70
REMARK Flexibility Score: inf
ROOT
ATOM      1  C   UNL A   1      34.954  32.085  27.875  1.00  0.00     0.116 C 
ENDROOT
BRANCH   1   2
ATOM      2  N   UNL A   1      35.860  30.961  27.782  1.00  0.00    -0.356 N 
ATOM      3  C   UNL A   1      35.615  29.634  27.611  1.00  0.00     0.220 C 
ATOM      4  O   UNL A   1      36.578  28.867  27.564  1.00  0.00    -0.275 OA
ATOM      5  H   UNL A   1      36.813  31.195  27.855  1.00  0.00     0.163 HD
BRANCH   3   6
ATOM      6  C   UNL A   1      34.193  29.117  27.484  1.00  0.00     0.104 C 
BRANCH   6   7
ATOM      7  C   UNL A   1      33.582  29.357  26.095  1.00  0.00     0.005 C 
ATOM      8  C   UNL A   1      33.926  28.309  24.988  1.00  0.00     0.018 C 
ATOM      9  C   UNL A   1      33.401  28.940  23.673  1.00  0.00     0.124 C 
ATOM     10  N   UNL A   1      31.946  29.024  23.740  1.00  0.00    -0.338 N 
ATOM     11  C   UNL A   1      32.054  29.579  26.170  1.00  0.00     0.026 C 
ATOM     12  C   UNL A   1      31.422  29.886  24.801  1.00  0.00     0.120 C 
BRANCH   8  13
ATOM     13  C   UNL A   1      33.307  26.872  25.088  1.00  0.00     0.067 C 
BRANCH  13  14
ATOM     14  C   UNL A   1      34.051  25.633  24.548  1.00  0.00     0.262 C 
BRANCH  14  15
ATOM     15  N   UNL A   1      33.264  24.390  24.384  1.00  0.00    -0.335 N 
ATOM     16  C   UNL A   1      31.269  22.503  25.491  1.00  0.00     0.089 C 
ATOM     17  C   UNL A   1      32.756  22.168  25.468  1.00  0.00     0.075 C 
ATOM     18  C   UNL A   1      30.949  23.416  24.309  1.00  0.00     0.075 C 
ATOM     19  C   UNL A   1      33.626  23.416  25.413  1.00  0.00     0.263 C 
ATOM     20  C   UNL A   1      31.823  24.674  24.301  1.00  0.00     0.263 C 
ATOM     21  H   UNL A   1      33.499  23.957  23.492  1.00  0.00     0.348 HD
BRANCH  16  22
ATOM     22  C   UNL A   1      30.830  23.136  26.809  1.00  0.00     0.220 C 
ATOM     23  N   UNL A   1      29.487  23.276  26.974  1.00  0.00    -0.369 N 
ATOM     24  H   UNL A   1      29.132  23.677  27.800  1.00  0.00     0.159 HD
ATOM     25  H   UNL A   1      28.871  22.977  26.267  1.00  0.00     0.159 HD
ATOM     26  O   UNL A   1      31.585  23.542  27.684  1.00  0.00    -0.275 OA
ENDBRANCH  16  22
ENDBRANCH  14  15
ENDBRANCH  13  14
ENDBRANCH   8  13
BRANCH  10  27
ATOM     27  C   UNL A   1      31.213  28.134  22.960  1.00  0.00     0.253 C 
ATOM     28  O   UNL A   1      31.722  27.293  22.220  1.00  0.00    -0.269 OA
BRANCH  27  29
ATOM     29  C   UNL A   1      29.747  28.149  23.014  1.00  0.00     0.040 A 
ATOM     30  C   UNL A   1      29.064  29.293  22.588  1.00  0.00     0.014 A 
ATOM     31  C   UNL A   1      29.069  27.095  23.630  1.00  0.00     0.014 A 
ATOM     32  C   UNL A   1      27.684  29.376  22.771  1.00  0.00     0.001 A 
ATOM     33  C   UNL A   1      27.690  27.185  23.811  1.00  0.00     0.001 A 
ATOM     34  C   UNL A   1      27.001  28.325  23.385  1.00  0.00     0.000 A 
ENDBRANCH  27  29
ENDBRANCH  10  27
ENDBRANCH   6   7
ENDBRANCH   3   6
ENDBRANCH   1   2
BRANCH   1  35
ATOM     35  C   UNL A   1      35.712  33.407  28.037  1.00  0.00     0.023 C 
BRANCH  35  36
ATOM     36  C   UNL A   1      34.893  34.496  28.707  1.00  0.00     0.023 C 
BRANCH  36  37
ATOM     37  C   UNL A   1      33.691  33.971  29.479  1.00  0.00     0.116 C 
BRANCH  37  38
ATOM     38  N   UNL A   1      32.870  35.004  30.103  1.00  0.00    -0.352 N 
ATOM     39  C   UNL A   1      32.974  35.558  31.368  1.00  0.00     0.251 C 
ATOM     40  H   UNL A   1      32.139  35.356  29.546  1.00  0.00     0.163 HD
ATOM     41  O   UNL A   1      32.208  36.410  31.754  1.00  0.00    -0.269 OA
BRANCH  39  42
ATOM     42  C   UNL A   1      34.005  35.009  32.279  1.00  0.00     0.039 A 
ATOM     43  C   UNL A   1      33.800  33.738  32.817  1.00  0.00     0.014 A 
ATOM     44  C   UNL A   1      35.230  35.659  32.423  1.00  0.00     0.014 A 
ATOM     45  C   UNL A   1      34.883  33.048  33.361  1.00  0.00     0.010 A 
ATOM     46  C   UNL A   1      36.327  34.926  32.855  1.00  0.00     0.010 A 
ATOM     47  C   UNL A   1      36.171  33.602  33.297  1.00  0.00    -0.014 A 
BRANCH  47  48
ATOM     48  C   UNL A   1      37.379  32.804  33.634  1.00  0.00     0.031 A 
ATOM     49  C   UNL A   1      38.121  33.076  34.910  1.00  0.00     0.074 A 
ATOM     50  C   UNL A   1      37.870  31.919  32.740  1.00  0.00     0.049 A 
ATOM     51  N   UNL A   1      39.269  32.601  35.320  1.00  0.00    -0.248 NA
ATOM     52  C   UNL A   1      37.512  34.053  35.827  1.00  0.00     0.031 C 
ATOM     53  C   UNL A   1      37.286  31.617  31.430  1.00  0.00     0.029 A 
ATOM     54  N   UNL A   1      38.984  31.117  32.794  1.00  0.00    -0.354 N 
ATOM     55  C   UNL A   1      39.535  33.249  36.518  1.00  0.00     0.074 A 
ATOM     56  C   UNL A   1      38.459  34.188  36.743  1.00  0.00     0.031 C 
ATOM     57  C   UNL A   1      38.025  30.675  30.822  1.00  0.00     0.029 A 
ATOM     58  C   UNL A   1      39.158  30.335  31.676  1.00  0.00     0.049 A 
ATOM     59  H   UNL A   1      39.602  31.105  33.560  1.00  0.00     0.167 HD
ATOM     60  C   UNL A   1      40.569  33.056  37.369  1.00  0.00     0.037 A 
ATOM     61  C   UNL A   1      40.125  29.448  31.375  1.00  0.00     0.037 A 
ATOM     62  C   UNL A   1      41.604  32.079  37.171  1.00  0.00     0.049 A 
ATOM     63  C   UNL A   1      41.235  29.214  32.362  1.00  0.00     0.074 A 
ATOM     64  C   UNL A   1      42.653  31.750  38.011  1.00  0.00     0.029 A 
ATOM     65  N   UNL A   1      41.711  31.262  36.055  1.00  0.00    -0.354 N 
ATOM     66  N   UNL A   1      41.442  29.786  33.523  1.00  0.00    -0.248 NA
ATOM     67  C   UNL A   1      42.245  28.209  32.000  1.00  0.00     0.031 C 
ATOM     68  C   UNL A   1      43.411  30.750  37.391  1.00  0.00     0.029 A 
ATOM     69  C   UNL A   1      42.813  30.433  36.181  1.00  0.00     0.049 A 
ATOM     70  H   UNL A   1      41.095  31.271  35.287  1.00  0.00     0.167 HD
ATOM     71  C   UNL A   1      42.586  29.196  34.041  1.00  0.00     0.074 A 
ATOM     72  C   UNL A   1      43.024  28.212  33.073  1.00  0.00     0.031 C 
ATOM     73  C   UNL A   1      43.218  29.448  35.212  1.00  0.00     0.037 A 
BRANCH  60  74
ATOM     74  C   UNL A   1      40.616  33.914  38.599  1.00  0.00     0.064 A 
ATOM     75  C   UNL A   1      39.944  33.548  39.774  1.00  0.00     0.173 A 
ATOM     76  C   UNL A   1      41.348  35.110  38.605  1.00  0.00     0.173 A 
ATOM     77  F   UNL A   1      39.216  32.421  39.813  1.00  0.00    -0.203 F 
ATOM     78  C   UNL A   1      39.971  34.366  40.899  1.00  0.00     0.198 A 
ATOM     79  C   UNL A   1      41.398  35.911  39.743  1.00  0.00     0.198 A 
ATOM     80  F   UNL A   1      42.011  35.504  37.508  1.00  0.00    -0.203 F 
ATOM     81  F   UNL A   1      39.272  34.025  41.991  1.00  0.00    -0.200 F 
ATOM     82  C   UNL A   1      40.702  35.544  40.885  1.00  0.00     0.200 A 
ATOM     83  F   UNL A   1      42.113  37.045  39.731  1.00  0.00    -0.200 F 
ATOM     84  F   UNL A   1      40.728  36.331  41.969  1.00  0.00    -0.200 F 
ENDBRANCH  60  74
BRANCH  61  85
ATOM     85  C   UNL A   1      40.068  28.686  30.100  1.00  0.00     0.064 A 
ATOM     86  C   UNL A   1      39.465  27.420  30.049  1.00  0.00     0.173 A 
ATOM     87  C   UNL A   1      40.614  29.196  28.914  1.00  0.00     0.173 A 
ATOM     88  F   UNL A   1      38.948  26.881  31.163  1.00  0.00    -0.203 F 
ATOM     89  C   UNL A   1      39.428  26.686  28.866  1.00  0.00     0.198 A 
ATOM     90  C   UNL A   1      40.554  28.470  27.724  1.00  0.00     0.198 A 
ATOM     91  F   UNL A   1      41.198  30.403  28.907  1.00  0.00    -0.203 F 
ATOM     92  F   UNL A   1      38.883  25.462  28.855  1.00  0.00    -0.200 F 
ATOM     93  C   UNL A   1      39.968  27.214  27.703  1.00  0.00     0.200 A 
ATOM     94  F   UNL A   1      41.068  28.988  26.601  1.00  0.00    -0.200 F 
ATOM     95  F   UNL A   1      39.931  26.508  26.564  1.00  0.00    -0.200 F 
ENDBRANCH  61  85
BRANCH  73  96
ATOM     96  C   UNL A   1      44.430  28.625  35.530  1.00  0.00     0.064 A 
ATOM     97  C   UNL A   1      44.330  27.416  36.231  1.00  0.00     0.173 A 
ATOM     98  C   UNL A   1      45.695  29.023  35.073  1.00  0.00     0.173 A 
ATOM     99  F   UNL A   1      43.143  27.003  36.700  1.00  0.00    -0.203 F 
ATOM    100  C   UNL A   1      45.460  26.641  36.478  1.00  0.00     0.198 A 
ATOM    101  C   UNL A   1      46.818  28.234  35.301  1.00  0.00     0.198 A 
ATOM    102  F   UNL A   1      45.837  30.170  34.392  1.00  0.00    -0.203 F 
ATOM    103  F   UNL A   1      45.349  25.503  37.180  1.00  0.00    -0.200 F 
ATOM    104  C   UNL A   1      46.700  27.046  36.006  1.00  0.00     0.200 A 
ATOM    105  F   UNL A   1      48.013  28.620  34.834  1.00  0.00    -0.200 F 
ATOM    106  F   UNL A   1      47.783  26.291  36.235  1.00  0.00    -0.200 F 
ENDBRANCH  73  96
ENDBRANCH  47  48
ENDBRANCH  39  42
ENDBRANCH  37  38
ENDBRANCH  36  37
ENDBRANCH  35  36
ENDBRANCH   1  35
TORSDOF 18
ENDMDL
MODEL 3
REMARK VINA RESULT:     -13.1      2.936      8.676
REMARK SMILES NC(=O)C1CC[NH+](CC[C@H]2CN(C(=O)c3ccccc3)CC[C@H]2CC(=O)NCCCCNC(=O)c2ccc(-c3c4nc(c(-c5c(F)c(F)c(F)c(F)c5F)c5ccc([nH]5)c(-c5c(F)c(F)c(F)c(F)c5F)c5nc(c(-c6c(F)c(F)c(F)c(F)c6F)c6ccc3[nH]6)C=C5)C=C4)cc2)CC1
REMARK SMILES IDX 28 1 27 2 25 3 26 4 24 6 23 7 10 8 11 9 12 10 22 11 21 12
REMARK SMILES IDX 9 13 8 14 7 15 4 16 5 17 99 18 6 19 98 20 2 22 1 23 3 26
REMARK SMILES IDX 13 27 14 28 15 29 16 30 20 31 17 32 19 33 18 34 29 35 30 36
REMARK SMILES IDX 31 37 32 38 33 39 34 41 35 42 36 43 97 44 37 45 96 46 38 47
REMARK SMILES IDX 39 48 40 49 90 50 41 51 95 52 89 53 91 54 42 55 94 56 88 57
REMARK SMILES IDX 87 58 43 60 75 61 55 62 74 63 56 64 59 65 73 66 92 67 57 68
REMARK SMILES IDX 58 69 72 71 93 72 60 73 44 74 45 75 53 76 46 77 47 78 51 79
REMARK SMILES IDX 54 80 48 81 49 82 52 83 50 84 76 85 77 86 85 87 78 88 79 89
REMARK SMILES IDX 83 90 86 91 80 92 81 93 84 94 82 95 61 96 62 97 70 98 63 99
REMARK SMILES IDX 64 100 68 101 71 102 65 103 66 104 69 105 67 106
REMARK H PARENT 27 5 7 21 1 24 1 25 32 40 91 59 59 70
REMARK Flexibility Score: inf
ROOT
ATOM      1  C   UNL A   1      39.611  21.859  26.239  1.00  0.00     0.116 C 
ENDROOT
BRANCH   1   2
ATOM      2  N   UNL A   1      39.402  23.167  26.823  1.00  0.00    -0.356 N 
ATOM      3  C   UNL A   1      38.456  24.111  26.573  1.00  0.00     0.220 C 
ATOM      4  O   UNL A   1      38.496  25.160  27.217  1.00  0.00    -0.275 OA
ATOM      5  H   UNL A   1      40.054  23.414  27.519  1.00  0.00     0.163 HD
BRANCH   3   6
ATOM      6  C   UNL A   1      37.382  23.875  25.525  1.00  0.00     0.104 C 
BRANCH   6   7
ATOM      7  C   UNL A   1      36.054  23.379  26.118  1.00  0.00     0.005 C 
ATOM      8  C   UNL A   1      34.752  24.064  25.589  1.00  0.00     0.018 C 
ATOM      9  C   UNL A   1      33.632  23.556  26.533  1.00  0.00     0.124 C 
ATOM     10  N   UNL A   1      33.466  22.120  26.337  1.00  0.00    -0.338 N 
ATOM     11  C   UNL A   1      35.927  21.841  26.034  1.00  0.00     0.026 C 
ATOM     12  C   UNL A   1      34.636  21.308  26.679  1.00  0.00     0.120 C 
BRANCH   8  13
ATOM     13  C   UNL A   1      34.286  23.770  24.122  1.00  0.00     0.067 C 
BRANCH  13  14
ATOM     14  C   UNL A   1      34.040  24.909  23.110  1.00  0.00     0.262 C 
BRANCH  14  15
ATOM     15  N   UNL A   1      32.698  25.534  23.112  1.00  0.00    -0.335 N 
ATOM     16  C   UNL A   1      30.227  26.202  24.599  1.00  0.00     0.089 C 
ATOM     17  C   UNL A   1      30.260  25.074  23.575  1.00  0.00     0.075 C 
ATOM     18  C   UNL A   1      31.239  27.272  24.190  1.00  0.00     0.075 C 
ATOM     19  C   UNL A   1      31.666  24.529  23.364  1.00  0.00     0.263 C 
ATOM     20  C   UNL A   1      32.647  26.694  24.015  1.00  0.00     0.263 C 
ATOM     21  H   UNL A   1      32.502  25.912  22.186  1.00  0.00     0.348 HD
BRANCH  16  22
ATOM     22  C   UNL A   1      30.489  25.713  26.021  1.00  0.00     0.220 C 
ATOM     23  N   UNL A   1      29.749  24.644  26.419  1.00  0.00    -0.369 N 
ATOM     24  H   UNL A   1      29.864  24.274  27.325  1.00  0.00     0.159 HD
ATOM     25  H   UNL A   1      29.097  24.239  25.802  1.00  0.00     0.159 HD
ATOM     26  O   UNL A   1      31.273  26.224  26.811  1.00  0.00    -0.275 OA
ENDBRANCH  16  22
ENDBRANCH  14  15
ENDBRANCH  13  14
ENDBRANCH   8  13
BRANCH  10  27
ATOM     27  C   UNL A   1      32.331  21.690  25.656  1.00  0.00     0.253 C 
ATOM     28  O   UNL A   1      31.217  22.194  25.796  1.00  0.00    -0.269 OA
BRANCH  27  29
ATOM     29  C   UNL A   1      32.429  20.592  24.687  1.00  0.00     0.040 A 
ATOM     30  C   UNL A   1      32.264  20.873  23.326  1.00  0.00     0.014 A 
ATOM     31  C   UNL A   1      32.529  19.277  25.142  1.00  0.00     0.014 A 
ATOM     32  C   UNL A   1      32.209  19.822  22.412  1.00  0.00     0.001 A 
ATOM     33  C   UNL A   1      32.472  18.232  24.223  1.00  0.00     0.001 A 
ATOM     34  C   UNL A   1      32.308  18.504  22.861  1.00  0.00     0.000 A 
ENDBRANCH  27  29
ENDBRANCH  10  27
ENDBRANCH   6   7
ENDBRANCH   3   6
ENDBRANCH   1   2
BRANCH   1  35
ATOM     35  C   UNL A   1      40.381  20.935  27.190  1.00  0.00     0.023 C 
BRANCH  35  36
ATOM     36  C   UNL A   1      41.194  19.872  26.473  1.00  0.00     0.023 C 
BRANCH  36  37
ATOM     37  C   UNL A   1      42.582  20.339  26.059  1.00  0.00     0.116 C 
BRANCH  37  38
ATOM     38  N   UNL A   1      43.242  19.487  25.075  1.00  0.00    -0.352 N 
ATOM     39  C   UNL A   1      44.412  19.711  24.367  1.00  0.00     0.251 C 
ATOM     40  H   UNL A   1      42.792  18.631  24.888  1.00  0.00     0.163 HD
ATOM     41  O   UNL A   1      44.836  18.907  23.570  1.00  0.00    -0.269 OA
BRANCH  39  42
ATOM     42  C   UNL A   1      45.088  21.016  24.548  1.00  0.00     0.039 A 
ATOM     43  C   UNL A   1      44.819  22.031  23.628  1.00  0.00     0.014 A 
ATOM     44  C   UNL A   1      45.804  21.278  25.715  1.00  0.00     0.014 A 
ATOM     45  C   UNL A   1      45.129  23.349  23.961  1.00  0.00     0.010 A 
ATOM     46  C   UNL A   1      46.002  22.599  26.093  1.00  0.00     0.010 A 
ATOM     47  C   UNL A   1      45.637  23.649  25.236  1.00  0.00    -0.014 A 
BRANCH  47  48
ATOM     48  C   UNL A   1      45.745  25.051  25.719  1.00  0.00     0.031 A 
ATOM     49  C   UNL A   1      47.076  25.745  25.699  1.00  0.00     0.074 A 
ATOM     50  C   UNL A   1      44.675  25.653  26.280  1.00  0.00     0.049 A 
ATOM     51  N   UNL A   1      47.415  26.903  26.206  1.00  0.00    -0.248 NA
ATOM     52  C   UNL A   1      48.187  25.017  25.065  1.00  0.00     0.031 C 
ATOM     53  C   UNL A   1      43.344  25.058  26.431  1.00  0.00     0.029 A 
ATOM     54  N   UNL A   1      44.541  26.899  26.843  1.00  0.00    -0.354 N 
ATOM     55  C   UNL A   1      48.780  27.020  25.987  1.00  0.00     0.074 A 
ATOM     56  C   UNL A   1      49.217  25.798  25.351  1.00  0.00     0.031 C 
ATOM     57  C   UNL A   1      42.524  25.948  27.011  1.00  0.00     0.029 A 
ATOM     58  C   UNL A   1      43.277  27.161  27.313  1.00  0.00     0.049 A 
ATOM     59  H   UNL A   1      45.283  27.543  26.904  1.00  0.00     0.167 HD
ATOM     60  C   UNL A   1      49.592  28.068  26.264  1.00  0.00     0.037 A 
ATOM     61  C   UNL A   1      42.783  28.255  27.923  1.00  0.00     0.037 A 
ATOM     62  C   UNL A   1      49.142  29.305  26.841  1.00  0.00     0.049 A 
ATOM     63  C   UNL A   1      43.693  29.426  28.172  1.00  0.00     0.074 A 
ATOM     64  C   UNL A   1      49.867  30.456  27.089  1.00  0.00     0.029 A 
ATOM     65  N   UNL A   1      47.839  29.555  27.247  1.00  0.00    -0.354 N 
ATOM     66  N   UNL A   1      44.969  29.552  27.901  1.00  0.00    -0.248 NA
ATOM     67  C   UNL A   1      43.096  30.609  28.809  1.00  0.00     0.031 C 
ATOM     68  C   UNL A   1      49.008  31.396  27.671  1.00  0.00     0.029 A 
ATOM     69  C   UNL A   1      47.741  30.841  27.752  1.00  0.00     0.049 A 
ATOM     70  H   UNL A   1      47.095  28.913  27.187  1.00  0.00     0.167 HD
ATOM     71  C   UNL A   1      45.322  30.831  28.309  1.00  0.00     0.074 A 
ATOM     72  C   UNL A   1      44.122  31.448  28.835  1.00  0.00     0.031 C 
ATOM     73  C   UNL A   1      46.532  31.439  28.254  1.00  0.00     0.037 A 
BRANCH  60  74
ATOM     74  C   UNL A   1      51.046  27.918  25.929  1.00  0.00     0.064 A 
ATOM     75  C   UNL A   1      51.534  28.188  24.642  1.00  0.00     0.173 A 
ATOM     76  C   UNL A   1      51.963  27.509  26.907  1.00  0.00     0.173 A 
ATOM     77  F   UNL A   1      50.693  28.567  23.667  1.00  0.00    -0.203 F 
ATOM     78  C   UNL A   1      52.880  28.018  24.336  1.00  0.00     0.198 A 
ATOM     79  C   UNL A   1      53.315  27.368  26.605  1.00  0.00     0.198 A 
ATOM     80  F   UNL A   1      51.549  27.240  28.154  1.00  0.00    -0.203 F 
ATOM     81  F   UNL A   1      53.313  28.224  23.084  1.00  0.00    -0.200 F 
ATOM     82  C   UNL A   1      53.771  27.613  25.319  1.00  0.00     0.200 A 
ATOM     83  F   UNL A   1      54.177  26.987  27.559  1.00  0.00    -0.200 F 
ATOM     84  F   UNL A   1      55.068  27.450  25.023  1.00  0.00    -0.200 F 
ENDBRANCH  60  74
BRANCH  61  85
ATOM     85  C   UNL A   1      41.348  28.313  28.307  1.00  0.00     0.064 A 
ATOM     86  C   UNL A   1      40.394  28.855  27.432  1.00  0.00     0.173 A 
ATOM     87  C   UNL A   1      40.899  27.838  29.547  1.00  0.00     0.173 A 
ATOM     88  F   UNL A   1      40.779  29.342  26.243  1.00  0.00    -0.203 F 
ATOM     89  C   UNL A   1      39.051  28.937  27.791  1.00  0.00     0.198 A 
ATOM     90  C   UNL A   1      39.550  27.898  29.895  1.00  0.00     0.198 A 
ATOM     91  F   UNL A   1      41.769  27.306  30.418  1.00  0.00    -0.203 F 
ATOM     92  F   UNL A   1      38.168  29.497  26.953  1.00  0.00    -0.200 F 
ATOM     93  C   UNL A   1      38.629  28.453  29.020  1.00  0.00     0.200 A 
ATOM     94  F   UNL A   1      39.145  27.421  31.079  1.00  0.00    -0.200 F 
ATOM     95  F   UNL A   1      37.336  28.531  29.365  1.00  0.00    -0.200 F 
ENDBRANCH  61  85
BRANCH  73  96
ATOM     96  C   UNL A   1      46.611  32.854  28.742  1.00  0.00     0.064 A 
ATOM     97  C   UNL A   1      46.362  33.937  27.890  1.00  0.00     0.173 A 
ATOM     98  C   UNL A   1      46.883  33.121  30.092  1.00  0.00     0.173 A 
ATOM     99  F   UNL A   1      46.113  33.730  26.589  1.00  0.00    -0.203 F 
ATOM    100  C   UNL A   1      46.396  35.243  28.370  1.00  0.00     0.198 A 
ATOM    101  C   UNL A   1      46.892  34.427  30.574  1.00  0.00     0.198 A 
ATOM    102  F   UNL A   1      47.123  32.114  30.946  1.00  0.00    -0.203 F 
ATOM    103  F   UNL A   1      46.186  36.269  27.532  1.00  0.00    -0.200 F 
ATOM    104  C   UNL A   1      46.652  35.486  29.712  1.00  0.00     0.200 A 
ATOM    105  F   UNL A   1      47.128  34.659  31.872  1.00  0.00    -0.200 F 
ATOM    106  F   UNL A   1      46.672  36.744  30.174  1.00  0.00    -0.200 F 
ENDBRANCH  73  96
ENDBRANCH  47  48
ENDBRANCH  39  42
ENDBRANCH  37  38
ENDBRANCH  36  37
ENDBRANCH  35  36
ENDBRANCH   1  35
TORSDOF 18
ENDMDL
