MODEL 1
REMARK VINA RESULT:     -13.0      0.000      0.000
REMARK SMILES C[C@H](NC1=[NH+]S(=O)(=O)c2ccccc21)C(=O)NCCCCNC(=O)c1ccc(-c2c3nc(c(-c4c(F)c(F)c(F)c(F)c4F)c4ccc([nH]4)c(-c4c(F)c(F)c(F)c(F)c4F)c4nc(c(-c5c(F)c(F)c(F)c(F)c5F)c5ccc2[nH]5)C=C4)C=C3)cc1
REMARK SMILES IDX 20 1 19 2 18 3 17 4 15 5 16 6 2 8 1 9 3 10 4 11 5 13 14 14
REMARK SMILES IDX 6 15 9 17 13 18 7 19 8 20 10 21 12 22 11 23 21 24 22 25
REMARK SMILES IDX 23 26 24 28 25 29 26 30 87 31 27 32 86 33 28 34 29 35 30 36
REMARK SMILES IDX 80 37 31 38 85 39 79 40 81 41 32 42 84 43 78 44 77 45 33 47
REMARK SMILES IDX 65 48 45 49 64 50 46 51 49 52 63 53 82 54 47 55 48 56 62 58
REMARK SMILES IDX 83 59 50 60 34 61 35 62 43 63 36 64 37 65 41 66 44 67 38 68
REMARK SMILES IDX 39 69 42 70 40 71 66 72 67 73 75 74 68 75 69 76 73 77 76 78
REMARK SMILES IDX 70 79 71 80 74 81 72 82 51 83 52 84 60 85 53 86 54 87 58 88
REMARK SMILES IDX 61 89 55 90 56 91 59 92 57 93
REMARK H PARENT 17 7 3 12 5 16 22 27 81 46 49 57
REMARK Flexibility Score: inf
ROOT
ATOM      1  C   UNL A   1      31.615  32.071  26.625  1.00  0.00     0.023 C 
ENDROOT
BRANCH   1   2
ATOM      2  C   UNL A   1      31.791  30.558  26.548  1.00  0.00     0.023 C 
BRANCH   2   3
ATOM      3  C   UNL A   1      31.287  29.911  25.261  1.00  0.00     0.116 C 
BRANCH   3   4
ATOM      4  N   UNL A   1      32.387  29.582  24.372  1.00  0.00    -0.352 N 
ATOM      5  C   UNL A   1      33.445  28.733  24.556  1.00  0.00     0.264 C 
ATOM      6  O   UNL A   1      34.280  28.662  23.650  1.00  0.00    -0.270 OA
ATOM      7  H   UNL A   1      32.369  30.041  23.501  1.00  0.00     0.163 HD
BRANCH   5   8
ATOM      8  C   UNL A   1      33.577  27.884  25.840  1.00  0.00     0.258 C 
ATOM      9  C   UNL A   1      34.486  28.617  26.829  1.00  0.00     0.069 C 
BRANCH   8  10
ATOM     10  N   UNL A   1      34.026  26.528  25.498  1.00  0.00    -0.262 N 
ATOM     11  C   UNL A   1      33.298  25.378  25.653  1.00  0.00     0.292 C 
ATOM     12  H   UNL A   1      34.932  26.438  25.122  1.00  0.00     0.306 HD
ATOM     13  N   UNL A   1      32.006  25.336  25.785  1.00  0.00    -0.162 N 
ATOM     14  C   UNL A   1      33.989  24.071  25.784  1.00  0.00     0.087 A 
ATOM     15  S   UNL A   1      31.489  23.809  26.090  1.00  0.00     0.329 S 
ATOM     16  H   UNL A   1      31.414  26.120  25.712  1.00  0.00     0.327 HD
ATOM     17  C   UNL A   1      33.074  23.097  26.126  1.00  0.00     0.124 A 
ATOM     18  C   UNL A   1      35.338  23.768  25.728  1.00  0.00     0.018 A 
ATOM     19  O   UNL A   1      30.807  23.266  24.937  1.00  0.00    -0.179 OA
ATOM     20  O   UNL A   1      30.955  23.725  27.434  1.00  0.00    -0.179 OA
ATOM     21  C   UNL A   1      33.431  21.816  26.499  1.00  0.00     0.025 A 
ATOM     22  C   UNL A   1      35.740  22.478  26.094  1.00  0.00     0.001 A 
ATOM     23  C   UNL A   1      34.794  21.513  26.490  1.00  0.00     0.002 A 
ENDBRANCH   8  10
ENDBRANCH   5   8
ENDBRANCH   3   4
ENDBRANCH   2   3
ENDBRANCH   1   2
BRANCH   1  24
ATOM     24  C   UNL A   1      32.730  32.818  27.343  1.00  0.00     0.116 C 
BRANCH  24  25
ATOM     25  N   UNL A   1      32.395  34.201  27.651  1.00  0.00    -0.352 N 
ATOM     26  C   UNL A   1      32.969  35.045  28.572  1.00  0.00     0.251 C 
ATOM     27  H   UNL A   1      31.655  34.585  27.128  1.00  0.00     0.163 HD
ATOM     28  O   UNL A   1      32.487  36.154  28.781  1.00  0.00    -0.269 OA
BRANCH  26  29
ATOM     29  C   UNL A   1      34.146  34.591  29.343  1.00  0.00     0.039 A 
ATOM     30  C   UNL A   1      33.957  34.098  30.636  1.00  0.00     0.014 A 
ATOM     31  C   UNL A   1      35.423  34.615  28.776  1.00  0.00     0.014 A 
ATOM     32  C   UNL A   1      35.037  33.548  31.329  1.00  0.00     0.010 A 
ATOM     33  C   UNL A   1      36.480  33.995  29.435  1.00  0.00     0.010 A 
ATOM     34  C   UNL A   1      36.296  33.452  30.715  1.00  0.00    -0.014 A 
BRANCH  34  35
ATOM     35  C   UNL A   1      37.437  32.784  31.389  1.00  0.00     0.031 A 
ATOM     36  C   UNL A   1      38.131  31.629  30.726  1.00  0.00     0.074 A 
ATOM     37  C   UNL A   1      37.789  33.161  32.633  1.00  0.00     0.049 A 
ATOM     38  N   UNL A   1      39.077  30.853  31.190  1.00  0.00    -0.248 NA
ATOM     39  C   UNL A   1      37.677  31.277  29.371  1.00  0.00     0.031 C 
ATOM     40  C   UNL A   1      37.156  34.231  33.407  1.00  0.00     0.029 A 
ATOM     41  N   UNL A   1      38.761  32.676  33.473  1.00  0.00    -0.354 N 
ATOM     42  C   UNL A   1      39.311  29.909  30.199  1.00  0.00     0.074 A 
ATOM     43  C   UNL A   1      38.378  30.179  29.127  1.00  0.00     0.031 C 
ATOM     44  C   UNL A   1      37.770  34.338  34.595  1.00  0.00     0.029 A 
ATOM     45  C   UNL A   1      38.815  33.322  34.684  1.00  0.00     0.049 A 
ATOM     46  H   UNL A   1      39.362  31.936  33.231  1.00  0.00     0.167 HD
ATOM     47  C   UNL A   1      40.236  28.922  30.176  1.00  0.00     0.037 A 
ATOM     48  C   UNL A   1      39.615  33.115  35.747  1.00  0.00     0.037 A 
ATOM     49  C   UNL A   1      41.193  28.684  31.224  1.00  0.00     0.049 A 
ATOM     50  C   UNL A   1      40.651  32.026  35.685  1.00  0.00     0.074 A 
ATOM     51  C   UNL A   1      42.223  27.760  31.259  1.00  0.00     0.029 A 
ATOM     52  N   UNL A   1      41.239  29.381  32.422  1.00  0.00    -0.354 N 
ATOM     53  N   UNL A   1      40.909  31.184  34.714  1.00  0.00    -0.248 NA
ATOM     54  C   UNL A   1      41.509  31.861  36.867  1.00  0.00     0.031 C 
ATOM     55  C   UNL A   1      42.871  27.875  32.494  1.00  0.00     0.029 A 
ATOM     56  C   UNL A   1      42.269  28.897  33.210  1.00  0.00     0.049 A 
ATOM     57  H   UNL A   1      40.630  30.112  32.674  1.00  0.00     0.167 HD
ATOM     58  C   UNL A   1      41.974  30.410  35.153  1.00  0.00     0.074 A 
ATOM     59  C   UNL A   1      42.321  30.889  36.476  1.00  0.00     0.031 C 
ATOM     60  C   UNL A   1      42.607  29.394  34.519  1.00  0.00     0.037 A 
BRANCH  47  61
ATOM     61  C   UNL A   1      40.262  28.027  28.973  1.00  0.00     0.064 A 
ATOM     62  C   UNL A   1      40.996  28.360  27.825  1.00  0.00     0.173 A 
ATOM     63  C   UNL A   1      39.568  26.808  28.978  1.00  0.00     0.173 A 
ATOM     64  F   UNL A   1      41.666  29.520  27.766  1.00  0.00    -0.203 F 
ATOM     65  C   UNL A   1      41.011  27.520  26.715  1.00  0.00     0.198 A 
ATOM     66  C   UNL A   1      39.607  25.957  27.876  1.00  0.00     0.198 A 
ATOM     67  F   UNL A   1      38.853  26.440  30.051  1.00  0.00    -0.203 F 
ATOM     68  F   UNL A   1      41.679  27.882  25.611  1.00  0.00    -0.200 F 
ATOM     69  C   UNL A   1      40.321  26.316  26.743  1.00  0.00     0.200 A 
ATOM     70  F   UNL A   1      38.948  24.790  27.909  1.00  0.00    -0.200 F 
ATOM     71  F   UNL A   1      40.339  25.508  25.675  1.00  0.00    -0.200 F 
ENDBRANCH  47  61
BRANCH  48  72
ATOM     72  C   UNL A   1      39.494  33.981  36.947  1.00  0.00     0.064 A 
ATOM     73  C   UNL A   1      38.736  33.570  38.052  1.00  0.00     0.173 A 
ATOM     74  C   UNL A   1      40.128  35.229  37.016  1.00  0.00     0.173 A 
ATOM     75  F   UNL A   1      38.095  32.393  38.022  1.00  0.00    -0.203 F 
ATOM     76  C   UNL A   1      38.603  34.382  39.175  1.00  0.00     0.198 A 
ATOM     77  C   UNL A   1      40.014  36.031  38.151  1.00  0.00     0.198 A 
ATOM     78  F   UNL A   1      40.869  35.665  35.987  1.00  0.00    -0.203 F 
ATOM     79  F   UNL A   1      37.840  33.982  40.202  1.00  0.00    -0.200 F 
ATOM     80  C   UNL A   1      39.246  35.611  39.226  1.00  0.00     0.200 A 
ATOM     81  F   UNL A   1      40.647  37.211  38.201  1.00  0.00    -0.200 F 
ATOM     82  F   UNL A   1      39.121  36.390  40.308  1.00  0.00    -0.200 F 
ENDBRANCH  48  72
BRANCH  60  83
ATOM     83  C   UNL A   1      43.761  28.754  35.230  1.00  0.00     0.064 A 
ATOM     84  C   UNL A   1      45.065  29.259  35.116  1.00  0.00     0.173 A 
ATOM     85  C   UNL A   1      43.553  27.650  36.069  1.00  0.00     0.173 A 
ATOM     86  F   UNL A   1      45.316  30.304  34.313  1.00  0.00    -0.203 F 
ATOM     87  C   UNL A   1      46.123  28.666  35.800  1.00  0.00     0.198 A 
ATOM     88  C   UNL A   1      44.608  27.076  36.772  1.00  0.00     0.198 A 
ATOM     89  F   UNL A   1      42.323  27.134  36.215  1.00  0.00    -0.203 F 
ATOM     90  F   UNL A   1      47.367  29.138  35.645  1.00  0.00    -0.200 F 
ATOM     91  C   UNL A   1      45.892  27.580  36.633  1.00  0.00     0.200 A 
ATOM     92  F   UNL A   1      44.382  26.033  37.583  1.00  0.00    -0.200 F 
ATOM     93  F   UNL A   1      46.910  27.016  37.296  1.00  0.00    -0.200 F 
ENDBRANCH  60  83
ENDBRANCH  34  35
ENDBRANCH  26  29
ENDBRANCH  24  25
ENDBRANCH   1  24
TORSDOF 12
ENDMDL
MODEL 2
REMARK VINA RESULT:     -13.0      0.140      1.145
REMARK SMILES C[C@H](NC1=[NH+]S(=O)(=O)c2ccccc21)C(=O)NCCCCNC(=O)c1ccc(-c2c3nc(c(-c4c(F)c(F)c(F)c(F)c4F)c4ccc([nH]4)c(-c4c(F)c(F)c(F)c(F)c4F)c4nc(c(-c5c(F)c(F)c(F)c(F)c5F)c5ccc2[nH]5)C=C4)C=C3)cc1
REMARK SMILES IDX 20 1 19 2 18 3 17 4 15 5 16 6 2 8 1 9 3 10 4 11 5 13 14 14
REMARK SMILES IDX 6 15 9 17 13 18 7 19 8 20 10 21 12 22 11 23 21 24 22 25
REMARK SMILES IDX 23 26 24 28 25 29 26 30 87 31 27 32 86 33 28 34 29 35 30 36
REMARK SMILES IDX 80 37 31 38 85 39 79 40 81 41 32 42 84 43 78 44 77 45 33 47
REMARK SMILES IDX 65 48 45 49 64 50 46 51 49 52 63 53 82 54 47 55 48 56 62 58
REMARK SMILES IDX 83 59 50 60 34 61 35 62 43 63 36 64 37 65 41 66 44 67 38 68
REMARK SMILES IDX 39 69 42 70 40 71 66 72 67 73 75 74 68 75 69 76 73 77 76 78
REMARK SMILES IDX 70 79 71 80 74 81 72 82 51 83 52 84 60 85 53 86 54 87 58 88
REMARK SMILES IDX 61 89 55 90 56 91 59 92 57 93
REMARK H PARENT 17 7 3 12 5 16 22 27 81 46 49 57
REMARK Flexibility Score: inf
ROOT
ATOM      1  C   UNL A   1      31.559  32.015  26.789  1.00  0.00     0.023 C 
ENDROOT
BRANCH   1   2
ATOM      2  C   UNL A   1      31.824  30.525  26.594  1.00  0.00     0.023 C 
BRANCH   2   3
ATOM      3  C   UNL A   1      31.333  29.946  25.270  1.00  0.00     0.116 C 
BRANCH   3   4
ATOM      4  N   UNL A   1      32.444  29.632  24.390  1.00  0.00    -0.352 N 
ATOM      5  C   UNL A   1      33.475  28.747  24.555  1.00  0.00     0.264 C 
ATOM      6  O   UNL A   1      34.329  28.699  23.665  1.00  0.00    -0.270 OA
ATOM      7  H   UNL A   1      32.457  30.134  23.543  1.00  0.00     0.163 HD
BRANCH   5   8
ATOM      8  C   UNL A   1      33.557  27.833  25.799  1.00  0.00     0.258 C 
ATOM      9  C   UNL A   1      34.398  28.527  26.871  1.00  0.00     0.069 C 
BRANCH   8  10
ATOM     10  N   UNL A   1      34.048  26.505  25.410  1.00  0.00    -0.262 N 
ATOM     11  C   UNL A   1      33.403  25.316  25.622  1.00  0.00     0.292 C 
ATOM     12  H   UNL A   1      34.921  26.466  24.955  1.00  0.00     0.306 HD
ATOM     13  N   UNL A   1      32.132  25.201  25.868  1.00  0.00    -0.162 N 
ATOM     14  C   UNL A   1      34.176  24.050  25.684  1.00  0.00     0.087 A 
ATOM     15  S   UNL A   1      31.732  23.647  26.209  1.00  0.00     0.329 S 
ATOM     16  H   UNL A   1      31.494  25.950  25.852  1.00  0.00     0.327 HD
ATOM     17  C   UNL A   1      33.351  23.025  26.101  1.00  0.00     0.124 A 
ATOM     18  C   UNL A   1      35.530  23.824  25.507  1.00  0.00     0.018 A 
ATOM     19  O   UNL A   1      30.982  23.066  25.118  1.00  0.00    -0.179 OA
ATOM     20  O   UNL A   1      31.325  23.531  27.594  1.00  0.00    -0.179 OA
ATOM     21  C   UNL A   1      33.812  21.766  26.433  1.00  0.00     0.025 A 
ATOM     22  C   UNL A   1      36.034  22.558  25.829  1.00  0.00     0.001 A 
ATOM     23  C   UNL A   1      35.183  21.541  26.302  1.00  0.00     0.002 A 
ENDBRANCH   8  10
ENDBRANCH   5   8
ENDBRANCH   3   4
ENDBRANCH   2   3
ENDBRANCH   1   2
BRANCH   1  24
ATOM     24  C   UNL A   1      32.728  32.815  27.347  1.00  0.00     0.116 C 
BRANCH  24  25
ATOM     25  N   UNL A   1      32.388  34.196  27.657  1.00  0.00    -0.352 N 
ATOM     26  C   UNL A   1      32.957  35.039  28.581  1.00  0.00     0.251 C 
ATOM     27  H   UNL A   1      31.649  34.579  27.132  1.00  0.00     0.163 HD
ATOM     28  O   UNL A   1      32.472  36.147  28.791  1.00  0.00    -0.269 OA
BRANCH  26  29
ATOM     29  C   UNL A   1      34.133  34.587  29.355  1.00  0.00     0.039 A 
ATOM     30  C   UNL A   1      33.938  34.074  30.639  1.00  0.00     0.014 A 
ATOM     31  C   UNL A   1      35.414  34.632  28.799  1.00  0.00     0.014 A 
ATOM     32  C   UNL A   1      35.018  33.525  31.333  1.00  0.00     0.010 A 
ATOM     33  C   UNL A   1      36.471  34.012  29.457  1.00  0.00     0.010 A 
ATOM     34  C   UNL A   1      36.283  33.450  30.728  1.00  0.00    -0.014 A 
BRANCH  34  35
ATOM     35  C   UNL A   1      37.425  32.784  31.403  1.00  0.00     0.031 A 
ATOM     36  C   UNL A   1      38.117  31.625  30.743  1.00  0.00     0.074 A 
ATOM     37  C   UNL A   1      37.782  33.167  32.644  1.00  0.00     0.049 A 
ATOM     38  N   UNL A   1      39.063  30.851  31.208  1.00  0.00    -0.248 NA
ATOM     39  C   UNL A   1      37.658  31.267  29.391  1.00  0.00     0.031 C 
ATOM     40  C   UNL A   1      37.152  34.242  33.413  1.00  0.00     0.029 A 
ATOM     41  N   UNL A   1      38.755  32.686  33.483  1.00  0.00    -0.354 N 
ATOM     42  C   UNL A   1      39.293  29.902  30.221  1.00  0.00     0.074 A 
ATOM     43  C   UNL A   1      38.357  30.168  29.151  1.00  0.00     0.031 C 
ATOM     44  C   UNL A   1      37.770  34.354  34.600  1.00  0.00     0.029 A 
ATOM     45  C   UNL A   1      38.814  33.338  34.690  1.00  0.00     0.049 A 
ATOM     46  H   UNL A   1      39.355  31.944  33.242  1.00  0.00     0.167 HD
ATOM     47  C   UNL A   1      40.217  28.913  30.200  1.00  0.00     0.037 A 
ATOM     48  C   UNL A   1      39.617  33.135  35.751  1.00  0.00     0.037 A 
ATOM     49  C   UNL A   1      41.177  28.680  31.246  1.00  0.00     0.049 A 
ATOM     50  C   UNL A   1      40.652  32.045  35.692  1.00  0.00     0.074 A 
ATOM     51  C   UNL A   1      42.206  27.755  31.283  1.00  0.00     0.029 A 
ATOM     52  N   UNL A   1      41.227  29.383  32.440  1.00  0.00    -0.354 N 
ATOM     53  N   UNL A   1      40.906  31.198  34.724  1.00  0.00    -0.248 NA
ATOM     54  C   UNL A   1      41.513  31.884  36.873  1.00  0.00     0.031 C 
ATOM     55  C   UNL A   1      42.858  27.876  32.515  1.00  0.00     0.029 A 
ATOM     56  C   UNL A   1      42.260  28.902  33.228  1.00  0.00     0.049 A 
ATOM     57  H   UNL A   1      40.619  30.115  32.691  1.00  0.00     0.167 HD
ATOM     58  C   UNL A   1      41.971  30.425  35.164  1.00  0.00     0.074 A 
ATOM     59  C   UNL A   1      42.323  30.910  36.483  1.00  0.00     0.031 C 
ATOM     60  C   UNL A   1      42.602  29.405  34.534  1.00  0.00     0.037 A 
BRANCH  47  61
ATOM     61  C   UNL A   1      40.238  28.012  29.001  1.00  0.00     0.064 A 
ATOM     62  C   UNL A   1      40.971  28.338  27.850  1.00  0.00     0.173 A 
ATOM     63  C   UNL A   1      39.541  26.795  29.013  1.00  0.00     0.173 A 
ATOM     64  F   UNL A   1      41.644  29.496  27.784  1.00  0.00    -0.203 F 
ATOM     65  C   UNL A   1      40.981  27.492  26.744  1.00  0.00     0.198 A 
ATOM     66  C   UNL A   1      39.575  25.939  27.915  1.00  0.00     0.198 A 
ATOM     67  F   UNL A   1      38.827  26.435  30.090  1.00  0.00    -0.203 F 
ATOM     68  F   UNL A   1      41.649  27.847  25.637  1.00  0.00    -0.200 F 
ATOM     69  C   UNL A   1      40.289  26.291  26.780  1.00  0.00     0.200 A 
ATOM     70  F   UNL A   1      38.914  24.774  27.956  1.00  0.00    -0.200 F 
ATOM     71  F   UNL A   1      40.302  25.477  25.716  1.00  0.00    -0.200 F 
ENDBRANCH  47  61
BRANCH  48  72
ATOM     72  C   UNL A   1      39.501  34.007  36.948  1.00  0.00     0.064 A 
ATOM     73  C   UNL A   1      38.747  33.602  38.057  1.00  0.00     0.173 A 
ATOM     74  C   UNL A   1      40.135  35.256  37.008  1.00  0.00     0.173 A 
ATOM     75  F   UNL A   1      38.107  32.424  38.037  1.00  0.00    -0.203 F 
ATOM     76  C   UNL A   1      38.618  34.420  39.177  1.00  0.00     0.198 A 
ATOM     77  C   UNL A   1      40.025  36.063  38.139  1.00  0.00     0.198 A 
ATOM     78  F   UNL A   1      40.871  35.686  35.974  1.00  0.00    -0.203 F 
ATOM     79  F   UNL A   1      37.860  34.025  40.209  1.00  0.00    -0.200 F 
ATOM     80  C   UNL A   1      39.261  35.648  39.219  1.00  0.00     0.200 A 
ATOM     81  F   UNL A   1      40.658  37.244  38.181  1.00  0.00    -0.200 F 
ATOM     82  F   UNL A   1      39.140  36.433  40.298  1.00  0.00    -0.200 F 
ENDBRANCH  48  72
BRANCH  60  83
ATOM     83  C   UNL A   1      43.757  28.768  35.244  1.00  0.00     0.064 A 
ATOM     84  C   UNL A   1      43.572  27.704  36.140  1.00  0.00     0.173 A 
ATOM     85  C   UNL A   1      45.069  29.197  34.993  1.00  0.00     0.173 A 
ATOM     86  F   UNL A   1      42.335  27.269  36.424  1.00  0.00    -0.203 F 
ATOM     87  C   UNL A   1      44.658  27.109  36.776  1.00  0.00     0.198 A 
ATOM     88  C   UNL A   1      46.154  28.582  35.610  1.00  0.00     0.198 A 
ATOM     89  F   UNL A   1      45.297  30.207  34.140  1.00  0.00    -0.203 F 
ATOM     90  F   UNL A   1      44.456  26.121  37.659  1.00  0.00    -0.200 F 
ATOM     91  C   UNL A   1      45.948  27.543  36.505  1.00  0.00     0.200 A 
ATOM     92  F   UNL A   1      47.400  28.996  35.340  1.00  0.00    -0.200 F 
ATOM     93  F   UNL A   1      46.992  26.963  37.111  1.00  0.00    -0.200 F 
ENDBRANCH  60  83
ENDBRANCH  34  35
ENDBRANCH  26  29
ENDBRANCH  24  25
ENDBRANCH   1  24
TORSDOF 12
ENDMDL
MODEL 3
REMARK VINA RESULT:     -12.9      5.478     10.715
REMARK SMILES C[C@H](NC1=[NH+]S(=O)(=O)c2ccccc21)C(=O)NCCCCNC(=O)c1ccc(-c2c3nc(c(-c4c(F)c(F)c(F)c(F)c4F)c4ccc([nH]4)c(-c4c(F)c(F)c(F)c(F)c4F)c4nc(c(-c5c(F)c(F)c(F)c(F)c5F)c5ccc2[nH]5)C=C4)C=C3)cc1
REMARK SMILES IDX 20 1 19 2 18 3 17 4 15 5 16 6 2 8 1 9 3 10 4 11 5 13 14 14
REMARK SMILES IDX 6 15 9 17 13 18 7 19 8 20 10 21 12 22 11 23 21 24 22 25
REMARK SMILES IDX 23 26 24 28 25 29 26 30 87 31 27 32 86 33 28 34 29 35 30 36
REMARK SMILES IDX 80 37 31 38 85 39 79 40 81 41 32 42 84 43 78 44 77 45 33 47
REMARK SMILES IDX 65 48 45 49 64 50 46 51 49 52 63 53 82 54 47 55 48 56 62 58
REMARK SMILES IDX 83 59 50 60 34 61 35 62 43 63 36 64 37 65 41 66 44 67 38 68
REMARK SMILES IDX 39 69 42 70 40 71 66 72 67 73 75 74 68 75 69 76 73 77 76 78
REMARK SMILES IDX 70 79 71 80 74 81 72 82 51 83 52 84 60 85 53 86 54 87 58 88
REMARK SMILES IDX 61 89 55 90 56 91 59 92 57 93
REMARK H PARENT 17 7 3 12 5 16 22 27 81 46 49 57
REMARK Flexibility Score: inf
ROOT
ATOM      1  C   UNL A   1      37.923  20.513  24.742  1.00  0.00     0.023 C 
ENDROOT
BRANCH   1   2
ATOM      2  C   UNL A   1      36.689  19.656  25.009  1.00  0.00     0.023 C 
BRANCH   2   3
ATOM      3  C   UNL A   1      35.354  20.385  24.884  1.00  0.00     0.116 C 
BRANCH   3   4
ATOM      4  N   UNL A   1      34.981  21.018  26.137  1.00  0.00    -0.352 N 
ATOM      5  C   UNL A   1      34.937  22.344  26.474  1.00  0.00     0.264 C 
ATOM      6  O   UNL A   1      34.624  22.623  27.635  1.00  0.00    -0.270 OA
ATOM      7  H   UNL A   1      34.721  20.397  26.855  1.00  0.00     0.163 HD
BRANCH   5   8
ATOM      8  C   UNL A   1      35.247  23.447  25.437  1.00  0.00     0.258 C 
ATOM      9  C   UNL A   1      36.752  23.719  25.437  1.00  0.00     0.069 C 
BRANCH   8  10
ATOM     10  N   UNL A   1      34.418  24.630  25.704  1.00  0.00    -0.262 N 
ATOM     11  C   UNL A   1      33.815  25.418  24.760  1.00  0.00     0.292 C 
ATOM     12  H   UNL A   1      34.284  24.878  26.647  1.00  0.00     0.306 HD
ATOM     13  N   UNL A   1      33.585  25.053  23.534  1.00  0.00    -0.162 N 
ATOM     14  C   UNL A   1      33.469  26.826  25.075  1.00  0.00     0.087 A 
ATOM     15  S   UNL A   1      32.979  26.294  22.649  1.00  0.00     0.329 S 
ATOM     16  H   UNL A   1      33.754  24.149  23.182  1.00  0.00     0.327 HD
ATOM     17  C   UNL A   1      33.061  27.470  23.926  1.00  0.00     0.124 A 
ATOM     18  C   UNL A   1      33.611  27.534  26.256  1.00  0.00     0.018 A 
ATOM     19  O   UNL A   1      31.580  26.076  22.363  1.00  0.00    -0.179 OA
ATOM     20  O   UNL A   1      33.936  26.698  21.639  1.00  0.00    -0.179 OA
ATOM     21  C   UNL A   1      32.847  28.833  23.854  1.00  0.00     0.025 A 
ATOM     22  C   UNL A   1      33.398  28.917  26.224  1.00  0.00     0.001 A 
ATOM     23  C   UNL A   1      33.033  29.564  25.028  1.00  0.00     0.002 A 
ENDBRANCH   8  10
ENDBRANCH   5   8
ENDBRANCH   3   4
ENDBRANCH   2   3
ENDBRANCH   1   2
BRANCH   1  24
ATOM     24  C   UNL A   1      38.945  20.548  25.870  1.00  0.00     0.116 C 
BRANCH  24  25
ATOM     25  N   UNL A   1      39.880  19.432  25.838  1.00  0.00    -0.352 N 
ATOM     26  C   UNL A   1      41.235  19.435  26.067  1.00  0.00     0.251 C 
ATOM     27  H   UNL A   1      39.488  18.556  25.621  1.00  0.00     0.163 HD
ATOM     28  O   UNL A   1      41.896  18.416  25.889  1.00  0.00    -0.269 OA
BRANCH  26  29
ATOM     29  C   UNL A   1      41.902  20.686  26.488  1.00  0.00     0.039 A 
ATOM     30  C   UNL A   1      42.341  21.578  25.508  1.00  0.00     0.014 A 
ATOM     31  C   UNL A   1      42.055  20.992  27.843  1.00  0.00     0.014 A 
ATOM     32  C   UNL A   1      42.856  22.820  25.887  1.00  0.00     0.010 A 
ATOM     33  C   UNL A   1      42.492  22.259  28.216  1.00  0.00     0.010 A 
ATOM     34  C   UNL A   1      42.893  23.186  27.243  1.00  0.00    -0.014 A 
BRANCH  34  35
ATOM     35  C   UNL A   1      43.343  24.535  27.668  1.00  0.00     0.031 A 
ATOM     36  C   UNL A   1      42.332  25.589  28.018  1.00  0.00     0.074 A 
ATOM     37  C   UNL A   1      44.656  24.833  27.655  1.00  0.00     0.049 A 
ATOM     38  N   UNL A   1      42.518  26.850  28.315  1.00  0.00    -0.248 NA
ATOM     39  C   UNL A   1      40.918  25.180  27.997  1.00  0.00     0.031 C 
ATOM     40  C   UNL A   1      45.732  23.914  27.281  1.00  0.00     0.029 A 
ATOM     41  N   UNL A   1      45.309  26.003  27.954  1.00  0.00    -0.354 N 
ATOM     42  C   UNL A   1      41.250  27.388  28.489  1.00  0.00     0.074 A 
ATOM     43  C   UNL A   1      40.300  26.330  28.220  1.00  0.00     0.031 C 
ATOM     44  C   UNL A   1      46.911  24.545  27.396  1.00  0.00     0.029 A 
ATOM     45  C   UNL A   1      46.674  25.923  27.816  1.00  0.00     0.049 A 
ATOM     46  H   UNL A   1      44.845  26.822  28.240  1.00  0.00     0.167 HD
ATOM     47  C   UNL A   1      40.911  28.643  28.862  1.00  0.00     0.037 A 
ATOM     48  C   UNL A   1      47.624  26.858  28.002  1.00  0.00     0.037 A 
ATOM     49  C   UNL A   1      41.858  29.680  29.173  1.00  0.00     0.049 A 
ATOM     50  C   UNL A   1      47.221  28.239  28.440  1.00  0.00     0.074 A 
ATOM     51  C   UNL A   1      41.615  30.961  29.637  1.00  0.00     0.029 A 
ATOM     52  N   UNL A   1      43.234  29.551  29.053  1.00  0.00    -0.354 N 
ATOM     53  N   UNL A   1      46.021  28.717  28.670  1.00  0.00    -0.248 NA
ATOM     54  C   UNL A   1      48.304  29.211  28.649  1.00  0.00     0.031 C 
ATOM     55  C   UNL A   1      42.843  31.619  29.766  1.00  0.00     0.029 A 
ATOM     56  C   UNL A   1      43.852  30.735  29.420  1.00  0.00     0.049 A 
ATOM     57  H   UNL A   1      43.702  28.739  28.753  1.00  0.00     0.167 HD
ATOM     58  C   UNL A   1      46.206  30.031  29.075  1.00  0.00     0.074 A 
ATOM     59  C   UNL A   1      47.633  30.274  29.071  1.00  0.00     0.031 C 
ATOM     60  C   UNL A   1      45.276  30.954  29.420  1.00  0.00     0.037 A 
BRANCH  47  61
ATOM     61  C   UNL A   1      39.449  28.963  28.962  1.00  0.00     0.064 A 
ATOM     62  C   UNL A   1      38.706  29.361  27.840  1.00  0.00     0.173 A 
ATOM     63  C   UNL A   1      38.776  28.843  30.187  1.00  0.00     0.173 A 
ATOM     64  F   UNL A   1      39.306  29.504  26.649  1.00  0.00    -0.203 F 
ATOM     65  C   UNL A   1      37.349  29.657  27.947  1.00  0.00     0.198 A 
ATOM     66  C   UNL A   1      37.413  29.113  30.284  1.00  0.00     0.198 A 
ATOM     67  F   UNL A   1      39.439  28.463  31.289  1.00  0.00    -0.203 F 
ATOM     68  F   UNL A   1      36.671  30.083  26.873  1.00  0.00    -0.200 F 
ATOM     69  C   UNL A   1      36.703  29.525  29.168  1.00  0.00     0.200 A 
ATOM     70  F   UNL A   1      36.787  28.976  31.462  1.00  0.00    -0.200 F 
ATOM     71  F   UNL A   1      35.396  29.806  29.268  1.00  0.00    -0.200 F 
ENDBRANCH  47  61
BRANCH  48  72
ATOM     72  C   UNL A   1      49.055  26.509  27.813  1.00  0.00     0.064 A 
ATOM     73  C   UNL A   1      49.884  26.266  28.917  1.00  0.00     0.173 A 
ATOM     74  C   UNL A   1      49.623  26.411  26.535  1.00  0.00     0.173 A 
ATOM     75  F   UNL A   1      49.390  26.368  30.159  1.00  0.00    -0.203 F 
ATOM     76  C   UNL A   1      51.231  25.955  28.750  1.00  0.00     0.198 A 
ATOM     77  C   UNL A   1      50.965  26.076  26.369  1.00  0.00     0.198 A 
ATOM     78  F   UNL A   1      48.870  26.630  25.447  1.00  0.00    -0.203 F 
ATOM     79  F   UNL A   1      52.010  25.765  29.824  1.00  0.00    -0.200 F 
ATOM     80  C   UNL A   1      51.770  25.855  27.476  1.00  0.00     0.200 A 
ATOM     81  F   UNL A   1      51.479  25.968  25.136  1.00  0.00    -0.200 F 
ATOM     82  F   UNL A   1      53.065  25.551  27.316  1.00  0.00    -0.200 F 
ENDBRANCH  48  72
BRANCH  60  83
ATOM     83  C   UNL A   1      45.773  32.300  29.855  1.00  0.00     0.064 A 
ATOM     84  C   UNL A   1      45.931  33.354  28.942  1.00  0.00     0.173 A 
ATOM     85  C   UNL A   1      46.054  32.550  31.206  1.00  0.00     0.173 A 
ATOM     86  F   UNL A   1      45.690  33.158  27.637  1.00  0.00    -0.203 F 
ATOM     87  C   UNL A   1      46.373  34.604  29.365  1.00  0.00     0.198 A 
ATOM     88  C   UNL A   1      46.470  33.808  31.629  1.00  0.00     0.198 A 
ATOM     89  F   UNL A   1      45.914  31.575  32.117  1.00  0.00    -0.203 F 
ATOM     90  F   UNL A   1      46.555  35.586  28.472  1.00  0.00    -0.200 F 
ATOM     91  C   UNL A   1      46.635  34.832  30.709  1.00  0.00     0.200 A 
ATOM     92  F   UNL A   1      46.714  34.030  32.928  1.00  0.00    -0.200 F 
ATOM     93  F   UNL A   1      47.053  36.039  31.115  1.00  0.00    -0.200 F 
ENDBRANCH  60  83
ENDBRANCH  34  35
ENDBRANCH  26  29
ENDBRANCH  24  25
ENDBRANCH   1  24
TORSDOF 12
ENDMDL
