MODEL 1
REMARK VINA RESULT:     -13.1      0.000      0.000
REMARK SMILES Cc1c(CC(=O)NCCCCNC(=O)c2ccc(-c3c4nc(c(-c5c(F)c(F)c(F)c(F)c5F)c5ccc([nH]5)c(-c5c(F)c(F)c(F)c(F)c5F)c5nc(c(-c6c(F)c(F)c(F)c(F)c6F)c6ccc3[nH]6)C=C5)C=C4)cc2)cccc1-c1ccn(C(F)F)c(=O)c1
REMARK SMILES IDX 9 1 8 2 7 3 5 4 6 5 4 7 3 8 1 9 2 10 81 11 78 12 80 13 79 14
REMARK SMILES IDX 82 15 83 16 91 17 84 18 89 19 85 20 90 21 86 22 87 23 88 24
REMARK SMILES IDX 10 25 11 26 12 27 13 28 14 30 15 31 16 32 77 33 17 34 76 35
REMARK SMILES IDX 18 36 19 37 20 38 70 39 21 40 75 41 69 42 71 43 22 44 74 45
REMARK SMILES IDX 68 46 67 47 23 49 55 50 35 51 54 52 36 53 39 54 53 55 72 56
REMARK SMILES IDX 37 57 38 58 52 60 73 61 40 62 24 63 25 64 33 65 26 66 27 67
REMARK SMILES IDX 31 68 34 69 28 70 29 71 32 72 30 73 56 74 57 75 65 76 58 77
REMARK SMILES IDX 59 78 63 79 66 80 60 81 61 82 64 83 62 84 41 85 42 86 50 87
REMARK SMILES IDX 43 88 44 89 48 90 51 91 45 92 46 93 49 94 47 95
REMARK H PARENT 7 6 12 29 71 48 39 59
REMARK Flexibility Score: inf
ROOT
ATOM      1  C   UNL A   1      32.806  28.278  26.740  1.00  0.00     0.023 C 
ENDROOT
BRANCH   1   2
ATOM      2  C   UNL A   1      31.614  27.552  27.384  1.00  0.00     0.116 C 
BRANCH   2   3
ATOM      3  N   UNL A   1      30.742  26.900  26.423  1.00  0.00    -0.356 N 
ATOM      4  C   UNL A   1      30.736  25.609  25.975  1.00  0.00     0.224 C 
ATOM      5  O   UNL A   1      29.868  25.289  25.159  1.00  0.00    -0.275 OA
ATOM      6  H   UNL A   1      30.048  27.478  26.033  1.00  0.00     0.163 HD
BRANCH   4   7
ATOM      7  C   UNL A   1      31.730  24.580  26.502  1.00  0.00     0.135 C 
BRANCH   7   8
ATOM      8  C   UNL A   1      32.925  24.359  25.596  1.00  0.00    -0.035 A 
ATOM      9  C   UNL A   1      34.072  22.819  27.271  1.00  0.00     0.045 C 
ATOM     10  C   UNL A   1      34.072  23.619  25.987  1.00  0.00    -0.040 A 
ATOM     11  C   UNL A   1      35.200  23.605  25.128  1.00  0.00    -0.015 A 
ATOM     12  C   UNL A   1      32.896  24.975  24.328  1.00  0.00     0.004 A 
ATOM     13  C   UNL A   1      35.146  24.256  23.882  1.00  0.00     0.009 A 
ATOM     14  C   UNL A   1      33.994  24.922  23.478  1.00  0.00     0.001 A 
BRANCH  11  15
ATOM     15  C   UNL A   1      36.484  22.989  25.529  1.00  0.00    -0.011 A 
ATOM     16  C   UNL A   1      37.517  23.701  26.255  1.00  0.00     0.027 A 
ATOM     17  C   UNL A   1      36.722  21.730  25.120  1.00  0.00     0.080 A 
ATOM     18  C   UNL A   1      38.721  23.146  26.437  1.00  0.00     0.095 A 
ATOM     19  C   UNL A   1      38.036  21.076  25.370  1.00  0.00     0.255 A 
ATOM     20  N   UNL A   1      38.992  21.867  25.985  1.00  0.00    -0.258 N 
ATOM     21  O   UNL A   1      38.190  19.916  25.004  1.00  0.00    -0.269 OA
BRANCH  20  22
ATOM     22  C   UNL A   1      40.303  21.293  26.150  1.00  0.00     0.451 C 
ATOM     23  F   UNL A   1      41.266  22.135  25.705  1.00  0.00    -0.185 F 
ATOM     24  F   UNL A   1      40.554  21.018  27.454  1.00  0.00    -0.185 F 
ENDBRANCH  20  22
ENDBRANCH  11  15
ENDBRANCH   7   8
ENDBRANCH   4   7
ENDBRANCH   2   3
ENDBRANCH   1   2
BRANCH   1  25
ATOM     25  C   UNL A   1      33.015  29.724  27.195  1.00  0.00     0.023 C 
BRANCH  25  26
ATOM     26  C   UNL A   1      34.441  30.221  27.019  1.00  0.00     0.116 C 
BRANCH  26  27
ATOM     27  N   UNL A   1      34.923  31.124  28.052  1.00  0.00    -0.352 N 
ATOM     28  C   UNL A   1      35.969  30.968  28.951  1.00  0.00     0.251 C 
ATOM     29  H   UNL A   1      34.433  31.976  28.125  1.00  0.00     0.163 HD
ATOM     30  O   UNL A   1      36.123  31.780  29.847  1.00  0.00    -0.269 OA
BRANCH  28  31
ATOM     31  C   UNL A   1      36.985  29.898  28.744  1.00  0.00     0.039 A 
ATOM     32  C   UNL A   1      37.165  28.951  29.763  1.00  0.00     0.014 A 
ATOM     33  C   UNL A   1      37.876  29.931  27.678  1.00  0.00     0.014 A 
ATOM     34  C   UNL A   1      38.360  28.233  29.838  1.00  0.00     0.010 A 
ATOM     35  C   UNL A   1      39.109  29.328  27.817  1.00  0.00     0.010 A 
ATOM     36  C   UNL A   1      39.373  28.524  28.926  1.00  0.00    -0.014 A 
BRANCH  36  37
ATOM     37  C   UNL A   1      40.768  28.150  29.116  1.00  0.00     0.031 A 
ATOM     38  C   UNL A   1      41.332  26.945  28.471  1.00  0.00     0.074 A 
ATOM     39  C   UNL A   1      41.591  29.001  29.771  1.00  0.00     0.049 A 
ATOM     40  N   UNL A   1      42.362  26.310  28.922  1.00  0.00    -0.248 NA
ATOM     41  C   UNL A   1      40.768  26.345  27.267  1.00  0.00     0.031 C 
ATOM     42  C   UNL A   1      43.052  28.990  29.768  1.00  0.00     0.029 A 
ATOM     43  N   UNL A   1      41.253  29.983  30.716  1.00  0.00    -0.354 N 
ATOM     44  C   UNL A   1      42.755  25.416  27.955  1.00  0.00     0.074 A 
ATOM     45  C   UNL A   1      41.696  25.428  26.971  1.00  0.00     0.031 C 
ATOM     46  C   UNL A   1      43.496  29.691  30.822  1.00  0.00     0.029 A 
ATOM     47  C   UNL A   1      42.337  30.047  31.620  1.00  0.00     0.049 A 
ATOM     48  H   UNL A   1      40.426  30.519  30.743  1.00  0.00     0.167 HD
ATOM     49  C   UNL A   1      44.001  24.863  28.009  1.00  0.00     0.037 A 
ATOM     50  C   UNL A   1      42.187  29.753  32.944  1.00  0.00     0.037 A 
ATOM     51  C   UNL A   1      44.759  25.372  29.145  1.00  0.00     0.049 A 
ATOM     52  C   UNL A   1      43.055  28.616  33.422  1.00  0.00     0.074 A 
ATOM     53  C   UNL A   1      45.689  26.395  29.248  1.00  0.00     0.029 A 
ATOM     54  N   UNL A   1      44.379  25.050  30.443  1.00  0.00    -0.354 N 
ATOM     55  N   UNL A   1      43.570  27.721  32.629  1.00  0.00    -0.248 NA
ATOM     56  C   UNL A   1      43.379  28.374  34.825  1.00  0.00     0.031 C 
ATOM     57  C   UNL A   1      45.862  26.697  30.617  1.00  0.00     0.029 A 
ATOM     58  C   UNL A   1      45.043  25.855  31.348  1.00  0.00     0.049 A 
ATOM     59  H   UNL A   1      43.730  24.349  30.682  1.00  0.00     0.167 HD
ATOM     60  C   UNL A   1      44.248  26.788  33.372  1.00  0.00     0.074 A 
ATOM     61  C   UNL A   1      44.115  27.252  34.739  1.00  0.00     0.031 C 
ATOM     62  C   UNL A   1      44.847  25.712  32.782  1.00  0.00     0.037 A 
BRANCH  49  63
ATOM     63  C   UNL A   1      44.630  24.116  26.857  1.00  0.00     0.064 A 
ATOM     64  C   UNL A   1      44.368  22.745  26.644  1.00  0.00     0.173 A 
ATOM     65  C   UNL A   1      45.531  24.696  25.947  1.00  0.00     0.173 A 
ATOM     66  F   UNL A   1      43.451  22.084  27.361  1.00  0.00    -0.203 F 
ATOM     67  C   UNL A   1      45.048  21.992  25.685  1.00  0.00     0.198 A 
ATOM     68  C   UNL A   1      46.249  23.933  25.019  1.00  0.00     0.198 A 
ATOM     69  F   UNL A   1      45.716  26.023  25.910  1.00  0.00    -0.203 F 
ATOM     70  F   UNL A   1      44.768  20.689  25.542  1.00  0.00    -0.200 F 
ATOM     71  C   UNL A   1      46.018  22.578  24.899  1.00  0.00     0.200 A 
ATOM     72  F   UNL A   1      47.174  24.522  24.248  1.00  0.00    -0.200 F 
ATOM     73  F   UNL A   1      46.707  21.844  24.016  1.00  0.00    -0.200 F 
ENDBRANCH  49  63
BRANCH  50  74
ATOM     74  C   UNL A   1      40.825  30.047  33.455  1.00  0.00     0.064 A 
ATOM     75  C   UNL A   1      40.499  31.385  33.745  1.00  0.00     0.173 A 
ATOM     76  C   UNL A   1      39.771  29.145  33.271  1.00  0.00     0.173 A 
ATOM     77  F   UNL A   1      41.477  32.288  33.924  1.00  0.00    -0.203 F 
ATOM     78  C   UNL A   1      39.178  31.825  33.727  1.00  0.00     0.198 A 
ATOM     79  C   UNL A   1      38.448  29.589  33.264  1.00  0.00     0.198 A 
ATOM     80  F   UNL A   1      40.021  27.862  32.973  1.00  0.00    -0.203 F 
ATOM     81  F   UNL A   1      38.910  33.129  33.889  1.00  0.00    -0.200 F 
ATOM     82  C   UNL A   1      38.155  30.932  33.457  1.00  0.00     0.200 A 
ATOM     83  F   UNL A   1      37.460  28.731  32.970  1.00  0.00    -0.200 F 
ATOM     84  F   UNL A   1      36.894  31.369  33.336  1.00  0.00    -0.200 F 
ENDBRANCH  50  74
BRANCH  62  85
ATOM     85  C   UNL A   1      45.405  24.488  33.471  1.00  0.00     0.064 A 
ATOM     86  C   UNL A   1      46.681  24.424  34.053  1.00  0.00     0.173 A 
ATOM     87  C   UNL A   1      44.581  23.355  33.698  1.00  0.00     0.173 A 
ATOM     88  F   UNL A   1      47.519  25.468  34.018  1.00  0.00    -0.203 F 
ATOM     89  C   UNL A   1      47.121  23.295  34.752  1.00  0.00     0.198 A 
ATOM     90  C   UNL A   1      45.002  22.257  34.446  1.00  0.00     0.198 A 
ATOM     91  F   UNL A   1      43.328  23.289  33.224  1.00  0.00    -0.203 F 
ATOM     92  F   UNL A   1      48.365  23.270  35.252  1.00  0.00    -0.200 F 
ATOM     93  C   UNL A   1      46.279  22.219  34.959  1.00  0.00     0.200 A 
ATOM     94  F   UNL A   1      44.152  21.248  34.682  1.00  0.00    -0.200 F 
ATOM     95  F   UNL A   1      46.690  21.162  35.671  1.00  0.00    -0.200 F 
ENDBRANCH  62  85
ENDBRANCH  36  37
ENDBRANCH  28  31
ENDBRANCH  26  27
ENDBRANCH  25  26
ENDBRANCH   1  25
TORSDOF 14
ENDMDL
MODEL 2
REMARK VINA RESULT:     -12.9      2.065      2.317
REMARK SMILES Cc1c(CC(=O)NCCCCNC(=O)c2ccc(-c3c4nc(c(-c5c(F)c(F)c(F)c(F)c5F)c5ccc([nH]5)c(-c5c(F)c(F)c(F)c(F)c5F)c5nc(c(-c6c(F)c(F)c(F)c(F)c6F)c6ccc3[nH]6)C=C5)C=C4)cc2)cccc1-c1ccn(C(F)F)c(=O)c1
REMARK SMILES IDX 9 1 8 2 7 3 5 4 6 5 4 7 3 8 1 9 2 10 81 11 78 12 80 13 79 14
REMARK SMILES IDX 82 15 83 16 91 17 84 18 89 19 85 20 90 21 86 22 87 23 88 24
REMARK SMILES IDX 10 25 11 26 12 27 13 28 14 30 15 31 16 32 77 33 17 34 76 35
REMARK SMILES IDX 18 36 19 37 20 38 70 39 21 40 75 41 69 42 71 43 22 44 74 45
REMARK SMILES IDX 68 46 67 47 23 49 55 50 35 51 54 52 36 53 39 54 53 55 72 56
REMARK SMILES IDX 37 57 38 58 52 60 73 61 40 62 24 63 25 64 33 65 26 66 27 67
REMARK SMILES IDX 31 68 34 69 28 70 29 71 32 72 30 73 56 74 57 75 65 76 58 77
REMARK SMILES IDX 59 78 63 79 66 80 60 81 61 82 64 83 62 84 41 85 42 86 50 87
REMARK SMILES IDX 43 88 44 89 48 90 51 91 45 92 46 93 49 94 47 95
REMARK H PARENT 7 6 12 29 71 48 39 59
REMARK Flexibility Score: inf
ROOT
ATOM      1  C   UNL A   1      31.700  29.577  27.181  1.00  0.00     0.023 C 
ENDROOT
BRANCH   1   2
ATOM      2  C   UNL A   1      32.199  28.314  26.463  1.00  0.00     0.116 C 
BRANCH   2   3
ATOM      3  N   UNL A   1      31.378  27.141  26.712  1.00  0.00    -0.356 N 
ATOM      4  C   UNL A   1      31.659  25.817  26.533  1.00  0.00     0.224 C 
ATOM      5  O   UNL A   1      30.790  24.998  26.842  1.00  0.00    -0.275 OA
ATOM      6  H   UNL A   1      30.479  27.331  27.064  1.00  0.00     0.163 HD
BRANCH   4   7
ATOM      7  C   UNL A   1      33.019  25.355  26.021  1.00  0.00     0.135 C 
BRANCH   7   8
ATOM      8  C   UNL A   1      32.946  24.222  25.015  1.00  0.00    -0.035 A 
ATOM      9  C   UNL A   1      33.205  22.437  26.814  1.00  0.00     0.045 C 
ATOM     10  C   UNL A   1      33.133  22.859  25.363  1.00  0.00    -0.040 A 
ATOM     11  C   UNL A   1      33.205  21.894  24.325  1.00  0.00    -0.015 A 
ATOM     12  C   UNL A   1      32.736  24.572  23.665  1.00  0.00     0.004 A 
ATOM     13  C   UNL A   1      33.020  22.284  22.987  1.00  0.00     0.009 A 
ATOM     14  C   UNL A   1      32.769  23.611  22.661  1.00  0.00     0.001 A 
BRANCH  11  15
ATOM     15  C   UNL A   1      33.551  20.480  24.592  1.00  0.00    -0.011 A 
ATOM     16  C   UNL A   1      34.914  19.993  24.660  1.00  0.00     0.027 A 
ATOM     17  C   UNL A   1      32.536  19.603  24.692  1.00  0.00     0.080 A 
ATOM     18  C   UNL A   1      35.160  18.680  24.730  1.00  0.00     0.095 A 
ATOM     19  C   UNL A   1      32.795  18.144  24.833  1.00  0.00     0.255 A 
ATOM     20  N   UNL A   1      34.126  17.763  24.792  1.00  0.00    -0.258 N 
ATOM     21  O   UNL A   1      31.835  17.389  24.951  1.00  0.00    -0.269 OA
BRANCH  20  22
ATOM     22  C   UNL A   1      34.400  16.350  24.828  1.00  0.00     0.451 C 
ATOM     23  F   UNL A   1      34.434  15.825  23.579  1.00  0.00    -0.185 F 
ATOM     24  F   UNL A   1      35.592  16.099  25.422  1.00  0.00    -0.185 F 
ENDBRANCH  20  22
ENDBRANCH  11  15
ENDBRANCH   7   8
ENDBRANCH   4   7
ENDBRANCH   2   3
ENDBRANCH   1   2
BRANCH   1  25
ATOM     25  C   UNL A   1      32.678  30.754  27.191  1.00  0.00     0.023 C 
BRANCH  25  26
ATOM     26  C   UNL A   1      34.082  30.380  27.635  1.00  0.00     0.116 C 
BRANCH  26  27
ATOM     27  N   UNL A   1      34.717  31.308  28.557  1.00  0.00    -0.352 N 
ATOM     28  C   UNL A   1      35.856  31.148  29.336  1.00  0.00     0.251 C 
ATOM     29  H   UNL A   1      34.272  32.183  28.642  1.00  0.00     0.163 HD
ATOM     30  O   UNL A   1      36.146  31.994  30.164  1.00  0.00    -0.269 OA
BRANCH  28  31
ATOM     31  C   UNL A   1      36.799  30.025  29.067  1.00  0.00     0.039 A 
ATOM     32  C   UNL A   1      37.028  29.096  30.093  1.00  0.00     0.014 A 
ATOM     33  C   UNL A   1      37.587  29.989  27.924  1.00  0.00     0.014 A 
ATOM     34  C   UNL A   1      38.191  28.324  30.078  1.00  0.00     0.010 A 
ATOM     35  C   UNL A   1      38.799  29.332  27.967  1.00  0.00     0.010 A 
ATOM     36  C   UNL A   1      39.128  28.543  29.070  1.00  0.00    -0.014 A 
BRANCH  36  37
ATOM     37  C   UNL A   1      40.516  28.108  29.142  1.00  0.00     0.031 A 
ATOM     38  C   UNL A   1      40.949  26.830  28.539  1.00  0.00     0.074 A 
ATOM     39  C   UNL A   1      41.444  28.957  29.639  1.00  0.00     0.049 A 
ATOM     40  N   UNL A   1      41.991  26.172  28.929  1.00  0.00    -0.248 NA
ATOM     41  C   UNL A   1      40.231  26.175  27.451  1.00  0.00     0.031 C 
ATOM     42  C   UNL A   1      42.894  28.865  29.486  1.00  0.00     0.029 A 
ATOM     43  N   UNL A   1      41.257  30.023  30.534  1.00  0.00    -0.354 N 
ATOM     44  C   UNL A   1      42.234  25.190  27.999  1.00  0.00     0.074 A 
ATOM     45  C   UNL A   1      41.077  25.189  27.133  1.00  0.00     0.031 C 
ATOM     46  C   UNL A   1      43.482  29.615  30.429  1.00  0.00     0.029 A 
ATOM     47  C   UNL A   1      42.434  30.092  31.313  1.00  0.00     0.049 A 
ATOM     48  H   UNL A   1      40.464  30.604  30.606  1.00  0.00     0.167 HD
ATOM     49  C   UNL A   1      43.451  24.575  27.966  1.00  0.00     0.037 A 
ATOM     50  C   UNL A   1      42.414  29.904  32.665  1.00  0.00     0.037 A 
ATOM     51  C   UNL A   1      44.350  25.122  28.974  1.00  0.00     0.049 A 
ATOM     52  C   UNL A   1      43.274  28.759  33.137  1.00  0.00     0.074 A 
ATOM     53  C   UNL A   1      45.333  26.096  28.899  1.00  0.00     0.029 A 
ATOM     54  N   UNL A   1      44.098  24.917  30.325  1.00  0.00    -0.354 N 
ATOM     55  N   UNL A   1      43.657  27.781  32.368  1.00  0.00    -0.248 NA
ATOM     56  C   UNL A   1      43.735  28.602  34.513  1.00  0.00     0.031 C 
ATOM     57  C   UNL A   1      45.668  26.488  30.214  1.00  0.00     0.029 A 
ATOM     58  C   UNL A   1      44.893  25.748  31.091  1.00  0.00     0.049 A 
ATOM     59  H   UNL A   1      43.447  24.272  30.685  1.00  0.00     0.167 HD
ATOM     60  C   UNL A   1      44.367  26.869  33.107  1.00  0.00     0.074 A 
ATOM     61  C   UNL A   1      44.404  27.438  34.440  1.00  0.00     0.031 C 
ATOM     62  C   UNL A   1      44.846  25.721  32.544  1.00  0.00     0.037 A 
BRANCH  49  63
ATOM     63  C   UNL A   1      43.916  23.711  26.818  1.00  0.00     0.064 A 
ATOM     64  C   UNL A   1      43.467  22.380  26.673  1.00  0.00     0.173 A 
ATOM     65  C   UNL A   1      44.836  24.136  25.843  1.00  0.00     0.173 A 
ATOM     66  F   UNL A   1      42.511  21.871  27.460  1.00  0.00    -0.203 F 
ATOM     67  C   UNL A   1      43.992  21.512  25.715  1.00  0.00     0.198 A 
ATOM     68  C   UNL A   1      45.399  23.253  24.914  1.00  0.00     0.198 A 
ATOM     69  F   UNL A   1      45.190  25.425  25.742  1.00  0.00    -0.203 F 
ATOM     70  F   UNL A   1      43.537  20.253  25.640  1.00  0.00    -0.200 F 
ATOM     71  C   UNL A   1      44.987  21.937  24.861  1.00  0.00     0.200 A 
ATOM     72  F   UNL A   1      46.351  23.688  24.076  1.00  0.00    -0.200 F 
ATOM     73  F   UNL A   1      45.528  21.089  23.976  1.00  0.00    -0.200 F 
ENDBRANCH  49  63
BRANCH  50  74
ATOM     74  C   UNL A   1      41.131  30.310  33.290  1.00  0.00     0.064 A 
ATOM     75  C   UNL A   1      40.892  31.683  33.487  1.00  0.00     0.173 A 
ATOM     76  C   UNL A   1      40.028  29.448  33.307  1.00  0.00     0.173 A 
ATOM     77  F   UNL A   1      41.919  32.549  33.473  1.00  0.00    -0.203 F 
ATOM     78  C   UNL A   1      39.596  32.185  33.570  1.00  0.00     0.198 A 
ATOM     79  C   UNL A   1      38.730  29.955  33.401  1.00  0.00     0.198 A 
ATOM     80  F   UNL A   1      40.192  28.133  33.105  1.00  0.00    -0.203 F 
ATOM     81  F   UNL A   1      39.399  33.509  33.636  1.00  0.00    -0.200 F 
ATOM     82  C   UNL A   1      38.515  31.322  33.497  1.00  0.00     0.200 A 
ATOM     83  F   UNL A   1      37.683  29.124  33.298  1.00  0.00    -0.200 F 
ATOM     84  F   UNL A   1      37.266  31.809  33.472  1.00  0.00    -0.200 F 
ENDBRANCH  50  74
BRANCH  62  85
ATOM     85  C   UNL A   1      45.417  24.522  33.266  1.00  0.00     0.064 A 
ATOM     86  C   UNL A   1      46.704  24.477  33.824  1.00  0.00     0.173 A 
ATOM     87  C   UNL A   1      44.597  23.399  33.548  1.00  0.00     0.173 A 
ATOM     88  F   UNL A   1      47.542  25.517  33.736  1.00  0.00    -0.203 F 
ATOM     89  C   UNL A   1      47.157  23.373  34.554  1.00  0.00     0.198 A 
ATOM     90  C   UNL A   1      45.032  22.327  34.327  1.00  0.00     0.198 A 
ATOM     91  F   UNL A   1      43.334  23.318  33.102  1.00  0.00    -0.203 F 
ATOM     92  F   UNL A   1      48.411  23.363  35.030  1.00  0.00    -0.200 F 
ATOM     93  C   UNL A   1      46.319  22.306  34.816  1.00  0.00     0.200 A 
ATOM     94  F   UNL A   1      44.186  21.328  34.615  1.00  0.00    -0.200 F 
ATOM     95  F   UNL A   1      46.742  21.274  35.557  1.00  0.00    -0.200 F 
ENDBRANCH  62  85
ENDBRANCH  36  37
ENDBRANCH  28  31
ENDBRANCH  26  27
ENDBRANCH  25  26
ENDBRANCH   1  25
TORSDOF 14
ENDMDL
MODEL 3
REMARK VINA RESULT:     -12.9      4.161     10.388
REMARK SMILES Cc1c(CC(=O)NCCCCNC(=O)c2ccc(-c3c4nc(c(-c5c(F)c(F)c(F)c(F)c5F)c5ccc([nH]5)c(-c5c(F)c(F)c(F)c(F)c5F)c5nc(c(-c6c(F)c(F)c(F)c(F)c6F)c6ccc3[nH]6)C=C5)C=C4)cc2)cccc1-c1ccn(C(F)F)c(=O)c1
REMARK SMILES IDX 9 1 8 2 7 3 5 4 6 5 4 7 3 8 1 9 2 10 81 11 78 12 80 13 79 14
REMARK SMILES IDX 82 15 83 16 91 17 84 18 89 19 85 20 90 21 86 22 87 23 88 24
REMARK SMILES IDX 10 25 11 26 12 27 13 28 14 30 15 31 16 32 77 33 17 34 76 35
REMARK SMILES IDX 18 36 19 37 20 38 70 39 21 40 75 41 69 42 71 43 22 44 74 45
REMARK SMILES IDX 68 46 67 47 23 49 55 50 35 51 54 52 36 53 39 54 53 55 72 56
REMARK SMILES IDX 37 57 38 58 52 60 73 61 40 62 24 63 25 64 33 65 26 66 27 67
REMARK SMILES IDX 31 68 34 69 28 70 29 71 32 72 30 73 56 74 57 75 65 76 58 77
REMARK SMILES IDX 59 78 63 79 66 80 60 81 61 82 64 83 62 84 41 85 42 86 50 87
REMARK SMILES IDX 43 88 44 89 48 90 51 91 45 92 46 93 49 94 47 95
REMARK H PARENT 7 6 12 29 71 48 39 59
REMARK Flexibility Score: inf
ROOT
ATOM      1  C   UNL A   1      36.006  20.823  25.045  1.00  0.00     0.023 C 
ENDROOT
BRANCH   1   2
ATOM      2  C   UNL A   1      35.073  22.044  25.015  1.00  0.00     0.116 C 
BRANCH   2   3
ATOM      3  N   UNL A   1      34.679  22.441  23.675  1.00  0.00    -0.356 N 
ATOM      4  C   UNL A   1      34.272  23.656  23.202  1.00  0.00     0.224 C 
ATOM      5  O   UNL A   1      34.007  23.745  22.000  1.00  0.00    -0.275 OA
ATOM      6  H   UNL A   1      34.709  21.722  23.003  1.00  0.00     0.163 HD
BRANCH   4   7
ATOM      7  C   UNL A   1      34.198  24.879  24.110  1.00  0.00     0.135 C 
BRANCH   7   8
ATOM      8  C   UNL A   1      32.788  25.379  24.356  1.00  0.00    -0.035 A 
ATOM      9  C   UNL A   1      33.071  27.349  22.765  1.00  0.00     0.045 C 
ATOM     10  C   UNL A   1      32.285  26.589  23.811  1.00  0.00    -0.040 A 
ATOM     11  C   UNL A   1      31.010  27.048  24.231  1.00  0.00    -0.015 A 
ATOM     12  C   UNL A   1      31.974  24.614  25.217  1.00  0.00     0.004 A 
ATOM     13  C   UNL A   1      30.238  26.273  25.114  1.00  0.00     0.009 A 
ATOM     14  C   UNL A   1      30.711  25.055  25.590  1.00  0.00     0.001 A 
BRANCH  11  15
ATOM     15  C   UNL A   1      30.482  28.371  23.830  1.00  0.00    -0.011 A 
ATOM     16  C   UNL A   1      30.746  29.590  24.568  1.00  0.00     0.027 A 
ATOM     17  C   UNL A   1      29.650  28.412  22.774  1.00  0.00     0.080 A 
ATOM     18  C   UNL A   1      30.102  30.721  24.258  1.00  0.00     0.095 A 
ATOM     19  C   UNL A   1      28.974  29.678  22.379  1.00  0.00     0.255 A 
ATOM     20  N   UNL A   1      29.212  30.767  23.200  1.00  0.00    -0.258 N 
ATOM     21  O   UNL A   1      28.249  29.668  21.390  1.00  0.00    -0.269 OA
BRANCH  20  22
ATOM     22  C   UNL A   1      28.494  31.979  22.898  1.00  0.00     0.451 C 
ATOM     23  F   UNL A   1      27.278  31.989  23.495  1.00  0.00    -0.185 F 
ATOM     24  F   UNL A   1      29.179  33.070  23.320  1.00  0.00    -0.185 F 
ENDBRANCH  20  22
ENDBRANCH  11  15
ENDBRANCH   7   8
ENDBRANCH   4   7
ENDBRANCH   2   3
ENDBRANCH   1   2
BRANCH   1  25
ATOM     25  C   UNL A   1      37.490  21.127  24.825  1.00  0.00     0.023 C 
BRANCH  25  26
ATOM     26  C   UNL A   1      38.035  22.211  25.740  1.00  0.00     0.116 C 
BRANCH  26  27
ATOM     27  N   UNL A   1      39.435  22.076  26.108  1.00  0.00    -0.352 N 
ATOM     28  C   UNL A   1      40.352  23.048  26.487  1.00  0.00     0.251 C 
ATOM     29  H   UNL A   1      39.787  21.156  26.085  1.00  0.00     0.163 HD
ATOM     30  O   UNL A   1      41.529  22.753  26.613  1.00  0.00    -0.269 OA
BRANCH  28  31
ATOM     31  C   UNL A   1      39.887  24.408  26.880  1.00  0.00     0.039 A 
ATOM     32  C   UNL A   1      40.420  25.511  26.195  1.00  0.00     0.014 A 
ATOM     33  C   UNL A   1      39.107  24.618  28.010  1.00  0.00     0.014 A 
ATOM     34  C   UNL A   1      40.386  26.775  26.787  1.00  0.00     0.010 A 
ATOM     35  C   UNL A   1      39.187  25.831  28.662  1.00  0.00     0.010 A 
ATOM     36  C   UNL A   1      39.875  26.895  28.079  1.00  0.00    -0.014 A 
BRANCH  36  37
ATOM     37  C   UNL A   1      40.125  28.037  28.948  1.00  0.00     0.031 A 
ATOM     38  C   UNL A   1      39.149  29.142  29.058  1.00  0.00     0.074 A 
ATOM     39  C   UNL A   1      41.195  28.009  29.774  1.00  0.00     0.049 A 
ATOM     40  N   UNL A   1      39.467  30.343  29.416  1.00  0.00    -0.248 NA
ATOM     41  C   UNL A   1      37.730  28.989  28.757  1.00  0.00     0.031 C 
ATOM     42  C   UNL A   1      41.430  28.859  30.939  1.00  0.00     0.029 A 
ATOM     43  N   UNL A   1      42.387  27.282  29.630  1.00  0.00    -0.354 N 
ATOM     44  C   UNL A   1      38.299  31.027  29.654  1.00  0.00     0.074 A 
ATOM     45  C   UNL A   1      37.246  30.165  29.170  1.00  0.00     0.031 C 
ATOM     46  C   UNL A   1      42.735  28.828  31.247  1.00  0.00     0.029 A 
ATOM     47  C   UNL A   1      43.405  28.079  30.200  1.00  0.00     0.049 A 
ATOM     48  H   UNL A   1      42.493  26.395  29.214  1.00  0.00     0.167 HD
ATOM     49  C   UNL A   1      38.330  32.190  30.368  1.00  0.00     0.037 A 
ATOM     50  C   UNL A   1      44.451  28.547  29.458  1.00  0.00     0.037 A 
ATOM     51  C   UNL A   1      39.683  32.509  30.805  1.00  0.00     0.049 A 
ATOM     52  C   UNL A   1      44.562  30.051  29.437  1.00  0.00     0.074 A 
ATOM     53  C   UNL A   1      40.345  32.274  32.000  1.00  0.00     0.029 A 
ATOM     54  N   UNL A   1      40.656  32.861  29.876  1.00  0.00    -0.354 N 
ATOM     55  N   UNL A   1      43.571  30.851  29.710  1.00  0.00    -0.248 NA
ATOM     56  C   UNL A   1      45.778  30.772  29.071  1.00  0.00     0.031 C 
ATOM     57  C   UNL A   1      41.726  32.475  31.786  1.00  0.00     0.029 A 
ATOM     58  C   UNL A   1      41.906  32.839  30.463  1.00  0.00     0.049 A 
ATOM     59  H   UNL A   1      40.479  33.092  28.935  1.00  0.00     0.167 HD
ATOM     60  C   UNL A   1      43.972  32.151  29.537  1.00  0.00     0.074 A 
ATOM     61  C   UNL A   1      45.367  32.049  29.156  1.00  0.00     0.031 C 
ATOM     62  C   UNL A   1      43.104  33.190  29.717  1.00  0.00     0.037 A 
BRANCH  49  63
ATOM     63  C   UNL A   1      37.096  32.851  30.932  1.00  0.00     0.064 A 
ATOM     64  C   UNL A   1      36.663  32.592  32.251  1.00  0.00     0.173 A 
ATOM     65  C   UNL A   1      36.275  33.729  30.201  1.00  0.00     0.173 A 
ATOM     66  F   UNL A   1      37.397  31.863  33.102  1.00  0.00    -0.203 F 
ATOM     67  C   UNL A   1      35.449  33.066  32.749  1.00  0.00     0.198 A 
ATOM     68  C   UNL A   1      35.034  34.164  30.681  1.00  0.00     0.198 A 
ATOM     69  F   UNL A   1      36.668  34.215  29.015  1.00  0.00    -0.203 F 
ATOM     70  F   UNL A   1      35.085  32.770  34.005  1.00  0.00    -0.200 F 
ATOM     71  C   UNL A   1      34.615  33.819  31.950  1.00  0.00     0.200 A 
ATOM     72  F   UNL A   1      34.245  34.913  29.899  1.00  0.00    -0.200 F 
ATOM     73  F   UNL A   1      33.426  34.230  32.409  1.00  0.00    -0.200 F 
ENDBRANCH  49  63
BRANCH  50  74
ATOM     74  C   UNL A   1      44.805  27.659  28.323  1.00  0.00     0.064 A 
ATOM     75  C   UNL A   1      45.503  26.470  28.603  1.00  0.00     0.173 A 
ATOM     76  C   UNL A   1      44.136  27.749  27.097  1.00  0.00     0.173 A 
ATOM     77  F   UNL A   1      46.154  26.336  29.770  1.00  0.00    -0.203 F 
ATOM     78  C   UNL A   1      45.431  25.373  27.748  1.00  0.00     0.198 A 
ATOM     79  C   UNL A   1      44.075  26.650  26.238  1.00  0.00     0.198 A 
ATOM     80  F   UNL A   1      43.437  28.850  26.785  1.00  0.00    -0.203 F 
ATOM     81  F   UNL A   1      46.009  24.216  28.101  1.00  0.00    -0.200 F 
ATOM     82  C   UNL A   1      44.691  25.455  26.580  1.00  0.00     0.200 A 
ATOM     83  F   UNL A   1      43.332  26.718  25.124  1.00  0.00    -0.200 F 
ATOM     84  F   UNL A   1      44.533  24.372  25.807  1.00  0.00    -0.200 F 
ENDBRANCH  50  74
BRANCH  62  85
ATOM     85  C   UNL A   1      43.319  34.635  29.329  1.00  0.00     0.064 A 
ATOM     86  C   UNL A   1      43.439  35.688  30.249  1.00  0.00     0.173 A 
ATOM     87  C   UNL A   1      43.563  34.984  27.976  1.00  0.00     0.173 A 
ATOM     88  F   UNL A   1      43.350  35.479  31.568  1.00  0.00    -0.203 F 
ATOM     89  C   UNL A   1      43.720  36.998  29.844  1.00  0.00     0.198 A 
ATOM     90  C   UNL A   1      43.901  36.278  27.583  1.00  0.00     0.198 A 
ATOM     91  F   UNL A   1      43.509  34.074  26.992  1.00  0.00    -0.203 F 
ATOM     92  F   UNL A   1      43.782  37.975  30.760  1.00  0.00    -0.200 F 
ATOM     93  C   UNL A   1      43.963  37.290  28.516  1.00  0.00     0.200 A 
ATOM     94  F   UNL A   1      44.187  36.529  26.298  1.00  0.00    -0.200 F 
ATOM     95  F   UNL A   1      44.279  38.536  28.140  1.00  0.00    -0.200 F 
ENDBRANCH  62  85
ENDBRANCH  36  37
ENDBRANCH  28  31
ENDBRANCH  26  27
ENDBRANCH  25  26
ENDBRANCH   1  25
TORSDOF 14
ENDMDL
