MODEL 1
REMARK VINA RESULT:     -12.0      0.000      0.000
REMARK SMILES COc1ccc(CC(=O)NCCCCNC(=O)c2ccc(-c3c4nc(c(-c5c(F)c(F)c(F)c(F)c5F)c5ccc([nH]5)c(-c5c(F)c(F)c(F)c(F)c5F)c5nc(c(-c6c(F)c(F)c(F)c(F)c6F)c6ccc3[nH]6)C=C5)C=C4)cc2)cc1S(=O)(=O)Nc1ccccc1Br
REMARK SMILES IDX 11 1 10 2 8 3 9 4 7 6 6 7 3 8 4 9 82 10 5 11 81 12 2 13 1 14
REMARK SMILES IDX 83 15 84 16 85 17 86 18 87 20 88 21 92 22 89 23 91 24 93 25
REMARK SMILES IDX 90 26 12 27 13 28 14 29 15 30 16 31 17 33 18 34 19 35 80 36
REMARK SMILES IDX 20 37 79 38 21 39 22 40 23 41 73 42 24 43 78 44 72 45 74 46
REMARK SMILES IDX 25 47 77 48 71 49 70 50 26 52 58 53 38 54 57 55 39 56 42 57
REMARK SMILES IDX 56 58 75 59 40 60 41 61 55 63 76 64 43 65 27 66 28 67 36 68
REMARK SMILES IDX 29 69 30 70 34 71 37 72 31 73 32 74 35 75 33 76 59 77 60 78
REMARK SMILES IDX 68 79 61 80 62 81 66 82 69 83 63 84 64 85 67 86 65 87 44 88
REMARK SMILES IDX 45 89 53 90 46 91 47 92 51 93 54 94 48 95 49 96 52 97 50 98
REMARK H PARENT 10 5 86 19 15 32 74 51 42 62
REMARK Flexibility Score: inf
ROOT
ATOM      1  C   UNL A   1      37.912  23.336  26.062  1.00  0.00     0.116 C 
ENDROOT
BRANCH   1   2
ATOM      2  N   UNL A   1      37.528  23.489  24.672  1.00  0.00    -0.356 N 
ATOM      3  C   UNL A   1      36.602  22.778  23.967  1.00  0.00     0.224 C 
ATOM      4  O   UNL A   1      36.510  22.967  22.753  1.00  0.00    -0.275 OA
ATOM      5  H   UNL A   1      37.995  24.199  24.174  1.00  0.00     0.163 HD
BRANCH   3   6
ATOM      6  C   UNL A   1      35.682  21.814  24.691  1.00  0.00     0.135 C 
BRANCH   6   7
ATOM      7  C   UNL A   1      34.508  22.460  25.389  1.00  0.00    -0.037 A 
ATOM      8  C   UNL A   1      32.160  23.431  26.595  1.00  0.00     0.139 A 
ATOM      9  C   UNL A   1      33.147  22.787  27.357  1.00  0.00     0.048 A 
ATOM     10  C   UNL A   1      32.410  23.743  25.268  1.00  0.00     0.129 A 
ATOM     11  C   UNL A   1      34.317  22.312  26.762  1.00  0.00     0.008 A 
ATOM     12  C   UNL A   1      33.560  23.195  24.662  1.00  0.00     0.030 A 
BRANCH   8  13
ATOM     13  O   UNL A   1      31.000  23.697  27.253  1.00  0.00    -0.495 OA
ATOM     14  C   UNL A   1      29.978  22.767  26.888  1.00  0.00     0.278 C 
ENDBRANCH   8  13
BRANCH  10  15
ATOM     15  S   UNL A   1      31.445  24.781  24.204  1.00  0.00     0.265 S 
ATOM     16  O   UNL A   1      32.391  25.480  23.353  1.00  0.00    -0.201 OA
ATOM     17  O   UNL A   1      30.470  23.898  23.590  1.00  0.00    -0.201 OA
BRANCH  15  18
ATOM     18  N   UNL A   1      30.512  25.980  24.927  1.00  0.00    -0.278 N 
ATOM     19  H   UNL A   1      30.085  25.760  25.787  1.00  0.00     0.180 HD
BRANCH  18  20
ATOM     20  C   UNL A   1      30.286  27.288  24.401  1.00  0.00     0.063 A 
ATOM     21  C   UNL A   1      29.215  27.403  23.497  1.00  0.00     0.028 A 
ATOM     22  C   UNL A   1      31.044  28.427  24.697  1.00  0.00     0.042 A 
ATOM     23  C   UNL A   1      28.836  28.644  22.985  1.00  0.00     0.002 A 
ATOM     24  C   UNL A   1      30.654  29.674  24.190  1.00  0.00     0.018 A 
ATOM     25  Br  UNL A   1      32.640  28.371  25.714  1.00  0.00    -0.049 Br
ATOM     26  C   UNL A   1      29.542  29.785  23.354  1.00  0.00     0.001 A 
ENDBRANCH  18  20
ENDBRANCH  15  18
ENDBRANCH  10  15
ENDBRANCH   6   7
ENDBRANCH   3   6
ENDBRANCH   1   2
BRANCH   1  27
ATOM     27  C   UNL A   1      39.277  22.663  26.186  1.00  0.00     0.023 C 
BRANCH  27  28
ATOM     28  C   UNL A   1      39.222  21.175  26.537  1.00  0.00     0.023 C 
BRANCH  28  29
ATOM     29  C   UNL A   1      39.512  20.228  25.380  1.00  0.00     0.116 C 
BRANCH  29  30
ATOM     30  N   UNL A   1      40.412  19.141  25.733  1.00  0.00    -0.352 N 
ATOM     31  C   UNL A   1      41.701  19.213  26.199  1.00  0.00     0.251 C 
ATOM     32  H   UNL A   1      40.046  18.232  25.623  1.00  0.00     0.163 HD
ATOM     33  O   UNL A   1      42.367  18.194  26.362  1.00  0.00    -0.269 OA
BRANCH  31  34
ATOM     34  C   UNL A   1      42.305  20.534  26.463  1.00  0.00     0.039 A 
ATOM     35  C   UNL A   1      42.724  21.307  25.378  1.00  0.00     0.014 A 
ATOM     36  C   UNL A   1      42.430  21.021  27.767  1.00  0.00     0.014 A 
ATOM     37  C   UNL A   1      43.207  22.598  25.595  1.00  0.00     0.010 A 
ATOM     38  C   UNL A   1      42.845  22.332  27.977  1.00  0.00     0.010 A 
ATOM     39  C   UNL A   1      43.236  23.134  26.893  1.00  0.00    -0.014 A 
BRANCH  39  40
ATOM     40  C   UNL A   1      43.666  24.533  27.136  1.00  0.00     0.031 A 
ATOM     41  C   UNL A   1      42.677  25.553  27.624  1.00  0.00     0.074 A 
ATOM     42  C   UNL A   1      44.932  24.899  26.855  1.00  0.00     0.049 A 
ATOM     43  N   UNL A   1      42.842  26.836  27.830  1.00  0.00    -0.248 NA
ATOM     44  C   UNL A   1      41.312  25.074  27.891  1.00  0.00     0.031 C 
ATOM     45  C   UNL A   1      45.971  24.012  26.330  1.00  0.00     0.029 A 
ATOM     46  N   UNL A   1      45.556  26.116  26.960  1.00  0.00    -0.354 N 
ATOM     47  C   UNL A   1      41.604  27.316  28.233  1.00  0.00     0.074 A 
ATOM     48  C   UNL A   1      40.684  26.200  28.193  1.00  0.00     0.031 C 
ATOM     49  C   UNL A   1      47.109  24.708  26.179  1.00  0.00     0.029 A 
ATOM     50  C   UNL A   1      46.870  26.097  26.560  1.00  0.00     0.049 A 
ATOM     51  H   UNL A   1      45.106  26.926  27.290  1.00  0.00     0.167 HD
ATOM     52  C   UNL A   1      41.271  28.569  28.626  1.00  0.00     0.037 A 
ATOM     53  C   UNL A   1      47.778  27.090  26.502  1.00  0.00     0.037 A 
ATOM     54  C   UNL A   1      42.196  29.670  28.688  1.00  0.00     0.049 A 
ATOM     55  C   UNL A   1      47.381  28.474  26.940  1.00  0.00     0.074 A 
ATOM     56  C   UNL A   1      41.971  30.962  29.129  1.00  0.00     0.029 A 
ATOM     57  N   UNL A   1      43.525  29.607  28.295  1.00  0.00    -0.354 N 
ATOM     58  N   UNL A   1      46.225  28.901  27.388  1.00  0.00    -0.248 NA
ATOM     59  C   UNL A   1      48.418  29.513  26.872  1.00  0.00     0.031 C 
ATOM     60  C   UNL A   1      43.151  31.694  28.959  1.00  0.00     0.029 A 
ATOM     61  C   UNL A   1      44.126  30.845  28.462  1.00  0.00     0.049 A 
ATOM     62  H   UNL A   1      43.974  28.803  27.947  1.00  0.00     0.167 HD
ATOM     63  C   UNL A   1      46.403  30.246  27.681  1.00  0.00     0.074 A 
ATOM     64  C   UNL A   1      47.783  30.561  27.375  1.00  0.00     0.031 C 
ATOM     65  C   UNL A   1      45.504  31.139  28.160  1.00  0.00     0.037 A 
BRANCH  52  66
ATOM     66  C   UNL A   1      39.844  28.815  29.022  1.00  0.00     0.064 A 
ATOM     67  C   UNL A   1      39.398  28.598  30.335  1.00  0.00     0.173 A 
ATOM     68  C   UNL A   1      38.919  29.306  28.089  1.00  0.00     0.173 A 
ATOM     69  F   UNL A   1      40.240  28.117  31.263  1.00  0.00    -0.203 F 
ATOM     70  C   UNL A   1      38.073  28.834  30.691  1.00  0.00     0.198 A 
ATOM     71  C   UNL A   1      37.603  29.571  28.456  1.00  0.00     0.198 A 
ATOM     72  F   UNL A   1      39.294  29.537  26.822  1.00  0.00    -0.203 F 
ATOM     73  F   UNL A   1      37.659  28.572  31.939  1.00  0.00    -0.200 F 
ATOM     74  C   UNL A   1      37.178  29.328  29.754  1.00  0.00     0.200 A 
ATOM     75  F   UNL A   1      36.743  30.061  27.553  1.00  0.00    -0.200 F 
ATOM     76  F   UNL A   1      35.905  29.562  30.099  1.00  0.00    -0.200 F 
ENDBRANCH  52  66
BRANCH  53  77
ATOM     77  C   UNL A   1      49.160  26.807  26.034  1.00  0.00     0.064 A 
ATOM     78  C   UNL A   1      49.518  27.002  24.692  1.00  0.00     0.173 A 
ATOM     79  C   UNL A   1      50.146  26.332  26.910  1.00  0.00     0.173 A 
ATOM     80  F   UNL A   1      48.603  27.435  23.812  1.00  0.00    -0.203 F 
ATOM     81  C   UNL A   1      50.804  26.712  24.241  1.00  0.00     0.198 A 
ATOM     82  C   UNL A   1      51.440  26.070  26.463  1.00  0.00     0.198 A 
ATOM     83  F   UNL A   1      49.856  26.133  28.204  1.00  0.00    -0.203 F 
ATOM     84  F   UNL A   1      51.106  26.864  22.944  1.00  0.00    -0.200 F 
ATOM     85  C   UNL A   1      51.765  26.252  25.127  1.00  0.00     0.200 A 
ATOM     86  F   UNL A   1      52.370  25.638  27.325  1.00  0.00    -0.200 F 
ATOM     87  F   UNL A   1      53.003  25.977  24.693  1.00  0.00    -0.200 F 
ENDBRANCH  53  77
BRANCH  65  88
ATOM     88  C   UNL A   1      45.993  32.535  28.420  1.00  0.00     0.064 A 
ATOM     89  C   UNL A   1      45.907  33.539  27.445  1.00  0.00     0.173 A 
ATOM     90  C   UNL A   1      46.517  32.880  29.676  1.00  0.00     0.173 A 
ATOM     91  F   UNL A   1      45.428  33.256  26.224  1.00  0.00    -0.203 F 
ATOM     92  C   UNL A   1      46.352  34.832  27.709  1.00  0.00     0.198 A 
ATOM     93  C   UNL A   1      46.933  34.181  29.945  1.00  0.00     0.198 A 
ATOM     94  F   UNL A   1      46.614  31.959  30.645  1.00  0.00    -0.203 F 
ATOM     95  F   UNL A   1      46.307  35.763  26.747  1.00  0.00    -0.200 F 
ATOM     96  C   UNL A   1      46.858  35.154  28.960  1.00  0.00     0.200 A 
ATOM     97  F   UNL A   1      47.408  34.493  31.159  1.00  0.00    -0.200 F 
ATOM     98  F   UNL A   1      47.279  36.399  29.214  1.00  0.00    -0.200 F 
ENDBRANCH  65  88
ENDBRANCH  39  40
ENDBRANCH  31  34
ENDBRANCH  29  30
ENDBRANCH  28  29
ENDBRANCH  27  28
ENDBRANCH   1  27
TORSDOF 16
ENDMDL
MODEL 2
REMARK VINA RESULT:     -11.9      1.402      7.203
REMARK SMILES COc1ccc(CC(=O)NCCCCNC(=O)c2ccc(-c3c4nc(c(-c5c(F)c(F)c(F)c(F)c5F)c5ccc([nH]5)c(-c5c(F)c(F)c(F)c(F)c5F)c5nc(c(-c6c(F)c(F)c(F)c(F)c6F)c6ccc3[nH]6)C=C5)C=C4)cc2)cc1S(=O)(=O)Nc1ccccc1Br
REMARK SMILES IDX 11 1 10 2 8 3 9 4 7 6 6 7 3 8 4 9 82 10 5 11 81 12 2 13 1 14
REMARK SMILES IDX 83 15 84 16 85 17 86 18 87 20 88 21 92 22 89 23 91 24 93 25
REMARK SMILES IDX 90 26 12 27 13 28 14 29 15 30 16 31 17 33 18 34 19 35 80 36
REMARK SMILES IDX 20 37 79 38 21 39 22 40 23 41 73 42 24 43 78 44 72 45 74 46
REMARK SMILES IDX 25 47 77 48 71 49 70 50 26 52 58 53 38 54 57 55 39 56 42 57
REMARK SMILES IDX 56 58 75 59 40 60 41 61 55 63 76 64 43 65 27 66 28 67 36 68
REMARK SMILES IDX 29 69 30 70 34 71 37 72 31 73 32 74 35 75 33 76 59 77 60 78
REMARK SMILES IDX 68 79 61 80 62 81 66 82 69 83 63 84 64 85 67 86 65 87 44 88
REMARK SMILES IDX 45 89 53 90 46 91 47 92 51 93 54 94 48 95 49 96 52 97 50 98
REMARK H PARENT 10 5 86 19 15 32 74 51 42 62
REMARK Flexibility Score: inf
ROOT
ATOM      1  C   UNL A   1      37.961  23.073  26.088  1.00  0.00     0.116 C 
ENDROOT
BRANCH   1   2
ATOM      2  N   UNL A   1      37.627  23.364  24.707  1.00  0.00    -0.356 N 
ATOM      3  C   UNL A   1      36.669  22.783  23.928  1.00  0.00     0.224 C 
ATOM      4  O   UNL A   1      36.624  23.073  22.731  1.00  0.00    -0.275 OA
ATOM      5  H   UNL A   1      38.160  24.072  24.277  1.00  0.00     0.163 HD
BRANCH   3   6
ATOM      6  C   UNL A   1      35.659  21.840  24.554  1.00  0.00     0.135 C 
BRANCH   6   7
ATOM      7  C   UNL A   1      34.528  22.518  25.290  1.00  0.00    -0.037 A 
ATOM      8  C   UNL A   1      32.240  23.582  26.533  1.00  0.00     0.139 A 
ATOM      9  C   UNL A   1      33.120  22.746  27.238  1.00  0.00     0.048 A 
ATOM     10  C   UNL A   1      32.582  24.026  25.265  1.00  0.00     0.129 A 
ATOM     11  C   UNL A   1      34.261  22.224  26.626  1.00  0.00     0.008 A 
ATOM     12  C   UNL A   1      33.695  23.436  24.632  1.00  0.00     0.030 A 
BRANCH   8  13
ATOM     13  O   UNL A   1      31.085  23.888  27.182  1.00  0.00    -0.495 OA
ATOM     14  C   UNL A   1      30.097  22.877  26.976  1.00  0.00     0.278 C 
ENDBRANCH   8  13
BRANCH  10  15
ATOM     15  S   UNL A   1      31.778  25.285  24.311  1.00  0.00     0.265 S 
ATOM     16  O   UNL A   1      31.605  24.734  22.979  1.00  0.00    -0.201 OA
ATOM     17  O   UNL A   1      30.600  25.652  25.076  1.00  0.00    -0.201 OA
BRANCH  15  18
ATOM     18  N   UNL A   1      32.597  26.740  24.099  1.00  0.00    -0.278 N 
ATOM     19  H   UNL A   1      33.067  26.870  23.244  1.00  0.00     0.180 HD
BRANCH  18  20
ATOM     20  C   UNL A   1      32.670  27.799  25.054  1.00  0.00     0.063 A 
ATOM     21  C   UNL A   1      33.564  27.596  26.120  1.00  0.00     0.028 A 
ATOM     22  C   UNL A   1      31.924  28.983  25.015  1.00  0.00     0.042 A 
ATOM     23  C   UNL A   1      33.793  28.595  27.066  1.00  0.00     0.002 A 
ATOM     24  C   UNL A   1      32.165  29.989  25.961  1.00  0.00     0.018 A 
ATOM     25  Br  UNL A   1      30.531  29.287  23.770  1.00  0.00    -0.049 Br
ATOM     26  C   UNL A   1      33.111  29.803  26.971  1.00  0.00     0.001 A 
ENDBRANCH  18  20
ENDBRANCH  15  18
ENDBRANCH  10  15
ENDBRANCH   6   7
ENDBRANCH   3   6
ENDBRANCH   1   2
BRANCH   1  27
ATOM     27  C   UNL A   1      39.316  22.378  26.193  1.00  0.00     0.023 C 
BRANCH  27  28
ATOM     28  C   UNL A   1      39.348  20.958  25.625  1.00  0.00     0.023 C 
BRANCH  28  29
ATOM     29  C   UNL A   1      39.884  19.896  26.576  1.00  0.00     0.116 C 
BRANCH  29  30
ATOM     30  N   UNL A   1      40.971  19.110  26.013  1.00  0.00    -0.352 N 
ATOM     31  C   UNL A   1      42.279  19.477  25.815  1.00  0.00     0.251 C 
ATOM     32  H   UNL A   1      40.737  18.194  25.738  1.00  0.00     0.163 HD
ATOM     33  O   UNL A   1      43.060  18.727  25.236  1.00  0.00    -0.269 OA
BRANCH  31  34
ATOM     34  C   UNL A   1      42.736  20.807  26.265  1.00  0.00     0.039 A 
ATOM     35  C   UNL A   1      43.202  21.712  25.309  1.00  0.00     0.014 A 
ATOM     36  C   UNL A   1      42.678  21.170  27.613  1.00  0.00     0.014 A 
ATOM     37  C   UNL A   1      43.548  23.008  25.697  1.00  0.00     0.010 A 
ATOM     38  C   UNL A   1      42.956  22.481  27.987  1.00  0.00     0.010 A 
ATOM     39  C   UNL A   1      43.391  23.414  27.031  1.00  0.00    -0.014 A 
BRANCH  39  40
ATOM     40  C   UNL A   1      43.672  24.810  27.448  1.00  0.00     0.031 A 
ATOM     41  C   UNL A   1      45.090  25.286  27.584  1.00  0.00     0.074 A 
ATOM     42  C   UNL A   1      42.650  25.628  27.765  1.00  0.00     0.049 A 
ATOM     43  N   UNL A   1      45.540  26.444  28.000  1.00  0.00    -0.248 NA
ATOM     44  C   UNL A   1      46.146  24.323  27.233  1.00  0.00     0.031 C 
ATOM     45  C   UNL A   1      41.233  25.267  27.720  1.00  0.00     0.029 A 
ATOM     46  N   UNL A   1      42.648  26.930  28.201  1.00  0.00    -0.354 N 
ATOM     47  C   UNL A   1      46.924  26.342  27.974  1.00  0.00     0.074 A 
ATOM     48  C   UNL A   1      47.242  24.995  27.553  1.00  0.00     0.031 C 
ATOM     49  C   UNL A   1      40.497  26.327  28.091  1.00  0.00     0.029 A 
ATOM     50  C   UNL A   1      41.390  27.429  28.435  1.00  0.00     0.049 A 
ATOM     51  H   UNL A   1      43.469  27.455  28.332  1.00  0.00     0.167 HD
ATOM     52  C   UNL A   1      47.846  27.295  28.251  1.00  0.00     0.037 A 
ATOM     53  C   UNL A   1      41.002  28.638  28.885  1.00  0.00     0.037 A 
ATOM     54  C   UNL A   1      47.524  28.641  28.645  1.00  0.00     0.049 A 
ATOM     55  C   UNL A   1      42.047  29.677  29.189  1.00  0.00     0.074 A 
ATOM     56  C   UNL A   1      48.384  29.697  28.890  1.00  0.00     0.029 A 
ATOM     57  N   UNL A   1      46.238  29.117  28.852  1.00  0.00    -0.354 N 
ATOM     58  N   UNL A   1      43.352  29.593  29.094  1.00  0.00    -0.248 NA
ATOM     59  C   UNL A   1      41.564  30.984  29.659  1.00  0.00     0.031 C 
ATOM     60  C   UNL A   1      47.621  30.800  29.291  1.00  0.00     0.029 A 
ATOM     61  C   UNL A   1      46.283  30.446  29.245  1.00  0.00     0.049 A 
ATOM     62  H   UNL A   1      45.415  28.589  28.739  1.00  0.00     0.167 HD
ATOM     63  C   UNL A   1      43.843  30.838  29.461  1.00  0.00     0.074 A 
ATOM     64  C   UNL A   1      42.695  31.666  29.767  1.00  0.00     0.031 C 
ATOM     65  C   UNL A   1      45.129  31.258  29.537  1.00  0.00     0.037 A 
BRANCH  52  66
ATOM     66  C   UNL A   1      49.293  26.913  28.136  1.00  0.00     0.064 A 
ATOM     67  C   UNL A   1      50.042  26.523  29.256  1.00  0.00     0.173 A 
ATOM     68  C   UNL A   1      49.930  26.903  26.886  1.00  0.00     0.173 A 
ATOM     69  F   UNL A   1      49.484  26.527  30.476  1.00  0.00    -0.203 F 
ATOM     70  C   UNL A   1      51.383  26.166  29.134  1.00  0.00     0.198 A 
ATOM     71  C   UNL A   1      51.262  26.516  26.763  1.00  0.00     0.198 A 
ATOM     72  F   UNL A   1      49.259  27.261  25.781  1.00  0.00    -0.203 F 
ATOM     73  F   UNL A   1      52.091  25.846  30.226  1.00  0.00    -0.200 F 
ATOM     74  C   UNL A   1      51.989  26.156  27.887  1.00  0.00     0.200 A 
ATOM     75  F   UNL A   1      51.843  26.493  25.556  1.00  0.00    -0.200 F 
ATOM     76  F   UNL A   1      53.278  25.805  27.770  1.00  0.00    -0.200 F 
ENDBRANCH  52  66
BRANCH  53  77
ATOM     77  C   UNL A   1      39.557  28.941  29.049  1.00  0.00     0.064 A 
ATOM     78  C   UNL A   1      38.785  29.375  27.961  1.00  0.00     0.173 A 
ATOM     79  C   UNL A   1      38.919  28.810  30.290  1.00  0.00     0.173 A 
ATOM     80  F   UNL A   1      39.356  29.536  26.759  1.00  0.00    -0.203 F 
ATOM     81  C   UNL A   1      37.437  29.688  28.115  1.00  0.00     0.198 A 
ATOM     82  C   UNL A   1      37.562  29.096  30.436  1.00  0.00     0.198 A 
ATOM     83  F   UNL A   1      39.610  28.393  31.361  1.00  0.00    -0.203 F 
ATOM     84  F   UNL A   1      36.734  30.145  27.069  1.00  0.00    -0.200 F 
ATOM     85  C   UNL A   1      36.824  29.542  29.350  1.00  0.00     0.200 A 
ATOM     86  F   UNL A   1      36.971  28.941  31.628  1.00  0.00    -0.200 F 
ATOM     87  F   UNL A   1      35.526  29.840  29.496  1.00  0.00    -0.200 F 
ENDBRANCH  53  77
BRANCH  65  88
ATOM     88  C   UNL A   1      45.363  32.687  29.933  1.00  0.00     0.064 A 
ATOM     89  C   UNL A   1      45.385  33.720  28.984  1.00  0.00     0.173 A 
ATOM     90  C   UNL A   1      45.527  33.031  31.284  1.00  0.00     0.173 A 
ATOM     91  F   UNL A   1      45.249  33.441  27.679  1.00  0.00    -0.203 F 
ATOM     92  C   UNL A   1      45.590  35.042  29.371  1.00  0.00     0.198 A 
ATOM     93  C   UNL A   1      45.701  34.357  31.669  1.00  0.00     0.198 A 
ATOM     94  F   UNL A   1      45.507  32.082  32.231  1.00  0.00    -0.203 F 
ATOM     95  F   UNL A   1      45.657  36.006  28.444  1.00  0.00    -0.200 F 
ATOM     96  C   UNL A   1      45.741  35.361  30.713  1.00  0.00     0.200 A 
ATOM     97  F   UNL A   1      45.833  34.664  32.967  1.00  0.00    -0.200 F 
ATOM     98  F   UNL A   1      45.930  36.633  31.084  1.00  0.00    -0.200 F 
ENDBRANCH  65  88
ENDBRANCH  39  40
ENDBRANCH  31  34
ENDBRANCH  29  30
ENDBRANCH  28  29
ENDBRANCH  27  28
ENDBRANCH   1  27
TORSDOF 16
ENDMDL
MODEL 3
REMARK VINA RESULT:     -11.9      6.406     10.999
REMARK SMILES COc1ccc(CC(=O)NCCCCNC(=O)c2ccc(-c3c4nc(c(-c5c(F)c(F)c(F)c(F)c5F)c5ccc([nH]5)c(-c5c(F)c(F)c(F)c(F)c5F)c5nc(c(-c6c(F)c(F)c(F)c(F)c6F)c6ccc3[nH]6)C=C5)C=C4)cc2)cc1S(=O)(=O)Nc1ccccc1Br
REMARK SMILES IDX 11 1 10 2 8 3 9 4 7 6 6 7 3 8 4 9 82 10 5 11 81 12 2 13 1 14
REMARK SMILES IDX 83 15 84 16 85 17 86 18 87 20 88 21 92 22 89 23 91 24 93 25
REMARK SMILES IDX 90 26 12 27 13 28 14 29 15 30 16 31 17 33 18 34 19 35 80 36
REMARK SMILES IDX 20 37 79 38 21 39 22 40 23 41 73 42 24 43 78 44 72 45 74 46
REMARK SMILES IDX 25 47 77 48 71 49 70 50 26 52 58 53 38 54 57 55 39 56 42 57
REMARK SMILES IDX 56 58 75 59 40 60 41 61 55 63 76 64 43 65 27 66 28 67 36 68
REMARK SMILES IDX 29 69 30 70 34 71 37 72 31 73 32 74 35 75 33 76 59 77 60 78
REMARK SMILES IDX 68 79 61 80 62 81 66 82 69 83 63 84 64 85 67 86 65 87 44 88
REMARK SMILES IDX 45 89 53 90 46 91 47 92 51 93 54 94 48 95 49 96 52 97 50 98
REMARK H PARENT 10 5 86 19 15 32 74 51 42 62
REMARK Flexibility Score: inf
ROOT
ATOM      1  C   UNL A   1      34.688  32.033  28.429  1.00  0.00     0.116 C 
ENDROOT
BRANCH   1   2
ATOM      2  N   UNL A   1      33.382  31.751  27.866  1.00  0.00    -0.356 N 
ATOM      3  C   UNL A   1      32.974  30.638  27.189  1.00  0.00     0.224 C 
ATOM      4  O   UNL A   1      31.857  30.639  26.668  1.00  0.00    -0.275 OA
ATOM      5  H   UNL A   1      32.702  32.452  27.990  1.00  0.00     0.163 HD
BRANCH   3   6
ATOM      6  C   UNL A   1      33.875  29.420  27.133  1.00  0.00     0.135 C 
BRANCH   6   7
ATOM      7  C   UNL A   1      33.593  28.472  25.991  1.00  0.00    -0.037 A 
ATOM      8  C   UNL A   1      32.793  26.821  23.859  1.00  0.00     0.139 A 
ATOM      9  C   UNL A   1      33.576  27.963  23.631  1.00  0.00     0.048 A 
ATOM     10  C   UNL A   1      32.548  26.404  25.158  1.00  0.00     0.129 A 
ATOM     11  C   UNL A   1      33.982  28.779  24.689  1.00  0.00     0.008 A 
ATOM     12  C   UNL A   1      32.898  27.273  26.213  1.00  0.00     0.030 A 
BRANCH   8  13
ATOM     13  O   UNL A   1      32.324  26.205  22.741  1.00  0.00    -0.495 OA
ATOM     14  C   UNL A   1      31.222  26.925  22.184  1.00  0.00     0.278 C 
ENDBRANCH   8  13
BRANCH  10  15
ATOM     15  S   UNL A   1      31.834  24.868  25.681  1.00  0.00     0.265 S 
ATOM     16  O   UNL A   1      31.479  25.042  27.078  1.00  0.00    -0.201 OA
ATOM     17  O   UNL A   1      30.782  24.588  24.721  1.00  0.00    -0.201 OA
BRANCH  15  18
ATOM     18  N   UNL A   1      32.812  23.500  25.627  1.00  0.00    -0.278 N 
ATOM     19  H   UNL A   1      32.459  22.679  26.040  1.00  0.00     0.180 HD
BRANCH  18  20
ATOM     20  C   UNL A   1      34.109  23.429  25.035  1.00  0.00     0.063 A 
ATOM     21  C   UNL A   1      35.179  23.800  25.869  1.00  0.00     0.028 A 
ATOM     22  C   UNL A   1      34.383  23.047  23.716  1.00  0.00     0.042 A 
ATOM     23  C   UNL A   1      36.501  23.685  25.436  1.00  0.00     0.002 A 
ATOM     24  C   UNL A   1      35.712  22.921  23.289  1.00  0.00     0.018 A 
ATOM     25  Br  UNL A   1      33.031  22.742  22.427  1.00  0.00    -0.049 Br
ATOM     26  C   UNL A   1      36.767  23.220  24.153  1.00  0.00     0.001 A 
ENDBRANCH  18  20
ENDBRANCH  15  18
ENDBRANCH  10  15
ENDBRANCH   6   7
ENDBRANCH   3   6
ENDBRANCH   1   2
BRANCH   1  27
ATOM     27  C   UNL A   1      34.710  33.395  29.117  1.00  0.00     0.023 C 
BRANCH  27  28
ATOM     28  C   UNL A   1      33.430  34.216  28.943  1.00  0.00     0.023 C 
BRANCH  28  29
ATOM     29  C   UNL A   1      33.534  35.672  29.377  1.00  0.00     0.116 C 
BRANCH  29  30
ATOM     30  N   UNL A   1      32.598  36.029  30.432  1.00  0.00    -0.352 N 
ATOM     31  C   UNL A   1      32.677  35.757  31.775  1.00  0.00     0.251 C 
ATOM     32  H   UNL A   1      31.802  36.533  30.144  1.00  0.00     0.163 HD
ATOM     33  O   UNL A   1      31.752  36.046  32.529  1.00  0.00    -0.269 OA
BRANCH  31  34
ATOM     34  C   UNL A   1      33.870  35.070  32.308  1.00  0.00     0.039 A 
ATOM     35  C   UNL A   1      33.730  33.771  32.802  1.00  0.00     0.014 A 
ATOM     36  C   UNL A   1      35.124  35.688  32.293  1.00  0.00     0.014 A 
ATOM     37  C   UNL A   1      34.859  33.065  33.220  1.00  0.00     0.010 A 
ATOM     38  C   UNL A   1      36.256  34.959  32.643  1.00  0.00     0.010 A 
ATOM     39  C   UNL A   1      36.135  33.640  33.108  1.00  0.00    -0.014 A 
BRANCH  39  40
ATOM     40  C   UNL A   1      37.355  32.876  33.468  1.00  0.00     0.031 A 
ATOM     41  C   UNL A   1      38.082  33.173  34.748  1.00  0.00     0.074 A 
ATOM     42  C   UNL A   1      37.844  31.960  32.609  1.00  0.00     0.049 A 
ATOM     43  N   UNL A   1      39.199  32.665  35.204  1.00  0.00    -0.248 NA
ATOM     44  C   UNL A   1      37.490  34.200  35.620  1.00  0.00     0.031 C 
ATOM     45  C   UNL A   1      37.255  31.617  31.314  1.00  0.00     0.029 A 
ATOM     46  N   UNL A   1      38.954  31.158  32.692  1.00  0.00    -0.354 N 
ATOM     47  C   UNL A   1      39.449  33.317  36.403  1.00  0.00     0.074 A 
ATOM     48  C   UNL A   1      38.398  34.296  36.579  1.00  0.00     0.031 C 
ATOM     49  C   UNL A   1      37.997  30.660  30.733  1.00  0.00     0.029 A 
ATOM     50  C   UNL A   1      39.132  30.350  31.596  1.00  0.00     0.049 A 
ATOM     51  H   UNL A   1      39.565  31.161  33.463  1.00  0.00     0.167 HD
ATOM     52  C   UNL A   1      40.451  33.102  37.289  1.00  0.00     0.037 A 
ATOM     53  C   UNL A   1      40.106  29.462  31.317  1.00  0.00     0.037 A 
ATOM     54  C   UNL A   1      41.480  32.111  37.121  1.00  0.00     0.049 A 
ATOM     55  C   UNL A   1      41.210  29.246  32.317  1.00  0.00     0.074 A 
ATOM     56  C   UNL A   1      42.504  31.775  37.989  1.00  0.00     0.029 A 
ATOM     57  N   UNL A   1      41.617  31.296  36.007  1.00  0.00    -0.354 N 
ATOM     58  N   UNL A   1      41.397  29.819  33.481  1.00  0.00    -0.248 NA
ATOM     59  C   UNL A   1      42.235  28.252  31.966  1.00  0.00     0.031 C 
ATOM     60  C   UNL A   1      43.288  30.788  37.381  1.00  0.00     0.029 A 
ATOM     61  C   UNL A   1      42.722  30.473  36.156  1.00  0.00     0.049 A 
ATOM     62  H   UNL A   1      41.018  31.302  35.226  1.00  0.00     0.167 HD
ATOM     63  C   UNL A   1      42.540  29.237  34.013  1.00  0.00     0.074 A 
ATOM     64  C   UNL A   1      42.995  28.255  33.051  1.00  0.00     0.031 C 
ATOM     65  C   UNL A   1      43.156  29.494  35.192  1.00  0.00     0.037 A 
BRANCH  52  66
ATOM     66  C   UNL A   1      40.480  33.957  38.524  1.00  0.00     0.064 A 
ATOM     67  C   UNL A   1      41.212  35.153  38.573  1.00  0.00     0.173 A 
ATOM     68  C   UNL A   1      39.738  33.595  39.658  1.00  0.00     0.173 A 
ATOM     69  F   UNL A   1      41.947  35.539  37.519  1.00  0.00    -0.203 F 
ATOM     70  C   UNL A   1      41.225  35.939  39.722  1.00  0.00     0.198 A 
ATOM     71  C   UNL A   1      39.729  34.399  40.795  1.00  0.00     0.198 A 
ATOM     72  F   UNL A   1      39.016  32.465  39.663  1.00  0.00    -0.203 F 
ATOM     73  F   UNL A   1      41.973  37.051  39.763  1.00  0.00    -0.200 F 
ATOM     74  C   UNL A   1      40.479  35.565  40.829  1.00  0.00     0.200 A 
ATOM     75  F   UNL A   1      38.997  34.044  41.859  1.00  0.00    -0.200 F 
ATOM     76  F   UNL A   1      40.487  36.326  41.933  1.00  0.00    -0.200 F 
ENDBRANCH  52  66
BRANCH  53  77
ATOM     77  C   UNL A   1      40.068  28.693  30.046  1.00  0.00     0.064 A 
ATOM     78  C   UNL A   1      39.438  27.442  29.982  1.00  0.00     0.173 A 
ATOM     79  C   UNL A   1      40.663  29.184  28.876  1.00  0.00     0.173 A 
ATOM     80  F   UNL A   1      38.874  26.920  31.081  1.00  0.00    -0.203 F 
ATOM     81  C   UNL A   1      39.423  26.703  28.802  1.00  0.00     0.198 A 
ATOM     82  C   UNL A   1      40.622  28.456  27.688  1.00  0.00     0.198 A 
ATOM     83  F   UNL A   1      41.274  30.378  28.882  1.00  0.00    -0.203 F 
ATOM     84  F   UNL A   1      38.854  25.489  28.781  1.00  0.00    -0.200 F 
ATOM     85  C   UNL A   1      40.010  27.213  27.654  1.00  0.00     0.200 A 
ATOM     86  F   UNL A   1      41.179  28.959  26.577  1.00  0.00    -0.200 F 
ATOM     87  F   UNL A   1      39.993  26.503  26.517  1.00  0.00    -0.200 F 
ENDBRANCH  53  77
BRANCH  65  88
ATOM     88  C   UNL A   1      44.369  28.675  35.527  1.00  0.00     0.064 A 
ATOM     89  C   UNL A   1      44.270  27.461  36.223  1.00  0.00     0.173 A 
ATOM     90  C   UNL A   1      45.643  29.091  35.109  1.00  0.00     0.173 A 
ATOM     91  F   UNL A   1      43.076  27.028  36.657  1.00  0.00    -0.203 F 
ATOM     92  C   UNL A   1      45.405  26.707  36.512  1.00  0.00     0.198 A 
ATOM     93  C   UNL A   1      46.771  28.319  35.374  1.00  0.00     0.198 A 
ATOM     94  F   UNL A   1      45.791  30.240  34.434  1.00  0.00    -0.203 F 
ATOM     95  F   UNL A   1      45.292  25.577  37.221  1.00  0.00    -0.200 F 
ATOM     96  C   UNL A   1      46.653  27.133  36.082  1.00  0.00     0.200 A 
ATOM     97  F   UNL A   1      47.974  28.725  34.945  1.00  0.00    -0.200 F 
ATOM     98  F   UNL A   1      47.742  26.404  36.355  1.00  0.00    -0.200 F 
ENDBRANCH  65  88
ENDBRANCH  39  40
ENDBRANCH  31  34
ENDBRANCH  29  30
ENDBRANCH  28  29
ENDBRANCH  27  28
ENDBRANCH   1  27
TORSDOF 16
ENDMDL
