MODEL 1
REMARK VINA RESULT:     -12.3      0.000      0.000
REMARK SMILES O=C(C[C@H](C(=O)Nc1ccc([N+](=O)[O-])cc1)[C@H]1CCCO1)NCCCCNC(=O)c1ccc(-c2c3nc(c(-c4c(F)c(F)c(F)c(F)c4F)c4ccc([nH]4)c(-c4c(F)c(F)c(F)c(F)c4F)c4nc(c(-c5c(F)c(F)c(F)c(F)c5F)c5ccc2[nH]5)C=C4)C=C3)cc1
REMARK SMILES IDX 23 1 22 2 1 3 2 4 3 6 4 7 5 8 6 9 7 10 8 12 9 13 16 14 10 15
REMARK SMILES IDX 15 16 11 17 12 18 13 19 14 20 17 21 18 22 21 23 19 24 20 25
REMARK SMILES IDX 24 26 25 27 26 28 27 29 28 30 29 32 30 33 31 34 92 35 32 36
REMARK SMILES IDX 91 37 33 38 34 39 35 40 85 41 36 42 90 43 84 44 86 45 37 46
REMARK SMILES IDX 89 47 83 48 82 49 38 51 70 52 50 53 69 54 51 55 54 56 68 57
REMARK SMILES IDX 87 58 52 59 53 60 67 62 88 63 55 64 39 65 40 66 48 67 41 68
REMARK SMILES IDX 42 69 46 70 49 71 43 72 44 73 47 74 45 75 71 76 72 77 80 78
REMARK SMILES IDX 73 79 74 80 78 81 81 82 75 83 76 84 79 85 77 86 56 87 57 88
REMARK SMILES IDX 65 89 58 90 59 91 63 92 66 93 60 94 61 95 64 96 62 97
REMARK H PARENT 22 5 7 11 27 31 86 50 54 61
REMARK Flexibility Score: inf
ROOT
ATOM      1  C   UNL A   1      36.914  21.444  25.491  1.00  0.00     0.116 C 
ENDROOT
BRANCH   1   2
ATOM      2  N   UNL A   1      35.682  21.969  26.060  1.00  0.00    -0.356 N 
ATOM      3  O   UNL A   1      36.258  24.141  25.721  1.00  0.00    -0.275 OA
ATOM      4  C   UNL A   1      35.433  23.320  26.120  1.00  0.00     0.220 C 
ATOM      5  H   UNL A   1      35.010  21.342  26.412  1.00  0.00     0.163 HD
BRANCH   4   6
ATOM      6  C   UNL A   1      34.073  23.790  26.626  1.00  0.00     0.116 C 
BRANCH   6   7
ATOM      7  C   UNL A   1      33.024  24.425  25.676  1.00  0.00     0.117 C 
BRANCH   7   8
ATOM      8  C   UNL A   1      31.687  24.584  26.483  1.00  0.00     0.230 C 
ATOM      9  O   UNL A   1      31.444  23.838  27.442  1.00  0.00    -0.274 OA
ATOM     10  N   UNL A   1      30.830  25.650  26.363  1.00  0.00    -0.326 N 
ATOM     11  H   UNL A   1      30.230  25.770  27.134  1.00  0.00     0.169 HD
BRANCH  10  12
ATOM     12  C   UNL A   1      30.652  26.593  25.352  1.00  0.00     0.041 A 
ATOM     13  C   UNL A   1      29.632  26.391  24.422  1.00  0.00     0.033 A 
ATOM     14  C   UNL A   1      31.481  27.714  25.247  1.00  0.00     0.033 A 
ATOM     15  C   UNL A   1      29.287  27.421  23.543  1.00  0.00     0.088 A 
ATOM     16  C   UNL A   1      31.131  28.762  24.393  1.00  0.00     0.088 A 
ATOM     17  C   UNL A   1      29.999  28.627  23.585  1.00  0.00     0.269 A 
BRANCH  17  18
ATOM     18  N   UNL A   1      29.498  29.788  22.848  1.00  0.00     0.062 N 
ATOM     19  O   UNL A   1      29.341  29.666  21.626  1.00  0.00    -0.258 OA
ATOM     20  O   UNL A   1      29.216  30.799  23.506  1.00  0.00    -0.258 OA
ENDBRANCH  17  18
ENDBRANCH  10  12
ENDBRANCH   7   8
BRANCH   7  21
ATOM     21  C   UNL A   1      32.862  23.660  24.358  1.00  0.00     0.131 C 
ATOM     22  C   UNL A   1      31.614  22.850  24.080  1.00  0.00     0.035 C 
ATOM     23  O   UNL A   1      33.038  24.545  23.249  1.00  0.00    -0.377 OA
ATOM     24  C   UNL A   1      30.825  23.704  23.126  1.00  0.00     0.031 C 
ATOM     25  C   UNL A   1      31.901  24.458  22.383  1.00  0.00     0.160 C 
ENDBRANCH   7  21
ENDBRANCH   6   7
ENDBRANCH   4   6
ENDBRANCH   1   2
BRANCH   1  26
ATOM     26  C   UNL A   1      36.855  19.993  24.994  1.00  0.00     0.023 C 
BRANCH  26  27
ATOM     27  C   UNL A   1      38.151  19.178  25.001  1.00  0.00     0.023 C 
BRANCH  27  28
ATOM     28  C   UNL A   1      39.332  19.753  25.773  1.00  0.00     0.116 C 
BRANCH  28  29
ATOM     29  N   UNL A   1      40.446  18.828  25.848  1.00  0.00    -0.352 N 
ATOM     30  C   UNL A   1      41.789  19.087  26.001  1.00  0.00     0.251 C 
ATOM     31  H   UNL A   1      40.207  17.875  25.780  1.00  0.00     0.163 HD
ATOM     32  O   UNL A   1      42.601  18.180  25.854  1.00  0.00    -0.269 OA
BRANCH  30  33
ATOM     33  C   UNL A   1      42.274  20.454  26.320  1.00  0.00     0.039 A 
ATOM     34  C   UNL A   1      42.769  21.248  25.279  1.00  0.00     0.014 A 
ATOM     35  C   UNL A   1      42.293  20.943  27.629  1.00  0.00     0.014 A 
ATOM     36  C   UNL A   1      43.233  22.542  25.542  1.00  0.00     0.010 A 
ATOM     37  C   UNL A   1      42.697  22.257  27.880  1.00  0.00     0.010 A 
ATOM     38  C   UNL A   1      43.176  23.070  26.842  1.00  0.00    -0.014 A 
BRANCH  38  39
ATOM     39  C   UNL A   1      43.616  24.464  27.127  1.00  0.00     0.031 A 
ATOM     40  C   UNL A   1      42.634  25.487  27.633  1.00  0.00     0.074 A 
ATOM     41  C   UNL A   1      44.890  24.829  26.879  1.00  0.00     0.049 A 
ATOM     42  N   UNL A   1      42.815  26.761  27.876  1.00  0.00    -0.248 NA
ATOM     43  C   UNL A   1      41.262  25.020  27.879  1.00  0.00     0.031 C 
ATOM     44  C   UNL A   1      45.934  23.949  26.354  1.00  0.00     0.029 A 
ATOM     45  N   UNL A   1      45.520  26.040  27.027  1.00  0.00    -0.354 N 
ATOM     46  C   UNL A   1      41.581  27.250  28.285  1.00  0.00     0.074 A 
ATOM     47  C   UNL A   1      40.648  26.146  28.215  1.00  0.00     0.031 C 
ATOM     48  C   UNL A   1      47.078  24.643  26.239  1.00  0.00     0.029 A 
ATOM     49  C   UNL A   1      46.840  26.026  26.646  1.00  0.00     0.049 A 
ATOM     50  H   UNL A   1      45.069  26.844  27.374  1.00  0.00     0.167 HD
ATOM     51  C   UNL A   1      41.259  28.499  28.699  1.00  0.00     0.037 A 
ATOM     52  C   UNL A   1      47.754  27.015  26.616  1.00  0.00     0.037 A 
ATOM     53  C   UNL A   1      42.191  29.593  28.797  1.00  0.00     0.049 A 
ATOM     54  C   UNL A   1      47.366  28.397  27.072  1.00  0.00     0.074 A 
ATOM     55  C   UNL A   1      41.970  30.875  29.269  1.00  0.00     0.029 A 
ATOM     56  N   UNL A   1      43.522  29.534  28.411  1.00  0.00    -0.354 N 
ATOM     57  N   UNL A   1      46.214  28.826  27.523  1.00  0.00    -0.248 NA
ATOM     58  C   UNL A   1      48.411  29.429  27.021  1.00  0.00     0.031 C 
ATOM     59  C   UNL A   1      43.155  31.606  29.128  1.00  0.00     0.029 A 
ATOM     60  C   UNL A   1      44.128  30.765  28.615  1.00  0.00     0.049 A 
ATOM     61  H   UNL A   1      43.970  28.736  28.046  1.00  0.00     0.167 HD
ATOM     62  C   UNL A   1      46.402  30.166  27.836  1.00  0.00     0.074 A 
ATOM     63  C   UNL A   1      47.784  30.475  27.537  1.00  0.00     0.031 C 
ATOM     64  C   UNL A   1      45.508  31.059  28.326  1.00  0.00     0.037 A 
BRANCH  51  65
ATOM     65  C   UNL A   1      39.830  28.758  29.086  1.00  0.00     0.064 A 
ATOM     66  C   UNL A   1      39.386  28.595  30.407  1.00  0.00     0.173 A 
ATOM     67  C   UNL A   1      38.908  29.223  28.136  1.00  0.00     0.173 A 
ATOM     68  F   UNL A   1      40.226  28.145  31.352  1.00  0.00    -0.203 F 
ATOM     69  C   UNL A   1      38.064  28.863  30.756  1.00  0.00     0.198 A 
ATOM     70  C   UNL A   1      37.595  29.517  28.496  1.00  0.00     0.198 A 
ATOM     71  F   UNL A   1      39.282  29.404  26.861  1.00  0.00    -0.203 F 
ATOM     72  F   UNL A   1      37.652  28.656  32.015  1.00  0.00    -0.200 F 
ATOM     73  C   UNL A   1      37.173  29.330  29.803  1.00  0.00     0.200 A 
ATOM     74  F   UNL A   1      36.737  29.981  27.576  1.00  0.00    -0.200 F 
ATOM     75  F   UNL A   1      35.903  29.594  30.143  1.00  0.00    -0.200 F 
ENDBRANCH  51  65
BRANCH  52  76
ATOM     76  C   UNL A   1      49.139  26.734  26.155  1.00  0.00     0.064 A 
ATOM     77  C   UNL A   1      50.106  26.242  27.043  1.00  0.00     0.173 A 
ATOM     78  C   UNL A   1      49.528  26.962  24.827  1.00  0.00     0.173 A 
ATOM     79  F   UNL A   1      49.788  26.030  28.328  1.00  0.00    -0.203 F 
ATOM     80  C   UNL A   1      51.416  26.011  26.626  1.00  0.00     0.198 A 
ATOM     81  C   UNL A   1      50.830  26.703  24.405  1.00  0.00     0.198 A 
ATOM     82  F   UNL A   1      48.641  27.429  23.937  1.00  0.00    -0.203 F 
ATOM     83  F   UNL A   1      52.332  25.588  27.507  1.00  0.00    -0.200 F 
ATOM     84  C   UNL A   1      51.776  26.236  25.306  1.00  0.00     0.200 A 
ATOM     85  F   UNL A   1      51.171  26.909  23.125  1.00  0.00    -0.200 F 
ATOM     86  F   UNL A   1      53.034  26.012  24.905  1.00  0.00    -0.200 F 
ENDBRANCH  52  76
BRANCH  64  87
ATOM     87  C   UNL A   1      46.003  32.447  28.611  1.00  0.00     0.064 A 
ATOM     88  C   UNL A   1      46.569  32.789  29.849  1.00  0.00     0.173 A 
ATOM     89  C   UNL A   1      45.945  33.439  27.619  1.00  0.00     0.173 A 
ATOM     90  F   UNL A   1      46.632  31.883  30.835  1.00  0.00    -0.203 F 
ATOM     91  C   UNL A   1      47.035  34.079  30.090  1.00  0.00     0.198 A 
ATOM     92  C   UNL A   1      46.440  34.718  27.854  1.00  0.00     0.198 A 
ATOM     93  F   UNL A   1      45.419  33.162  26.416  1.00  0.00    -0.203 F 
ATOM     94  F   UNL A   1      47.529  34.396  31.294  1.00  0.00    -0.200 F 
ATOM     95  C   UNL A   1      46.977  35.039  29.091  1.00  0.00     0.200 A 
ATOM     96  F   UNL A   1      46.395  35.641  26.883  1.00  0.00    -0.200 F 
ATOM     97  F   UNL A   1      47.434  36.278  29.322  1.00  0.00    -0.200 F 
ENDBRANCH  64  87
ENDBRANCH  38  39
ENDBRANCH  30  33
ENDBRANCH  28  29
ENDBRANCH  27  28
ENDBRANCH  26  27
ENDBRANCH   1  26
TORSDOF 16
ENDMDL
MODEL 2
REMARK VINA RESULT:     -12.3      4.203      8.515
REMARK SMILES O=C(C[C@H](C(=O)Nc1ccc([N+](=O)[O-])cc1)[C@H]1CCCO1)NCCCCNC(=O)c1ccc(-c2c3nc(c(-c4c(F)c(F)c(F)c(F)c4F)c4ccc([nH]4)c(-c4c(F)c(F)c(F)c(F)c4F)c4nc(c(-c5c(F)c(F)c(F)c(F)c5F)c5ccc2[nH]5)C=C4)C=C3)cc1
REMARK SMILES IDX 23 1 22 2 1 3 2 4 3 6 4 7 5 8 6 9 7 10 8 12 9 13 16 14 10 15
REMARK SMILES IDX 15 16 11 17 12 18 13 19 14 20 17 21 18 22 21 23 19 24 20 25
REMARK SMILES IDX 24 26 25 27 26 28 27 29 28 30 29 32 30 33 31 34 92 35 32 36
REMARK SMILES IDX 91 37 33 38 34 39 35 40 85 41 36 42 90 43 84 44 86 45 37 46
REMARK SMILES IDX 89 47 83 48 82 49 38 51 70 52 50 53 69 54 51 55 54 56 68 57
REMARK SMILES IDX 87 58 52 59 53 60 67 62 88 63 55 64 39 65 40 66 48 67 41 68
REMARK SMILES IDX 42 69 46 70 49 71 43 72 44 73 47 74 45 75 71 76 72 77 80 78
REMARK SMILES IDX 73 79 74 80 78 81 81 82 75 83 76 84 79 85 77 86 56 87 57 88
REMARK SMILES IDX 65 89 58 90 59 91 63 92 66 93 60 94 61 95 64 96 62 97
REMARK H PARENT 22 5 7 11 27 31 86 50 54 61
REMARK Flexibility Score: inf
ROOT
ATOM      1  C   UNL A   1      33.198  27.832  23.315  1.00  0.00     0.116 C 
ENDROOT
BRANCH   1   2
ATOM      2  N   UNL A   1      32.878  26.418  23.187  1.00  0.00    -0.356 N 
ATOM      3  O   UNL A   1      33.450  26.320  20.990  1.00  0.00    -0.275 OA
ATOM      4  C   UNL A   1      33.048  25.745  22.001  1.00  0.00     0.220 C 
ATOM      5  H   UNL A   1      32.530  25.933  23.969  1.00  0.00     0.163 HD
BRANCH   4   6
ATOM      6  C   UNL A   1      32.798  24.240  21.974  1.00  0.00     0.116 C 
BRANCH   6   7
ATOM      7  C   UNL A   1      33.577  23.268  22.897  1.00  0.00     0.117 C 
BRANCH   7   8
ATOM      8  C   UNL A   1      32.642  22.907  24.104  1.00  0.00     0.230 C 
ATOM      9  O   UNL A   1      32.049  23.801  24.724  1.00  0.00    -0.274 OA
ATOM     10  N   UNL A   1      32.228  21.634  24.413  1.00  0.00    -0.326 N 
ATOM     11  H   UNL A   1      31.417  21.601  24.971  1.00  0.00     0.169 HD
BRANCH  10  12
ATOM     12  C   UNL A   1      32.744  20.382  24.084  1.00  0.00     0.041 A 
ATOM     13  C   UNL A   1      33.887  19.935  24.746  1.00  0.00     0.033 A 
ATOM     14  C   UNL A   1      32.150  19.585  23.101  1.00  0.00     0.033 A 
ATOM     15  C   UNL A   1      34.292  18.605  24.603  1.00  0.00     0.088 A 
ATOM     16  C   UNL A   1      32.525  18.246  22.968  1.00  0.00     0.088 A 
ATOM     17  C   UNL A   1      33.562  17.752  23.764  1.00  0.00     0.269 A 
BRANCH  17  18
ATOM     18  N   UNL A   1      33.825  16.313  23.794  1.00  0.00     0.062 N 
ATOM     19  O   UNL A   1      33.371  15.667  24.748  1.00  0.00    -0.258 OA
ATOM     20  O   UNL A   1      34.441  15.829  22.834  1.00  0.00    -0.258 OA
ENDBRANCH  17  18
ENDBRANCH  10  12
ENDBRANCH   7   8
BRANCH   7  21
ATOM     21  C   UNL A   1      34.949  23.804  23.318  1.00  0.00     0.131 C 
ATOM     22  C   UNL A   1      35.261  24.077  24.774  1.00  0.00     0.035 C 
ATOM     23  O   UNL A   1      35.985  22.952  22.825  1.00  0.00    -0.377 OA
ATOM     24  C   UNL A   1      36.121  22.916  25.191  1.00  0.00     0.031 C 
ATOM     25  C   UNL A   1      36.827  22.544  23.910  1.00  0.00     0.160 C 
ENDBRANCH   7  21
ENDBRANCH   6   7
ENDBRANCH   4   6
ENDBRANCH   1   2
BRANCH   1  26
ATOM     26  C   UNL A   1      33.741  28.273  24.681  1.00  0.00     0.023 C 
BRANCH  26  27
ATOM     27  C   UNL A   1      33.009  27.791  25.936  1.00  0.00     0.023 C 
BRANCH  27  28
ATOM     28  C   UNL A   1      33.409  28.423  27.263  1.00  0.00     0.116 C 
BRANCH  28  29
ATOM     29  N   UNL A   1      33.453  29.870  27.196  1.00  0.00    -0.352 N 
ATOM     30  C   UNL A   1      34.420  30.737  27.649  1.00  0.00     0.251 C 
ATOM     31  H   UNL A   1      32.677  30.294  26.762  1.00  0.00     0.163 HD
ATOM     32  O   UNL A   1      34.191  31.942  27.669  1.00  0.00    -0.269 OA
BRANCH  30  33
ATOM     33  C   UNL A   1      35.731  30.237  28.136  1.00  0.00     0.039 A 
ATOM     34  C   UNL A   1      36.819  30.246  27.256  1.00  0.00     0.014 A 
ATOM     35  C   UNL A   1      35.890  29.717  29.423  1.00  0.00     0.014 A 
ATOM     36  C   UNL A   1      38.070  29.784  27.680  1.00  0.00     0.010 A 
ATOM     37  C   UNL A   1      37.153  29.316  29.866  1.00  0.00     0.010 A 
ATOM     38  C   UNL A   1      38.256  29.340  28.999  1.00  0.00    -0.014 A 
BRANCH  38  39
ATOM     39  C   UNL A   1      39.594  28.895  29.480  1.00  0.00     0.031 A 
ATOM     40  C   UNL A   1      40.383  29.749  30.437  1.00  0.00     0.074 A 
ATOM     41  C   UNL A   1      40.127  27.749  29.015  1.00  0.00     0.049 A 
ATOM     42  N   UNL A   1      41.588  29.560  30.916  1.00  0.00    -0.248 NA
ATOM     43  C   UNL A   1      39.742  30.987  30.903  1.00  0.00     0.031 C 
ATOM     44  C   UNL A   1      39.487  26.846  28.058  1.00  0.00     0.029 A 
ATOM     45  N   UNL A   1      41.335  27.150  29.278  1.00  0.00    -0.354 N 
ATOM     46  C   UNL A   1      41.854  30.660  31.721  1.00  0.00     0.074 A 
ATOM     47  C   UNL A   1      40.704  31.534  31.632  1.00  0.00     0.031 C 
ATOM     48  C   UNL A   1      40.299  25.802  27.825  1.00  0.00     0.029 A 
ATOM     49  C   UNL A   1      41.533  25.979  28.587  1.00  0.00     0.049 A 
ATOM     50  H   UNL A   1      41.998  27.525  29.902  1.00  0.00     0.167 HD
ATOM     51  C   UNL A   1      42.948  30.911  32.480  1.00  0.00     0.037 A 
ATOM     52  C   UNL A   1      42.591  25.146  28.560  1.00  0.00     0.037 A 
ATOM     53  C   UNL A   1      44.083  30.031  32.593  1.00  0.00     0.049 A 
ATOM     54  C   UNL A   1      43.799  25.454  29.406  1.00  0.00     0.074 A 
ATOM     55  C   UNL A   1      45.206  30.170  33.389  1.00  0.00     0.029 A 
ATOM     56  N   UNL A   1      44.239  28.848  31.885  1.00  0.00    -0.354 N 
ATOM     57  N   UNL A   1      44.006  26.461  30.216  1.00  0.00    -0.248 NA
ATOM     58  C   UNL A   1      44.916  24.502  29.336  1.00  0.00     0.031 C 
ATOM     59  C   UNL A   1      46.064  29.094  33.130  1.00  0.00     0.029 A 
ATOM     60  C   UNL A   1      45.452  28.259  32.211  1.00  0.00     0.049 A 
ATOM     61  H   UNL A   1      43.586  28.482  31.246  1.00  0.00     0.167 HD
ATOM     62  C   UNL A   1      45.261  26.251  30.774  1.00  0.00     0.074 A 
ATOM     63  C   UNL A   1      45.761  25.011  30.220  1.00  0.00     0.031 C 
ATOM     64  C   UNL A   1      45.935  27.018  31.664  1.00  0.00     0.037 A 
BRANCH  51  65
ATOM     65  C   UNL A   1      42.976  32.195  33.260  1.00  0.00     0.064 A 
ATOM     66  C   UNL A   1      42.476  32.271  34.568  1.00  0.00     0.173 A 
ATOM     67  C   UNL A   1      43.555  33.349  32.711  1.00  0.00     0.173 A 
ATOM     68  F   UNL A   1      41.905  31.198  35.137  1.00  0.00    -0.203 F 
ATOM     69  C   UNL A   1      42.531  33.462  35.288  1.00  0.00     0.198 A 
ATOM     70  C   UNL A   1      43.635  34.530  33.444  1.00  0.00     0.198 A 
ATOM     71  F   UNL A   1      44.056  33.329  31.467  1.00  0.00    -0.203 F 
ATOM     72  F   UNL A   1      42.006  33.522  36.521  1.00  0.00    -0.200 F 
ATOM     73  C   UNL A   1      43.116  34.587  34.729  1.00  0.00     0.200 A 
ATOM     74  F   UNL A   1      44.213  35.614  32.907  1.00  0.00    -0.200 F 
ATOM     75  F   UNL A   1      43.176  35.731  35.427  1.00  0.00    -0.200 F 
ENDBRANCH  51  65
BRANCH  52  76
ATOM     76  C   UNL A   1      42.553  23.922  27.717  1.00  0.00     0.064 A 
ATOM     77  C   UNL A   1      42.897  23.975  26.359  1.00  0.00     0.173 A 
ATOM     78  C   UNL A   1      42.161  22.683  28.243  1.00  0.00     0.173 A 
ATOM     79  F   UNL A   1      43.256  25.142  25.804  1.00  0.00    -0.203 F 
ATOM     80  C   UNL A   1      42.829  22.840  25.553  1.00  0.00     0.198 A 
ATOM     81  C   UNL A   1      42.121  21.543  27.444  1.00  0.00     0.198 A 
ATOM     82  F   UNL A   1      41.824  22.578  29.536  1.00  0.00    -0.203 F 
ATOM     83  F   UNL A   1      43.117  22.928  24.248  1.00  0.00    -0.200 F 
ATOM     84  C   UNL A   1      42.446  21.623  26.098  1.00  0.00     0.200 A 
ATOM     85  F   UNL A   1      41.763  20.366  27.976  1.00  0.00    -0.200 F 
ATOM     86  F   UNL A   1      42.383  20.531  25.325  1.00  0.00    -0.200 F 
ENDBRANCH  52  76
BRANCH  64  87
ATOM     87  C   UNL A   1      47.273  26.521  32.130  1.00  0.00     0.064 A 
ATOM     88  C   UNL A   1      48.466  26.921  31.510  1.00  0.00     0.173 A 
ATOM     89  C   UNL A   1      47.364  25.661  33.236  1.00  0.00     0.173 A 
ATOM     90  F   UNL A   1      48.433  27.728  30.440  1.00  0.00    -0.203 F 
ATOM     91  C   UNL A   1      49.699  26.460  31.965  1.00  0.00     0.198 A 
ATOM     92  C   UNL A   1      48.599  25.225  33.707  1.00  0.00     0.198 A 
ATOM     93  F   UNL A   1      46.253  25.253  33.868  1.00  0.00    -0.203 F 
ATOM     94  F   UNL A   1      50.822  26.818  31.330  1.00  0.00    -0.200 F 
ATOM     95  C   UNL A   1      49.765  25.619  33.067  1.00  0.00     0.200 A 
ATOM     96  F   UNL A   1      48.662  24.424  34.779  1.00  0.00    -0.200 F 
ATOM     97  F   UNL A   1      50.952  25.182  33.508  1.00  0.00    -0.200 F 
ENDBRANCH  64  87
ENDBRANCH  38  39
ENDBRANCH  30  33
ENDBRANCH  28  29
ENDBRANCH  27  28
ENDBRANCH  26  27
ENDBRANCH   1  26
TORSDOF 16
ENDMDL
MODEL 3
REMARK VINA RESULT:     -12.3      4.563      9.658
REMARK SMILES O=C(C[C@H](C(=O)Nc1ccc([N+](=O)[O-])cc1)[C@H]1CCCO1)NCCCCNC(=O)c1ccc(-c2c3nc(c(-c4c(F)c(F)c(F)c(F)c4F)c4ccc([nH]4)c(-c4c(F)c(F)c(F)c(F)c4F)c4nc(c(-c5c(F)c(F)c(F)c(F)c5F)c5ccc2[nH]5)C=C4)C=C3)cc1
REMARK SMILES IDX 23 1 22 2 1 3 2 4 3 6 4 7 5 8 6 9 7 10 8 12 9 13 16 14 10 15
REMARK SMILES IDX 15 16 11 17 12 18 13 19 14 20 17 21 18 22 21 23 19 24 20 25
REMARK SMILES IDX 24 26 25 27 26 28 27 29 28 30 29 32 30 33 31 34 92 35 32 36
REMARK SMILES IDX 91 37 33 38 34 39 35 40 85 41 36 42 90 43 84 44 86 45 37 46
REMARK SMILES IDX 89 47 83 48 82 49 38 51 70 52 50 53 69 54 51 55 54 56 68 57
REMARK SMILES IDX 87 58 52 59 53 60 67 62 88 63 55 64 39 65 40 66 48 67 41 68
REMARK SMILES IDX 42 69 46 70 49 71 43 72 44 73 47 74 45 75 71 76 72 77 80 78
REMARK SMILES IDX 73 79 74 80 78 81 81 82 75 83 76 84 79 85 77 86 56 87 57 88
REMARK SMILES IDX 65 89 58 90 59 91 63 92 66 93 60 94 61 95 64 96 62 97
REMARK H PARENT 22 5 7 11 27 31 86 50 54 61
REMARK Flexibility Score: inf
ROOT
ATOM      1  C   UNL A   1      31.480  26.371  26.855  1.00  0.00     0.116 C 
ENDROOT
BRANCH   1   2
ATOM      2  N   UNL A   1      32.171  25.226  26.282  1.00  0.00    -0.356 N 
ATOM      3  O   UNL A   1      30.766  23.704  27.218  1.00  0.00    -0.275 OA
ATOM      4  C   UNL A   1      31.739  23.940  26.502  1.00  0.00     0.220 C 
ATOM      5  H   UNL A   1      32.968  25.376  25.724  1.00  0.00     0.163 HD
BRANCH   4   6
ATOM      6  C   UNL A   1      32.446  22.799  25.777  1.00  0.00     0.116 C 
BRANCH   6   7
ATOM      7  C   UNL A   1      33.156  23.013  24.415  1.00  0.00     0.117 C 
BRANCH   7   8
ATOM      8  C   UNL A   1      32.112  22.711  23.282  1.00  0.00     0.230 C 
ATOM      9  O   UNL A   1      32.015  21.569  22.811  1.00  0.00    -0.274 OA
ATOM     10  N   UNL A   1      31.108  23.567  22.903  1.00  0.00    -0.326 N 
ATOM     11  H   UNL A   1      30.363  23.127  22.431  1.00  0.00     0.169 HD
BRANCH  10  12
ATOM     12  C   UNL A   1      30.947  24.942  23.061  1.00  0.00     0.041 A 
ATOM     13  C   UNL A   1      31.936  25.792  22.565  1.00  0.00     0.033 A 
ATOM     14  C   UNL A   1      29.833  25.475  23.716  1.00  0.00     0.033 A 
ATOM     15  C   UNL A   1      31.698  27.168  22.507  1.00  0.00     0.088 A 
ATOM     16  C   UNL A   1      29.568  26.844  23.640  1.00  0.00     0.088 A 
ATOM     17  C   UNL A   1      30.481  27.675  22.984  1.00  0.00     0.269 A 
BRANCH  17  18
ATOM     18  N   UNL A   1      30.122  29.066  22.710  1.00  0.00     0.062 N 
ATOM     19  O   UNL A   1      29.566  29.312  21.630  1.00  0.00    -0.258 OA
ATOM     20  O   UNL A   1      30.352  29.897  23.599  1.00  0.00    -0.258 OA
ENDBRANCH  17  18
ENDBRANCH  10  12
ENDBRANCH   7   8
BRANCH   7  21
ATOM     21  C   UNL A   1      34.458  22.219  24.281  1.00  0.00     0.131 C 
ATOM     22  C   UNL A   1      35.614  22.756  23.465  1.00  0.00     0.035 C 
ATOM     23  O   UNL A   1      34.977  21.898  25.573  1.00  0.00    -0.377 OA
ATOM     24  C   UNL A   1      36.590  23.258  24.493  1.00  0.00     0.031 C 
ATOM     25  C   UNL A   1      36.332  22.350  25.671  1.00  0.00     0.160 C 
ENDBRANCH   7  21
ENDBRANCH   6   7
ENDBRANCH   4   6
ENDBRANCH   1   2
BRANCH   1  26
ATOM     26  C   UNL A   1      31.981  27.750  26.401  1.00  0.00     0.023 C 
BRANCH  26  27
ATOM     27  C   UNL A   1      33.364  27.833  25.750  1.00  0.00     0.023 C 
BRANCH  27  28
ATOM     28  C   UNL A   1      33.726  29.135  25.047  1.00  0.00     0.116 C 
BRANCH  28  29
ATOM     29  N   UNL A   1      33.010  30.274  25.588  1.00  0.00    -0.352 N 
ATOM     30  C   UNL A   1      33.240  30.981  26.746  1.00  0.00     0.251 C 
ATOM     31  H   UNL A   1      32.248  30.586  25.049  1.00  0.00     0.163 HD
ATOM     32  O   UNL A   1      32.410  31.798  27.131  1.00  0.00    -0.269 OA
BRANCH  30  33
ATOM     33  C   UNL A   1      34.468  30.757  27.549  1.00  0.00     0.039 A 
ATOM     34  C   UNL A   1      34.573  29.579  28.298  1.00  0.00     0.014 A 
ATOM     35  C   UNL A   1      35.491  31.707  27.615  1.00  0.00     0.014 A 
ATOM     36  C   UNL A   1      35.716  29.333  29.066  1.00  0.00     0.010 A 
ATOM     37  C   UNL A   1      36.659  31.432  28.330  1.00  0.00     0.010 A 
ATOM     38  C   UNL A   1      36.784  30.245  29.068  1.00  0.00    -0.014 A 
BRANCH  38  39
ATOM     39  C   UNL A   1      38.029  29.971  29.838  1.00  0.00     0.031 A 
ATOM     40  C   UNL A   1      39.081  29.045  29.285  1.00  0.00     0.074 A 
ATOM     41  C   UNL A   1      38.194  30.512  31.061  1.00  0.00     0.049 A 
ATOM     42  N   UNL A   1      40.197  28.637  29.835  1.00  0.00    -0.248 NA
ATOM     43  C   UNL A   1      38.835  28.490  27.946  1.00  0.00     0.031 C 
ATOM     44  C   UNL A   1      37.239  31.395  31.730  1.00  0.00     0.029 A 
ATOM     45  N   UNL A   1      39.221  30.389  31.965  1.00  0.00    -0.354 N 
ATOM     46  C   UNL A   1      40.775  27.766  28.921  1.00  0.00     0.074 A 
ATOM     47  C   UNL A   1      39.866  27.671  27.799  1.00  0.00     0.031 C 
ATOM     48  C   UNL A   1      37.730  31.748  32.929  1.00  0.00     0.029 A 
ATOM     49  C   UNL A   1      39.017  31.086  33.131  1.00  0.00     0.049 A 
ATOM     50  H   UNL A   1      40.028  29.851  31.794  1.00  0.00     0.167 HD
ATOM     51  C   UNL A   1      41.964  27.120  28.999  1.00  0.00     0.037 A 
ATOM     52  C   UNL A   1      39.773  31.176  34.242  1.00  0.00     0.037 A 
ATOM     53  C   UNL A   1      42.884  27.235  30.101  1.00  0.00     0.049 A 
ATOM     54  C   UNL A   1      41.085  30.439  34.307  1.00  0.00     0.074 A 
ATOM     55  C   UNL A   1      44.141  26.671  30.238  1.00  0.00     0.029 A 
ATOM     56  N   UNL A   1      42.645  27.961  31.259  1.00  0.00    -0.354 N 
ATOM     57  N   UNL A   1      41.652  29.677  33.405  1.00  0.00    -0.248 NA
ATOM     58  C   UNL A   1      41.865  30.583  35.544  1.00  0.00     0.031 C 
ATOM     59  C   UNL A   1      44.644  27.019  31.497  1.00  0.00     0.029 A 
ATOM     60  C   UNL A   1      43.722  27.841  32.123  1.00  0.00     0.049 A 
ATOM     61  H   UNL A   1      41.830  28.484  31.439  1.00  0.00     0.167 HD
ATOM     62  C   UNL A   1      42.864  29.275  33.951  1.00  0.00     0.074 A 
ATOM     63  C   UNL A   1      42.958  29.891  35.258  1.00  0.00     0.031 C 
ATOM     64  C   UNL A   1      43.812  28.468  33.416  1.00  0.00     0.037 A 
BRANCH  51  65
ATOM     65  C   UNL A   1      42.348  26.226  27.855  1.00  0.00     0.064 A 
ATOM     66  C   UNL A   1      41.832  24.928  27.731  1.00  0.00     0.173 A 
ATOM     67  C   UNL A   1      43.203  26.691  26.843  1.00  0.00     0.173 A 
ATOM     68  F   UNL A   1      41.018  24.432  28.675  1.00  0.00    -0.203 F 
ATOM     69  C   UNL A   1      42.178  24.119  26.651  1.00  0.00     0.198 A 
ATOM     70  C   UNL A   1      43.523  25.890  25.750  1.00  0.00     0.198 A 
ATOM     71  F   UNL A   1      43.718  27.928  26.908  1.00  0.00    -0.203 F 
ATOM     72  F   UNL A   1      41.708  22.865  26.579  1.00  0.00    -0.200 F 
ATOM     73  C   UNL A   1      43.016  24.602  25.659  1.00  0.00     0.200 A 
ATOM     74  F   UNL A   1      44.324  26.363  24.785  1.00  0.00    -0.200 F 
ATOM     75  F   UNL A   1      43.342  23.825  24.617  1.00  0.00    -0.200 F 
ENDBRANCH  51  65
BRANCH  52  76
ATOM     76  C   UNL A   1      39.321  32.013  35.384  1.00  0.00     0.064 A 
ATOM     77  C   UNL A   1      38.481  31.484  36.374  1.00  0.00     0.173 A 
ATOM     78  C   UNL A   1      39.705  33.356  35.503  1.00  0.00     0.173 A 
ATOM     79  F   UNL A   1      38.067  30.212  36.291  1.00  0.00    -0.203 F 
ATOM     80  C   UNL A   1      38.024  32.274  37.427  1.00  0.00     0.198 A 
ATOM     81  C   UNL A   1      39.271  34.137  36.572  1.00  0.00     0.198 A 
ATOM     82  F   UNL A   1      40.510  33.909  34.584  1.00  0.00    -0.203 F 
ATOM     83  F   UNL A   1      37.183  31.757  38.333  1.00  0.00    -0.200 F 
ATOM     84  C   UNL A   1      38.424  33.598  37.530  1.00  0.00     0.200 A 
ATOM     85  F   UNL A   1      39.671  35.411  36.675  1.00  0.00    -0.200 F 
ATOM     86  F   UNL A   1      37.987  34.356  38.543  1.00  0.00    -0.200 F 
ENDBRANCH  52  76
BRANCH  64  87
ATOM     87  C   UNL A   1      45.056  28.234  34.225  1.00  0.00     0.064 A 
ATOM     88  C   UNL A   1      46.164  29.089  34.136  1.00  0.00     0.173 A 
ATOM     89  C   UNL A   1      45.124  27.161  35.127  1.00  0.00     0.173 A 
ATOM     90  F   UNL A   1      46.156  30.119  33.277  1.00  0.00    -0.203 F 
ATOM     91  C   UNL A   1      47.304  28.864  34.903  1.00  0.00     0.198 A 
ATOM     92  C   UNL A   1      46.253  26.957  35.914  1.00  0.00     0.198 A 
ATOM     93  F   UNL A   1      44.088  26.317  35.254  1.00  0.00    -0.203 F 
ATOM     94  F   UNL A   1      48.369  29.666  34.770  1.00  0.00    -0.200 F 
ATOM     95  C   UNL A   1      47.345  27.804  35.797  1.00  0.00     0.200 A 
ATOM     96  F   UNL A   1      46.286  25.939  36.785  1.00  0.00    -0.200 F 
ATOM     97  F   UNL A   1      48.440  27.593  36.540  1.00  0.00    -0.200 F 
ENDBRANCH  64  87
ENDBRANCH  38  39
ENDBRANCH  30  33
ENDBRANCH  28  29
ENDBRANCH  27  28
ENDBRANCH  26  27
ENDBRANCH   1  26
TORSDOF 16
ENDMDL
