MODEL 1
REMARK VINA RESULT:     -13.0      0.000      0.000
REMARK SMILES O=CN1CC[NH+](C[C@@H](CC(=O)Nc2ccc(C(F)(F)F)nc2)C(=O)NCCCCNC(=O)c2ccc(-c3c4nc(c(-c5c(F)c(F)c(F)c(F)c5F)c5ccc([nH]5)c(-c5c(F)c(F)c(F)c(F)c5F)c5nc(c(-c6c(F)c(F)c(F)c(F)c6F)c6ccc3[nH]6)C=C5)C=C4)cc2)CC1
REMARK SMILES IDX 26 1 25 2 23 3 24 4 8 6 7 7 6 8 1 9 2 10 3 11 4 12 97 13
REMARK SMILES IDX 5 14 96 15 9 17 10 18 11 19 12 20 13 22 14 23 22 24 15 25
REMARK SMILES IDX 21 26 16 27 17 28 18 29 19 30 20 31 27 32 28 33 29 34 30 35
REMARK SMILES IDX 31 36 32 38 33 39 34 40 95 41 35 42 94 43 36 44 37 45 38 46
REMARK SMILES IDX 88 47 39 48 93 49 87 50 89 51 40 52 92 53 86 54 85 55 41 57
REMARK SMILES IDX 73 58 53 59 72 60 54 61 57 62 71 63 90 64 55 65 56 66 70 68
REMARK SMILES IDX 91 69 58 70 42 71 43 72 51 73 44 74 45 75 49 76 52 77 46 78
REMARK SMILES IDX 47 79 50 80 48 81 74 82 75 83 83 84 76 85 77 86 81 87 84 88
REMARK SMILES IDX 78 89 79 90 82 91 80 92 59 93 60 94 68 95 61 96 62 97 66 98
REMARK SMILES IDX 69 99 63 100 64 101 67 102 65 103
REMARK H PARENT 25 5 6 16 12 21 30 37 89 56 57 67
REMARK Flexibility Score: inf
ROOT
ATOM      1  C   UNL A   1      32.181  27.278  27.124  1.00  0.00     0.116 C 
ENDROOT
BRANCH   1   2
ATOM      2  N   UNL A   1      31.410  26.265  26.476  1.00  0.00    -0.356 N 
ATOM      3  C   UNL A   1      31.922  25.259  25.703  1.00  0.00     0.229 C 
ATOM      4  O   UNL A   1      31.146  24.372  25.338  1.00  0.00    -0.275 OA
ATOM      5  H   UNL A   1      30.433  26.292  26.597  1.00  0.00     0.163 HD
BRANCH   3   6
ATOM      6  C   UNL A   1      33.391  25.272  25.197  1.00  0.00     0.142 C 
BRANCH   6   7
ATOM      7  C   UNL A   1      33.965  23.859  25.385  1.00  0.00     0.276 C 
BRANCH   7   8
ATOM      8  N   UNL A   1      34.386  22.966  24.295  1.00  0.00    -0.331 N 
ATOM      9  O   UNL A   1      32.153  18.372  24.549  1.00  0.00    -0.279 OA
ATOM     10  C   UNL A   1      33.242  18.851  24.820  1.00  0.00     0.340 C 
ATOM     11  N   UNL A   1      33.593  20.177  24.694  1.00  0.00    -0.334 N 
ATOM     12  C   UNL A   1      34.838  20.663  25.259  1.00  0.00     0.180 C 
ATOM     13  C   UNL A   1      32.602  21.175  24.294  1.00  0.00     0.180 C 
ATOM     14  C   UNL A   1      35.367  21.903  24.530  1.00  0.00     0.284 C 
ATOM     15  C   UNL A   1      33.236  22.379  23.567  1.00  0.00     0.284 C 
ATOM     16  H   UNL A   1      34.909  23.650  23.748  1.00  0.00     0.348 HD
ENDBRANCH   7   8
ENDBRANCH   6   7
BRANCH   6  17
ATOM     17  C   UNL A   1      33.672  26.172  23.984  1.00  0.00     0.119 C 
BRANCH  17  18
ATOM     18  C   UNL A   1      33.174  26.191  22.524  1.00  0.00     0.225 C 
ATOM     19  O   UNL A   1      33.881  25.576  21.705  1.00  0.00    -0.275 OA
ATOM     20  N   UNL A   1      32.014  26.650  21.992  1.00  0.00    -0.325 N 
ATOM     21  H   UNL A   1      31.877  26.317  21.077  1.00  0.00     0.169 HD
BRANCH  20  22
ATOM     22  C   UNL A   1      30.964  27.475  22.408  1.00  0.00     0.059 A 
ATOM     23  C   UNL A   1      29.920  27.087  23.232  1.00  0.00     0.030 A 
ATOM     24  C   UNL A   1      31.011  28.824  22.076  1.00  0.00     0.137 A 
ATOM     25  C   UNL A   1      28.867  27.965  23.499  1.00  0.00     0.035 A 
ATOM     26  N   UNL A   1      30.008  29.704  22.306  1.00  0.00    -0.250 NA
ATOM     27  C   UNL A   1      28.899  29.241  22.950  1.00  0.00     0.144 A 
BRANCH  27  28
ATOM     28  C   UNL A   1      27.653  30.109  23.048  1.00  0.00     0.433 C 
ATOM     29  F   UNL A   1      27.331  30.712  21.870  1.00  0.00    -0.165 F 
ATOM     30  F   UNL A   1      26.541  29.432  23.450  1.00  0.00    -0.165 F 
ATOM     31  F   UNL A   1      27.799  31.129  23.950  1.00  0.00    -0.165 F 
ENDBRANCH  27  28
ENDBRANCH  20  22
ENDBRANCH  17  18
ENDBRANCH   6  17
ENDBRANCH   3   6
ENDBRANCH   1   2
BRANCH   1  32
ATOM     32  C   UNL A   1      31.490  28.563  27.526  1.00  0.00     0.023 C 
BRANCH  32  33
ATOM     33  C   UNL A   1      31.515  29.646  26.470  1.00  0.00     0.023 C 
BRANCH  33  34
ATOM     34  C   UNL A   1      32.797  30.464  26.418  1.00  0.00     0.116 C 
BRANCH  34  35
ATOM     35  N   UNL A   1      32.655  31.848  26.860  1.00  0.00    -0.352 N 
ATOM     36  C   UNL A   1      33.536  32.587  27.623  1.00  0.00     0.251 C 
ATOM     37  H   UNL A   1      31.832  32.310  26.580  1.00  0.00     0.163 HD
ATOM     38  O   UNL A   1      33.259  33.716  28.008  1.00  0.00    -0.269 OA
BRANCH  36  39
ATOM     39  C   UNL A   1      34.814  31.955  28.009  1.00  0.00     0.039 A 
ATOM     40  C   UNL A   1      35.952  32.746  28.156  1.00  0.00     0.014 A 
ATOM     41  C   UNL A   1      34.827  30.607  28.374  1.00  0.00     0.014 A 
ATOM     42  C   UNL A   1      37.083  32.202  28.766  1.00  0.00     0.010 A 
ATOM     43  C   UNL A   1      35.903  30.113  29.097  1.00  0.00     0.010 A 
ATOM     44  C   UNL A   1      37.048  30.899  29.291  1.00  0.00    -0.014 A 
BRANCH  44  45
ATOM     45  C   UNL A   1      38.207  30.321  30.021  1.00  0.00     0.031 A 
ATOM     46  C   UNL A   1      38.470  30.740  31.442  1.00  0.00     0.074 A 
ATOM     47  C   UNL A   1      39.055  29.480  29.396  1.00  0.00     0.049 A 
ATOM     48  N   UNL A   1      39.457  30.411  32.236  1.00  0.00    -0.248 NA
ATOM     49  C   UNL A   1      37.514  31.689  32.040  1.00  0.00     0.031 C 
ATOM     50  C   UNL A   1      38.946  29.042  28.003  1.00  0.00     0.029 A 
ATOM     51  N   UNL A   1      40.182  28.843  29.854  1.00  0.00    -0.354 N 
ATOM     52  C   UNL A   1      39.246  31.123  33.410  1.00  0.00     0.074 A 
ATOM     53  C   UNL A   1      38.091  31.963  33.197  1.00  0.00     0.031 C 
ATOM     54  C   UNL A   1      39.937  28.177  27.733  1.00  0.00     0.029 A 
ATOM     55  C   UNL A   1      40.778  28.031  28.918  1.00  0.00     0.049 A 
ATOM     56  H   UNL A   1      40.530  28.957  30.767  1.00  0.00     0.167 HD
ATOM     57  C   UNL A   1      39.929  31.052  34.577  1.00  0.00     0.037 A 
ATOM     58  C   UNL A   1      41.878  27.258  29.010  1.00  0.00     0.037 A 
ATOM     59  C   UNL A   1      41.060  30.193  34.795  1.00  0.00     0.049 A 
ATOM     60  C   UNL A   1      42.630  27.209  30.315  1.00  0.00     0.074 A 
ATOM     61  C   UNL A   1      41.792  30.007  35.954  1.00  0.00     0.029 A 
ATOM     62  N   UNL A   1      41.625  29.376  33.826  1.00  0.00    -0.354 N 
ATOM     63  N   UNL A   1      42.377  27.829  31.442  1.00  0.00    -0.248 NA
ATOM     64  C   UNL A   1      43.817  26.344  30.360  1.00  0.00     0.031 C 
ATOM     65  C   UNL A   1      42.834  29.119  35.672  1.00  0.00     0.029 A 
ATOM     66  C   UNL A   1      42.712  28.700  34.357  1.00  0.00     0.049 A 
ATOM     67  H   UNL A   1      41.302  29.290  32.901  1.00  0.00     0.167 HD
ATOM     68  C   UNL A   1      43.347  27.400  32.340  1.00  0.00     0.074 A 
ATOM     69  C   UNL A   1      44.185  26.458  31.628  1.00  0.00     0.031 C 
ATOM     70  C   UNL A   1      43.525  27.752  33.637  1.00  0.00     0.037 A 
BRANCH  57  71
ATOM     71  C   UNL A   1      39.457  31.926  35.706  1.00  0.00     0.064 A 
ATOM     72  C   UNL A   1      38.471  31.496  36.610  1.00  0.00     0.173 A 
ATOM     73  C   UNL A   1      40.003  33.204  35.893  1.00  0.00     0.173 A 
ATOM     74  F   UNL A   1      37.904  30.288  36.466  1.00  0.00    -0.203 F 
ATOM     75  C   UNL A   1      38.023  32.327  37.631  1.00  0.00     0.198 A 
ATOM     76  C   UNL A   1      39.579  34.018  36.941  1.00  0.00     0.198 A 
ATOM     77  F   UNL A   1      40.949  33.665  35.062  1.00  0.00    -0.203 F 
ATOM     78  F   UNL A   1      37.033  31.920  38.439  1.00  0.00    -0.200 F 
ATOM     79  C   UNL A   1      38.581  33.585  37.801  1.00  0.00     0.200 A 
ATOM     80  F   UNL A   1      40.131  35.227  37.113  1.00  0.00    -0.200 F 
ATOM     81  F   UNL A   1      38.152  34.382  38.788  1.00  0.00    -0.200 F 
ENDBRANCH  57  71
BRANCH  58  82
ATOM     82  C   UNL A   1      42.315  26.436  27.849  1.00  0.00     0.064 A 
ATOM     83  C   UNL A   1      43.304  26.903  26.970  1.00  0.00     0.173 A 
ATOM     84  C   UNL A   1      41.747  25.183  27.580  1.00  0.00     0.173 A 
ATOM     85  F   UNL A   1      43.866  28.105  27.170  1.00  0.00    -0.203 F 
ATOM     86  C   UNL A   1      43.686  26.162  25.853  1.00  0.00     0.198 A 
ATOM     87  C   UNL A   1      42.153  24.428  26.481  1.00  0.00     0.198 A 
ATOM     88  F   UNL A   1      40.802  24.686  28.391  1.00  0.00    -0.203 F 
ATOM     89  F   UNL A   1      44.594  26.658  25.002  1.00  0.00    -0.200 F 
ATOM     90  C   UNL A   1      43.114  24.922  25.613  1.00  0.00     0.200 A 
ATOM     91  F   UNL A   1      41.608  23.223  26.262  1.00  0.00    -0.200 F 
ATOM     92  F   UNL A   1      43.483  24.208  24.541  1.00  0.00    -0.200 F 
ENDBRANCH  58  82
BRANCH  70  93
ATOM     93  C   UNL A   1      44.637  27.077  34.390  1.00  0.00     0.064 A 
ATOM     94  C   UNL A   1      44.448  25.858  35.057  1.00  0.00     0.173 A 
ATOM     95  C   UNL A   1      45.922  27.642  34.408  1.00  0.00     0.173 A 
ATOM     96  F   UNL A   1      43.236  25.282  35.082  1.00  0.00    -0.203 F 
ATOM     97  C   UNL A   1      45.495  25.247  35.742  1.00  0.00     0.198 A 
ATOM     98  C   UNL A   1      46.975  27.009  35.061  1.00  0.00     0.198 A 
ATOM     99  F   UNL A   1      46.160  28.803  33.777  1.00  0.00    -0.203 F 
ATOM    100  F   UNL A   1      45.278  24.111  36.419  1.00  0.00    -0.200 F 
ATOM    101  C   UNL A   1      46.759  25.818  35.735  1.00  0.00     0.200 A 
ATOM    102  F   UNL A   1      48.199  27.554  35.038  1.00  0.00    -0.200 F 
ATOM    103  F   UNL A   1      47.768  25.223  36.386  1.00  0.00    -0.200 F 
ENDBRANCH  70  93
ENDBRANCH  44  45
ENDBRANCH  36  39
ENDBRANCH  34  35
ENDBRANCH  33  34
ENDBRANCH  32  33
ENDBRANCH   1  32
TORSDOF 17
ENDMDL
MODEL 2
REMARK VINA RESULT:     -12.9      2.957      4.872
REMARK SMILES O=CN1CC[NH+](C[C@@H](CC(=O)Nc2ccc(C(F)(F)F)nc2)C(=O)NCCCCNC(=O)c2ccc(-c3c4nc(c(-c5c(F)c(F)c(F)c(F)c5F)c5ccc([nH]5)c(-c5c(F)c(F)c(F)c(F)c5F)c5nc(c(-c6c(F)c(F)c(F)c(F)c6F)c6ccc3[nH]6)C=C5)C=C4)cc2)CC1
REMARK SMILES IDX 26 1 25 2 23 3 24 4 8 6 7 7 6 8 1 9 2 10 3 11 4 12 97 13
REMARK SMILES IDX 5 14 96 15 9 17 10 18 11 19 12 20 13 22 14 23 22 24 15 25
REMARK SMILES IDX 21 26 16 27 17 28 18 29 19 30 20 31 27 32 28 33 29 34 30 35
REMARK SMILES IDX 31 36 32 38 33 39 34 40 95 41 35 42 94 43 36 44 37 45 38 46
REMARK SMILES IDX 88 47 39 48 93 49 87 50 89 51 40 52 92 53 86 54 85 55 41 57
REMARK SMILES IDX 73 58 53 59 72 60 54 61 57 62 71 63 90 64 55 65 56 66 70 68
REMARK SMILES IDX 91 69 58 70 42 71 43 72 51 73 44 74 45 75 49 76 52 77 46 78
REMARK SMILES IDX 47 79 50 80 48 81 74 82 75 83 83 84 76 85 77 86 81 87 84 88
REMARK SMILES IDX 78 89 79 90 82 91 80 92 59 93 60 94 68 95 61 96 62 97 66 98
REMARK SMILES IDX 69 99 63 100 64 101 67 102 65 103
REMARK H PARENT 25 5 6 16 12 21 30 37 89 56 57 67
REMARK Flexibility Score: inf
ROOT
ATOM      1  C   UNL A   1      33.263  29.620  26.599  1.00  0.00     0.116 C 
ENDROOT
BRANCH   1   2
ATOM      2  N   UNL A   1      33.671  29.694  25.232  1.00  0.00    -0.356 N 
ATOM      3  C   UNL A   1      33.364  28.773  24.268  1.00  0.00     0.229 C 
ATOM      4  O   UNL A   1      33.656  29.053  23.103  1.00  0.00    -0.275 OA
ATOM      5  H   UNL A   1      34.214  30.469  24.963  1.00  0.00     0.163 HD
BRANCH   3   6
ATOM      6  C   UNL A   1      32.775  27.378  24.614  1.00  0.00     0.142 C 
BRANCH   6   7
ATOM      7  C   UNL A   1      31.244  27.489  24.570  1.00  0.00     0.276 C 
BRANCH   7   8
ATOM      8  N   UNL A   1      30.397  27.055  23.450  1.00  0.00    -0.331 N 
ATOM      9  O   UNL A   1      28.238  30.983  20.985  1.00  0.00    -0.279 OA
ATOM     10  C   UNL A   1      27.895  30.147  21.805  1.00  0.00     0.340 C 
ATOM     11  N   UNL A   1      28.707  29.186  22.365  1.00  0.00    -0.334 N 
ATOM     12  C   UNL A   1      28.244  28.397  23.490  1.00  0.00     0.180 C 
ATOM     13  C   UNL A   1      30.140  29.159  22.070  1.00  0.00     0.180 C 
ATOM     14  C   UNL A   1      28.936  27.033  23.575  1.00  0.00     0.284 C 
ATOM     15  C   UNL A   1      30.739  27.741  22.181  1.00  0.00     0.284 C 
ATOM     16  H   UNL A   1      30.647  26.067  23.459  1.00  0.00     0.348 HD
ENDBRANCH   7   8
ENDBRANCH   6   7
BRANCH   6  17
ATOM     17  C   UNL A   1      33.576  26.170  24.104  1.00  0.00     0.119 C 
BRANCH  17  18
ATOM     18  C   UNL A   1      33.649  25.424  22.755  1.00  0.00     0.225 C 
ATOM     19  O   UNL A   1      33.784  26.142  21.748  1.00  0.00    -0.275 OA
ATOM     20  N   UNL A   1      33.732  24.098  22.483  1.00  0.00    -0.325 N 
ATOM     21  H   UNL A   1      34.001  23.934  21.550  1.00  0.00     0.169 HD
BRANCH  20  22
ATOM     22  C   UNL A   1      33.533  22.903  23.184  1.00  0.00     0.059 A 
ATOM     23  C   UNL A   1      34.225  22.518  24.320  1.00  0.00     0.030 A 
ATOM     24  C   UNL A   1      32.486  22.075  22.795  1.00  0.00     0.137 A 
ATOM     25  C   UNL A   1      34.018  21.255  24.879  1.00  0.00     0.035 A 
ATOM     26  N   UNL A   1      32.259  20.841  23.304  1.00  0.00    -0.250 NA
ATOM     27  C   UNL A   1      33.088  20.405  24.294  1.00  0.00     0.144 A 
BRANCH  27  28
ATOM     28  C   UNL A   1      33.030  18.957  24.758  1.00  0.00     0.433 C 
ATOM     29  F   UNL A   1      32.036  18.246  24.157  1.00  0.00    -0.165 F 
ATOM     30  F   UNL A   1      34.183  18.263  24.540  1.00  0.00    -0.165 F 
ATOM     31  F   UNL A   1      32.793  18.849  26.101  1.00  0.00    -0.165 F 
ENDBRANCH  27  28
ENDBRANCH  20  22
ENDBRANCH  17  18
ENDBRANCH   6  17
ENDBRANCH   3   6
ENDBRANCH   1   2
BRANCH   1  32
ATOM     32  C   UNL A   1      31.932  30.226  26.989  1.00  0.00     0.023 C 
BRANCH  32  33
ATOM     33  C   UNL A   1      31.818  31.711  26.726  1.00  0.00     0.023 C 
BRANCH  33  34
ATOM     34  C   UNL A   1      32.873  32.569  27.411  1.00  0.00     0.116 C 
BRANCH  34  35
ATOM     35  N   UNL A   1      32.471  33.951  27.652  1.00  0.00    -0.352 N 
ATOM     36  C   UNL A   1      33.003  34.839  28.565  1.00  0.00     0.251 C 
ATOM     37  H   UNL A   1      31.733  34.292  27.097  1.00  0.00     0.163 HD
ATOM     38  O   UNL A   1      32.517  35.949  28.738  1.00  0.00    -0.269 OA
BRANCH  36  39
ATOM     39  C   UNL A   1      34.158  34.392  29.371  1.00  0.00     0.039 A 
ATOM     40  C   UNL A   1      33.939  33.620  30.511  1.00  0.00     0.014 A 
ATOM     41  C   UNL A   1      35.452  34.614  28.893  1.00  0.00     0.014 A 
ATOM     42  C   UNL A   1      35.022  32.984  31.119  1.00  0.00     0.010 A 
ATOM     43  C   UNL A   1      36.501  33.876  29.421  1.00  0.00     0.010 A 
ATOM     44  C   UNL A   1      36.303  33.062  30.546  1.00  0.00    -0.014 A 
BRANCH  44  45
ATOM     45  C   UNL A   1      37.460  32.328  31.121  1.00  0.00     0.031 A 
ATOM     46  C   UNL A   1      37.959  32.690  32.494  1.00  0.00     0.074 A 
ATOM     47  C   UNL A   1      38.101  31.390  30.395  1.00  0.00     0.049 A 
ATOM     48  N   UNL A   1      38.989  32.225  33.154  1.00  0.00    -0.248 NA
ATOM     49  C   UNL A   1      37.223  33.749  33.207  1.00  0.00     0.031 C 
ATOM     50  C   UNL A   1      37.754  30.988  29.030  1.00  0.00     0.029 A 
ATOM     51  N   UNL A   1      39.184  30.604  30.705  1.00  0.00    -0.354 N 
ATOM     52  C   UNL A   1      39.029  32.943  34.342  1.00  0.00     0.074 A 
ATOM     53  C   UNL A   1      37.977  33.931  34.278  1.00  0.00     0.031 C 
ATOM     54  C   UNL A   1      38.579  30.003  28.637  1.00  0.00     0.029 A 
ATOM     55  C   UNL A   1      39.540  29.733  29.703  1.00  0.00     0.049 A 
ATOM     56  H   UNL A   1      39.660  30.660  31.564  1.00  0.00     0.167 HD
ATOM     57  C   UNL A   1      39.842  32.768  35.410  1.00  0.00     0.037 A 
ATOM     58  C   UNL A   1      40.530  28.821  29.653  1.00  0.00     0.037 A 
ATOM     59  C   UNL A   1      40.869  31.765  35.482  1.00  0.00     0.049 A 
ATOM     60  C   UNL A   1      41.433  28.657  30.849  1.00  0.00     0.074 A 
ATOM     61  C   UNL A   1      41.714  31.469  36.536  1.00  0.00     0.029 A 
ATOM     62  N   UNL A   1      41.190  30.893  34.452  1.00  0.00    -0.354 N 
ATOM     63  N   UNL A   1      41.413  29.290  31.997  1.00  0.00    -0.248 NA
ATOM     64  C   UNL A   1      42.491  27.642  30.743  1.00  0.00     0.031 C 
ATOM     65  C   UNL A   1      42.584  30.456  36.124  1.00  0.00     0.029 A 
ATOM     66  C   UNL A   1      42.238  30.073  34.838  1.00  0.00     0.049 A 
ATOM     67  H   UNL A   1      40.741  30.861  33.577  1.00  0.00     0.167 HD
ATOM     68  C   UNL A   1      42.426  28.726  32.762  1.00  0.00     0.074 A 
ATOM     69  C   UNL A   1      43.033  27.691  31.952  1.00  0.00     0.031 C 
ATOM     70  C   UNL A   1      42.817  29.035  34.023  1.00  0.00     0.037 A 
BRANCH  57  71
ATOM     71  C   UNL A   1      39.641  33.682  36.586  1.00  0.00     0.064 A 
ATOM     72  C   UNL A   1      38.842  33.311  37.681  1.00  0.00     0.173 A 
ATOM     73  C   UNL A   1      40.262  34.939  36.626  1.00  0.00     0.173 A 
ATOM     74  F   UNL A   1      38.212  32.126  37.686  1.00  0.00    -0.203 F 
ATOM     75  C   UNL A   1      38.641  34.180  38.749  1.00  0.00     0.198 A 
ATOM     76  C   UNL A   1      40.089  35.790  37.715  1.00  0.00     0.198 A 
ATOM     77  F   UNL A   1      41.038  35.344  35.610  1.00  0.00    -0.203 F 
ATOM     78  F   UNL A   1      37.819  33.831  39.749  1.00  0.00    -0.200 F 
ATOM     79  C   UNL A   1      39.269  35.416  38.769  1.00  0.00     0.200 A 
ATOM     80  F   UNL A   1      40.710  36.977  37.741  1.00  0.00    -0.200 F 
ATOM     81  F   UNL A   1      39.079  36.248  39.801  1.00  0.00    -0.200 F 
ENDBRANCH  57  71
BRANCH  58  82
ATOM     82  C   UNL A   1      40.701  27.963  28.450  1.00  0.00     0.064 A 
ATOM     83  C   UNL A   1      41.468  28.399  27.359  1.00  0.00     0.173 A 
ATOM     84  C   UNL A   1      40.089  26.706  28.350  1.00  0.00     0.173 A 
ATOM     85  F   UNL A   1      42.059  29.604  27.394  1.00  0.00    -0.203 F 
ATOM     86  C   UNL A   1      41.594  27.624  26.208  1.00  0.00     0.198 A 
ATOM     87  C   UNL A   1      40.241  25.917  27.212  1.00  0.00     0.198 A 
ATOM     88  F   UNL A   1      39.348  26.238  29.366  1.00  0.00    -0.203 F 
ATOM     89  F   UNL A   1      42.290  28.090  25.162  1.00  0.00    -0.200 F 
ATOM     90  C   UNL A   1      40.985  26.380  26.137  1.00  0.00     0.200 A 
ATOM     91  F   UNL A   1      39.663  24.708  27.154  1.00  0.00    -0.200 F 
ATOM     92  F   UNL A   1      41.108  25.633  25.032  1.00  0.00    -0.200 F 
ENDBRANCH  58  82
BRANCH  70  93
ATOM     93  C   UNL A   1      43.918  28.210  34.628  1.00  0.00     0.064 A 
ATOM     94  C   UNL A   1      43.661  27.006  35.298  1.00  0.00     0.173 A 
ATOM     95  C   UNL A   1      45.257  28.615  34.496  1.00  0.00     0.173 A 
ATOM     96  F   UNL A   1      42.398  26.581  35.463  1.00  0.00    -0.203 F 
ATOM     97  C   UNL A   1      44.699  26.254  35.843  1.00  0.00     0.198 A 
ATOM     98  C   UNL A   1      46.293  27.841  35.008  1.00  0.00     0.198 A 
ATOM     99  F   UNL A   1      45.559  29.754  33.855  1.00  0.00    -0.203 F 
ATOM    100  F   UNL A   1      44.424  25.135  36.528  1.00  0.00    -0.200 F 
ATOM    101  C   UNL A   1      46.014  26.667  35.690  1.00  0.00     0.200 A 
ATOM    102  F   UNL A   1      47.564  28.234  34.844  1.00  0.00    -0.200 F 
ATOM    103  F   UNL A   1      47.011  25.937  36.207  1.00  0.00    -0.200 F 
ENDBRANCH  70  93
ENDBRANCH  44  45
ENDBRANCH  36  39
ENDBRANCH  34  35
ENDBRANCH  33  34
ENDBRANCH  32  33
ENDBRANCH   1  32
TORSDOF 17
ENDMDL
MODEL 3
REMARK VINA RESULT:     -12.8      4.530     10.167
REMARK SMILES O=CN1CC[NH+](C[C@@H](CC(=O)Nc2ccc(C(F)(F)F)nc2)C(=O)NCCCCNC(=O)c2ccc(-c3c4nc(c(-c5c(F)c(F)c(F)c(F)c5F)c5ccc([nH]5)c(-c5c(F)c(F)c(F)c(F)c5F)c5nc(c(-c6c(F)c(F)c(F)c(F)c6F)c6ccc3[nH]6)C=C5)C=C4)cc2)CC1
REMARK SMILES IDX 26 1 25 2 23 3 24 4 8 6 7 7 6 8 1 9 2 10 3 11 4 12 97 13
REMARK SMILES IDX 5 14 96 15 9 17 10 18 11 19 12 20 13 22 14 23 22 24 15 25
REMARK SMILES IDX 21 26 16 27 17 28 18 29 19 30 20 31 27 32 28 33 29 34 30 35
REMARK SMILES IDX 31 36 32 38 33 39 34 40 95 41 35 42 94 43 36 44 37 45 38 46
REMARK SMILES IDX 88 47 39 48 93 49 87 50 89 51 40 52 92 53 86 54 85 55 41 57
REMARK SMILES IDX 73 58 53 59 72 60 54 61 57 62 71 63 90 64 55 65 56 66 70 68
REMARK SMILES IDX 91 69 58 70 42 71 43 72 51 73 44 74 45 75 49 76 52 77 46 78
REMARK SMILES IDX 47 79 50 80 48 81 74 82 75 83 83 84 76 85 77 86 81 87 84 88
REMARK SMILES IDX 78 89 79 90 82 91 80 92 59 93 60 94 68 95 61 96 62 97 66 98
REMARK SMILES IDX 69 99 63 100 64 101 67 102 65 103
REMARK H PARENT 25 5 6 16 12 21 30 37 89 56 57 67
REMARK Flexibility Score: inf
ROOT
ATOM      1  C   UNL A   1      34.960  24.113  24.265  1.00  0.00     0.116 C 
ENDROOT
BRANCH   1   2
ATOM      2  N   UNL A   1      34.267  25.100  23.499  1.00  0.00    -0.356 N 
ATOM      3  C   UNL A   1      33.648  26.205  24.014  1.00  0.00     0.229 C 
ATOM      4  O   UNL A   1      33.225  27.044  23.215  1.00  0.00    -0.275 OA
ATOM      5  H   UNL A   1      34.234  24.975  22.523  1.00  0.00     0.163 HD
BRANCH   3   6
ATOM      6  C   UNL A   1      33.375  26.366  25.535  1.00  0.00     0.142 C 
BRANCH   6   7
ATOM      7  C   UNL A   1      33.702  27.816  25.922  1.00  0.00     0.276 C 
BRANCH   7   8
ATOM      8  N   UNL A   1      33.542  28.389  27.267  1.00  0.00    -0.331 N 
ATOM      9  O   UNL A   1      31.778  33.189  27.158  1.00  0.00    -0.279 OA
ATOM     10  C   UNL A   1      32.854  32.637  27.324  1.00  0.00     0.340 C 
ATOM     11  N   UNL A   1      33.082  31.280  27.260  1.00  0.00    -0.334 N 
ATOM     12  C   UNL A   1      34.437  30.763  27.251  1.00  0.00     0.180 C 
ATOM     13  C   UNL A   1      32.010  30.362  26.876  1.00  0.00     0.180 C 
ATOM     14  C   UNL A   1      34.525  29.337  27.802  1.00  0.00     0.284 C 
ATOM     15  C   UNL A   1      32.189  28.956  27.484  1.00  0.00     0.284 C 
ATOM     16  H   UNL A   1      33.720  27.540  27.803  1.00  0.00     0.348 HD
ENDBRANCH   7   8
ENDBRANCH   6   7
BRANCH   6  17
ATOM     17  C   UNL A   1      32.187  25.564  26.089  1.00  0.00     0.119 C 
BRANCH  17  18
ATOM     18  C   UNL A   1      30.878  25.025  25.476  1.00  0.00     0.225 C 
ATOM     19  O   UNL A   1      29.897  25.787  25.544  1.00  0.00    -0.275 OA
ATOM     20  N   UNL A   1      30.640  23.908  24.745  1.00  0.00    -0.325 N 
ATOM     21  H   UNL A   1      29.765  23.948  24.295  1.00  0.00     0.169 HD
BRANCH  20  22
ATOM     22  C   UNL A   1      31.315  22.715  24.465  1.00  0.00     0.059 A 
ATOM     23  C   UNL A   1      31.818  22.352  23.226  1.00  0.00     0.030 A 
ATOM     24  C   UNL A   1      31.617  21.863  25.521  1.00  0.00     0.137 A 
ATOM     25  C   UNL A   1      32.384  21.089  23.036  1.00  0.00     0.035 A 
ATOM     26  N   UNL A   1      32.153  20.627  25.377  1.00  0.00    -0.250 NA
ATOM     27  C   UNL A   1      32.458  20.216  24.114  1.00  0.00     0.144 A 
BRANCH  27  28
ATOM     28  C   UNL A   1      32.857  18.770  23.856  1.00  0.00     0.433 C 
ATOM     29  F   UNL A   1      32.603  18.369  22.579  1.00  0.00    -0.165 F 
ATOM     30  F   UNL A   1      34.176  18.515  24.084  1.00  0.00    -0.165 F 
ATOM     31  F   UNL A   1      32.176  17.892  24.654  1.00  0.00    -0.165 F 
ENDBRANCH  27  28
ENDBRANCH  20  22
ENDBRANCH  17  18
ENDBRANCH   6  17
ENDBRANCH   3   6
ENDBRANCH   1   2
BRANCH   1  32
ATOM     32  C   UNL A   1      35.614  22.961  23.533  1.00  0.00     0.023 C 
BRANCH  32  33
ATOM     33  C   UNL A   1      35.930  21.763  24.401  1.00  0.00     0.023 C 
BRANCH  33  34
ATOM     34  C   UNL A   1      36.962  22.014  25.492  1.00  0.00     0.116 C 
BRANCH  34  35
ATOM     35  N   UNL A   1      37.997  20.990  25.597  1.00  0.00    -0.352 N 
ATOM     36  C   UNL A   1      39.266  21.121  26.123  1.00  0.00     0.251 C 
ATOM     37  H   UNL A   1      37.762  20.099  25.252  1.00  0.00     0.163 HD
ATOM     38  O   UNL A   1      40.080  20.208  26.070  1.00  0.00    -0.269 OA
BRANCH  36  39
ATOM     39  C   UNL A   1      39.637  22.423  26.714  1.00  0.00     0.039 A 
ATOM     40  C   UNL A   1      40.675  22.483  27.642  1.00  0.00     0.014 A 
ATOM     41  C   UNL A   1      39.053  23.591  26.217  1.00  0.00     0.014 A 
ATOM     42  C   UNL A   1      41.196  23.728  28.000  1.00  0.00     0.010 A 
ATOM     43  C   UNL A   1      39.659  24.812  26.474  1.00  0.00     0.010 A 
ATOM     44  C   UNL A   1      40.729  24.897  27.377  1.00  0.00    -0.014 A 
BRANCH  44  45
ATOM     45  C   UNL A   1      41.321  26.228  27.674  1.00  0.00     0.031 A 
ATOM     46  C   UNL A   1      42.728  26.528  27.232  1.00  0.00     0.074 A 
ATOM     47  C   UNL A   1      40.629  27.137  28.391  1.00  0.00     0.049 A 
ATOM     48  N   UNL A   1      43.456  27.595  27.444  1.00  0.00    -0.248 NA
ATOM     49  C   UNL A   1      43.426  25.469  26.484  1.00  0.00     0.031 C 
ATOM     50  C   UNL A   1      39.280  26.947  28.928  1.00  0.00     0.029 A 
ATOM     51  N   UNL A   1      40.969  28.405  28.793  1.00  0.00    -0.354 N 
ATOM     52  C   UNL A   1      44.692  27.325  26.872  1.00  0.00     0.074 A 
ATOM     53  C   UNL A   1      44.646  25.967  26.380  1.00  0.00     0.031 C 
ATOM     54  C   UNL A   1      38.892  28.072  29.551  1.00  0.00     0.029 A 
ATOM     55  C   UNL A   1      39.978  29.047  29.497  1.00  0.00     0.049 A 
ATOM     56  H   UNL A   1      41.841  28.816  28.596  1.00  0.00     0.167 HD
ATOM     57  C   UNL A   1      45.758  28.147  26.730  1.00  0.00     0.037 A 
ATOM     58  C   UNL A   1      39.951  30.281  30.035  1.00  0.00     0.037 A 
ATOM     59  C   UNL A   1      45.790  29.507  27.195  1.00  0.00     0.049 A 
ATOM     60  C   UNL A   1      41.156  31.173  29.878  1.00  0.00     0.074 A 
ATOM     61  C   UNL A   1      46.799  30.443  27.058  1.00  0.00     0.029 A 
ATOM     62  N   UNL A   1      44.761  30.124  27.891  1.00  0.00    -0.354 N 
ATOM     63  N   UNL A   1      42.292  30.933  29.268  1.00  0.00    -0.248 NA
ATOM     64  C   UNL A   1      41.070  32.511  30.478  1.00  0.00     0.031 C 
ATOM     65  C   UNL A   1      46.404  31.609  27.719  1.00  0.00     0.029 A 
ATOM     66  C   UNL A   1      45.121  31.424  28.211  1.00  0.00     0.049 A 
ATOM     67  H   UNL A   1      43.903  29.703  28.124  1.00  0.00     0.167 HD
ATOM     68  C   UNL A   1      43.038  32.100  29.377  1.00  0.00     0.074 A 
ATOM     69  C   UNL A   1      42.220  33.051  30.101  1.00  0.00     0.031 C 
ATOM     70  C   UNL A   1      44.286  32.362  28.918  1.00  0.00     0.037 A 
BRANCH  57  71
ATOM     71  C   UNL A   1      46.970  27.593  26.036  1.00  0.00     0.064 A 
ATOM     72  C   UNL A   1      48.022  26.996  26.751  1.00  0.00     0.173 A 
ATOM     73  C   UNL A   1      47.079  27.649  24.639  1.00  0.00     0.173 A 
ATOM     74  F   UNL A   1      47.976  26.930  28.091  1.00  0.00    -0.203 F 
ATOM     75  C   UNL A   1      49.152  26.514  26.098  1.00  0.00     0.198 A 
ATOM     76  C   UNL A   1      48.194  27.130  23.986  1.00  0.00     0.198 A 
ATOM     77  F   UNL A   1      46.104  28.205  23.905  1.00  0.00    -0.203 F 
ATOM     78  F   UNL A   1      50.171  26.011  26.808  1.00  0.00    -0.200 F 
ATOM     79  C   UNL A   1      49.235  26.575  24.715  1.00  0.00     0.200 A 
ATOM     80  F   UNL A   1      48.266  27.176  22.648  1.00  0.00    -0.200 F 
ATOM     81  F   UNL A   1      50.321  26.106  24.087  1.00  0.00    -0.200 F 
ENDBRANCH  57  71
BRANCH  58  82
ATOM     82  C   UNL A   1      38.733  30.768  30.738  1.00  0.00     0.064 A 
ATOM     83  C   UNL A   1      37.662  31.321  30.020  1.00  0.00     0.173 A 
ATOM     84  C   UNL A   1      38.619  30.712  32.134  1.00  0.00     0.173 A 
ATOM     85  F   UNL A   1      37.729  31.417  28.684  1.00  0.00    -0.203 F 
ATOM     86  C   UNL A   1      36.538  31.823  30.673  1.00  0.00     0.198 A 
ATOM     87  C   UNL A   1      37.480  31.184  32.784  1.00  0.00     0.198 A 
ATOM     88  F   UNL A   1      39.611  30.188  32.869  1.00  0.00    -0.203 F 
ATOM     89  F   UNL A   1      35.554  32.394  29.965  1.00  0.00    -0.200 F 
ATOM     90  C   UNL A   1      36.445  31.749  32.055  1.00  0.00     0.200 A 
ATOM     91  F   UNL A   1      37.388  31.096  34.119  1.00  0.00    -0.200 F 
ATOM     92  F   UNL A   1      35.363  32.229  32.683  1.00  0.00    -0.200 F 
ENDBRANCH  58  82
BRANCH  70  93
ATOM     93  C   UNL A   1      44.826  33.748  29.133  1.00  0.00     0.064 A 
ATOM     94  C   UNL A   1      44.567  34.793  28.235  1.00  0.00     0.173 A 
ATOM     95  C   UNL A   1      45.581  34.040  30.280  1.00  0.00     0.173 A 
ATOM     96  F   UNL A   1      43.863  34.564  27.116  1.00  0.00    -0.203 F 
ATOM     97  C   UNL A   1      45.072  36.072  28.460  1.00  0.00     0.198 A 
ATOM     98  C   UNL A   1      46.051  35.327  30.521  1.00  0.00     0.198 A 
ATOM     99  F   UNL A   1      45.849  33.078  31.177  1.00  0.00    -0.203 F 
ATOM    100  F   UNL A   1      44.859  37.041  27.560  1.00  0.00    -0.200 F 
ATOM    101  C   UNL A   1      45.805  36.340  29.607  1.00  0.00     0.200 A 
ATOM    102  F   UNL A   1      46.743  35.587  31.639  1.00  0.00    -0.200 F 
ATOM    103  F   UNL A   1      46.281  37.572  29.826  1.00  0.00    -0.200 F 
ENDBRANCH  70  93
ENDBRANCH  44  45
ENDBRANCH  36  39
ENDBRANCH  34  35
ENDBRANCH  33  34
ENDBRANCH  32  33
ENDBRANCH   1  32
TORSDOF 17
ENDMDL
