MODEL 1
REMARK VINA RESULT:     -12.0      0.000      0.000
REMARK SMILES O=C(C[NH+]1CC[NH+](Cc2cc(Cl)ccc2[N+](=O)[O-])CC1)NCCCCNC(=O)c1ccc(-c2c3nc(c(-c4c(F)c(F)c(F)c(F)c4F)c4ccc([nH]4)c(-c4c(F)c(F)c(F)c(F)c4F)c4nc(c(-c5c(F)c(F)c(F)c(F)c5F)c5ccc2[nH]5)C=C4)C=C3)cc1
REMARK SMILES IDX 22 1 21 2 1 3 2 4 3 6 4 7 5 8 20 9 6 11 19 12 7 13 8 15 9 16
REMARK SMILES IDX 10 17 15 18 11 19 14 20 12 21 13 22 16 23 17 24 18 25 23 26
REMARK SMILES IDX 24 27 25 28 26 29 27 30 28 32 29 33 30 34 91 35 31 36 90 37
REMARK SMILES IDX 32 38 33 39 34 40 84 41 35 42 89 43 83 44 85 45 36 46 88 47
REMARK SMILES IDX 82 48 81 49 37 51 69 52 49 53 68 54 50 55 53 56 67 57 86 58
REMARK SMILES IDX 51 59 52 60 66 62 87 63 54 64 38 65 39 66 47 67 40 68 41 69
REMARK SMILES IDX 45 70 48 71 42 72 43 73 46 74 44 75 70 76 71 77 79 78 72 79
REMARK SMILES IDX 73 80 77 81 80 82 74 83 75 84 78 85 76 86 55 87 56 88 64 89
REMARK SMILES IDX 57 90 58 91 62 92 65 93 59 94 60 95 63 96 61 97
REMARK H PARENT 21 5 4 10 7 14 26 31 85 50 53 61
REMARK Flexibility Score: inf
ROOT
ATOM      1  C   UNL A   1      36.754  21.801  25.581  1.00  0.00     0.116 C 
ENDROOT
BRANCH   1   2
ATOM      2  N   UNL A   1      35.425  22.252  25.226  1.00  0.00    -0.351 N 
ATOM      3  O   UNL A   1      34.414  20.203  25.384  1.00  0.00    -0.269 OA
ATOM      4  C   UNL A   1      34.338  21.407  25.144  1.00  0.00     0.275 C 
ATOM      5  H   UNL A   1      35.290  23.208  25.033  1.00  0.00     0.163 HD
BRANCH   4   6
ATOM      6  C   UNL A   1      33.011  22.051  24.684  1.00  0.00     0.363 C 
BRANCH   6   7
ATOM      7  N   UNL A   1      32.919  23.471  25.088  1.00  0.00    -0.318 N 
ATOM      8  C   UNL A   1      32.345  24.312  24.019  1.00  0.00     0.325 C 
ATOM      9  C   UNL A   1      32.176  23.633  26.357  1.00  0.00     0.325 C 
ATOM     10  H   UNL A   1      33.873  23.795  25.250  1.00  0.00     0.348 HD
ATOM     11  C   UNL A   1      30.807  24.466  23.972  1.00  0.00     0.324 C 
ATOM     12  C   UNL A   1      30.634  23.708  26.252  1.00  0.00     0.324 C 
ATOM     13  N   UNL A   1      30.133  24.657  25.257  1.00  0.00    -0.322 N 
ATOM     14  H   UNL A   1      29.156  24.411  25.104  1.00  0.00     0.348 HD
BRANCH  13  15
ATOM     15  C   UNL A   1      29.891  26.041  25.696  1.00  0.00     0.306 C 
BRANCH  15  16
ATOM     16  C   UNL A   1      30.935  27.077  25.322  1.00  0.00     0.085 A 
ATOM     17  C   UNL A   1      31.968  27.286  26.266  1.00  0.00     0.037 A 
ATOM     18  C   UNL A   1      30.932  27.907  24.176  1.00  0.00     0.278 A 
ATOM     19  C   UNL A   1      32.839  28.372  26.179  1.00  0.00     0.042 A 
ATOM     20  C   UNL A   1      31.836  28.993  24.089  1.00  0.00     0.088 A 
ATOM     21  Cl  UNL A   1      33.961  28.668  27.449  1.00  0.00    -0.084 Cl
ATOM     22  C   UNL A   1      32.760  29.243  25.104  1.00  0.00     0.027 A 
BRANCH  18  23
ATOM     23  N   UNL A   1      30.035  27.714  23.013  1.00  0.00     0.063 N 
ATOM     24  O   UNL A   1      28.816  27.830  23.212  1.00  0.00    -0.258 OA
ATOM     25  O   UNL A   1      30.523  27.457  21.910  1.00  0.00    -0.258 OA
ENDBRANCH  18  23
ENDBRANCH  15  16
ENDBRANCH  13  15
ENDBRANCH   6   7
ENDBRANCH   4   6
ENDBRANCH   1   2
BRANCH   1  26
ATOM     26  C   UNL A   1      37.407  20.960  24.483  1.00  0.00     0.023 C 
BRANCH  26  27
ATOM     27  C   UNL A   1      38.190  19.739  24.971  1.00  0.00     0.023 C 
BRANCH  27  28
ATOM     28  C   UNL A   1      39.306  20.020  25.975  1.00  0.00     0.116 C 
BRANCH  28  29
ATOM     29  N   UNL A   1      40.366  19.021  25.957  1.00  0.00    -0.352 N 
ATOM     30  C   UNL A   1      41.723  19.168  26.107  1.00  0.00     0.251 C 
ATOM     31  H   UNL A   1      40.061  18.096  25.814  1.00  0.00     0.163 HD
ATOM     32  O   UNL A   1      42.463  18.198  25.939  1.00  0.00    -0.269 OA
BRANCH  30  33
ATOM     33  C   UNL A   1      42.317  20.485  26.433  1.00  0.00     0.039 A 
ATOM     34  C   UNL A   1      42.803  21.278  25.388  1.00  0.00     0.014 A 
ATOM     35  C   UNL A   1      42.415  20.938  27.750  1.00  0.00     0.014 A 
ATOM     36  C   UNL A   1      43.314  22.550  25.657  1.00  0.00     0.010 A 
ATOM     37  C   UNL A   1      42.853  22.236  28.009  1.00  0.00     0.010 A 
ATOM     38  C   UNL A   1      43.303  23.059  26.965  1.00  0.00    -0.014 A 
BRANCH  38  39
ATOM     39  C   UNL A   1      43.742  24.451  27.255  1.00  0.00     0.031 A 
ATOM     40  C   UNL A   1      42.757  25.477  27.743  1.00  0.00     0.074 A 
ATOM     41  C   UNL A   1      45.020  24.810  27.019  1.00  0.00     0.049 A 
ATOM     42  N   UNL A   1      42.936  26.753  27.979  1.00  0.00    -0.248 NA
ATOM     43  C   UNL A   1      41.381  25.013  27.974  1.00  0.00     0.031 C 
ATOM     44  C   UNL A   1      46.065  23.922  26.506  1.00  0.00     0.029 A 
ATOM     45  N   UNL A   1      45.656  26.018  27.166  1.00  0.00    -0.354 N 
ATOM     46  C   UNL A   1      41.699  27.242  28.377  1.00  0.00     0.074 A 
ATOM     47  C   UNL A   1      40.764  26.141  28.295  1.00  0.00     0.031 C 
ATOM     48  C   UNL A   1      47.213  24.609  26.400  1.00  0.00     0.029 A 
ATOM     49  C   UNL A   1      46.978  25.996  26.793  1.00  0.00     0.049 A 
ATOM     50  H   UNL A   1      45.207  26.825  27.508  1.00  0.00     0.167 HD
ATOM     51  C   UNL A   1      41.377  28.490  28.797  1.00  0.00     0.037 A 
ATOM     52  C   UNL A   1      47.895  26.982  26.755  1.00  0.00     0.037 A 
ATOM     53  C   UNL A   1      42.311  29.582  28.888  1.00  0.00     0.049 A 
ATOM     54  C   UNL A   1      47.504  28.366  27.200  1.00  0.00     0.074 A 
ATOM     55  C   UNL A   1      42.091  30.871  29.344  1.00  0.00     0.029 A 
ATOM     56  N   UNL A   1      43.644  29.518  28.509  1.00  0.00    -0.354 N 
ATOM     57  N   UNL A   1      46.346  28.801  27.635  1.00  0.00    -0.248 NA
ATOM     58  C   UNL A   1      48.551  29.397  27.155  1.00  0.00     0.031 C 
ATOM     59  C   UNL A   1      43.273  31.601  29.187  1.00  0.00     0.029 A 
ATOM     60  C   UNL A   1      44.251  30.751  28.696  1.00  0.00     0.049 A 
ATOM     61  H   UNL A   1      44.094  28.714  28.160  1.00  0.00     0.167 HD
ATOM     62  C   UNL A   1      46.533  30.142  27.944  1.00  0.00     0.074 A 
ATOM     63  C   UNL A   1      47.920  30.446  27.662  1.00  0.00     0.031 C 
ATOM     64  C   UNL A   1      45.635  31.041  28.419  1.00  0.00     0.037 A 
BRANCH  51  65
ATOM     65  C   UNL A   1      39.949  28.744  29.191  1.00  0.00     0.064 A 
ATOM     66  C   UNL A   1      39.009  29.237  28.272  1.00  0.00     0.173 A 
ATOM     67  C   UNL A   1      39.503  28.452  30.489  1.00  0.00     0.173 A 
ATOM     68  F   UNL A   1      39.382  29.541  27.020  1.00  0.00    -0.203 F 
ATOM     69  C   UNL A   1      37.686  29.460  28.648  1.00  0.00     0.198 A 
ATOM     70  C   UNL A   1      38.172  28.643  30.851  1.00  0.00     0.198 A 
ATOM     71  F   UNL A   1      40.356  27.971  31.405  1.00  0.00    -0.203 F 
ATOM     72  F   UNL A   1      36.821  29.983  27.769  1.00  0.00    -0.200 F 
ATOM     73  C   UNL A   1      37.268  29.157  29.934  1.00  0.00     0.200 A 
ATOM     74  F   UNL A   1      37.765  28.334  32.090  1.00  0.00    -0.200 F 
ATOM     75  F   UNL A   1      35.993  29.364  30.292  1.00  0.00    -0.200 F 
ENDBRANCH  51  65
BRANCH  52  76
ATOM     76  C   UNL A   1      49.277  26.695  26.287  1.00  0.00     0.064 A 
ATOM     77  C   UNL A   1      50.249  26.196  27.166  1.00  0.00     0.173 A 
ATOM     78  C   UNL A   1      49.659  26.926  24.958  1.00  0.00     0.173 A 
ATOM     79  F   UNL A   1      49.939  25.978  28.453  1.00  0.00    -0.203 F 
ATOM     80  C   UNL A   1      51.556  25.964  26.739  1.00  0.00     0.198 A 
ATOM     81  C   UNL A   1      50.957  26.662  24.524  1.00  0.00     0.198 A 
ATOM     82  F   UNL A   1      48.768  27.400  24.074  1.00  0.00    -0.203 F 
ATOM     83  F   UNL A   1      52.477  25.539  27.613  1.00  0.00    -0.200 F 
ATOM     84  C   UNL A   1      51.907  26.191  25.417  1.00  0.00     0.200 A 
ATOM     85  F   UNL A   1      51.287  26.867  23.241  1.00  0.00    -0.200 F 
ATOM     86  F   UNL A   1      53.162  25.964  25.006  1.00  0.00    -0.200 F 
ENDBRANCH  52  76
BRANCH  64  87
ATOM     87  C   UNL A   1      46.132  32.430  28.704  1.00  0.00     0.064 A 
ATOM     88  C   UNL A   1      46.678  32.782  29.947  1.00  0.00     0.173 A 
ATOM     89  C   UNL A   1      46.094  33.415  27.703  1.00  0.00     0.173 A 
ATOM     90  F   UNL A   1      46.724  31.883  30.942  1.00  0.00    -0.203 F 
ATOM     91  C   UNL A   1      47.140  34.073  30.187  1.00  0.00     0.198 A 
ATOM     92  C   UNL A   1      46.590  34.695  27.935  1.00  0.00     0.198 A 
ATOM     93  F   UNL A   1      45.589  33.130  26.493  1.00  0.00    -0.203 F 
ATOM     94  F   UNL A   1      47.608  34.400  31.399  1.00  0.00    -0.200 F 
ATOM     95  C   UNL A   1      47.103  35.025  29.179  1.00  0.00     0.200 A 
ATOM     96  F   UNL A   1      46.569  35.607  26.954  1.00  0.00    -0.200 F 
ATOM     97  F   UNL A   1      47.557  36.265  29.409  1.00  0.00    -0.200 F 
ENDBRANCH  64  87
ENDBRANCH  38  39
ENDBRANCH  30  33
ENDBRANCH  28  29
ENDBRANCH  27  28
ENDBRANCH  26  27
ENDBRANCH   1  26
TORSDOF 15
ENDMDL
MODEL 2
REMARK VINA RESULT:     -12.0      5.350      9.999
REMARK SMILES O=C(C[NH+]1CC[NH+](Cc2cc(Cl)ccc2[N+](=O)[O-])CC1)NCCCCNC(=O)c1ccc(-c2c3nc(c(-c4c(F)c(F)c(F)c(F)c4F)c4ccc([nH]4)c(-c4c(F)c(F)c(F)c(F)c4F)c4nc(c(-c5c(F)c(F)c(F)c(F)c5F)c5ccc2[nH]5)C=C4)C=C3)cc1
REMARK SMILES IDX 22 1 21 2 1 3 2 4 3 6 4 7 5 8 20 9 6 11 19 12 7 13 8 15 9 16
REMARK SMILES IDX 10 17 15 18 11 19 14 20 12 21 13 22 16 23 17 24 18 25 23 26
REMARK SMILES IDX 24 27 25 28 26 29 27 30 28 32 29 33 30 34 91 35 31 36 90 37
REMARK SMILES IDX 32 38 33 39 34 40 84 41 35 42 89 43 83 44 85 45 36 46 88 47
REMARK SMILES IDX 82 48 81 49 37 51 69 52 49 53 68 54 50 55 53 56 67 57 86 58
REMARK SMILES IDX 51 59 52 60 66 62 87 63 54 64 38 65 39 66 47 67 40 68 41 69
REMARK SMILES IDX 45 70 48 71 42 72 43 73 46 74 44 75 70 76 71 77 79 78 72 79
REMARK SMILES IDX 73 80 77 81 80 82 74 83 75 84 78 85 76 86 55 87 56 88 64 89
REMARK SMILES IDX 57 90 58 91 62 92 65 93 59 94 60 95 63 96 61 97
REMARK H PARENT 21 5 4 10 7 14 26 31 85 50 53 61
REMARK Flexibility Score: inf
ROOT
ATOM      1  C   UNL A   1      32.361  29.786  25.905  1.00  0.00     0.116 C 
ENDROOT
BRANCH   1   2
ATOM      2  N   UNL A   1      31.808  28.474  25.643  1.00  0.00    -0.351 N 
ATOM      3  O   UNL A   1      31.507  27.886  27.836  1.00  0.00    -0.269 OA
ATOM      4  C   UNL A   1      31.423  27.604  26.641  1.00  0.00     0.275 C 
ATOM      5  H   UNL A   1      31.702  28.189  24.707  1.00  0.00     0.163 HD
BRANCH   4   6
ATOM      6  C   UNL A   1      30.919  26.220  26.178  1.00  0.00     0.363 C 
BRANCH   6   7
ATOM      7  N   UNL A   1      31.733  25.682  25.064  1.00  0.00    -0.318 N 
ATOM      8  C   UNL A   1      33.026  25.148  25.536  1.00  0.00     0.325 C 
ATOM      9  C   UNL A   1      30.989  24.674  24.278  1.00  0.00     0.325 C 
ATOM     10  H   UNL A   1      31.936  26.465  24.443  1.00  0.00     0.348 HD
ATOM     11  C   UNL A   1      33.073  23.667  25.980  1.00  0.00     0.324 C 
ATOM     12  C   UNL A   1      31.014  23.222  24.813  1.00  0.00     0.324 C 
ATOM     13  N   UNL A   1      32.346  22.714  25.141  1.00  0.00    -0.322 N 
ATOM     14  H   UNL A   1      32.195  21.887  25.718  1.00  0.00     0.348 HD
BRANCH  13  15
ATOM     15  C   UNL A   1      33.100  22.037  24.074  1.00  0.00     0.306 C 
BRANCH  15  16
ATOM     16  C   UNL A   1      34.149  21.025  24.503  1.00  0.00     0.085 A 
ATOM     17  C   UNL A   1      35.425  21.549  24.817  1.00  0.00     0.037 A 
ATOM     18  C   UNL A   1      34.004  19.618  24.537  1.00  0.00     0.278 A 
ATOM     19  C   UNL A   1      36.542  20.729  24.975  1.00  0.00     0.042 A 
ATOM     20  C   UNL A   1      35.141  18.796  24.721  1.00  0.00     0.088 A 
ATOM     21  Cl  UNL A   1      38.096  21.435  25.184  1.00  0.00    -0.084 Cl
ATOM     22  C   UNL A   1      36.408  19.351  24.903  1.00  0.00     0.027 A 
BRANCH  18  23
ATOM     23  N   UNL A   1      32.707  18.914  24.407  1.00  0.00     0.063 N 
ATOM     24  O   UNL A   1      32.135  18.579  25.455  1.00  0.00    -0.258 OA
ATOM     25  O   UNL A   1      32.248  18.697  23.283  1.00  0.00    -0.258 OA
ENDBRANCH  18  23
ENDBRANCH  15  16
ENDBRANCH  13  15
ENDBRANCH   6   7
ENDBRANCH   4   6
ENDBRANCH   1   2
BRANCH   1  26
ATOM     26  C   UNL A   1      31.339  30.908  25.716  1.00  0.00     0.023 C 
BRANCH  26  27
ATOM     27  C   UNL A   1      31.295  31.950  26.838  1.00  0.00     0.023 C 
BRANCH  27  28
ATOM     28  C   UNL A   1      32.604  32.689  27.113  1.00  0.00     0.116 C 
BRANCH  28  29
ATOM     29  N   UNL A   1      32.410  34.055  27.575  1.00  0.00    -0.352 N 
ATOM     30  C   UNL A   1      33.070  34.762  28.551  1.00  0.00     0.251 C 
ATOM     31  H   UNL A   1      31.694  34.551  27.117  1.00  0.00     0.163 HD
ATOM     32  O   UNL A   1      32.668  35.881  28.870  1.00  0.00    -0.269 OA
BRANCH  30  33
ATOM     33  C   UNL A   1      34.239  34.184  29.253  1.00  0.00     0.039 A 
ATOM     34  C   UNL A   1      34.017  33.389  30.382  1.00  0.00     0.014 A 
ATOM     35  C   UNL A   1      35.545  34.429  28.824  1.00  0.00     0.014 A 
ATOM     36  C   UNL A   1      35.095  32.780  31.030  1.00  0.00     0.010 A 
ATOM     37  C   UNL A   1      36.612  33.760  29.424  1.00  0.00     0.010 A 
ATOM     38  C   UNL A   1      36.399  32.924  30.531  1.00  0.00    -0.014 A 
BRANCH  38  39
ATOM     39  C   UNL A   1      37.544  32.197  31.142  1.00  0.00     0.031 A 
ATOM     40  C   UNL A   1      38.050  32.578  32.506  1.00  0.00     0.074 A 
ATOM     41  C   UNL A   1      38.171  31.231  30.442  1.00  0.00     0.049 A 
ATOM     42  N   UNL A   1      39.078  32.110  33.170  1.00  0.00    -0.248 NA
ATOM     43  C   UNL A   1      37.318  33.642  33.208  1.00  0.00     0.031 C 
ATOM     44  C   UNL A   1      37.806  30.795  29.092  1.00  0.00     0.029 A 
ATOM     45  N   UNL A   1      39.255  30.450  30.759  1.00  0.00    -0.354 N 
ATOM     46  C   UNL A   1      39.120  32.826  34.359  1.00  0.00     0.074 A 
ATOM     47  C   UNL A   1      38.051  33.800  34.301  1.00  0.00     0.031 C 
ATOM     48  C   UNL A   1      38.637  29.814  28.707  1.00  0.00     0.029 A 
ATOM     49  C   UNL A   1      39.621  29.581  29.760  1.00  0.00     0.049 A 
ATOM     50  H   UNL A   1      39.725  30.506  31.622  1.00  0.00     0.167 HD
ATOM     51  C   UNL A   1      39.956  32.670  35.413  1.00  0.00     0.037 A 
ATOM     52  C   UNL A   1      40.644  28.706  29.691  1.00  0.00     0.037 A 
ATOM     53  C   UNL A   1      41.013  31.693  35.473  1.00  0.00     0.049 A 
ATOM     54  C   UNL A   1      41.576  28.572  30.865  1.00  0.00     0.074 A 
ATOM     55  C   UNL A   1      41.886  31.428  36.514  1.00  0.00     0.029 A 
ATOM     56  N   UNL A   1      41.348  30.825  34.444  1.00  0.00    -0.354 N 
ATOM     57  N   UNL A   1      41.566  29.211  32.009  1.00  0.00    -0.248 NA
ATOM     58  C   UNL A   1      42.662  27.588  30.740  1.00  0.00     0.031 C 
ATOM     59  C   UNL A   1      42.783  30.440  36.096  1.00  0.00     0.029 A 
ATOM     60  C   UNL A   1      42.430  30.041  34.817  1.00  0.00     0.049 A 
ATOM     61  H   UNL A   1      40.885  30.771  33.576  1.00  0.00     0.167 HD
ATOM     62  C   UNL A   1      42.618  28.686  32.750  1.00  0.00     0.074 A 
ATOM     63  C   UNL A   1      43.236  27.665  31.931  1.00  0.00     0.031 C 
ATOM     64  C   UNL A   1      43.033  29.022  33.996  1.00  0.00     0.037 A 
BRANCH  51  65
ATOM     65  C   UNL A   1      39.765  33.580  36.594  1.00  0.00     0.064 A 
ATOM     66  C   UNL A   1      40.438  34.808  36.694  1.00  0.00     0.173 A 
ATOM     67  C   UNL A   1      38.867  33.241  37.618  1.00  0.00     0.173 A 
ATOM     68  F   UNL A   1      41.314  35.177  35.748  1.00  0.00    -0.203 F 
ATOM     69  C   UNL A   1      40.244  35.645  37.790  1.00  0.00     0.198 A 
ATOM     70  C   UNL A   1      38.650  34.097  38.695  1.00  0.00     0.198 A 
ATOM     71  F   UNL A   1      38.190  32.084  37.570  1.00  0.00    -0.203 F 
ATOM     72  F   UNL A   1      40.940  36.786  37.890  1.00  0.00    -0.200 F 
ATOM     73  C   UNL A   1      39.346  35.293  38.785  1.00  0.00     0.200 A 
ATOM     74  F   UNL A   1      37.768  33.763  39.648  1.00  0.00    -0.200 F 
ATOM     75  F   UNL A   1      39.155  36.104  39.835  1.00  0.00    -0.200 F 
ENDBRANCH  51  65
BRANCH  52  76
ATOM     76  C   UNL A   1      40.834  27.880  28.469  1.00  0.00     0.064 A 
ATOM     77  C   UNL A   1      41.610  28.343  27.397  1.00  0.00     0.173 A 
ATOM     78  C   UNL A   1      40.235  26.619  28.340  1.00  0.00     0.173 A 
ATOM     79  F   UNL A   1      42.188  29.553  27.462  1.00  0.00    -0.203 F 
ATOM     80  C   UNL A   1      41.758  27.588  26.235  1.00  0.00     0.198 A 
ATOM     81  C   UNL A   1      40.410  25.850  27.191  1.00  0.00     0.198 A 
ATOM     82  F   UNL A   1      39.485  26.126  29.338  1.00  0.00    -0.203 F 
ATOM     83  F   UNL A   1      42.460  28.080  25.205  1.00  0.00    -0.200 F 
ATOM     84  C   UNL A   1      41.163  26.341  26.135  1.00  0.00     0.200 A 
ATOM     85  F   UNL A   1      39.847  24.637  27.107  1.00  0.00    -0.200 F 
ATOM     86  F   UNL A   1      41.308  25.613  25.019  1.00  0.00    -0.200 F 
ENDBRANCH  52  76
BRANCH  64  87
ATOM     87  C   UNL A   1      44.188  28.251  34.571  1.00  0.00     0.064 A 
ATOM     88  C   UNL A   1      45.512  28.696  34.447  1.00  0.00     0.173 A 
ATOM     89  C   UNL A   1      43.960  27.066  35.291  1.00  0.00     0.173 A 
ATOM     90  F   UNL A   1      45.786  29.814  33.757  1.00  0.00    -0.203 F 
ATOM     91  C   UNL A   1      46.566  27.971  34.995  1.00  0.00     0.198 A 
ATOM     92  C   UNL A   1      45.013  26.362  35.868  1.00  0.00     0.198 A 
ATOM     93  F   UNL A   1      42.712  26.599  35.447  1.00  0.00    -0.203 F 
ATOM     94  F   UNL A   1      47.828  28.388  34.818  1.00  0.00    -0.200 F 
ATOM     95  C   UNL A   1      46.316  26.810  35.712  1.00  0.00     0.200 A 
ATOM     96  F   UNL A   1      44.767  25.251  36.574  1.00  0.00    -0.200 F 
ATOM     97  F   UNL A   1      47.331  26.118  36.247  1.00  0.00    -0.200 F 
ENDBRANCH  64  87
ENDBRANCH  38  39
ENDBRANCH  30  33
ENDBRANCH  28  29
ENDBRANCH  27  28
ENDBRANCH  26  27
ENDBRANCH   1  26
TORSDOF 15
ENDMDL
MODEL 3
REMARK VINA RESULT:     -11.9      2.819      8.281
REMARK SMILES O=C(C[NH+]1CC[NH+](Cc2cc(Cl)ccc2[N+](=O)[O-])CC1)NCCCCNC(=O)c1ccc(-c2c3nc(c(-c4c(F)c(F)c(F)c(F)c4F)c4ccc([nH]4)c(-c4c(F)c(F)c(F)c(F)c4F)c4nc(c(-c5c(F)c(F)c(F)c(F)c5F)c5ccc2[nH]5)C=C4)C=C3)cc1
REMARK SMILES IDX 22 1 21 2 1 3 2 4 3 6 4 7 5 8 20 9 6 11 19 12 7 13 8 15 9 16
REMARK SMILES IDX 10 17 15 18 11 19 14 20 12 21 13 22 16 23 17 24 18 25 23 26
REMARK SMILES IDX 24 27 25 28 26 29 27 30 28 32 29 33 30 34 91 35 31 36 90 37
REMARK SMILES IDX 32 38 33 39 34 40 84 41 35 42 89 43 83 44 85 45 36 46 88 47
REMARK SMILES IDX 82 48 81 49 37 51 69 52 49 53 68 54 50 55 53 56 67 57 86 58
REMARK SMILES IDX 51 59 52 60 66 62 87 63 54 64 38 65 39 66 47 67 40 68 41 69
REMARK SMILES IDX 45 70 48 71 42 72 43 73 46 74 44 75 70 76 71 77 79 78 72 79
REMARK SMILES IDX 73 80 77 81 80 82 74 83 75 84 78 85 76 86 55 87 56 88 64 89
REMARK SMILES IDX 57 90 58 91 62 92 65 93 59 94 60 95 63 96 61 97
REMARK H PARENT 21 5 4 10 7 14 26 31 85 50 53 61
REMARK Flexibility Score: inf
ROOT
ATOM      1  C   UNL A   1      40.835  22.461  26.525  1.00  0.00     0.116 C 
ENDROOT
BRANCH   1   2
ATOM      2  N   UNL A   1      39.504  22.689  26.004  1.00  0.00    -0.351 N 
ATOM      3  O   UNL A   1      38.960  24.390  27.438  1.00  0.00    -0.269 OA
ATOM      4  C   UNL A   1      38.648  23.644  26.510  1.00  0.00     0.275 C 
ATOM      5  H   UNL A   1      39.194  22.134  25.252  1.00  0.00     0.163 HD
BRANCH   4   6
ATOM      6  C   UNL A   1      37.241  23.699  25.876  1.00  0.00     0.363 C 
BRANCH   6   7
ATOM      7  N   UNL A   1      36.318  22.723  26.498  1.00  0.00    -0.318 N 
ATOM      8  C   UNL A   1      35.008  23.327  26.812  1.00  0.00     0.325 C 
ATOM      9  C   UNL A   1      36.166  21.508  25.669  1.00  0.00     0.325 C 
ATOM     10  H   UNL A   1      36.741  22.439  27.381  1.00  0.00     0.348 HD
ATOM     11  C   UNL A   1      33.922  23.302  25.710  1.00  0.00     0.324 C 
ATOM     12  C   UNL A   1      35.114  21.569  24.536  1.00  0.00     0.324 C 
ATOM     13  N   UNL A   1      33.798  22.059  24.948  1.00  0.00    -0.322 N 
ATOM     14  H   UNL A   1      33.308  22.302  24.087  1.00  0.00     0.348 HD
BRANCH  13  15
ATOM     15  C   UNL A   1      32.818  21.068  25.423  1.00  0.00     0.306 C 
BRANCH  15  16
ATOM     16  C   UNL A   1      32.665  19.800  24.601  1.00  0.00     0.085 A 
ATOM     17  C   UNL A   1      32.910  18.585  25.284  1.00  0.00     0.037 A 
ATOM     18  C   UNL A   1      32.389  19.717  23.216  1.00  0.00     0.278 A 
ATOM     19  C   UNL A   1      33.058  17.375  24.607  1.00  0.00     0.042 A 
ATOM     20  C   UNL A   1      32.521  18.478  22.544  1.00  0.00     0.088 A 
ATOM     21  Cl  UNL A   1      33.525  15.964  25.473  1.00  0.00    -0.084 Cl
ATOM     22  C   UNL A   1      32.888  17.321  23.232  1.00  0.00     0.027 A 
BRANCH  18  23
ATOM     23  N   UNL A   1      31.944  20.861  22.388  1.00  0.00     0.063 N 
ATOM     24  O   UNL A   1      31.764  21.944  22.966  1.00  0.00    -0.258 OA
ATOM     25  O   UNL A   1      31.777  20.702  21.176  1.00  0.00    -0.258 OA
ENDBRANCH  18  23
ENDBRANCH  15  16
ENDBRANCH  13  15
ENDBRANCH   6   7
ENDBRANCH   4   6
ENDBRANCH   1   2
BRANCH   1  26
ATOM     26  C   UNL A   1      41.010  21.059  27.111  1.00  0.00     0.023 C 
BRANCH  26  27
ATOM     27  C   UNL A   1      41.410  19.974  26.106  1.00  0.00     0.023 C 
BRANCH  27  28
ATOM     28  C   UNL A   1      42.648  19.155  26.467  1.00  0.00     0.116 C 
BRANCH  28  29
ATOM     29  N   UNL A   1      43.440  18.764  25.310  1.00  0.00    -0.352 N 
ATOM     30  C   UNL A   1      44.315  19.498  24.546  1.00  0.00     0.251 C 
ATOM     31  H   UNL A   1      43.332  17.826  25.031  1.00  0.00     0.163 HD
ATOM     32  O   UNL A   1      44.799  19.003  23.529  1.00  0.00    -0.269 OA
BRANCH  30  33
ATOM     33  C   UNL A   1      44.659  20.892  24.909  1.00  0.00     0.039 A 
ATOM     34  C   UNL A   1      44.379  21.911  23.992  1.00  0.00     0.014 A 
ATOM     35  C   UNL A   1      45.266  21.204  26.127  1.00  0.00     0.014 A 
ATOM     36  C   UNL A   1      44.637  23.242  24.328  1.00  0.00     0.010 A 
ATOM     37  C   UNL A   1      45.451  22.536  26.493  1.00  0.00     0.010 A 
ATOM     38  C   UNL A   1      45.134  23.572  25.599  1.00  0.00    -0.014 A 
BRANCH  38  39
ATOM     39  C   UNL A   1      45.312  24.989  26.015  1.00  0.00     0.031 A 
ATOM     40  C   UNL A   1      46.664  25.644  25.939  1.00  0.00     0.074 A 
ATOM     41  C   UNL A   1      44.266  25.672  26.521  1.00  0.00     0.049 A 
ATOM     42  N   UNL A   1      47.028  26.842  26.323  1.00  0.00    -0.248 NA
ATOM     43  C   UNL A   1      47.758  24.836  25.379  1.00  0.00     0.031 C 
ATOM     44  C   UNL A   1      42.912  25.141  26.687  1.00  0.00     0.029 A 
ATOM     45  N   UNL A   1      44.178  26.956  27.001  1.00  0.00    -0.354 N 
ATOM     46  C   UNL A   1      48.389  26.928  26.058  1.00  0.00     0.074 A 
ATOM     47  C   UNL A   1      48.798  25.641  25.537  1.00  0.00     0.031 C 
ATOM     48  C   UNL A   1      42.126  26.094  27.211  1.00  0.00     0.029 A 
ATOM     49  C   UNL A   1      42.927  27.289  27.461  1.00  0.00     0.049 A 
ATOM     50  H   UNL A   1      44.939  27.580  27.013  1.00  0.00     0.167 HD
ATOM     51  C   UNL A   1      49.216  27.989  26.213  1.00  0.00     0.037 A 
ATOM     52  C   UNL A   1      42.478  28.422  28.036  1.00  0.00     0.037 A 
ATOM     53  C   UNL A   1      48.805  29.272  26.722  1.00  0.00     0.049 A 
ATOM     54  C   UNL A   1      43.425  29.577  28.222  1.00  0.00     0.074 A 
ATOM     55  C   UNL A   1      49.560  30.423  26.874  1.00  0.00     0.029 A 
ATOM     56  N   UNL A   1      47.527  29.573  27.170  1.00  0.00    -0.354 N 
ATOM     57  N   UNL A   1      44.695  29.667  27.909  1.00  0.00    -0.248 NA
ATOM     58  C   UNL A   1      42.873  30.793  28.836  1.00  0.00     0.031 C 
ATOM     59  C   UNL A   1      48.755  31.401  27.466  1.00  0.00     0.029 A 
ATOM     60  C   UNL A   1      47.480  30.883  27.623  1.00  0.00     0.049 A 
ATOM     61  H   UNL A   1      46.765  28.949  27.166  1.00  0.00     0.167 HD
ATOM     62  C   UNL A   1      45.085  30.953  28.258  1.00  0.00     0.074 A 
ATOM     63  C   UNL A   1      43.912  31.614  28.791  1.00  0.00     0.031 C 
ATOM     64  C   UNL A   1      46.304  31.534  28.146  1.00  0.00     0.037 A 
BRANCH  51  65
ATOM     65  C   UNL A   1      50.658  27.809  25.826  1.00  0.00     0.064 A 
ATOM     66  C   UNL A   1      51.640  27.492  26.778  1.00  0.00     0.173 A 
ATOM     67  C   UNL A   1      51.057  27.914  24.485  1.00  0.00     0.173 A 
ATOM     68  F   UNL A   1      51.317  27.388  28.075  1.00  0.00    -0.203 F 
ATOM     69  C   UNL A   1      52.971  27.319  26.405  1.00  0.00     0.198 A 
ATOM     70  C   UNL A   1      52.382  27.707  24.112  1.00  0.00     0.198 A 
ATOM     71  F   UNL A   1      50.158  28.207  23.533  1.00  0.00    -0.203 F 
ATOM     72  F   UNL A   1      53.900  27.071  27.339  1.00  0.00    -0.200 F 
ATOM     73  C   UNL A   1      53.340  27.419  25.073  1.00  0.00     0.200 A 
ATOM     74  F   UNL A   1      52.734  27.787  22.820  1.00  0.00    -0.200 F 
ATOM     75  F   UNL A   1      54.619  27.245  24.714  1.00  0.00    -0.200 F 
ENDBRANCH  51  65
BRANCH  52  76
ATOM     76  C   UNL A   1      41.058  28.524  28.468  1.00  0.00     0.064 A 
ATOM     77  C   UNL A   1      40.064  28.974  27.587  1.00  0.00     0.173 A 
ATOM     78  C   UNL A   1      40.667  28.188  29.772  1.00  0.00     0.173 A 
ATOM     79  F   UNL A   1      40.390  29.328  26.335  1.00  0.00    -0.203 F 
ATOM     80  C   UNL A   1      38.740  29.108  28.002  1.00  0.00     0.198 A 
ATOM     81  C   UNL A   1      39.338  28.290  30.176  1.00  0.00     0.198 A 
ATOM     82  F   UNL A   1      41.577  27.748  30.655  1.00  0.00    -0.203 F 
ATOM     83  F   UNL A   1      37.822  29.592  27.155  1.00  0.00    -0.200 F 
ATOM     84  C   UNL A   1      38.377  28.760  29.293  1.00  0.00     0.200 A 
ATOM     85  F   UNL A   1      38.989  27.936  31.421  1.00  0.00    -0.200 F 
ATOM     86  F   UNL A   1      37.104  28.886  29.691  1.00  0.00    -0.200 F 
ENDBRANCH  52  76
BRANCH  64  87
ATOM     87  C   UNL A   1      46.428  32.970  28.570  1.00  0.00     0.064 A 
ATOM     88  C   UNL A   1      46.794  33.329  29.876  1.00  0.00     0.173 A 
ATOM     89  C   UNL A   1      46.213  34.004  27.644  1.00  0.00     0.173 A 
ATOM     90  F   UNL A   1      46.997  32.381  30.804  1.00  0.00    -0.203 F 
ATOM     91  C   UNL A   1      46.913  34.665  30.246  1.00  0.00     0.198 A 
ATOM     92  C   UNL A   1      46.367  35.339  28.008  1.00  0.00     0.198 A 
ATOM     93  F   UNL A   1      45.869  33.718  26.380  1.00  0.00    -0.203 F 
ATOM     94  F   UNL A   1      47.211  34.984  31.513  1.00  0.00    -0.200 F 
ATOM     95  C   UNL A   1      46.707  35.668  29.311  1.00  0.00     0.200 A 
ATOM     96  F   UNL A   1      46.185  36.305  27.098  1.00  0.00    -0.200 F 
ATOM     97  F   UNL A   1      46.830  36.955  29.667  1.00  0.00    -0.200 F 
ENDBRANCH  64  87
ENDBRANCH  38  39
ENDBRANCH  30  33
ENDBRANCH  28  29
ENDBRANCH  27  28
ENDBRANCH  26  27
ENDBRANCH   1  26
TORSDOF 15
ENDMDL
