MODEL 1
REMARK VINA RESULT:     -12.3      0.000      0.000
REMARK SMILES CC(C)(C)c1nnsc1C(=O)N[C@](C)(C(=O)NCCCCNC(=O)c1ccc(-c2c3nc(c(-c4c(F)c(F)c(F)c(F)c4F)c4ccc([nH]4)c(-c4c(F)c(F)c(F)c(F)c4F)c4nc(c(-c5c(F)c(F)c(F)c(F)c5F)c5ccc2[nH]5)C=C4)C=C3)cc1)C(F)(F)F
REMARK SMILES IDX 19 1 18 2 17 3 15 4 16 5 13 7 14 8 12 9 10 10 11 11 9 13
REMARK SMILES IDX 5 14 6 15 7 16 8 17 2 18 1 19 3 20 4 21 88 22 89 23 90 24
REMARK SMILES IDX 91 25 20 26 21 27 22 28 23 29 24 31 25 32 26 33 87 34 27 35
REMARK SMILES IDX 86 36 28 37 29 38 30 39 80 40 31 41 85 42 79 43 81 44 32 45
REMARK SMILES IDX 84 46 78 47 77 48 33 50 65 51 45 52 64 53 46 54 49 55 63 56
REMARK SMILES IDX 82 57 47 58 48 59 62 61 83 62 50 63 34 64 35 65 43 66 36 67
REMARK SMILES IDX 37 68 41 69 44 70 38 71 39 72 42 73 40 74 66 75 67 76 75 77
REMARK SMILES IDX 68 78 69 79 73 80 76 81 70 82 71 83 74 84 72 85 51 86 52 87
REMARK SMILES IDX 60 88 53 89 54 90 58 91 61 92 55 93 56 94 59 95 57 96
REMARK H PARENT 17 6 12 12 22 30 81 49 49 60
REMARK Flexibility Score: inf
ROOT
ATOM      1  C   UNL A   1      32.623  29.051  23.463  1.00  0.00     0.023 C 
ENDROOT
BRANCH   1   2
ATOM      2  C   UNL A   1      33.718  28.040  23.118  1.00  0.00     0.116 C 
BRANCH   2   3
ATOM      3  N   UNL A   1      33.451  27.263  21.923  1.00  0.00    -0.354 N 
ATOM      4  C   UNL A   1      33.113  25.956  21.722  1.00  0.00     0.254 C 
ATOM      5  O   UNL A   1      33.064  25.617  20.536  1.00  0.00    -0.272 OA
ATOM      6  H   UNL A   1      33.530  27.782  21.091  1.00  0.00     0.163 HD
BRANCH   4   7
ATOM      7  C   UNL A   1      33.057  24.922  22.874  1.00  0.00     0.212 C 
ATOM      8  C   UNL A   1      33.384  23.593  22.209  1.00  0.00     0.056 C 
BRANCH   7   9
ATOM      9  N   UNL A   1      34.057  25.234  23.956  1.00  0.00    -0.330 N 
ATOM     10  C   UNL A   1      34.007  24.925  25.307  1.00  0.00     0.266 C 
ATOM     11  O   UNL A   1      33.896  25.927  26.022  1.00  0.00    -0.268 OA
ATOM     12  H   UNL A   1      34.858  25.725  23.663  1.00  0.00     0.165 HD
BRANCH  10  13
ATOM     13  C   UNL A   1      34.461  23.650  25.854  1.00  0.00     0.137 A 
ATOM     14  C   UNL A   1      35.523  22.726  25.773  1.00  0.00     0.094 A 
ATOM     15  N   UNL A   1      35.308  21.557  26.526  1.00  0.00    -0.142 NA
ATOM     16  N   UNL A   1      34.128  21.508  27.094  1.00  0.00    -0.090 NA
ATOM     17  S   UNL A   1      33.226  22.863  26.812  1.00  0.00    -0.006 S 
BRANCH  14  18
ATOM     18  C   UNL A   1      36.888  22.716  25.073  1.00  0.00     0.008 C 
ATOM     19  C   UNL A   1      37.601  21.341  25.210  1.00  0.00     0.018 C 
ATOM     20  C   UNL A   1      37.820  23.729  25.787  1.00  0.00     0.018 C 
ATOM     21  C   UNL A   1      36.784  22.935  23.559  1.00  0.00     0.018 C 
ENDBRANCH  14  18
ENDBRANCH  10  13
ENDBRANCH   7   9
BRANCH   7  22
ATOM     22  C   UNL A   1      31.587  24.975  23.379  1.00  0.00     0.420 C 
ATOM     23  F   UNL A   1      31.355  26.036  24.183  1.00  0.00    -0.168 F 
ATOM     24  F   UNL A   1      30.716  25.084  22.346  1.00  0.00    -0.168 F 
ATOM     25  F   UNL A   1      31.227  23.847  24.033  1.00  0.00    -0.168 F 
ENDBRANCH   7  22
ENDBRANCH   4   7
ENDBRANCH   2   3
ENDBRANCH   1   2
BRANCH   1  26
ATOM     26  C   UNL A   1      32.101  29.013  24.898  1.00  0.00     0.023 C 
BRANCH  26  27
ATOM     27  C   UNL A   1      33.018  29.635  25.936  1.00  0.00     0.116 C 
BRANCH  27  28
ATOM     28  N   UNL A   1      32.566  30.924  26.438  1.00  0.00    -0.352 N 
ATOM     29  C   UNL A   1      33.262  31.786  27.256  1.00  0.00     0.251 C 
ATOM     30  H   UNL A   1      31.665  31.211  26.165  1.00  0.00     0.163 HD
ATOM     31  O   UNL A   1      32.769  32.837  27.645  1.00  0.00    -0.269 OA
BRANCH  29  32
ATOM     32  C   UNL A   1      34.603  31.369  27.702  1.00  0.00     0.039 A 
ATOM     33  C   UNL A   1      35.599  32.339  27.824  1.00  0.00     0.014 A 
ATOM     34  C   UNL A   1      34.808  30.063  28.149  1.00  0.00     0.014 A 
ATOM     35  C   UNL A   1      36.786  32.017  28.479  1.00  0.00     0.010 A 
ATOM     36  C   UNL A   1      35.954  29.768  28.873  1.00  0.00     0.010 A 
ATOM     37  C   UNL A   1      36.949  30.744  29.051  1.00  0.00    -0.014 A 
BRANCH  37  38
ATOM     38  C   UNL A   1      38.156  30.392  29.834  1.00  0.00     0.031 A 
ATOM     39  C   UNL A   1      39.133  29.404  29.271  1.00  0.00     0.074 A 
ATOM     40  C   UNL A   1      38.312  30.874  31.082  1.00  0.00     0.049 A 
ATOM     41  N   UNL A   1      40.166  28.840  29.841  1.00  0.00    -0.248 NA
ATOM     42  C   UNL A   1      38.884  28.953  27.892  1.00  0.00     0.031 C 
ATOM     43  C   UNL A   1      37.394  31.792  31.759  1.00  0.00     0.029 A 
ATOM     44  N   UNL A   1      39.291  30.636  32.014  1.00  0.00    -0.354 N 
ATOM     45  C   UNL A   1      40.667  27.948  28.904  1.00  0.00     0.074 A 
ATOM     46  C   UNL A   1      39.795  28.003  27.753  1.00  0.00     0.031 C 
ATOM     47  C   UNL A   1      37.856  32.044  32.994  1.00  0.00     0.029 A 
ATOM     48  C   UNL A   1      39.083  31.281  33.207  1.00  0.00     0.049 A 
ATOM     49  H   UNL A   1      40.067  30.056  31.843  1.00  0.00     0.167 HD
ATOM     50  C   UNL A   1      41.775  27.174  28.987  1.00  0.00     0.037 A 
ATOM     51  C   UNL A   1      39.797  31.250  34.349  1.00  0.00     0.037 A 
ATOM     52  C   UNL A   1      42.659  27.156  30.120  1.00  0.00     0.049 A 
ATOM     53  C   UNL A   1      41.047  30.415  34.404  1.00  0.00     0.074 A 
ATOM     54  C   UNL A   1      43.843  26.460  30.283  1.00  0.00     0.029 A 
ATOM     55  N   UNL A   1      42.454  27.878  31.287  1.00  0.00    -0.354 N 
ATOM     56  N   UNL A   1      41.551  29.623  33.489  1.00  0.00    -0.248 NA
ATOM     57  C   UNL A   1      41.832  30.478  35.644  1.00  0.00     0.031 C 
ATOM     58  C   UNL A   1      44.339  26.737  31.562  1.00  0.00     0.029 A 
ATOM     59  C   UNL A   1      43.484  27.638  32.180  1.00  0.00     0.049 A 
ATOM     60  H   UNL A   1      41.687  28.473  31.456  1.00  0.00     0.167 HD
ATOM     61  C   UNL A   1      42.721  29.109  34.030  1.00  0.00     0.074 A 
ATOM     62  C   UNL A   1      42.859  29.690  35.352  1.00  0.00     0.031 C 
ATOM     63  C   UNL A   1      43.603  28.236  33.485  1.00  0.00     0.037 A 
BRANCH  50  64
ATOM     64  C   UNL A   1      42.081  26.292  27.811  1.00  0.00     0.064 A 
ATOM     65  C   UNL A   1      41.428  25.064  27.624  1.00  0.00     0.173 A 
ATOM     66  C   UNL A   1      43.050  26.669  26.870  1.00  0.00     0.173 A 
ATOM     67  F   UNL A   1      40.506  24.648  28.506  1.00  0.00    -0.203 F 
ATOM     68  C   UNL A   1      41.764  24.227  26.564  1.00  0.00     0.198 A 
ATOM     69  C   UNL A   1      43.360  25.844  25.792  1.00  0.00     0.198 A 
ATOM     70  F   UNL A   1      43.703  27.834  27.000  1.00  0.00    -0.203 F 
ATOM     71  F   UNL A   1      41.177  23.028  26.447  1.00  0.00    -0.200 F 
ATOM     72  C   UNL A   1      42.727  24.619  25.646  1.00  0.00     0.200 A 
ATOM     73  F   UNL A   1      44.284  26.229  24.901  1.00  0.00    -0.200 F 
ATOM     74  F   UNL A   1      43.055  23.809  24.631  1.00  0.00    -0.200 F 
ENDBRANCH  50  64
BRANCH  51  75
ATOM     75  C   UNL A   1      39.358  32.057  35.515  1.00  0.00     0.064 A 
ATOM     76  C   UNL A   1      38.498  31.517  36.481  1.00  0.00     0.173 A 
ATOM     77  C   UNL A   1      39.807  33.372  35.702  1.00  0.00     0.173 A 
ATOM     78  F   UNL A   1      38.029  30.269  36.336  1.00  0.00    -0.203 F 
ATOM     79  C   UNL A   1      38.092  32.266  37.584  1.00  0.00     0.198 A 
ATOM     80  C   UNL A   1      39.419  34.113  36.818  1.00  0.00     0.198 A 
ATOM     81  F   UNL A   1      40.638  33.932  34.811  1.00  0.00    -0.203 F 
ATOM     82  F   UNL A   1      37.244  31.737  38.476  1.00  0.00    -0.200 F 
ATOM     83  C   UNL A   1      38.558  33.561  37.755  1.00  0.00     0.200 A 
ATOM     84  F   UNL A   1      39.884  35.359  36.987  1.00  0.00    -0.200 F 
ATOM     85  F   UNL A   1      38.177  34.278  38.821  1.00  0.00    -0.200 F 
ENDBRANCH  51  75
BRANCH  63  86
ATOM     86  C   UNL A   1      44.809  27.878  34.301  1.00  0.00     0.064 A 
ATOM     87  C   UNL A   1      45.981  28.645  34.256  1.00  0.00     0.173 A 
ATOM     88  C   UNL A   1      44.767  26.786  35.182  1.00  0.00     0.173 A 
ATOM     89  F   UNL A   1      46.071  29.689  33.418  1.00  0.00    -0.203 F 
ATOM     90  C   UNL A   1      47.076  28.324  35.051  1.00  0.00     0.198 A 
ATOM     91  C   UNL A   1      45.855  26.483  35.995  1.00  0.00     0.198 A 
ATOM     92  F   UNL A   1      43.666  26.026  35.265  1.00  0.00    -0.203 F 
ATOM     93  F   UNL A   1      48.200  29.049  34.967  1.00  0.00    -0.200 F 
ATOM     94  C   UNL A   1      47.010  27.248  35.926  1.00  0.00     0.200 A 
ATOM     95  F   UNL A   1      45.786  25.451  36.847  1.00  0.00    -0.200 F 
ATOM     96  F   UNL A   1      48.062  26.947  36.699  1.00  0.00    -0.200 F 
ENDBRANCH  63  86
ENDBRANCH  37  38
ENDBRANCH  29  32
ENDBRANCH  27  28
ENDBRANCH  26  27
ENDBRANCH   1  26
TORSDOF 15
ENDMDL
MODEL 2
REMARK VINA RESULT:     -12.1      2.930      7.746
REMARK SMILES CC(C)(C)c1nnsc1C(=O)N[C@](C)(C(=O)NCCCCNC(=O)c1ccc(-c2c3nc(c(-c4c(F)c(F)c(F)c(F)c4F)c4ccc([nH]4)c(-c4c(F)c(F)c(F)c(F)c4F)c4nc(c(-c5c(F)c(F)c(F)c(F)c5F)c5ccc2[nH]5)C=C4)C=C3)cc1)C(F)(F)F
REMARK SMILES IDX 19 1 18 2 17 3 15 4 16 5 13 7 14 8 12 9 10 10 11 11 9 13
REMARK SMILES IDX 5 14 6 15 7 16 8 17 2 18 1 19 3 20 4 21 88 22 89 23 90 24
REMARK SMILES IDX 91 25 20 26 21 27 22 28 23 29 24 31 25 32 26 33 87 34 27 35
REMARK SMILES IDX 86 36 28 37 29 38 30 39 80 40 31 41 85 42 79 43 81 44 32 45
REMARK SMILES IDX 84 46 78 47 77 48 33 50 65 51 45 52 64 53 46 54 49 55 63 56
REMARK SMILES IDX 82 57 47 58 48 59 62 61 83 62 50 63 34 64 35 65 43 66 36 67
REMARK SMILES IDX 37 68 41 69 44 70 38 71 39 72 42 73 40 74 66 75 67 76 75 77
REMARK SMILES IDX 68 78 69 79 73 80 76 81 70 82 71 83 74 84 72 85 51 86 52 87
REMARK SMILES IDX 60 88 53 89 54 90 58 91 61 92 55 93 56 94 59 95 57 96
REMARK H PARENT 17 6 12 12 22 30 81 49 49 60
REMARK Flexibility Score: inf
ROOT
ATOM      1  C   UNL A   1      32.639  28.269  24.925  1.00  0.00     0.023 C 
ENDROOT
BRANCH   1   2
ATOM      2  C   UNL A   1      33.816  27.424  24.439  1.00  0.00     0.116 C 
BRANCH   2   3
ATOM      3  N   UNL A   1      33.757  27.079  23.031  1.00  0.00    -0.354 N 
ATOM      4  C   UNL A   1      33.269  25.993  22.363  1.00  0.00     0.254 C 
ATOM      5  O   UNL A   1      33.487  26.002  21.147  1.00  0.00    -0.272 OA
ATOM      6  H   UNL A   1      34.145  27.764  22.441  1.00  0.00     0.163 HD
BRANCH   4   7
ATOM      7  C   UNL A   1      32.730  24.737  23.091  1.00  0.00     0.212 C 
ATOM      8  C   UNL A   1      32.981  23.596  22.116  1.00  0.00     0.056 C 
BRANCH   7   9
ATOM      9  N   UNL A   1      33.448  24.492  24.391  1.00  0.00    -0.330 N 
ATOM     10  C   UNL A   1      33.273  23.464  25.305  1.00  0.00     0.266 C 
ATOM     11  O   UNL A   1      32.812  23.856  26.383  1.00  0.00    -0.268 OA
ATOM     12  H   UNL A   1      34.138  25.154  24.625  1.00  0.00     0.165 HD
BRANCH  10  13
ATOM     13  C   UNL A   1      33.938  22.170  25.193  1.00  0.00     0.137 A 
ATOM     14  C   UNL A   1      35.190  21.591  24.901  1.00  0.00     0.094 A 
ATOM     15  N   UNL A   1      35.160  20.185  24.848  1.00  0.00    -0.142 NA
ATOM     16  N   UNL A   1      33.959  19.680  24.997  1.00  0.00    -0.090 NA
ATOM     17  S   UNL A   1      32.808  20.836  25.258  1.00  0.00    -0.006 S 
BRANCH  14  18
ATOM     18  C   UNL A   1      36.601  22.145  24.658  1.00  0.00     0.008 C 
ATOM     19  C   UNL A   1      36.954  23.287  25.652  1.00  0.00     0.018 C 
ATOM     20  C   UNL A   1      36.642  22.800  23.254  1.00  0.00     0.018 C 
ATOM     21  C   UNL A   1      37.699  21.099  24.883  1.00  0.00     0.018 C 
ENDBRANCH  14  18
ENDBRANCH  10  13
ENDBRANCH   7   9
BRANCH   7  22
ATOM     22  C   UNL A   1      31.212  25.016  23.283  1.00  0.00     0.420 C 
ATOM     23  F   UNL A   1      30.734  25.912  22.392  1.00  0.00    -0.168 F 
ATOM     24  F   UNL A   1      30.480  23.887  23.116  1.00  0.00    -0.168 F 
ATOM     25  F   UNL A   1      30.923  25.448  24.532  1.00  0.00    -0.168 F 
ENDBRANCH   7  22
ENDBRANCH   4   7
ENDBRANCH   2   3
ENDBRANCH   1   2
BRANCH   1  26
ATOM     26  C   UNL A   1      32.411  28.299  26.435  1.00  0.00     0.023 C 
BRANCH  26  27
ATOM     27  C   UNL A   1      33.617  28.708  27.262  1.00  0.00     0.116 C 
BRANCH  27  28
ATOM     28  N   UNL A   1      33.588  30.089  27.720  1.00  0.00    -0.352 N 
ATOM     29  C   UNL A   1      34.629  30.802  28.271  1.00  0.00     0.251 C 
ATOM     30  H   UNL A   1      32.731  30.566  27.628  1.00  0.00     0.163 HD
ATOM     31  O   UNL A   1      34.483  31.957  28.653  1.00  0.00    -0.269 OA
BRANCH  29  32
ATOM     32  C   UNL A   1      35.915  30.106  28.447  1.00  0.00     0.039 A 
ATOM     33  C   UNL A   1      36.871  30.200  27.434  1.00  0.00     0.014 A 
ATOM     34  C   UNL A   1      36.217  29.510  29.673  1.00  0.00     0.014 A 
ATOM     35  C   UNL A   1      38.172  29.769  27.685  1.00  0.00     0.010 A 
ATOM     36  C   UNL A   1      37.531  29.159  29.948  1.00  0.00     0.010 A 
ATOM     37  C   UNL A   1      38.520  29.292  28.959  1.00  0.00    -0.014 A 
BRANCH  37  38
ATOM     38  C   UNL A   1      39.912  28.910  29.293  1.00  0.00     0.031 A 
ATOM     39  C   UNL A   1      40.781  29.882  30.035  1.00  0.00     0.074 A 
ATOM     40  C   UNL A   1      40.419  27.749  28.837  1.00  0.00     0.049 A 
ATOM     41  N   UNL A   1      42.061  29.821  30.295  1.00  0.00    -0.248 NA
ATOM     42  C   UNL A   1      40.127  31.113  30.508  1.00  0.00     0.031 C 
ATOM     43  C   UNL A   1      39.688  26.754  28.050  1.00  0.00     0.029 A 
ATOM     44  N   UNL A   1      41.681  27.221  28.950  1.00  0.00    -0.354 N 
ATOM     45  C   UNL A   1      42.369  31.015  30.931  1.00  0.00     0.074 A 
ATOM     46  C   UNL A   1      41.158  31.804  30.966  1.00  0.00     0.031 C 
ATOM     47  C   UNL A   1      40.511  25.735  27.757  1.00  0.00     0.029 A 
ATOM     48  C   UNL A   1      41.833  26.019  28.305  1.00  0.00     0.049 A 
ATOM     49  H   UNL A   1      42.407  27.664  29.445  1.00  0.00     0.167 HD
ATOM     50  C   UNL A   1      43.551  31.405  31.463  1.00  0.00     0.037 A 
ATOM     51  C   UNL A   1      42.924  25.240  28.165  1.00  0.00     0.037 A 
ATOM     52  C   UNL A   1      44.740  30.597  31.458  1.00  0.00     0.049 A 
ATOM     53  C   UNL A   1      44.216  25.674  28.800  1.00  0.00     0.074 A 
ATOM     54  C   UNL A   1      45.971  30.866  32.026  1.00  0.00     0.029 A 
ATOM     55  N   UNL A   1      44.839  29.350  30.856  1.00  0.00    -0.354 N 
ATOM     56  N   UNL A   1      44.484  26.777  29.456  1.00  0.00    -0.248 NA
ATOM     57  C   UNL A   1      45.354  24.752  28.685  1.00  0.00     0.031 C 
ATOM     58  C   UNL A   1      46.826  29.795  31.740  1.00  0.00     0.029 A 
ATOM     59  C   UNL A   1      46.114  28.840  31.029  1.00  0.00     0.049 A 
ATOM     60  H   UNL A   1      44.109  28.896  30.375  1.00  0.00     0.167 HD
ATOM     61  C   UNL A   1      45.810  26.675  29.852  1.00  0.00     0.074 A 
ATOM     62  C   UNL A   1      46.291  25.394  29.371  1.00  0.00     0.031 C 
ATOM     63  C   UNL A   1      46.564  27.559  30.549  1.00  0.00     0.037 A 
BRANCH  50  64
ATOM     64  C   UNL A   1      43.600  32.766  32.094  1.00  0.00     0.064 A 
ATOM     65  C   UNL A   1      43.323  32.954  33.458  1.00  0.00     0.173 A 
ATOM     66  C   UNL A   1      43.910  33.898  31.327  1.00  0.00     0.173 A 
ATOM     67  F   UNL A   1      43.003  31.906  34.232  1.00  0.00    -0.203 F 
ATOM     68  C   UNL A   1      43.312  34.228  34.018  1.00  0.00     0.198 A 
ATOM     69  C   UNL A   1      43.930  35.168  31.898  1.00  0.00     0.198 A 
ATOM     70  F   UNL A   1      44.185  33.774  30.019  1.00  0.00    -0.203 F 
ATOM     71  F   UNL A   1      42.975  34.388  35.305  1.00  0.00    -0.200 F 
ATOM     72  C   UNL A   1      43.619  35.333  33.239  1.00  0.00     0.200 A 
ATOM     73  F   UNL A   1      44.236  36.234  31.146  1.00  0.00    -0.200 F 
ATOM     74  F   UNL A   1      43.601  36.559  33.779  1.00  0.00    -0.200 F 
ENDBRANCH  50  64
BRANCH  51  75
ATOM     75  C   UNL A   1      42.824  23.962  27.416  1.00  0.00     0.064 A 
ATOM     76  C   UNL A   1      43.159  23.897  26.056  1.00  0.00     0.173 A 
ATOM     77  C   UNL A   1      42.418  22.777  28.045  1.00  0.00     0.173 A 
ATOM     78  F   UNL A   1      43.537  25.008  25.407  1.00  0.00    -0.203 F 
ATOM     79  C   UNL A   1      43.080  22.698  25.351  1.00  0.00     0.198 A 
ATOM     80  C   UNL A   1      42.362  21.573  27.345  1.00  0.00     0.198 A 
ATOM     81  F   UNL A   1      42.096  22.784  29.347  1.00  0.00    -0.203 F 
ATOM     82  F   UNL A   1      43.375  22.670  24.045  1.00  0.00    -0.200 F 
ATOM     83  C   UNL A   1      42.687  21.536  25.997  1.00  0.00     0.200 A 
ATOM     84  F   UNL A   1      41.996  20.449  27.977  1.00  0.00    -0.200 F 
ATOM     85  F   UNL A   1      42.621  20.380  25.322  1.00  0.00    -0.200 F 
ENDBRANCH  51  75
BRANCH  63  86
ATOM     86  C   UNL A   1      47.976  27.162  30.861  1.00  0.00     0.064 A 
ATOM     87  C   UNL A   1      48.285  26.351  31.961  1.00  0.00     0.173 A 
ATOM     88  C   UNL A   1      49.023  27.554  30.013  1.00  0.00     0.173 A 
ATOM     89  F   UNL A   1      47.318  25.964  32.807  1.00  0.00    -0.203 F 
ATOM     90  C   UNL A   1      49.596  25.957  32.212  1.00  0.00     0.198 A 
ATOM     91  C   UNL A   1      50.329  27.137  30.252  1.00  0.00     0.198 A 
ATOM     92  F   UNL A   1      48.777  28.326  28.945  1.00  0.00    -0.203 F 
ATOM     93  F   UNL A   1      49.876  25.210  33.289  1.00  0.00    -0.200 F 
ATOM     94  C   UNL A   1      50.616  26.343  31.354  1.00  0.00     0.200 A 
ATOM     95  F   UNL A   1      51.311  27.501  29.417  1.00  0.00    -0.200 F 
ATOM     96  F   UNL A   1      51.876  25.954  31.591  1.00  0.00    -0.200 F 
ENDBRANCH  63  86
ENDBRANCH  37  38
ENDBRANCH  29  32
ENDBRANCH  27  28
ENDBRANCH  26  27
ENDBRANCH   1  26
TORSDOF 15
ENDMDL
MODEL 3
REMARK VINA RESULT:     -12.1      1.688      2.541
REMARK SMILES CC(C)(C)c1nnsc1C(=O)N[C@](C)(C(=O)NCCCCNC(=O)c1ccc(-c2c3nc(c(-c4c(F)c(F)c(F)c(F)c4F)c4ccc([nH]4)c(-c4c(F)c(F)c(F)c(F)c4F)c4nc(c(-c5c(F)c(F)c(F)c(F)c5F)c5ccc2[nH]5)C=C4)C=C3)cc1)C(F)(F)F
REMARK SMILES IDX 19 1 18 2 17 3 15 4 16 5 13 7 14 8 12 9 10 10 11 11 9 13
REMARK SMILES IDX 5 14 6 15 7 16 8 17 2 18 1 19 3 20 4 21 88 22 89 23 90 24
REMARK SMILES IDX 91 25 20 26 21 27 22 28 23 29 24 31 25 32 26 33 87 34 27 35
REMARK SMILES IDX 86 36 28 37 29 38 30 39 80 40 31 41 85 42 79 43 81 44 32 45
REMARK SMILES IDX 84 46 78 47 77 48 33 50 65 51 45 52 64 53 46 54 49 55 63 56
REMARK SMILES IDX 82 57 47 58 48 59 62 61 83 62 50 63 34 64 35 65 43 66 36 67
REMARK SMILES IDX 37 68 41 69 44 70 38 71 39 72 42 73 40 74 66 75 67 76 75 77
REMARK SMILES IDX 68 78 69 79 73 80 76 81 70 82 71 83 74 84 72 85 51 86 52 87
REMARK SMILES IDX 60 88 53 89 54 90 58 91 61 92 55 93 56 94 59 95 57 96
REMARK H PARENT 17 6 12 12 22 30 81 49 49 60
REMARK Flexibility Score: inf
ROOT
ATOM      1  C   UNL A   1      32.850  27.049  26.480  1.00  0.00     0.023 C 
ENDROOT
BRANCH   1   2
ATOM      2  C   UNL A   1      33.115  25.613  26.027  1.00  0.00     0.116 C 
BRANCH   2   3
ATOM      3  N   UNL A   1      33.709  25.509  24.708  1.00  0.00    -0.354 N 
ATOM      4  C   UNL A   1      33.420  24.737  23.620  1.00  0.00     0.254 C 
ATOM      5  O   UNL A   1      34.221  24.850  22.686  1.00  0.00    -0.272 OA
ATOM      6  H   UNL A   1      34.472  26.114  24.571  1.00  0.00     0.163 HD
BRANCH   4   7
ATOM      7  C   UNL A   1      32.345  23.622  23.648  1.00  0.00     0.212 C 
ATOM      8  C   UNL A   1      32.612  22.805  22.393  1.00  0.00     0.056 C 
BRANCH   7   9
ATOM      9  N   UNL A   1      32.462  22.761  24.877  1.00  0.00    -0.330 N 
ATOM     10  C   UNL A   1      32.494  21.379  24.975  1.00  0.00     0.266 C 
ATOM     11  O   UNL A   1      31.496  20.917  25.541  1.00  0.00    -0.268 OA
ATOM     12  H   UNL A   1      32.526  23.248  25.730  1.00  0.00     0.165 HD
BRANCH  10  13
ATOM     13  C   UNL A   1      33.716  20.593  24.836  1.00  0.00     0.137 A 
ATOM     14  C   UNL A   1      34.166  19.279  24.597  1.00  0.00     0.094 A 
ATOM     15  N   UNL A   1      35.562  19.137  24.694  1.00  0.00    -0.142 NA
ATOM     16  N   UNL A   1      36.176  20.232  25.071  1.00  0.00    -0.090 NA
ATOM     17  S   UNL A   1      35.143  21.504  25.281  1.00  0.00    -0.006 S 
BRANCH  14  18
ATOM     18  C   UNL A   1      33.479  17.960  24.217  1.00  0.00     0.008 C 
ATOM     19  C   UNL A   1      32.510  18.136  23.013  1.00  0.00     0.018 C 
ATOM     20  C   UNL A   1      32.582  17.509  25.398  1.00  0.00     0.018 C 
ATOM     21  C   UNL A   1      34.467  16.886  23.748  1.00  0.00     0.018 C 
ENDBRANCH  14  18
ENDBRANCH  10  13
ENDBRANCH   7   9
BRANCH   7  22
ATOM     22  C   UNL A   1      30.990  24.382  23.571  1.00  0.00     0.420 C 
ATOM     23  F   UNL A   1      31.092  25.556  22.911  1.00  0.00    -0.168 F 
ATOM     24  F   UNL A   1      30.055  23.655  22.910  1.00  0.00    -0.168 F 
ATOM     25  F   UNL A   1      30.461  24.615  24.794  1.00  0.00    -0.168 F 
ENDBRANCH   7  22
ENDBRANCH   4   7
ENDBRANCH   2   3
ENDBRANCH   1   2
BRANCH   1  26
ATOM     26  C   UNL A   1      32.560  28.061  25.373  1.00  0.00     0.023 C 
BRANCH  26  27
ATOM     27  C   UNL A   1      33.392  29.330  25.423  1.00  0.00     0.116 C 
BRANCH  27  28
ATOM     28  N   UNL A   1      32.748  30.441  26.109  1.00  0.00    -0.352 N 
ATOM     29  C   UNL A   1      33.279  31.211  27.119  1.00  0.00     0.251 C 
ATOM     30  H   UNL A   1      31.833  30.665  25.821  1.00  0.00     0.163 HD
ATOM     31  O   UNL A   1      32.631  32.106  27.649  1.00  0.00    -0.269 OA
BRANCH  29  32
ATOM     32  C   UNL A   1      34.635  30.880  27.589  1.00  0.00     0.039 A 
ATOM     33  C   UNL A   1      35.570  31.910  27.712  1.00  0.00     0.014 A 
ATOM     34  C   UNL A   1      34.912  29.593  28.053  1.00  0.00     0.014 A 
ATOM     35  C   UNL A   1      36.765  31.666  28.388  1.00  0.00     0.010 A 
ATOM     36  C   UNL A   1      36.063  29.376  28.797  1.00  0.00     0.010 A 
ATOM     37  C   UNL A   1      36.995  30.411  28.976  1.00  0.00    -0.014 A 
BRANCH  37  38
ATOM     38  C   UNL A   1      38.210  30.141  29.779  1.00  0.00     0.031 A 
ATOM     39  C   UNL A   1      39.242  29.191  29.251  1.00  0.00     0.074 A 
ATOM     40  C   UNL A   1      38.327  30.660  31.017  1.00  0.00     0.049 A 
ATOM     41  N   UNL A   1      40.296  28.695  29.844  1.00  0.00    -0.248 NA
ATOM     42  C   UNL A   1      39.032  28.695  27.881  1.00  0.00     0.031 C 
ATOM     43  C   UNL A   1      37.356  31.546  31.662  1.00  0.00     0.029 A 
ATOM     44  N   UNL A   1      39.306  30.495  31.964  1.00  0.00    -0.354 N 
ATOM     45  C   UNL A   1      40.853  27.808  28.935  1.00  0.00     0.074 A 
ATOM     46  C   UNL A   1      39.991  27.789  27.774  1.00  0.00     0.031 C 
ATOM     47  C   UNL A   1      37.791  31.851  32.895  1.00  0.00     0.029 A 
ATOM     48  C   UNL A   1      39.052  31.158  33.139  1.00  0.00     0.049 A 
ATOM     49  H   UNL A   1      40.114  29.952  31.815  1.00  0.00     0.167 HD
ATOM     50  C   UNL A   1      41.998  27.093  29.047  1.00  0.00     0.037 A 
ATOM     51  C   UNL A   1      39.755  31.191  34.288  1.00  0.00     0.037 A 
ATOM     52  C   UNL A   1      42.869  27.148  30.189  1.00  0.00     0.049 A 
ATOM     53  C   UNL A   1      41.045  30.423  34.376  1.00  0.00     0.074 A 
ATOM     54  C   UNL A   1      44.085  26.518  30.381  1.00  0.00     0.029 A 
ATOM     55  N   UNL A   1      42.614  27.886  31.336  1.00  0.00    -0.354 N 
ATOM     56  N   UNL A   1      41.599  29.635  33.486  1.00  0.00    -0.248 NA
ATOM     57  C   UNL A   1      41.812  30.555  35.621  1.00  0.00     0.031 C 
ATOM     58  C   UNL A   1      44.552  26.851  31.657  1.00  0.00     0.029 A 
ATOM     59  C   UNL A   1      43.646  27.721  32.245  1.00  0.00     0.049 A 
ATOM     60  H   UNL A   1      41.817  28.446  31.483  1.00  0.00     0.167 HD
ATOM     61  C   UNL A   1      42.788  29.196  34.051  1.00  0.00     0.074 A 
ATOM     62  C   UNL A   1      42.881  29.814  35.359  1.00  0.00     0.031 C 
ATOM     63  C   UNL A   1      43.719  28.356  33.536  1.00  0.00     0.037 A 
BRANCH  50  64
ATOM     64  C   UNL A   1      42.361  26.200  27.897  1.00  0.00     0.064 A 
ATOM     65  C   UNL A   1      43.227  26.628  26.879  1.00  0.00     0.173 A 
ATOM     66  C   UNL A   1      41.827  24.907  27.802  1.00  0.00     0.173 A 
ATOM     67  F   UNL A   1      43.751  27.864  26.914  1.00  0.00    -0.203 F 
ATOM     68  C   UNL A   1      43.508  25.813  25.786  1.00  0.00     0.198 A 
ATOM     69  C   UNL A   1      42.137  24.082  26.723  1.00  0.00     0.198 A 
ATOM     70  F   UNL A   1      40.996  24.446  28.749  1.00  0.00    -0.203 F 
ATOM     71  F   UNL A   1      44.281  26.273  24.792  1.00  0.00    -0.200 F 
ATOM     72  C   UNL A   1      42.967  24.540  25.711  1.00  0.00     0.200 A 
ATOM     73  F   UNL A   1      41.620  22.847  26.657  1.00  0.00    -0.200 F 
ATOM     74  F   UNL A   1      43.233  23.759  24.655  1.00  0.00    -0.200 F 
ENDBRANCH  50  64
BRANCH  51  75
ATOM     75  C   UNL A   1      39.262  32.002  35.429  1.00  0.00     0.064 A 
ATOM     76  C   UNL A   1      39.549  33.371  35.515  1.00  0.00     0.173 A 
ATOM     77  C   UNL A   1      38.476  31.435  36.442  1.00  0.00     0.173 A 
ATOM     78  F   UNL A   1      40.311  33.955  34.578  1.00  0.00    -0.203 F 
ATOM     79  C   UNL A   1      39.079  34.141  36.577  1.00  0.00     0.198 A 
ATOM     80  C   UNL A   1      37.987  32.210  37.492  1.00  0.00     0.198 A 
ATOM     81  F   UNL A   1      38.166  30.131  36.401  1.00  0.00    -0.203 F 
ATOM     82  F   UNL A   1      39.394  35.441  36.652  1.00  0.00    -0.200 F 
ATOM     83  C   UNL A   1      38.293  33.561  37.562  1.00  0.00     0.200 A 
ATOM     84  F   UNL A   1      37.215  31.649  38.434  1.00  0.00    -0.200 F 
ATOM     85  F   UNL A   1      37.832  34.303  38.578  1.00  0.00    -0.200 F 
ENDBRANCH  51  75
BRANCH  63  86
ATOM     86  C   UNL A   1      44.933  28.080  34.372  1.00  0.00     0.064 A 
ATOM     87  C   UNL A   1      46.064  28.905  34.319  1.00  0.00     0.173 A 
ATOM     88  C   UNL A   1      44.937  27.010  35.280  1.00  0.00     0.173 A 
ATOM     89  F   UNL A   1      46.111  29.931  33.456  1.00  0.00    -0.203 F 
ATOM     90  C   UNL A   1      47.166  28.660  35.133  1.00  0.00     0.198 A 
ATOM     91  C   UNL A   1      46.030  26.782  36.110  1.00  0.00     0.198 A 
ATOM     92  F   UNL A   1      43.875  26.196  35.371  1.00  0.00    -0.203 F 
ATOM     93  F   UNL A   1      48.252  29.439  35.041  1.00  0.00    -0.200 F 
ATOM     94  C   UNL A   1      47.145  27.604  36.033  1.00  0.00     0.200 A 
ATOM     95  F   UNL A   1      46.004  25.770  36.987  1.00  0.00    -0.200 F 
ATOM     96  F   UNL A   1      48.203  27.376  36.824  1.00  0.00    -0.200 F 
ENDBRANCH  63  86
ENDBRANCH  37  38
ENDBRANCH  29  32
ENDBRANCH  27  28
ENDBRANCH  26  27
ENDBRANCH   1  26
TORSDOF 15
ENDMDL
