MODEL 1
REMARK VINA RESULT:     -13.5      0.000      0.000
REMARK SMILES O=C(CCN1C(=O)/C(=C2\C(=O)N(Cc3ccc(Cl)cc3)c3ccccc32)SC1=S)NCCCCNC(=O)c1ccc(-c2c3nc(c(-c4c(F)c(F)c(F)c(F)c4F)c4ccc([nH]4)c(-c4c(F)c(F)c(F)c(F)c4F)c4nc(c(-c5c(F)c(F)c(F)c(F)c5F)c5ccc2[nH]5)C=C4)C=C3)cc1
REMARK SMILES IDX 31 1 30 2 1 3 2 4 3 6 4 7 5 8 6 9 28 10 7 11 8 12 27 13
REMARK SMILES IDX 29 14 9 15 10 16 26 17 11 18 12 19 21 20 25 21 22 22 24 23
REMARK SMILES IDX 23 24 13 25 14 26 15 27 20 28 16 29 19 30 17 31 18 32 32 33
REMARK SMILES IDX 33 34 34 35 35 36 36 37 37 39 38 40 39 41 100 42 40 43 99 44
REMARK SMILES IDX 41 45 42 46 43 47 93 48 44 49 98 50 92 51 94 52 45 53 97 54
REMARK SMILES IDX 91 55 90 56 46 58 78 59 58 60 77 61 59 62 62 63 76 64 95 65
REMARK SMILES IDX 60 66 61 67 75 69 96 70 63 71 47 72 48 73 56 74 49 75 50 76
REMARK SMILES IDX 54 77 57 78 51 79 52 80 55 81 53 82 79 83 80 84 88 85 81 86
REMARK SMILES IDX 82 87 86 88 89 89 83 90 84 91 87 92 85 93 64 94 65 95 73 96
REMARK SMILES IDX 66 97 67 98 71 99 74 100 68 101 69 102 72 103 70 104
REMARK H PARENT 30 5 35 38 94 57 62 68
REMARK Flexibility Score: inf
ROOT
ATOM      1  C   UNL A   1      34.330  31.616  28.689  1.00  0.00     0.116 C 
ENDROOT
BRANCH   1   2
ATOM      2  N   UNL A   1      33.799  30.648  27.721  1.00  0.00    -0.356 N 
ATOM      3  O   UNL A   1      35.709  29.365  27.647  1.00  0.00    -0.275 OA
ATOM      4  C   UNL A   1      34.556  29.576  27.278  1.00  0.00     0.221 C 
ATOM      5  H   UNL A   1      32.884  30.765  27.378  1.00  0.00     0.163 HD
BRANCH   4   6
ATOM      6  C   UNL A   1      33.880  28.640  26.295  1.00  0.00     0.122 C 
BRANCH   6   7
ATOM      7  C   UNL A   1      32.388  28.929  26.138  1.00  0.00     0.137 C 
BRANCH   7   8
ATOM      8  N   UNL A   1      31.605  27.934  25.395  1.00  0.00    -0.292 N 
ATOM      9  C   UNL A   1      31.049  26.831  26.050  1.00  0.00     0.267 C 
ATOM     10  C   UNL A   1      31.132  28.160  24.116  1.00  0.00     0.148 C 
ATOM     11  O   UNL A   1      31.043  26.642  27.251  1.00  0.00    -0.268 OA
ATOM     12  C   UNL A   1      30.428  25.928  25.030  1.00  0.00     0.093 C 
ATOM     13  S   UNL A   1      29.877  26.986  23.767  1.00  0.00    -0.053 SA
ATOM     14  S   UNL A   1      31.599  29.307  23.001  1.00  0.00    -0.052 S 
ATOM     15  C   UNL A   1      30.864  24.658  24.890  1.00  0.00     0.069 C 
ATOM     16  C   UNL A   1      31.461  23.799  26.004  1.00  0.00     0.260 C 
ATOM     17  C   UNL A   1      31.450  24.165  23.624  1.00  0.00     0.012 A 
ATOM     18  O   UNL A   1      31.221  23.868  27.177  1.00  0.00    -0.269 OA
ATOM     19  N   UNL A   1      32.389  22.952  25.375  1.00  0.00    -0.303 N 
ATOM     20  C   UNL A   1      32.461  23.280  24.009  1.00  0.00     0.052 A 
ATOM     21  C   UNL A   1      31.395  24.675  22.328  1.00  0.00     0.011 A 
ATOM     22  C   UNL A   1      33.506  23.054  23.161  1.00  0.00     0.027 A 
ATOM     23  C   UNL A   1      32.523  24.579  21.539  1.00  0.00     0.001 A 
ATOM     24  C   UNL A   1      33.597  23.846  22.009  1.00  0.00     0.002 A 
BRANCH  19  25
ATOM     25  C   UNL A   1      33.337  22.127  26.126  1.00  0.00     0.161 C 
BRANCH  25  26
ATOM     26  C   UNL A   1      33.610  20.714  25.635  1.00  0.00    -0.028 A 
ATOM     27  C   UNL A   1      32.575  19.773  25.503  1.00  0.00     0.007 A 
ATOM     28  C   UNL A   1      34.883  20.351  25.170  1.00  0.00     0.007 A 
ATOM     29  C   UNL A   1      32.816  18.492  24.983  1.00  0.00     0.021 A 
ATOM     30  C   UNL A   1      35.120  19.079  24.626  1.00  0.00     0.021 A 
ATOM     31  C   UNL A   1      34.092  18.145  24.560  1.00  0.00     0.041 A 
ATOM     32  Cl  UNL A   1      34.400  16.558  23.971  1.00  0.00    -0.084 Cl
ENDBRANCH  25  26
ENDBRANCH  19  25
ENDBRANCH   7   8
ENDBRANCH   6   7
ENDBRANCH   4   6
ENDBRANCH   1   2
BRANCH   1  33
ATOM     33  C   UNL A   1      34.475  33.053  28.149  1.00  0.00     0.023 C 
BRANCH  33  34
ATOM     34  C   UNL A   1      35.304  34.054  28.995  1.00  0.00     0.023 C 
BRANCH  34  35
ATOM     35  C   UNL A   1      34.725  34.560  30.348  1.00  0.00     0.116 C 
BRANCH  35  36
ATOM     36  N   UNL A   1      34.945  33.683  31.556  1.00  0.00    -0.352 N 
ATOM     37  C   UNL A   1      35.745  32.736  32.183  1.00  0.00     0.251 C 
ATOM     38  H   UNL A   1      34.192  33.860  32.166  1.00  0.00     0.163 HD
ATOM     39  O   UNL A   1      35.433  32.511  33.360  1.00  0.00    -0.269 OA
BRANCH  37  40
ATOM     40  C   UNL A   1      36.832  31.843  31.651  1.00  0.00     0.039 A 
ATOM     41  C   UNL A   1      37.690  31.047  32.385  1.00  0.00     0.014 A 
ATOM     42  C   UNL A   1      36.931  31.674  30.259  1.00  0.00     0.014 A 
ATOM     43  C   UNL A   1      38.844  30.462  31.770  1.00  0.00     0.010 A 
ATOM     44  C   UNL A   1      38.012  30.986  29.635  1.00  0.00     0.010 A 
ATOM     45  C   UNL A   1      39.075  30.456  30.377  1.00  0.00    -0.014 A 
BRANCH  45  46
ATOM     46  C   UNL A   1      40.364  29.936  29.718  1.00  0.00     0.031 A 
ATOM     47  C   UNL A   1      41.627  30.805  29.568  1.00  0.00     0.074 A 
ATOM     48  C   UNL A   1      40.510  28.665  29.267  1.00  0.00     0.049 A 
ATOM     49  N   UNL A   1      42.721  30.598  28.860  1.00  0.00    -0.248 NA
ATOM     50  C   UNL A   1      41.666  32.059  30.325  1.00  0.00     0.031 C 
ATOM     51  C   UNL A   1      39.500  27.615  29.328  1.00  0.00     0.029 A 
ATOM     52  N   UNL A   1      41.591  28.031  28.671  1.00  0.00    -0.354 N 
ATOM     53  C   UNL A   1      43.528  31.727  29.026  1.00  0.00     0.074 A 
ATOM     54  C   UNL A   1      42.803  32.608  29.914  1.00  0.00     0.031 C 
ATOM     55  C   UNL A   1      40.026  26.462  28.891  1.00  0.00     0.029 A 
ATOM     56  C   UNL A   1      41.366  26.708  28.366  1.00  0.00     0.049 A 
ATOM     57  H   UNL A   1      42.442  28.488  28.482  1.00  0.00     0.167 HD
ATOM     58  C   UNL A   1      44.755  32.018  28.513  1.00  0.00     0.037 A 
ATOM     59  C   UNL A   1      42.091  25.788  27.691  1.00  0.00     0.037 A 
ATOM     60  C   UNL A   1      45.574  31.130  27.719  1.00  0.00     0.049 A 
ATOM     61  C   UNL A   1      43.415  26.138  27.064  1.00  0.00     0.074 A 
ATOM     62  C   UNL A   1      46.836  31.364  27.189  1.00  0.00     0.029 A 
ATOM     63  N   UNL A   1      45.240  29.836  27.371  1.00  0.00    -0.354 N 
ATOM     64  N   UNL A   1      44.096  27.251  27.136  1.00  0.00    -0.248 NA
ATOM     65  C   UNL A   1      44.051  25.103  26.228  1.00  0.00     0.031 C 
ATOM     66  C   UNL A   1      47.246  30.228  26.484  1.00  0.00     0.029 A 
ATOM     67  C   UNL A   1      46.261  29.268  26.618  1.00  0.00     0.049 A 
ATOM     68  H   UNL A   1      44.403  29.381  27.620  1.00  0.00     0.167 HD
ATOM     69  C   UNL A   1      45.234  27.052  26.361  1.00  0.00     0.074 A 
ATOM     70  C   UNL A   1      45.171  25.703  25.849  1.00  0.00     0.031 C 
ATOM     71  C   UNL A   1      46.230  27.929  26.095  1.00  0.00     0.037 A 
BRANCH  58  72
ATOM     72  C   UNL A   1      45.337  33.390  28.761  1.00  0.00     0.064 A 
ATOM     73  C   UNL A   1      46.260  33.634  29.787  1.00  0.00     0.173 A 
ATOM     74  C   UNL A   1      45.073  34.435  27.858  1.00  0.00     0.173 A 
ATOM     75  F   UNL A   1      46.557  32.671  30.672  1.00  0.00    -0.203 F 
ATOM     76  C   UNL A   1      46.888  34.874  29.905  1.00  0.00     0.198 A 
ATOM     77  C   UNL A   1      45.725  35.661  27.961  1.00  0.00     0.198 A 
ATOM     78  F   UNL A   1      44.223  34.246  26.836  1.00  0.00    -0.203 F 
ATOM     79  F   UNL A   1      47.754  35.092  30.905  1.00  0.00    -0.200 F 
ATOM     80  C   UNL A   1      46.630  35.881  28.987  1.00  0.00     0.200 A 
ATOM     81  F   UNL A   1      45.497  36.621  27.053  1.00  0.00    -0.200 F 
ATOM     82  F   UNL A   1      47.259  37.060  29.087  1.00  0.00    -0.200 F 
ENDBRANCH  58  72
BRANCH  59  83
ATOM     83  C   UNL A   1      41.532  24.420  27.500  1.00  0.00     0.064 A 
ATOM     84  C   UNL A   1      40.408  24.203  26.691  1.00  0.00     0.173 A 
ATOM     85  C   UNL A   1      42.116  23.303  28.119  1.00  0.00     0.173 A 
ATOM     86  F   UNL A   1      39.785  25.242  26.116  1.00  0.00    -0.203 F 
ATOM     87  C   UNL A   1      39.898  22.920  26.501  1.00  0.00     0.198 A 
ATOM     88  C   UNL A   1      41.632  22.019  27.893  1.00  0.00     0.198 A 
ATOM     89  F   UNL A   1      43.184  23.460  28.915  1.00  0.00    -0.203 F 
ATOM     90  F   UNL A   1      38.801  22.740  25.752  1.00  0.00    -0.200 F 
ATOM     91  C   UNL A   1      40.521  21.828  27.088  1.00  0.00     0.200 A 
ATOM     92  F   UNL A   1      42.249  20.968  28.448  1.00  0.00    -0.200 F 
ATOM     93  F   UNL A   1      40.047  20.592  26.881  1.00  0.00    -0.200 F 
ENDBRANCH  59  83
BRANCH  71  94
ATOM     94  C   UNL A   1      47.364  27.473  25.220  1.00  0.00     0.064 A 
ATOM     95  C   UNL A   1      47.411  27.798  23.856  1.00  0.00     0.173 A 
ATOM     96  C   UNL A   1      48.441  26.751  25.756  1.00  0.00     0.173 A 
ATOM     97  F   UNL A   1      46.402  28.475  23.288  1.00  0.00    -0.203 F 
ATOM     98  C   UNL A   1      48.486  27.405  23.059  1.00  0.00     0.198 A 
ATOM     99  C   UNL A   1      49.525  26.379  24.963  1.00  0.00     0.198 A 
ATOM    100  F   UNL A   1      48.451  26.417  27.055  1.00  0.00    -0.203 F 
ATOM    101  F   UNL A   1      48.491  27.697  21.751  1.00  0.00    -0.200 F 
ATOM    102  C   UNL A   1      49.545  26.702  23.615  1.00  0.00     0.200 A 
ATOM    103  F   UNL A   1      50.553  25.709  25.504  1.00  0.00    -0.200 F 
ATOM    104  F   UNL A   1      50.582  26.332  22.850  1.00  0.00    -0.200 F 
ENDBRANCH  71  94
ENDBRANCH  45  46
ENDBRANCH  37  40
ENDBRANCH  35  36
ENDBRANCH  34  35
ENDBRANCH  33  34
ENDBRANCH   1  33
TORSDOF 15
ENDMDL
MODEL 2
REMARK VINA RESULT:     -13.1      5.175      7.729
REMARK SMILES O=C(CCN1C(=O)/C(=C2\C(=O)N(Cc3ccc(Cl)cc3)c3ccccc32)SC1=S)NCCCCNC(=O)c1ccc(-c2c3nc(c(-c4c(F)c(F)c(F)c(F)c4F)c4ccc([nH]4)c(-c4c(F)c(F)c(F)c(F)c4F)c4nc(c(-c5c(F)c(F)c(F)c(F)c5F)c5ccc2[nH]5)C=C4)C=C3)cc1
REMARK SMILES IDX 31 1 30 2 1 3 2 4 3 6 4 7 5 8 6 9 28 10 7 11 8 12 27 13
REMARK SMILES IDX 29 14 9 15 10 16 26 17 11 18 12 19 21 20 25 21 22 22 24 23
REMARK SMILES IDX 23 24 13 25 14 26 15 27 20 28 16 29 19 30 17 31 18 32 32 33
REMARK SMILES IDX 33 34 34 35 35 36 36 37 37 39 38 40 39 41 100 42 40 43 99 44
REMARK SMILES IDX 41 45 42 46 43 47 93 48 44 49 98 50 92 51 94 52 45 53 97 54
REMARK SMILES IDX 91 55 90 56 46 58 78 59 58 60 77 61 59 62 62 63 76 64 95 65
REMARK SMILES IDX 60 66 61 67 75 69 96 70 63 71 47 72 48 73 56 74 49 75 50 76
REMARK SMILES IDX 54 77 57 78 51 79 52 80 55 81 53 82 79 83 80 84 88 85 81 86
REMARK SMILES IDX 82 87 86 88 89 89 83 90 84 91 87 92 85 93 64 94 65 95 73 96
REMARK SMILES IDX 66 97 67 98 71 99 74 100 68 101 69 102 72 103 70 104
REMARK H PARENT 30 5 35 38 94 57 62 68
REMARK Flexibility Score: inf
ROOT
ATOM      1  C   UNL A   1      32.907  33.433  27.249  1.00  0.00     0.116 C 
ENDROOT
BRANCH   1   2
ATOM      2  N   UNL A   1      32.338  32.080  27.272  1.00  0.00    -0.356 N 
ATOM      3  O   UNL A   1      34.369  31.002  27.172  1.00  0.00    -0.275 OA
ATOM      4  C   UNL A   1      33.143  30.954  27.236  1.00  0.00     0.221 C 
ATOM      5  H   UNL A   1      31.360  31.971  27.312  1.00  0.00     0.163 HD
BRANCH   4   6
ATOM      6  C   UNL A   1      32.428  29.617  27.286  1.00  0.00     0.122 C 
BRANCH   6   7
ATOM      7  C   UNL A   1      33.085  28.564  26.397  1.00  0.00     0.137 C 
BRANCH   7   8
ATOM      8  N   UNL A   1      32.180  27.721  25.604  1.00  0.00    -0.292 N 
ATOM      9  C   UNL A   1      31.458  26.686  26.207  1.00  0.00     0.267 C 
ATOM     10  C   UNL A   1      31.771  28.061  24.329  1.00  0.00     0.148 C 
ATOM     11  O   UNL A   1      31.402  26.457  27.400  1.00  0.00    -0.268 OA
ATOM     12  C   UNL A   1      30.733  25.922  25.145  1.00  0.00     0.093 C 
ATOM     13  S   UNL A   1      30.366  27.095  23.916  1.00  0.00    -0.053 SA
ATOM     14  S   UNL A   1      32.421  29.168  23.267  1.00  0.00    -0.052 S 
ATOM     15  C   UNL A   1      30.984  24.608  24.960  1.00  0.00     0.069 C 
ATOM     16  C   UNL A   1      31.428  23.631  26.048  1.00  0.00     0.260 C 
ATOM     17  C   UNL A   1      31.517  24.082  23.684  1.00  0.00     0.012 A 
ATOM     18  O   UNL A   1      31.178  23.691  27.219  1.00  0.00    -0.269 OA
ATOM     19  N   UNL A   1      32.237  22.682  25.399  1.00  0.00    -0.303 N 
ATOM     20  C   UNL A   1      32.381  23.047  24.048  1.00  0.00     0.052 A 
ATOM     21  C   UNL A   1      31.562  24.643  22.409  1.00  0.00     0.011 A 
ATOM     22  C   UNL A   1      33.399  22.702  23.206  1.00  0.00     0.027 A 
ATOM     23  C   UNL A   1      32.680  24.413  21.633  1.00  0.00     0.001 A 
ATOM     24  C   UNL A   1      33.627  23.515  22.088  1.00  0.00     0.002 A 
BRANCH  19  25
ATOM     25  C   UNL A   1      33.040  21.701  26.130  1.00  0.00     0.161 C 
BRANCH  25  26
ATOM     26  C   UNL A   1      33.314  20.358  25.471  1.00  0.00    -0.028 A 
ATOM     27  C   UNL A   1      32.268  19.556  24.983  1.00  0.00     0.007 A 
ATOM     28  C   UNL A   1      34.629  19.944  25.209  1.00  0.00     0.007 A 
ATOM     29  C   UNL A   1      32.527  18.351  24.312  1.00  0.00     0.021 A 
ATOM     30  C   UNL A   1      34.889  18.752  24.515  1.00  0.00     0.021 A 
ATOM     31  C   UNL A   1      33.837  17.946  24.093  1.00  0.00     0.041 A 
ATOM     32  Cl  UNL A   1      34.153  16.444  23.317  1.00  0.00    -0.084 Cl
ENDBRANCH  25  26
ENDBRANCH  19  25
ENDBRANCH   7   8
ENDBRANCH   6   7
ENDBRANCH   4   6
ENDBRANCH   1   2
BRANCH   1  33
ATOM     33  C   UNL A   1      33.535  33.889  28.582  1.00  0.00     0.023 C 
BRANCH  33  34
ATOM     34  C   UNL A   1      33.921  35.386  28.715  1.00  0.00     0.023 C 
BRANCH  34  35
ATOM     35  C   UNL A   1      32.828  36.414  29.126  1.00  0.00     0.116 C 
BRANCH  35  36
ATOM     36  N   UNL A   1      32.224  36.258  30.499  1.00  0.00    -0.352 N 
ATOM     37  C   UNL A   1      32.436  35.985  31.846  1.00  0.00     0.251 C 
ATOM     38  H   UNL A   1      31.258  36.420  30.397  1.00  0.00     0.163 HD
ATOM     39  O   UNL A   1      31.449  36.193  32.564  1.00  0.00    -0.269 OA
BRANCH  37  40
ATOM     40  C   UNL A   1      33.601  35.359  32.562  1.00  0.00     0.039 A 
ATOM     41  C   UNL A   1      34.699  36.009  33.092  1.00  0.00     0.014 A 
ATOM     42  C   UNL A   1      33.539  33.986  32.858  1.00  0.00     0.014 A 
ATOM     43  C   UNL A   1      35.853  35.266  33.504  1.00  0.00     0.010 A 
ATOM     44  C   UNL A   1      34.642  33.255  33.385  1.00  0.00     0.010 A 
ATOM     45  C   UNL A   1      35.885  33.859  33.615  1.00  0.00    -0.014 A 
BRANCH  45  46
ATOM     46  C   UNL A   1      37.151  33.047  33.942  1.00  0.00     0.031 A 
ATOM     47  C   UNL A   1      37.888  33.169  35.288  1.00  0.00     0.074 A 
ATOM     48  C   UNL A   1      37.684  32.127  33.100  1.00  0.00     0.049 A 
ATOM     49  N   UNL A   1      39.076  32.720  35.650  1.00  0.00    -0.248 NA
ATOM     50  C   UNL A   1      37.193  33.876  36.367  1.00  0.00     0.031 C 
ATOM     51  C   UNL A   1      37.164  31.767  31.786  1.00  0.00     0.029 A 
ATOM     52  N   UNL A   1      38.793  31.305  33.238  1.00  0.00    -0.354 N 
ATOM     53  C   UNL A   1      39.291  33.161  36.959  1.00  0.00     0.074 A 
ATOM     54  C   UNL A   1      38.106  33.900  37.331  1.00  0.00     0.031 C 
ATOM     55  C   UNL A   1      37.878  30.749  31.285  1.00  0.00     0.029 A 
ATOM     56  C   UNL A   1      39.012  30.473  32.162  1.00  0.00     0.049 A 
ATOM     57  H   UNL A   1      39.373  31.316  34.033  1.00  0.00     0.167 HD
ATOM     58  C   UNL A   1      40.353  32.972  37.790  1.00  0.00     0.037 A 
ATOM     59  C   UNL A   1      40.019  29.627  31.849  1.00  0.00     0.037 A 
ATOM     60  C   UNL A   1      41.508  32.147  37.515  1.00  0.00     0.049 A 
ATOM     61  C   UNL A   1      41.224  29.478  32.739  1.00  0.00     0.074 A 
ATOM     62  C   UNL A   1      42.606  31.902  38.329  1.00  0.00     0.029 A 
ATOM     63  N   UNL A   1      41.704  31.408  36.365  1.00  0.00    -0.354 N 
ATOM     64  N   UNL A   1      41.455  30.001  33.914  1.00  0.00    -0.248 NA
ATOM     65  C   UNL A   1      42.328  28.643  32.232  1.00  0.00     0.031 C 
ATOM     66  C   UNL A   1      43.485  31.050  37.654  1.00  0.00     0.029 A 
ATOM     67  C   UNL A   1      42.912  30.724  36.440  1.00  0.00     0.049 A 
ATOM     68  H   UNL A   1      41.081  31.369  35.603  1.00  0.00     0.167 HD
ATOM     69  C   UNL A   1      42.721  29.561  34.285  1.00  0.00     0.074 A 
ATOM     70  C   UNL A   1      43.202  28.703  33.227  1.00  0.00     0.031 C 
ATOM     71  C   UNL A   1      43.418  29.862  35.406  1.00  0.00     0.037 A 
BRANCH  58  72
ATOM     72  C   UNL A   1      40.367  33.687  39.120  1.00  0.00     0.064 A 
ATOM     73  C   UNL A   1      41.016  34.915  39.300  1.00  0.00     0.173 A 
ATOM     74  C   UNL A   1      39.586  33.199  40.184  1.00  0.00     0.173 A 
ATOM     75  F   UNL A   1      41.767  35.433  38.317  1.00  0.00    -0.203 F 
ATOM     76  C   UNL A   1      40.894  35.623  40.496  1.00  0.00     0.198 A 
ATOM     77  C   UNL A   1      39.442  33.922  41.365  1.00  0.00     0.198 A 
ATOM     78  F   UNL A   1      38.914  32.044  40.054  1.00  0.00    -0.203 F 
ATOM     79  F   UNL A   1      41.539  36.787  40.654  1.00  0.00    -0.200 F 
ATOM     80  C   UNL A   1      40.098  35.132  41.522  1.00  0.00     0.200 A 
ATOM     81  F   UNL A   1      38.646  33.462  42.341  1.00  0.00    -0.200 F 
ATOM     82  F   UNL A   1      39.959  35.830  42.658  1.00  0.00    -0.200 F 
ENDBRANCH  58  72
BRANCH  59  83
ATOM     83  C   UNL A   1      39.967  28.884  30.559  1.00  0.00     0.064 A 
ATOM     84  C   UNL A   1      40.530  29.418  29.391  1.00  0.00     0.173 A 
ATOM     85  C   UNL A   1      39.359  27.622  30.471  1.00  0.00     0.173 A 
ATOM     86  F   UNL A   1      41.082  30.640  29.412  1.00  0.00    -0.203 F 
ATOM     87  C   UNL A   1      40.496  28.712  28.191  1.00  0.00     0.198 A 
ATOM     88  C   UNL A   1      39.363  26.901  29.282  1.00  0.00     0.198 A 
ATOM     89  F   UNL A   1      38.791  27.074  31.556  1.00  0.00    -0.203 F 
ATOM     90  F   UNL A   1      41.010  29.258  27.079  1.00  0.00    -0.200 F 
ATOM     91  C   UNL A   1      39.928  27.448  28.141  1.00  0.00     0.200 A 
ATOM     92  F   UNL A   1      38.830  25.672  29.245  1.00  0.00    -0.200 F 
ATOM     93  F   UNL A   1      39.921  26.758  26.993  1.00  0.00    -0.200 F 
ENDBRANCH  59  83
BRANCH  71  94
ATOM     94  C   UNL A   1      44.781  29.256  35.580  1.00  0.00     0.064 A 
ATOM     95  C   UNL A   1      44.952  27.995  36.171  1.00  0.00     0.173 A 
ATOM     96  C   UNL A   1      45.927  29.914  35.105  1.00  0.00     0.173 A 
ATOM     97  F   UNL A   1      43.894  27.329  36.655  1.00  0.00    -0.203 F 
ATOM     98  C   UNL A   1      46.218  27.423  36.294  1.00  0.00     0.198 A 
ATOM     99  C   UNL A   1      47.188  29.330  35.208  1.00  0.00     0.198 A 
ATOM    100  F   UNL A   1      45.823  31.119  34.526  1.00  0.00    -0.203 F 
ATOM    101  F   UNL A   1      46.358  26.233  36.895  1.00  0.00    -0.200 F 
ATOM    102  C   UNL A   1      47.333  28.087  35.806  1.00  0.00     0.200 A 
ATOM    103  F   UNL A   1      48.264  29.968  34.725  1.00  0.00    -0.200 F 
ATOM    104  F   UNL A   1      48.548  27.532  35.916  1.00  0.00    -0.200 F 
ENDBRANCH  71  94
ENDBRANCH  45  46
ENDBRANCH  37  40
ENDBRANCH  35  36
ENDBRANCH  34  35
ENDBRANCH  33  34
ENDBRANCH   1  33
TORSDOF 15
ENDMDL
MODEL 3
REMARK VINA RESULT:     -12.8      5.887     11.013
REMARK SMILES O=C(CCN1C(=O)/C(=C2\C(=O)N(Cc3ccc(Cl)cc3)c3ccccc32)SC1=S)NCCCCNC(=O)c1ccc(-c2c3nc(c(-c4c(F)c(F)c(F)c(F)c4F)c4ccc([nH]4)c(-c4c(F)c(F)c(F)c(F)c4F)c4nc(c(-c5c(F)c(F)c(F)c(F)c5F)c5ccc2[nH]5)C=C4)C=C3)cc1
REMARK SMILES IDX 31 1 30 2 1 3 2 4 3 6 4 7 5 8 6 9 28 10 7 11 8 12 27 13
REMARK SMILES IDX 29 14 9 15 10 16 26 17 11 18 12 19 21 20 25 21 22 22 24 23
REMARK SMILES IDX 23 24 13 25 14 26 15 27 20 28 16 29 19 30 17 31 18 32 32 33
REMARK SMILES IDX 33 34 34 35 35 36 36 37 37 39 38 40 39 41 100 42 40 43 99 44
REMARK SMILES IDX 41 45 42 46 43 47 93 48 44 49 98 50 92 51 94 52 45 53 97 54
REMARK SMILES IDX 91 55 90 56 46 58 78 59 58 60 77 61 59 62 62 63 76 64 95 65
REMARK SMILES IDX 60 66 61 67 75 69 96 70 63 71 47 72 48 73 56 74 49 75 50 76
REMARK SMILES IDX 54 77 57 78 51 79 52 80 55 81 53 82 79 83 80 84 88 85 81 86
REMARK SMILES IDX 82 87 86 88 89 89 83 90 84 91 87 92 85 93 64 94 65 95 73 96
REMARK SMILES IDX 66 97 67 98 71 99 74 100 68 101 69 102 72 103 70 104
REMARK H PARENT 30 5 35 38 94 57 62 68
REMARK Flexibility Score: inf
ROOT
ATOM      1  C   UNL A   1      40.023  23.096  27.403  1.00  0.00     0.116 C 
ENDROOT
BRANCH   1   2
ATOM      2  N   UNL A   1      38.863  22.965  26.513  1.00  0.00    -0.356 N 
ATOM      3  O   UNL A   1      39.422  20.865  25.755  1.00  0.00    -0.275 OA
ATOM      4  C   UNL A   1      38.658  21.826  25.751  1.00  0.00     0.221 C 
ATOM      5  H   UNL A   1      38.216  23.705  26.455  1.00  0.00     0.163 HD
BRANCH   4   6
ATOM      6  C   UNL A   1      37.409  21.813  24.890  1.00  0.00     0.122 C 
BRANCH   6   7
ATOM      7  C   UNL A   1      36.382  22.856  25.327  1.00  0.00     0.137 C 
BRANCH   7   8
ATOM      8  N   UNL A   1      35.025  22.702  24.788  1.00  0.00    -0.292 N 
ATOM      9  C   UNL A   1      34.695  23.213  23.530  1.00  0.00     0.267 C 
ATOM     10  C   UNL A   1      34.103  21.825  25.329  1.00  0.00     0.148 C 
ATOM     11  O   UNL A   1      35.471  23.703  22.732  1.00  0.00    -0.268 OA
ATOM     12  C   UNL A   1      33.227  23.028  23.305  1.00  0.00     0.093 C 
ATOM     13  S   UNL A   1      32.818  21.574  24.162  1.00  0.00    -0.053 SA
ATOM     14  S   UNL A   1      34.097  21.080  26.819  1.00  0.00    -0.052 S 
ATOM     15  C   UNL A   1      32.429  24.099  23.101  1.00  0.00     0.069 C 
ATOM     16  C   UNL A   1      32.862  25.414  22.453  1.00  0.00     0.260 C 
ATOM     17  C   UNL A   1      31.313  24.431  24.013  1.00  0.00     0.012 A 
ATOM     18  O   UNL A   1      33.723  25.566  21.633  1.00  0.00    -0.269 OA
ATOM     19  N   UNL A   1      32.078  26.411  23.058  1.00  0.00    -0.303 N 
ATOM     20  C   UNL A   1      31.282  25.827  24.060  1.00  0.00     0.052 A 
ATOM     21  C   UNL A   1      30.653  23.665  24.973  1.00  0.00     0.011 A 
ATOM     22  C   UNL A   1      30.750  26.446  25.154  1.00  0.00     0.027 A 
ATOM     23  C   UNL A   1      30.267  24.277  26.147  1.00  0.00     0.001 A 
ATOM     24  C   UNL A   1      30.408  25.648  26.254  1.00  0.00     0.002 A 
BRANCH  19  25
ATOM     25  C   UNL A   1      32.343  27.839  22.874  1.00  0.00     0.161 C 
BRANCH  25  26
ATOM     26  C   UNL A   1      31.179  28.810  22.997  1.00  0.00    -0.028 A 
ATOM     27  C   UNL A   1      30.082  28.752  22.121  1.00  0.00     0.007 A 
ATOM     28  C   UNL A   1      31.104  29.704  24.076  1.00  0.00     0.007 A 
ATOM     29  C   UNL A   1      28.976  29.601  22.280  1.00  0.00     0.021 A 
ATOM     30  C   UNL A   1      29.987  30.536  24.251  1.00  0.00     0.021 A 
ATOM     31  C   UNL A   1      28.940  30.502  23.337  1.00  0.00     0.041 A 
ATOM     32  Cl  UNL A   1      27.609  31.579  23.502  1.00  0.00    -0.084 Cl
ENDBRANCH  25  26
ENDBRANCH  19  25
ENDBRANCH   7   8
ENDBRANCH   6   7
ENDBRANCH   4   6
ENDBRANCH   1   2
BRANCH   1  33
ATOM     33  C   UNL A   1      40.990  24.241  27.036  1.00  0.00     0.023 C 
BRANCH  33  34
ATOM     34  C   UNL A   1      41.752  24.129  25.690  1.00  0.00     0.023 C 
BRANCH  34  35
ATOM     35  C   UNL A   1      42.727  22.936  25.471  1.00  0.00     0.116 C 
BRANCH  35  36
ATOM     36  N   UNL A   1      44.148  23.120  25.944  1.00  0.00    -0.352 N 
ATOM     37  C   UNL A   1      44.997  23.531  26.966  1.00  0.00     0.251 C 
ATOM     38  H   UNL A   1      44.726  22.815  25.208  1.00  0.00     0.163 HD
ATOM     39  O   UNL A   1      46.187  23.247  26.777  1.00  0.00    -0.269 OA
BRANCH  37  40
ATOM     40  C   UNL A   1      44.748  24.372  28.187  1.00  0.00     0.039 A 
ATOM     41  C   UNL A   1      44.514  23.924  29.472  1.00  0.00     0.014 A 
ATOM     42  C   UNL A   1      44.890  25.766  28.074  1.00  0.00     0.014 A 
ATOM     43  C   UNL A   1      44.028  24.822  30.477  1.00  0.00     0.010 A 
ATOM     44  C   UNL A   1      44.526  26.670  29.113  1.00  0.00     0.010 A 
ATOM     45  C   UNL A   1      43.966  26.224  30.317  1.00  0.00    -0.014 A 
BRANCH  45  46
ATOM     46  C   UNL A   1      43.338  27.184  31.343  1.00  0.00     0.031 A 
ATOM     47  C   UNL A   1      42.050  27.977  31.055  1.00  0.00     0.074 A 
ATOM     48  C   UNL A   1      43.833  27.367  32.592  1.00  0.00     0.049 A 
ATOM     49  N   UNL A   1      41.502  28.978  31.719  1.00  0.00    -0.248 NA
ATOM     50  C   UNL A   1      41.274  27.584  29.876  1.00  0.00     0.031 C 
ATOM     51  C   UNL A   1      45.007  26.706  33.152  1.00  0.00     0.029 A 
ATOM     52  N   UNL A   1      43.392  28.167  33.636  1.00  0.00    -0.354 N 
ATOM     53  C   UNL A   1      40.375  29.374  30.993  1.00  0.00     0.074 A 
ATOM     54  C   UNL A   1      40.311  28.497  29.846  1.00  0.00     0.031 C 
ATOM     55  C   UNL A   1      45.137  27.044  34.443  1.00  0.00     0.029 A 
ATOM     56  C   UNL A   1      44.154  28.069  34.779  1.00  0.00     0.049 A 
ATOM     57  H   UNL A   1      42.604  28.754  33.566  1.00  0.00     0.167 HD
ATOM     58  C   UNL A   1      39.466  30.357  31.242  1.00  0.00     0.037 A 
ATOM     59  C   UNL A   1      44.140  28.746  35.949  1.00  0.00     0.037 A 
ATOM     60  C   UNL A   1      39.415  31.183  32.428  1.00  0.00     0.049 A 
ATOM     61  C   UNL A   1      43.179  29.879  36.189  1.00  0.00     0.074 A 
ATOM     62  C   UNL A   1      38.502  32.181  32.744  1.00  0.00     0.029 A 
ATOM     63  N   UNL A   1      40.277  31.090  33.503  1.00  0.00    -0.354 N 
ATOM     64  N   UNL A   1      42.203  30.311  35.434  1.00  0.00    -0.248 NA
ATOM     65  C   UNL A   1      43.348  30.644  37.438  1.00  0.00     0.031 C 
ATOM     66  C   UNL A   1      38.839  32.720  33.989  1.00  0.00     0.029 A 
ATOM     67  C   UNL A   1      39.931  32.024  34.471  1.00  0.00     0.049 A 
ATOM     68  H   UNL A   1      41.026  30.454  33.574  1.00  0.00     0.167 HD
ATOM     69  C   UNL A   1      41.645  31.389  36.112  1.00  0.00     0.074 A 
ATOM     70  C   UNL A   1      42.368  31.533  37.354  1.00  0.00     0.031 C 
ATOM     71  C   UNL A   1      40.628  32.191  35.718  1.00  0.00     0.037 A 
BRANCH  58  72
ATOM     72  C   UNL A   1      38.413  30.649  30.200  1.00  0.00     0.064 A 
ATOM     73  C   UNL A   1      37.318  29.800  29.989  1.00  0.00     0.173 A 
ATOM     74  C   UNL A   1      38.430  31.877  29.513  1.00  0.00     0.173 A 
ATOM     75  F   UNL A   1      37.245  28.621  30.623  1.00  0.00    -0.203 F 
ATOM     76  C   UNL A   1      36.287  30.163  29.122  1.00  0.00     0.198 A 
ATOM     77  C   UNL A   1      37.384  32.248  28.673  1.00  0.00     0.198 A 
ATOM     78  F   UNL A   1      39.437  32.743  29.704  1.00  0.00    -0.203 F 
ATOM     79  F   UNL A   1      35.258  29.328  28.920  1.00  0.00    -0.200 F 
ATOM     80  C   UNL A   1      36.315  31.390  28.475  1.00  0.00     0.200 A 
ATOM     81  F   UNL A   1      37.398  33.448  28.075  1.00  0.00    -0.200 F 
ATOM     82  F   UNL A   1      35.306  31.748  27.668  1.00  0.00    -0.200 F 
ENDBRANCH  58  72
BRANCH  59  83
ATOM     83  C   UNL A   1      45.149  28.411  36.993  1.00  0.00     0.064 A 
ATOM     84  C   UNL A   1      46.375  29.088  37.059  1.00  0.00     0.173 A 
ATOM     85  C   UNL A   1      44.903  27.412  37.947  1.00  0.00     0.173 A 
ATOM     86  F   UNL A   1      46.678  30.018  36.143  1.00  0.00    -0.203 F 
ATOM     87  C   UNL A   1      47.309  28.784  38.049  1.00  0.00     0.198 A 
ATOM     88  C   UNL A   1      45.818  27.140  38.959  1.00  0.00     0.198 A 
ATOM     89  F   UNL A   1      43.751  26.725  37.916  1.00  0.00    -0.203 F 
ATOM     90  F   UNL A   1      48.489  29.419  38.072  1.00  0.00    -0.200 F 
ATOM     91  C   UNL A   1      47.023  27.823  39.007  1.00  0.00     0.200 A 
ATOM     92  F   UNL A   1      45.527  26.223  39.892  1.00  0.00    -0.200 F 
ATOM     93  F   UNL A   1      47.909  27.552  39.974  1.00  0.00    -0.200 F 
ENDBRANCH  59  83
BRANCH  71  94
ATOM     94  C   UNL A   1      40.201  33.302  36.635  1.00  0.00     0.064 A 
ATOM     95  C   UNL A   1      40.762  34.585  36.542  1.00  0.00     0.173 A 
ATOM     96  C   UNL A   1      39.186  33.102  37.583  1.00  0.00     0.173 A 
ATOM     97  F   UNL A   1      41.746  34.828  35.664  1.00  0.00    -0.203 F 
ATOM     98  C   UNL A   1      40.334  35.620  37.372  1.00  0.00     0.198 A 
ATOM     99  C   UNL A   1      38.743  34.145  38.395  1.00  0.00     0.198 A 
ATOM    100  F   UNL A   1      38.610  31.898  37.713  1.00  0.00    -0.203 F 
ATOM    101  F   UNL A   1      40.910  36.827  37.286  1.00  0.00    -0.200 F 
ATOM    102  C   UNL A   1      39.319  35.401  38.291  1.00  0.00     0.200 A 
ATOM    103  F   UNL A   1      37.755  33.935  39.277  1.00  0.00    -0.200 F 
ATOM    104  F   UNL A   1      38.902  36.400  39.083  1.00  0.00    -0.200 F 
ENDBRANCH  71  94
ENDBRANCH  45  46
ENDBRANCH  37  40
ENDBRANCH  35  36
ENDBRANCH  34  35
ENDBRANCH  33  34
ENDBRANCH   1  33
TORSDOF 15
ENDMDL
