MODEL 1
REMARK VINA RESULT:     -14.8      0.000      0.000
REMARK SMILES Cc1c(C[N@H+]2CC[C@@H](C(=O)NCCCCNC(=O)c3ccc(-c4c5nc(c(-c6c(F)c(F)c(F)c(F)c6F)c6ccc([nH]6)c(-c6c(F)c(F)c(F)c(F)c6F)c6nc(c(-c7c(F)c(F)c(F)c(F)c7F)c7ccc4[nH]7)C=C6)C=C5)cc3)[C@@H]2C)cccc1[N+](=O)[O-]
REMARK SMILES IDX 13 1 12 2 11 3 9 4 10 5 8 7 5 8 6 9 82 10 7 12 83 13 4 14
REMARK SMILES IDX 3 15 1 16 2 17 87 18 84 19 86 20 85 21 88 22 89 23 90 24
REMARK SMILES IDX 14 25 15 26 16 27 17 28 18 30 19 31 20 32 81 33 21 34 80 35
REMARK SMILES IDX 22 36 23 37 24 38 74 39 25 40 79 41 73 42 75 43 26 44 78 45
REMARK SMILES IDX 72 46 71 47 27 49 59 50 39 51 58 52 40 53 43 54 57 55 76 56
REMARK SMILES IDX 41 57 42 58 56 60 77 61 44 62 28 63 29 64 37 65 30 66 31 67
REMARK SMILES IDX 35 68 38 69 32 70 33 71 36 72 34 73 60 74 61 75 69 76 62 77
REMARK SMILES IDX 63 78 67 79 70 80 64 81 65 82 68 83 66 84 45 85 46 86 54 87
REMARK SMILES IDX 47 88 48 89 52 90 55 91 49 92 50 93 53 94 51 95
REMARK H PARENT 11 6 5 11 16 29 75 48 43 59
REMARK Flexibility Score: inf
ROOT
ATOM      1  C   UNL A   1      34.143  27.967  26.543  1.00  0.00     0.023 C 
ENDROOT
BRANCH   1   2
ATOM      2  C   UNL A   1      34.028  25.922  25.752  1.00  0.00     0.116 C 
BRANCH   2   3
ATOM      3  N   UNL A   1      34.733  25.186  24.532  1.00  0.00    -0.356 N 
ATOM      4  C   UNL A   1      35.123  23.910  24.281  1.00  0.00     0.229 C 
ATOM      5  O   UNL A   1      35.541  23.683  23.140  1.00  0.00    -0.275 OA
ATOM      6  H   UNL A   1      34.935  25.796  23.786  1.00  0.00     0.163 HD
BRANCH   4   7
ATOM      7  C   UNL A   1      35.088  22.780  25.306  1.00  0.00     0.142 C 
ATOM      8  N   UNL A   1      33.185  21.369  25.778  1.00  0.00    -0.328 N 
ATOM      9  C   UNL A   1      34.204  20.530  25.151  1.00  0.00     0.263 C 
ATOM     10  C   UNL A   1      33.767  22.682  26.062  1.00  0.00     0.193 C 
ATOM     11  H   UNL A   1      32.929  20.915  26.654  1.00  0.00     0.348 HD
ATOM     12  C   UNL A   1      35.368  21.410  24.719  1.00  0.00     0.081 C 
ATOM     13  C   UNL A   1      33.899  22.863  27.569  1.00  0.00     0.076 C 
BRANCH   8  14
ATOM     14  C   UNL A   1      31.861  21.403  25.141  1.00  0.00     0.299 C 
BRANCH  14  15
ATOM     15  C   UNL A   1      31.425  22.772  24.673  1.00  0.00     0.016 A 
ATOM     16  C   UNL A   1      32.607  22.464  22.071  1.00  0.00     0.052 C 
ATOM     17  C   UNL A   1      32.018  23.398  23.086  1.00  0.00     0.036 A 
ATOM     18  C   UNL A   1      31.835  25.149  22.739  1.00  0.00     0.272 A 
ATOM     19  C   UNL A   1      30.616  23.902  25.851  1.00  0.00     0.010 A 
ATOM     20  C   UNL A   1      31.113  26.292  23.932  1.00  0.00     0.086 A 
ATOM     21  C   UNL A   1      30.474  25.660  25.481  1.00  0.00     0.008 A 
BRANCH  18  22
ATOM     22  N   UNL A   1      32.375  25.721  21.575  1.00  0.00     0.062 N 
ATOM     23  O   UNL A   1      33.576  25.978  21.652  1.00  0.00    -0.258 OA
ATOM     24  O   UNL A   1      31.588  25.958  20.651  1.00  0.00    -0.258 OA
ENDBRANCH  18  22
ENDBRANCH  14  15
ENDBRANCH   8  14
ENDBRANCH   4   7
ENDBRANCH   2   3
ENDBRANCH   1   2
BRANCH   1  25
ATOM     25  C   UNL A   1      33.374  29.485  26.227  1.00  0.00     0.023 C 
BRANCH  25  26
ATOM     26  C   UNL A   1      33.177  30.432  27.409  1.00  0.00     0.116 C 
BRANCH  26  27
ATOM     27  N   UNL A   1      34.131  31.516  27.557  1.00  0.00    -0.352 N 
ATOM     28  C   UNL A   1      35.374  31.504  28.176  1.00  0.00     0.251 C 
ATOM     29  H   UNL A   1      33.859  32.377  27.164  1.00  0.00     0.163 HD
ATOM     30  O   UNL A   1      35.892  32.567  28.503  1.00  0.00    -0.269 OA
BRANCH  28  31
ATOM     31  C   UNL A   1      36.172  30.249  28.258  1.00  0.00     0.039 A 
ATOM     32  C   UNL A   1      36.335  29.691  29.538  1.00  0.00     0.014 A 
ATOM     33  C   UNL A   1      37.042  29.896  27.243  1.00  0.00     0.014 A 
ATOM     34  C   UNL A   1      37.537  29.083  29.867  1.00  0.00     0.010 A 
ATOM     35  C   UNL A   1      38.306  29.522  27.609  1.00  0.00     0.010 A 
ATOM     36  C   UNL A   1      38.554  29.148  28.933  1.00  0.00    -0.014 A 
BRANCH  36  37
ATOM     37  C   UNL A   1      39.920  28.748  29.173  1.00  0.00     0.031 A 
ATOM     38  C   UNL A   1      40.245  27.375  28.801  1.00  0.00     0.074 A 
ATOM     39  C   UNL A   1      40.816  29.699  29.496  1.00  0.00     0.049 A 
ATOM     40  N   UNL A   1      41.311  26.773  29.161  1.00  0.00    -0.248 NA
ATOM     41  C   UNL A   1      39.330  26.509  28.056  1.00  0.00     0.031 C 
ATOM     42  C   UNL A   1      42.258  29.773  29.276  1.00  0.00     0.029 A 
ATOM     43  N   UNL A   1      40.542  30.889  30.129  1.00  0.00    -0.354 N 
ATOM     44  C   UNL A   1      41.400  25.624  28.413  1.00  0.00     0.074 A 
ATOM     45  C   UNL A   1      40.082  25.423  27.878  1.00  0.00     0.031 C 
ATOM     46  C   UNL A   1      42.757  30.846  29.928  1.00  0.00     0.029 A 
ATOM     47  C   UNL A   1      41.677  31.429  30.714  1.00  0.00     0.049 A 
ATOM     48  H   UNL A   1      39.651  31.304  30.163  1.00  0.00     0.167 HD
ATOM     49  C   UNL A   1      42.646  25.111  28.223  1.00  0.00     0.037 A 
ATOM     50  C   UNL A   1      41.669  31.581  32.072  1.00  0.00     0.037 A 
ATOM     51  C   UNL A   1      43.617  25.934  28.965  1.00  0.00     0.049 A 
ATOM     52  C   UNL A   1      42.510  30.466  32.651  1.00  0.00     0.074 A 
ATOM     53  C   UNL A   1      44.453  26.967  28.574  1.00  0.00     0.029 A 
ATOM     54  N   UNL A   1      43.486  26.046  30.350  1.00  0.00    -0.354 N 
ATOM     55  N   UNL A   1      42.653  29.290  32.093  1.00  0.00    -0.248 NA
ATOM     56  C   UNL A   1      43.389  30.666  33.795  1.00  0.00     0.031 C 
ATOM     57  C   UNL A   1      44.785  27.725  29.737  1.00  0.00     0.029 A 
ATOM     58  C   UNL A   1      44.147  27.160  30.834  1.00  0.00     0.049 A 
ATOM     59  H   UNL A   1      42.984  25.411  30.913  1.00  0.00     0.167 HD
ATOM     60  C   UNL A   1      43.690  28.636  32.696  1.00  0.00     0.074 A 
ATOM     61  C   UNL A   1      44.096  29.523  33.774  1.00  0.00     0.031 C 
ATOM     62  C   UNL A   1      44.192  27.439  32.266  1.00  0.00     0.037 A 
BRANCH  49  63
ATOM     63  C   UNL A   1      43.036  24.079  27.186  1.00  0.00     0.064 A 
ATOM     64  C   UNL A   1      42.702  22.722  27.393  1.00  0.00     0.173 A 
ATOM     65  C   UNL A   1      43.748  24.322  25.993  1.00  0.00     0.173 A 
ATOM     66  F   UNL A   1      41.987  22.333  28.457  1.00  0.00    -0.203 F 
ATOM     67  C   UNL A   1      43.084  21.705  26.512  1.00  0.00     0.198 A 
ATOM     68  C   UNL A   1      44.149  23.302  25.122  1.00  0.00     0.198 A 
ATOM     69  F   UNL A   1      44.060  25.551  25.581  1.00  0.00    -0.203 F 
ATOM     70  F   UNL A   1      42.734  20.438  26.772  1.00  0.00    -0.200 F 
ATOM     71  C   UNL A   1      43.816  21.993  25.381  1.00  0.00     0.200 A 
ATOM     72  F   UNL A   1      44.852  23.609  24.022  1.00  0.00    -0.200 F 
ATOM     73  F   UNL A   1      44.182  21.020  24.536  1.00  0.00    -0.200 F 
ENDBRANCH  49  63
BRANCH  50  74
ATOM     74  C   UNL A   1      40.320  32.068  32.532  1.00  0.00     0.064 A 
ATOM     75  C   UNL A   1      39.943  33.358  32.082  1.00  0.00     0.173 A 
ATOM     76  C   UNL A   1      39.281  31.176  32.840  1.00  0.00     0.173 A 
ATOM     77  F   UNL A   1      40.891  34.266  31.795  1.00  0.00    -0.203 F 
ATOM     78  C   UNL A   1      38.622  33.659  31.751  1.00  0.00     0.198 A 
ATOM     79  C   UNL A   1      37.951  31.497  32.533  1.00  0.00     0.198 A 
ATOM     80  F   UNL A   1      39.555  29.937  33.269  1.00  0.00    -0.203 F 
ATOM     81  F   UNL A   1      38.330  34.826  31.156  1.00  0.00    -0.200 F 
ATOM     82  C   UNL A   1      37.633  32.707  31.931  1.00  0.00     0.200 A 
ATOM     83  F   UNL A   1      36.986  30.583  32.713  1.00  0.00    -0.200 F 
ATOM     84  F   UNL A   1      36.391  32.936  31.481  1.00  0.00    -0.200 F 
ENDBRANCH  50  74
BRANCH  62  85
ATOM     85  C   UNL A   1      44.863  26.447  33.186  1.00  0.00     0.064 A 
ATOM     86  C   UNL A   1      44.166  25.691  34.145  1.00  0.00     0.173 A 
ATOM     87  C   UNL A   1      46.221  26.084  33.005  1.00  0.00     0.173 A 
ATOM     88  F   UNL A   1      42.841  25.803  34.309  1.00  0.00    -0.203 F 
ATOM     89  C   UNL A   1      44.796  24.732  34.933  1.00  0.00     0.198 A 
ATOM     90  C   UNL A   1      46.820  25.055  33.726  1.00  0.00     0.198 A 
ATOM     91  F   UNL A   1      47.007  26.679  32.097  1.00  0.00    -0.203 F 
ATOM     92  F   UNL A   1      44.097  24.103  35.888  1.00  0.00    -0.200 F 
ATOM     93  C   UNL A   1      46.118  24.403  34.714  1.00  0.00     0.200 A 
ATOM     94  F   UNL A   1      48.076  24.688  33.437  1.00  0.00    -0.200 F 
ATOM     95  F   UNL A   1      46.703  23.441  35.436  1.00  0.00    -0.200 F 
ENDBRANCH  62  85
ENDBRANCH  36  37
ENDBRANCH  28  31
ENDBRANCH  26  27
ENDBRANCH  25  26
ENDBRANCH   1  25
TORSDOF 14
ENDMDL
MODEL 2
REMARK VINA RESULT:     -14.7      3.222      5.147
REMARK SMILES Cc1c(C[N@H+]2CC[C@@H](C(=O)NCCCCNC(=O)c3ccc(-c4c5nc(c(-c6c(F)c(F)c(F)c(F)c6F)c6ccc([nH]6)c(-c6c(F)c(F)c(F)c(F)c6F)c6nc(c(-c7c(F)c(F)c(F)c(F)c7F)c7ccc4[nH]7)C=C6)C=C5)cc3)[C@@H]2C)cccc1[N+](=O)[O-]
REMARK SMILES IDX 13 1 12 2 11 3 9 4 10 5 8 7 5 8 6 9 82 10 7 12 83 13 4 14
REMARK SMILES IDX 3 15 1 16 2 17 87 18 84 19 86 20 85 21 88 22 89 23 90 24
REMARK SMILES IDX 14 25 15 26 16 27 17 28 18 30 19 31 20 32 81 33 21 34 80 35
REMARK SMILES IDX 22 36 23 37 24 38 74 39 25 40 79 41 73 42 75 43 26 44 78 45
REMARK SMILES IDX 72 46 71 47 27 49 59 50 39 51 58 52 40 53 43 54 57 55 76 56
REMARK SMILES IDX 41 57 42 58 56 60 77 61 44 62 28 63 29 64 37 65 30 66 31 67
REMARK SMILES IDX 35 68 38 69 32 70 33 71 36 72 34 73 60 74 61 75 69 76 62 77
REMARK SMILES IDX 63 78 67 79 70 80 64 81 65 82 68 83 66 84 45 85 46 86 54 87
REMARK SMILES IDX 47 88 48 89 52 90 55 91 49 92 50 93 53 94 51 95
REMARK H PARENT 11 6 5 11 16 29 75 48 43 59
REMARK Flexibility Score: inf
ROOT
ATOM      1  C   UNL A   1      33.919  34.441  28.125  1.00  0.00     0.023 C 
ENDROOT
BRANCH   1   2
ATOM      2  C   UNL A   1      33.410  32.318  27.887  1.00  0.00     0.116 C 
BRANCH   2   3
ATOM      3  N   UNL A   1      34.258  30.977  27.992  1.00  0.00    -0.356 N 
ATOM      4  C   UNL A   1      34.323  29.828  27.273  1.00  0.00     0.229 C 
ATOM      5  O   UNL A   1      35.215  29.035  27.595  1.00  0.00    -0.275 OA
ATOM      6  H   UNL A   1      34.879  30.981  28.756  1.00  0.00     0.163 HD
BRANCH   4   7
ATOM      7  C   UNL A   1      33.373  29.468  26.135  1.00  0.00     0.142 C 
ATOM      8  N   UNL A   1      32.551  27.251  25.637  1.00  0.00    -0.328 N 
ATOM      9  C   UNL A   1      31.413  28.043  26.099  1.00  0.00     0.263 C 
ATOM     10  C   UNL A   1      33.702  28.140  25.462  1.00  0.00     0.193 C 
ATOM     11  H   UNL A   1      32.287  26.857  24.735  1.00  0.00     0.348 HD
ATOM     12  C   UNL A   1      31.915  29.408  26.548  1.00  0.00     0.081 C 
ATOM     13  C   UNL A   1      34.028  28.260  23.978  1.00  0.00     0.076 C 
BRANCH   8  14
ATOM     14  C   UNL A   1      32.837  26.004  26.360  1.00  0.00     0.299 C 
BRANCH  14  15
ATOM     15  C   UNL A   1      33.422  24.904  25.505  1.00  0.00     0.016 A 
ATOM     16  C   UNL A   1      30.861  23.726  24.940  1.00  0.00     0.052 C 
ATOM     17  C   UNL A   1      32.353  23.570  24.921  1.00  0.00     0.036 A 
ATOM     18  C   UNL A   1      33.123  22.085  24.271  1.00  0.00     0.272 A 
ATOM     19  C   UNL A   1      35.232  24.741  25.377  1.00  0.00     0.010 A 
ATOM     20  C   UNL A   1      34.913  21.878  24.217  1.00  0.00     0.086 A 
ATOM     21  C   UNL A   1      35.971  23.224  24.743  1.00  0.00     0.008 A 
BRANCH  18  22
ATOM     22  N   UNL A   1      32.354  20.968  23.905  1.00  0.00     0.062 N 
ATOM     23  O   UNL A   1      32.051  20.933  22.713  1.00  0.00    -0.258 OA
ATOM     24  O   UNL A   1      32.017  20.199  24.813  1.00  0.00    -0.258 OA
ENDBRANCH  18  22
ENDBRANCH  14  15
ENDBRANCH   8  14
ENDBRANCH   4   7
ENDBRANCH   2   3
ENDBRANCH   1   2
BRANCH   1  25
ATOM     25  C   UNL A   1      33.327  35.783  29.042  1.00  0.00     0.023 C 
BRANCH  25  26
ATOM     26  C   UNL A   1      32.939  35.524  30.496  1.00  0.00     0.116 C 
BRANCH  26  27
ATOM     27  N   UNL A   1      33.803  36.079  31.521  1.00  0.00    -0.352 N 
ATOM     28  C   UNL A   1      34.556  35.414  32.480  1.00  0.00     0.251 C 
ATOM     29  H   UNL A   1      33.864  37.062  31.539  1.00  0.00     0.163 HD
ATOM     30  O   UNL A   1      34.954  36.028  33.465  1.00  0.00    -0.269 OA
BRANCH  28  31
ATOM     31  C   UNL A   1      35.058  34.034  32.231  1.00  0.00     0.039 A 
ATOM     32  C   UNL A   1      35.231  33.215  33.360  1.00  0.00     0.014 A 
ATOM     33  C   UNL A   1      35.713  33.721  31.054  1.00  0.00     0.014 A 
ATOM     34  C   UNL A   1      36.295  32.327  33.401  1.00  0.00     0.010 A 
ATOM     35  C   UNL A   1      36.894  33.039  31.161  1.00  0.00     0.010 A 
ATOM     36  C   UNL A   1      37.193  32.371  32.352  1.00  0.00    -0.014 A 
BRANCH  36  37
ATOM     37  C   UNL A   1      38.454  31.668  32.316  1.00  0.00     0.031 A 
ATOM     38  C   UNL A   1      38.484  30.478  31.472  1.00  0.00     0.074 A 
ATOM     39  C   UNL A   1      39.532  32.263  32.860  1.00  0.00     0.049 A 
ATOM     40  N   UNL A   1      39.412  29.602  31.509  1.00  0.00    -0.248 NA
ATOM     41  C   UNL A   1      37.396  30.112  30.565  1.00  0.00     0.031 C 
ATOM     42  C   UNL A   1      40.953  32.143  32.548  1.00  0.00     0.029 A 
ATOM     43  N   UNL A   1      39.520  33.184  33.881  1.00  0.00    -0.354 N 
ATOM     44  C   UNL A   1      39.249  28.793  30.411  1.00  0.00     0.074 A 
ATOM     45  C   UNL A   1      37.906  29.038  29.961  1.00  0.00     0.031 C 
ATOM     46  C   UNL A   1      41.675  32.807  33.477  1.00  0.00     0.029 A 
ATOM     47  C   UNL A   1      40.753  33.265  34.510  1.00  0.00     0.049 A 
ATOM     48  H   UNL A   1      38.734  33.717  34.135  1.00  0.00     0.167 HD
ATOM     49  C   UNL A   1      40.360  28.160  29.945  1.00  0.00     0.037 A 
ATOM     50  C   UNL A   1      40.805  32.931  35.833  1.00  0.00     0.037 A 
ATOM     51  C   UNL A   1      41.493  28.476  30.831  1.00  0.00     0.049 A 
ATOM     52  C   UNL A   1      41.413  31.549  35.920  1.00  0.00     0.074 A 
ATOM     53  C   UNL A   1      42.515  29.408  30.740  1.00  0.00     0.029 A 
ATOM     54  N   UNL A   1      41.417  28.117  32.178  1.00  0.00    -0.354 N 
ATOM     55  N   UNL A   1      41.301  30.638  34.986  1.00  0.00    -0.248 NA
ATOM     56  C   UNL A   1      42.338  31.169  36.979  1.00  0.00     0.031 C 
ATOM     57  C   UNL A   1      43.018  29.635  32.056  1.00  0.00     0.029 A 
ATOM     58  C   UNL A   1      42.302  28.849  32.948  1.00  0.00     0.049 A 
ATOM     59  H   UNL A   1      40.808  27.430  32.535  1.00  0.00     0.167 HD
ATOM     60  C   UNL A   1      42.195  29.636  35.234  1.00  0.00     0.074 A 
ATOM     61  C   UNL A   1      42.796  29.998  36.508  1.00  0.00     0.031 C 
ATOM     62  C   UNL A   1      42.433  28.595  34.380  1.00  0.00     0.037 A 
BRANCH  49  63
ATOM     63  C   UNL A   1      40.509  27.503  28.589  1.00  0.00     0.064 A 
ATOM     64  C   UNL A   1      39.905  26.248  28.350  1.00  0.00     0.173 A 
ATOM     65  C   UNL A   1      41.234  28.011  27.491  1.00  0.00     0.173 A 
ATOM     66  F   UNL A   1      39.144  25.652  29.279  1.00  0.00    -0.203 F 
ATOM     67  C   UNL A   1      40.052  25.553  27.146  1.00  0.00     0.198 A 
ATOM     68  C   UNL A   1      41.399  27.307  26.293  1.00  0.00     0.198 A 
ATOM     69  F   UNL A   1      41.786  29.225  27.495  1.00  0.00    -0.203 F 
ATOM     70  F   UNL A   1      39.453  24.365  26.990  1.00  0.00    -0.200 F 
ATOM     71  C   UNL A   1      40.807  26.077  26.120  1.00  0.00     0.200 A 
ATOM     72  F   UNL A   1      42.130  27.843  25.304  1.00  0.00    -0.200 F 
ATOM     73  F   UNL A   1      40.949  25.413  24.966  1.00  0.00    -0.200 F 
ENDBRANCH  49  63
BRANCH  50  74
ATOM     74  C   UNL A   1      39.594  33.465  36.552  1.00  0.00     0.064 A 
ATOM     75  C   UNL A   1      38.636  32.499  36.946  1.00  0.00     0.173 A 
ATOM     76  C   UNL A   1      39.646  34.649  37.303  1.00  0.00     0.173 A 
ATOM     77  F   UNL A   1      38.518  31.355  36.252  1.00  0.00    -0.203 F 
ATOM     78  C   UNL A   1      37.932  32.617  38.146  1.00  0.00     0.198 A 
ATOM     79  C   UNL A   1      38.913  34.773  38.492  1.00  0.00     0.198 A 
ATOM     80  F   UNL A   1      40.528  35.610  36.995  1.00  0.00    -0.203 F 
ATOM     81  F   UNL A   1      37.171  31.598  38.578  1.00  0.00    -0.200 F 
ATOM     82  C   UNL A   1      38.110  33.733  38.942  1.00  0.00     0.200 A 
ATOM     83  F   UNL A   1      39.074  35.857  39.265  1.00  0.00    -0.200 F 
ATOM     84  F   UNL A   1      37.552  33.786  40.161  1.00  0.00    -0.200 F 
ENDBRANCH  50  74
BRANCH  62  85
ATOM     85  C   UNL A   1      42.906  27.238  34.843  1.00  0.00     0.064 A 
ATOM     86  C   UNL A   1      42.047  26.138  35.012  1.00  0.00     0.173 A 
ATOM     87  C   UNL A   1      44.288  26.945  34.958  1.00  0.00     0.173 A 
ATOM     88  F   UNL A   1      40.732  26.223  34.770  1.00  0.00    -0.203 F 
ATOM     89  C   UNL A   1      42.518  24.879  35.374  1.00  0.00     0.198 A 
ATOM     90  C   UNL A   1      44.758  25.661  35.221  1.00  0.00     0.198 A 
ATOM     91  F   UNL A   1      45.235  27.876  34.779  1.00  0.00    -0.203 F 
ATOM     92  F   UNL A   1      41.642  23.890  35.601  1.00  0.00    -0.200 F 
ATOM     93  C   UNL A   1      43.873  24.635  35.463  1.00  0.00     0.200 A 
ATOM     94  F   UNL A   1      46.077  25.425  35.213  1.00  0.00    -0.200 F 
ATOM     95  F   UNL A   1      44.322  23.409  35.755  1.00  0.00    -0.200 F 
ENDBRANCH  62  85
ENDBRANCH  36  37
ENDBRANCH  28  31
ENDBRANCH  26  27
ENDBRANCH  25  26
ENDBRANCH   1  25
TORSDOF 14
ENDMDL
MODEL 3
REMARK VINA RESULT:     -14.6      2.890      8.822
REMARK SMILES Cc1c(C[N@H+]2CC[C@@H](C(=O)NCCCCNC(=O)c3ccc(-c4c5nc(c(-c6c(F)c(F)c(F)c(F)c6F)c6ccc([nH]6)c(-c6c(F)c(F)c(F)c(F)c6F)c6nc(c(-c7c(F)c(F)c(F)c(F)c7F)c7ccc4[nH]7)C=C6)C=C5)cc3)[C@@H]2C)cccc1[N+](=O)[O-]
REMARK SMILES IDX 13 1 12 2 11 3 9 4 10 5 8 7 5 8 6 9 82 10 7 12 83 13 4 14
REMARK SMILES IDX 3 15 1 16 2 17 87 18 84 19 86 20 85 21 88 22 89 23 90 24
REMARK SMILES IDX 14 25 15 26 16 27 17 28 18 30 19 31 20 32 81 33 21 34 80 35
REMARK SMILES IDX 22 36 23 37 24 38 74 39 25 40 79 41 73 42 75 43 26 44 78 45
REMARK SMILES IDX 72 46 71 47 27 49 59 50 39 51 58 52 40 53 43 54 57 55 76 56
REMARK SMILES IDX 41 57 42 58 56 60 77 61 44 62 28 63 29 64 37 65 30 66 31 67
REMARK SMILES IDX 35 68 38 69 32 70 33 71 36 72 34 73 60 74 61 75 69 76 62 77
REMARK SMILES IDX 63 78 67 79 70 80 64 81 65 82 68 83 66 84 45 85 46 86 54 87
REMARK SMILES IDX 47 88 48 89 52 90 55 91 49 92 50 93 53 94 51 95
REMARK H PARENT 11 6 5 11 16 29 75 48 43 59
REMARK Flexibility Score: inf
ROOT
ATOM      1  C   UNL A   1      35.709  21.459  25.954  1.00  0.00     0.023 C 
ENDROOT
BRANCH   1   2
ATOM      2  C   UNL A   1      33.734  21.350  26.909  1.00  0.00     0.116 C 
BRANCH   2   3
ATOM      3  N   UNL A   1      32.630  22.442  27.251  1.00  0.00    -0.356 N 
ATOM      4  C   UNL A   1      31.549  22.945  26.601  1.00  0.00     0.229 C 
ATOM      5  O   UNL A   1      30.835  23.718  27.251  1.00  0.00    -0.275 OA
ATOM      6  H   UNL A   1      32.760  22.847  28.139  1.00  0.00     0.163 HD
BRANCH   4   7
ATOM      7  C   UNL A   1      31.189  22.628  25.153  1.00  0.00     0.142 C 
ATOM      8  N   UNL A   1      32.547  23.142  23.222  1.00  0.00    -0.328 N 
ATOM      9  C   UNL A   1      32.520  21.687  23.361  1.00  0.00     0.263 C 
ATOM     10  C   UNL A   1      31.593  23.721  24.170  1.00  0.00     0.193 C 
ATOM     11  H   UNL A   1      32.248  23.351  22.270  1.00  0.00     0.348 HD
ATOM     12  C   UNL A   1      31.783  21.329  24.643  1.00  0.00     0.081 C 
ATOM     13  C   UNL A   1      30.425  24.331  23.405  1.00  0.00     0.076 C 
BRANCH   8  14
ATOM     14  C   UNL A   1      33.867  23.788  23.198  1.00  0.00     0.299 C 
BRANCH  14  15
ATOM     15  C   UNL A   1      33.835  25.285  23.404  1.00  0.00     0.016 A 
ATOM     16  C   UNL A   1      34.576  25.108  26.176  1.00  0.00     0.052 C 
ATOM     17  C   UNL A   1      34.022  25.956  25.070  1.00  0.00     0.036 A 
ATOM     18  C   UNL A   1      33.578  27.672  25.351  1.00  0.00     0.272 A 
ATOM     19  C   UNL A   1      33.261  26.359  22.049  1.00  0.00     0.010 A 
ATOM     20  C   UNL A   1      32.928  28.722  24.037  1.00  0.00     0.086 A 
ATOM     21  C   UNL A   1      32.798  28.071  22.373  1.00  0.00     0.008 A 
BRANCH  18  22
ATOM     22  N   UNL A   1      33.591  28.225  26.643  1.00  0.00     0.062 N 
ATOM     23  O   UNL A   1      32.533  28.093  27.257  1.00  0.00    -0.258 OA
ATOM     24  O   UNL A   1      34.615  28.828  26.983  1.00  0.00    -0.258 OA
ENDBRANCH  18  22
ENDBRANCH  14  15
ENDBRANCH   8  14
ENDBRANCH   4   7
ENDBRANCH   2   3
ENDBRANCH   1   2
BRANCH   1  25
ATOM     25  C   UNL A   1      36.969  22.634  25.796  1.00  0.00     0.023 C 
BRANCH  25  26
ATOM     26  C   UNL A   1      38.348  22.133  25.373  1.00  0.00     0.116 C 
BRANCH  26  27
ATOM     27  N   UNL A   1      39.350  21.993  26.414  1.00  0.00    -0.352 N 
ATOM     28  C   UNL A   1      40.138  22.973  27.004  1.00  0.00     0.251 C 
ATOM     29  H   UNL A   1      39.491  21.076  26.747  1.00  0.00     0.163 HD
ATOM     30  O   UNL A   1      41.151  22.645  27.612  1.00  0.00    -0.269 OA
BRANCH  28  31
ATOM     31  C   UNL A   1      39.663  24.383  27.086  1.00  0.00     0.039 A 
ATOM     32  C   UNL A   1      40.352  25.324  26.302  1.00  0.00     0.014 A 
ATOM     33  C   UNL A   1      38.905  24.812  28.160  1.00  0.00     0.014 A 
ATOM     34  C   UNL A   1      40.553  26.604  26.796  1.00  0.00     0.010 A 
ATOM     35  C   UNL A   1      39.289  25.975  28.768  1.00  0.00     0.010 A 
ATOM     36  C   UNL A   1      40.142  26.853  28.091  1.00  0.00    -0.014 A 
BRANCH  36  37
ATOM     37  C   UNL A   1      40.441  28.053  28.835  1.00  0.00     0.031 A 
ATOM     38  C   UNL A   1      39.407  29.082  28.806  1.00  0.00     0.074 A 
ATOM     39  C   UNL A   1      41.508  28.047  29.655  1.00  0.00     0.049 A 
ATOM     40  N   UNL A   1      39.591  30.287  29.186  1.00  0.00    -0.248 NA
ATOM     41  C   UNL A   1      38.076  28.864  28.239  1.00  0.00     0.031 C 
ATOM     42  C   UNL A   1      41.780  28.791  30.882  1.00  0.00     0.029 A 
ATOM     43  N   UNL A   1      42.636  27.274  29.511  1.00  0.00    -0.354 N 
ATOM     44  C   UNL A   1      38.353  30.878  29.272  1.00  0.00     0.074 A 
ATOM     45  C   UNL A   1      37.477  30.022  28.519  1.00  0.00     0.031 C 
ATOM     46  C   UNL A   1      43.059  28.577  31.263  1.00  0.00     0.029 A 
ATOM     47  C   UNL A   1      43.708  27.797  30.217  1.00  0.00     0.049 A 
ATOM     48  H   UNL A   1      42.677  26.451  28.973  1.00  0.00     0.167 HD
ATOM     49  C   UNL A   1      38.231  31.927  30.129  1.00  0.00     0.037 A 
ATOM     50  C   UNL A   1      44.804  28.181  29.498  1.00  0.00     0.037 A 
ATOM     51  C   UNL A   1      39.549  32.209  30.723  1.00  0.00     0.049 A 
ATOM     52  C   UNL A   1      44.772  29.690  29.407  1.00  0.00     0.074 A 
ATOM     53  C   UNL A   1      40.124  31.847  31.931  1.00  0.00     0.029 A 
ATOM     54  N   UNL A   1      40.608  32.557  29.882  1.00  0.00    -0.354 N 
ATOM     55  N   UNL A   1      43.673  30.402  29.415  1.00  0.00    -0.248 NA
ATOM     56  C   UNL A   1      45.978  30.502  29.486  1.00  0.00     0.031 C 
ATOM     57  C   UNL A   1      41.540  31.941  31.788  1.00  0.00     0.029 A 
ATOM     58  C   UNL A   1      41.831  32.351  30.494  1.00  0.00     0.049 A 
ATOM     59  H   UNL A   1      40.497  32.904  28.966  1.00  0.00     0.167 HD
ATOM     60  C   UNL A   1      43.995  31.714  29.619  1.00  0.00     0.074 A 
ATOM     61  C   UNL A   1      45.449  31.729  29.624  1.00  0.00     0.031 C 
ATOM     62  C   UNL A   1      43.074  32.705  29.816  1.00  0.00     0.037 A 
BRANCH  49  63
ATOM     63  C   UNL A   1      36.934  32.513  30.643  1.00  0.00     0.064 A 
ATOM     64  C   UNL A   1      36.188  33.388  29.821  1.00  0.00     0.173 A 
ATOM     65  C   UNL A   1      36.366  32.296  31.916  1.00  0.00     0.173 A 
ATOM     66  F   UNL A   1      36.571  33.661  28.566  1.00  0.00    -0.203 F 
ATOM     67  C   UNL A   1      35.015  34.016  30.250  1.00  0.00     0.198 A 
ATOM     68  C   UNL A   1      35.203  32.940  32.354  1.00  0.00     0.198 A 
ATOM     69  F   UNL A   1      36.873  31.424  32.789  1.00  0.00    -0.203 F 
ATOM     70  F   UNL A   1      34.361  34.837  29.418  1.00  0.00    -0.200 F 
ATOM     71  C   UNL A   1      34.527  33.800  31.521  1.00  0.00     0.200 A 
ATOM     72  F   UNL A   1      34.742  32.706  33.592  1.00  0.00    -0.200 F 
ATOM     73  F   UNL A   1      33.403  34.401  31.934  1.00  0.00    -0.200 F 
ENDBRANCH  49  63
BRANCH  50  74
ATOM     74  C   UNL A   1      45.081  27.185  28.402  1.00  0.00     0.064 A 
ATOM     75  C   UNL A   1      45.428  25.880  28.828  1.00  0.00     0.173 A 
ATOM     76  C   UNL A   1      44.489  27.302  27.134  1.00  0.00     0.173 A 
ATOM     77  F   UNL A   1      46.021  25.704  30.021  1.00  0.00    -0.203 F 
ATOM     78  C   UNL A   1      45.008  24.748  28.129  1.00  0.00     0.198 A 
ATOM     79  C   UNL A   1      44.096  26.159  26.423  1.00  0.00     0.198 A 
ATOM     80  F   UNL A   1      44.129  28.502  26.661  1.00  0.00    -0.203 F 
ATOM     81  F   UNL A   1      45.195  23.528  28.656  1.00  0.00    -0.200 F 
ATOM     82  C   UNL A   1      44.298  24.890  26.951  1.00  0.00     0.200 A 
ATOM     83  F   UNL A   1      43.415  26.290  25.275  1.00  0.00    -0.200 F 
ATOM     84  F   UNL A   1      43.766  23.814  26.352  1.00  0.00    -0.200 F 
ENDBRANCH  50  74
BRANCH  62  85
ATOM     85  C   UNL A   1      43.324  34.149  29.448  1.00  0.00     0.064 A 
ATOM     86  C   UNL A   1      43.469  35.173  30.400  1.00  0.00     0.173 A 
ATOM     87  C   UNL A   1      43.611  34.524  28.112  1.00  0.00     0.173 A 
ATOM     88  F   UNL A   1      43.394  34.933  31.716  1.00  0.00    -0.203 F 
ATOM     89  C   UNL A   1      43.767  36.484  30.038  1.00  0.00     0.198 A 
ATOM     90  C   UNL A   1      44.007  35.813  27.769  1.00  0.00     0.198 A 
ATOM     91  F   UNL A   1      43.563  33.651  27.096  1.00  0.00    -0.203 F 
ATOM     92  F   UNL A   1      43.810  37.433  30.983  1.00  0.00    -0.200 F 
ATOM     93  C   UNL A   1      44.051  36.802  28.726  1.00  0.00     0.200 A 
ATOM     94  F   UNL A   1      44.368  36.082  26.506  1.00  0.00    -0.200 F 
ATOM     95  F   UNL A   1      44.392  38.052  28.392  1.00  0.00    -0.200 F 
ENDBRANCH  62  85
ENDBRANCH  36  37
ENDBRANCH  28  31
ENDBRANCH  26  27
ENDBRANCH  25  26
ENDBRANCH   1  25
TORSDOF 14
ENDMDL
