MODEL 1
REMARK VINA RESULT:     -11.2      0.000      0.000
REMARK SMILES CCC[C@H](C)N(C)S(=O)(=O)c1ccc(CC(=O)NCCCCNC(=O)c2ccc(-c3c4nc(c(-c5c(F)c(F)c(F)c(F)c5F)c5ccc([nH]5)c(-c5c(F)c(F)c(F)c(F)c5F)c5nc(c(-c6c(F)c(F)c(F)c(F)c6F)c6ccc3[nH]6)C=C5)C=C4)cc2)s1
REMARK SMILES IDX 16 1 17 2 18 3 15 5 14 6 11 7 12 8 89 9 13 10 8 11 9 12
REMARK SMILES IDX 10 13 6 14 7 15 4 16 5 17 3 18 2 19 1 20 19 21 20 22 21 23
REMARK SMILES IDX 22 24 23 25 24 26 25 28 26 29 27 30 88 31 28 32 87 33 29 34
REMARK SMILES IDX 30 35 31 36 81 37 32 38 86 39 80 40 82 41 33 42 85 43 79 44
REMARK SMILES IDX 78 45 34 47 66 48 46 49 65 50 47 51 50 52 64 53 83 54 48 55
REMARK SMILES IDX 49 56 63 58 84 59 51 60 35 61 36 62 44 63 37 64 38 65 42 66
REMARK SMILES IDX 45 67 39 68 40 69 43 70 41 71 67 72 68 73 76 74 69 75 70 76
REMARK SMILES IDX 74 77 77 78 71 79 72 80 75 81 73 82 52 83 53 84 61 85 54 86
REMARK SMILES IDX 55 87 59 88 62 89 56 90 57 91 60 92 58 93
REMARK H PARENT 18 4 23 27 82 46 50 57
REMARK Flexibility Score: inf
ROOT
ATOM      1  C   UNL A   1      32.720  28.957  23.300  1.00  0.00     0.225 C 
ATOM      2  O   UNL A   1      33.828  28.884  22.761  1.00  0.00    -0.275 OA
ATOM      3  N   UNL A   1      32.612  29.679  24.455  1.00  0.00    -0.356 N 
ATOM      4  H   UNL A   1      33.441  30.109  24.764  1.00  0.00     0.163 HD
ENDROOT
BRANCH   1   5
ATOM      5  C   UNL A   1      31.492  28.320  22.664  1.00  0.00     0.146 C 
BRANCH   5   6
ATOM      6  C   UNL A   1      31.454  26.829  22.831  1.00  0.00     0.015 A 
ATOM      7  C   UNL A   1      31.980  24.412  22.748  1.00  0.00     0.135 A 
ATOM      8  C   UNL A   1      30.917  24.689  23.584  1.00  0.00     0.034 A 
ATOM      9  S   UNL A   1      32.547  25.831  21.977  1.00  0.00    -0.127 S 
ATOM     10  C   UNL A   1      30.604  26.080  23.622  1.00  0.00     0.017 A 
BRANCH   7  11
ATOM     11  S   UNL A   1      32.835  22.894  22.357  1.00  0.00     0.252 S 
ATOM     12  O   UNL A   1      33.575  23.212  21.152  1.00  0.00    -0.206 OA
ATOM     13  O   UNL A   1      31.822  21.861  22.357  1.00  0.00    -0.206 OA
BRANCH  11  14
ATOM     14  N   UNL A   1      33.952  22.565  23.592  1.00  0.00    -0.197 NA
ATOM     15  C   UNL A   1      35.343  22.998  23.373  1.00  0.00     0.124 C 
BRANCH  14  16
ATOM     16  C   UNL A   1      33.508  22.622  25.016  1.00  0.00     0.070 C 
ATOM     17  C   UNL A   1      33.483  21.252  25.697  1.00  0.00     0.026 C 
BRANCH  16  18
ATOM     18  C   UNL A   1      34.359  23.631  25.808  1.00  0.00     0.020 C 
BRANCH  18  19
ATOM     19  C   UNL A   1      33.612  24.867  26.330  1.00  0.00    -0.002 C 
ATOM     20  C   UNL A   1      33.832  26.128  25.511  1.00  0.00     0.004 C 
ENDBRANCH  18  19
ENDBRANCH  16  18
ENDBRANCH  14  16
ENDBRANCH  11  14
ENDBRANCH   7  11
ENDBRANCH   5   6
ENDBRANCH   1   5
BRANCH   3  21
ATOM     21  C   UNL A   1      31.447  29.899  25.289  1.00  0.00     0.116 C 
BRANCH  21  22
ATOM     22  C   UNL A   1      31.813  30.496  26.650  1.00  0.00     0.023 C 
BRANCH  22  23
ATOM     23  C   UNL A   1      31.551  31.996  26.789  1.00  0.00     0.023 C 
BRANCH  23  24
ATOM     24  C   UNL A   1      32.759  32.822  27.206  1.00  0.00     0.116 C 
BRANCH  24  25
ATOM     25  N   UNL A   1      32.416  34.184  27.588  1.00  0.00    -0.352 N 
ATOM     26  C   UNL A   1      32.980  34.973  28.560  1.00  0.00     0.251 C 
ATOM     27  H   UNL A   1      31.679  34.595  27.082  1.00  0.00     0.163 HD
ATOM     28  O   UNL A   1      32.499  36.068  28.829  1.00  0.00    -0.269 OA
BRANCH  26  29
ATOM     29  C   UNL A   1      34.154  34.477  29.309  1.00  0.00     0.039 A 
ATOM     30  C   UNL A   1      33.945  33.811  30.518  1.00  0.00     0.014 A 
ATOM     31  C   UNL A   1      35.447  34.646  28.808  1.00  0.00     0.014 A 
ATOM     32  C   UNL A   1      35.031  33.254  31.195  1.00  0.00     0.010 A 
ATOM     33  C   UNL A   1      36.519  34.031  29.447  1.00  0.00     0.010 A 
ATOM     34  C   UNL A   1      36.321  33.330  30.645  1.00  0.00    -0.014 A 
BRANCH  34  35
ATOM     35  C   UNL A   1      37.478  32.681  31.307  1.00  0.00     0.031 A 
ATOM     36  C   UNL A   1      38.191  31.546  30.630  1.00  0.00     0.074 A 
ATOM     37  C   UNL A   1      37.838  33.065  32.547  1.00  0.00     0.049 A 
ATOM     38  N   UNL A   1      39.168  30.797  31.078  1.00  0.00    -0.248 NA
ATOM     39  C   UNL A   1      37.727  31.185  29.282  1.00  0.00     0.031 C 
ATOM     40  C   UNL A   1      37.190  34.122  33.327  1.00  0.00     0.029 A 
ATOM     41  N   UNL A   1      38.829  32.602  33.374  1.00  0.00    -0.354 N 
ATOM     42  C   UNL A   1      39.419  29.869  30.076  1.00  0.00     0.074 A 
ATOM     43  C   UNL A   1      38.464  30.116  29.018  1.00  0.00     0.031 C 
ATOM     44  C   UNL A   1      37.814  34.239  34.510  1.00  0.00     0.029 A 
ATOM     45  C   UNL A   1      38.881  33.247  34.586  1.00  0.00     0.049 A 
ATOM     46  H   UNL A   1      39.446  31.877  33.123  1.00  0.00     0.167 HD
ATOM     47  C   UNL A   1      40.376  28.912  30.034  1.00  0.00     0.037 A 
ATOM     48  C   UNL A   1      39.695  33.052  35.641  1.00  0.00     0.037 A 
ATOM     49  C   UNL A   1      41.346  28.691  31.074  1.00  0.00     0.049 A 
ATOM     50  C   UNL A   1      40.755  31.988  35.564  1.00  0.00     0.074 A 
ATOM     51  C   UNL A   1      42.397  27.790  31.097  1.00  0.00     0.029 A 
ATOM     52  N   UNL A   1      41.383  29.381  32.277  1.00  0.00    -0.354 N 
ATOM     53  N   UNL A   1      41.027  31.159  34.585  1.00  0.00    -0.248 NA
ATOM     54  C   UNL A   1      41.625  31.834  36.739  1.00  0.00     0.031 C 
ATOM     55  C   UNL A   1      43.047  27.910  32.330  1.00  0.00     0.029 A 
ATOM     56  C   UNL A   1      42.429  28.914  33.056  1.00  0.00     0.049 A 
ATOM     57  H   UNL A   1      40.759  30.097  32.537  1.00  0.00     0.167 HD
ATOM     58  C   UNL A   1      42.113  30.408  35.011  1.00  0.00     0.074 A 
ATOM     59  C   UNL A   1      42.458  30.886  36.334  1.00  0.00     0.031 C 
ATOM     60  C   UNL A   1      42.765  29.410  34.366  1.00  0.00     0.037 A 
BRANCH  47  61
ATOM     61  C   UNL A   1      40.423  28.033  28.819  1.00  0.00     0.064 A 
ATOM     62  C   UNL A   1      41.179  28.382  27.690  1.00  0.00     0.173 A 
ATOM     63  C   UNL A   1      39.733  26.812  28.797  1.00  0.00     0.173 A 
ATOM     64  F   UNL A   1      41.846  29.545  27.657  1.00  0.00    -0.203 F 
ATOM     65  C   UNL A   1      41.220  27.554  26.572  1.00  0.00     0.198 A 
ATOM     66  C   UNL A   1      39.800  25.973  27.686  1.00  0.00     0.198 A 
ATOM     67  F   UNL A   1      38.999  26.428  29.852  1.00  0.00    -0.203 F 
ATOM     68  F   UNL A   1      41.910  27.931  25.486  1.00  0.00    -0.200 F 
ATOM     69  C   UNL A   1      40.537  26.347  26.573  1.00  0.00     0.200 A 
ATOM     70  F   UNL A   1      39.148  24.801  27.694  1.00  0.00    -0.200 F 
ATOM     71  F   UNL A   1      40.582  25.549  25.498  1.00  0.00    -0.200 F 
ENDBRANCH  47  61
BRANCH  48  72
ATOM     72  C   UNL A   1      39.561  33.906  36.849  1.00  0.00     0.064 A 
ATOM     73  C   UNL A   1      38.801  33.480  37.947  1.00  0.00     0.173 A 
ATOM     74  C   UNL A   1      40.181  35.160  36.930  1.00  0.00     0.173 A 
ATOM     75  F   UNL A   1      38.171  32.297  37.905  1.00  0.00    -0.203 F 
ATOM     76  C   UNL A   1      38.651  34.284  39.073  1.00  0.00     0.198 A 
ATOM     77  C   UNL A   1      40.053  35.953  38.069  1.00  0.00     0.198 A 
ATOM     78  F   UNL A   1      40.923  35.611  35.907  1.00  0.00    -0.203 F 
ATOM     79  F   UNL A   1      37.884  33.872  40.091  1.00  0.00    -0.200 F 
ATOM     80  C   UNL A   1      39.282  35.518  39.137  1.00  0.00     0.200 A 
ATOM     81  F   UNL A   1      40.671  37.140  38.130  1.00  0.00    -0.200 F 
ATOM     82  F   UNL A   1      39.139  36.291  40.221  1.00  0.00    -0.200 F 
ENDBRANCH  48  72
BRANCH  60  83
ATOM     83  C   UNL A   1      43.940  28.794  35.065  1.00  0.00     0.064 A 
ATOM     84  C   UNL A   1      43.795  27.683  35.907  1.00  0.00     0.173 A 
ATOM     85  C   UNL A   1      45.233  29.297  34.855  1.00  0.00     0.173 A 
ATOM     86  F   UNL A   1      42.577  27.175  36.151  1.00  0.00    -0.203 F 
ATOM     87  C   UNL A   1      44.899  27.111  36.532  1.00  0.00     0.198 A 
ATOM     88  C   UNL A   1      46.338  28.706  35.460  1.00  0.00     0.198 A 
ATOM     89  F   UNL A   1      45.426  30.356  34.054  1.00  0.00    -0.203 F 
ATOM     90  F   UNL A   1      44.733  26.076  37.367  1.00  0.00    -0.200 F 
ATOM     91  C   UNL A   1      46.170  27.618  36.303  1.00  0.00     0.200 A 
ATOM     92  F   UNL A   1      47.566  29.189  35.228  1.00  0.00    -0.200 F 
ATOM     93  F   UNL A   1      47.233  27.061  36.900  1.00  0.00    -0.200 F 
ENDBRANCH  60  83
ENDBRANCH  34  35
ENDBRANCH  26  29
ENDBRANCH  24  25
ENDBRANCH  23  24
ENDBRANCH  22  23
ENDBRANCH  21  22
ENDBRANCH   3  21
TORSDOF 17
ENDMDL
MODEL 2
REMARK VINA RESULT:     -11.1      1.057      2.262
REMARK SMILES CCC[C@H](C)N(C)S(=O)(=O)c1ccc(CC(=O)NCCCCNC(=O)c2ccc(-c3c4nc(c(-c5c(F)c(F)c(F)c(F)c5F)c5ccc([nH]5)c(-c5c(F)c(F)c(F)c(F)c5F)c5nc(c(-c6c(F)c(F)c(F)c(F)c6F)c6ccc3[nH]6)C=C5)C=C4)cc2)s1
REMARK SMILES IDX 16 1 17 2 18 3 15 5 14 6 11 7 12 8 89 9 13 10 8 11 9 12
REMARK SMILES IDX 10 13 6 14 7 15 4 16 5 17 3 18 2 19 1 20 19 21 20 22 21 23
REMARK SMILES IDX 22 24 23 25 24 26 25 28 26 29 27 30 88 31 28 32 87 33 29 34
REMARK SMILES IDX 30 35 31 36 81 37 32 38 86 39 80 40 82 41 33 42 85 43 79 44
REMARK SMILES IDX 78 45 34 47 66 48 46 49 65 50 47 51 50 52 64 53 83 54 48 55
REMARK SMILES IDX 49 56 63 58 84 59 51 60 35 61 36 62 44 63 37 64 38 65 42 66
REMARK SMILES IDX 45 67 39 68 40 69 43 70 41 71 67 72 68 73 76 74 69 75 70 76
REMARK SMILES IDX 74 77 77 78 71 79 72 80 75 81 73 82 52 83 53 84 61 85 54 86
REMARK SMILES IDX 55 87 59 88 62 89 56 90 57 91 60 92 58 93
REMARK H PARENT 18 4 23 27 82 46 50 57
REMARK Flexibility Score: inf
ROOT
ATOM      1  C   UNL A   1      33.172  28.776  23.613  1.00  0.00     0.225 C 
ATOM      2  O   UNL A   1      34.339  28.621  23.245  1.00  0.00    -0.275 OA
ATOM      3  N   UNL A   1      32.927  29.673  24.614  1.00  0.00    -0.356 N 
ATOM      4  H   UNL A   1      33.716  30.149  24.958  1.00  0.00     0.163 HD
ENDROOT
BRANCH   1   5
ATOM      5  C   UNL A   1      32.026  28.044  22.929  1.00  0.00     0.146 C 
BRANCH   5   6
ATOM      6  C   UNL A   1      31.461  26.933  23.766  1.00  0.00     0.015 A 
ATOM      7  C   UNL A   1      31.198  24.932  25.198  1.00  0.00     0.135 A 
ATOM      8  C   UNL A   1      30.016  25.632  25.053  1.00  0.00     0.034 A 
ATOM      9  S   UNL A   1      32.454  25.638  24.275  1.00  0.00    -0.127 S 
ATOM     10  C   UNL A   1      30.164  26.778  24.217  1.00  0.00     0.017 A 
BRANCH   7  11
ATOM     11  S   UNL A   1      31.624  23.483  26.152  1.00  0.00     0.252 S 
ATOM     12  O   UNL A   1      30.722  22.464  25.657  1.00  0.00    -0.206 OA
ATOM     13  O   UNL A   1      31.586  23.901  27.537  1.00  0.00    -0.206 OA
BRANCH  11  14
ATOM     14  N   UNL A   1      33.210  23.022  25.763  1.00  0.00    -0.197 NA
ATOM     15  C   UNL A   1      34.165  22.892  26.877  1.00  0.00     0.124 C 
BRANCH  14  16
ATOM     16  C   UNL A   1      33.440  22.065  24.641  1.00  0.00     0.070 C 
ATOM     17  C   UNL A   1      34.600  22.469  23.728  1.00  0.00     0.026 C 
BRANCH  16  18
ATOM     18  C   UNL A   1      33.619  20.633  25.179  1.00  0.00     0.020 C 
BRANCH  18  19
ATOM     19  C   UNL A   1      33.056  19.513  24.293  1.00  0.00    -0.002 C 
ATOM     20  C   UNL A   1      32.666  18.252  25.045  1.00  0.00     0.004 C 
ENDBRANCH  18  19
ENDBRANCH  16  18
ENDBRANCH  14  16
ENDBRANCH  11  14
ENDBRANCH   7  11
ENDBRANCH   5   6
ENDBRANCH   1   5
BRANCH   3  21
ATOM     21  C   UNL A   1      31.667  30.021  25.241  1.00  0.00     0.116 C 
BRANCH  21  22
ATOM     22  C   UNL A   1      31.851  30.508  26.680  1.00  0.00     0.023 C 
BRANCH  22  23
ATOM     23  C   UNL A   1      31.557  31.992  26.903  1.00  0.00     0.023 C 
BRANCH  23  24
ATOM     24  C   UNL A   1      32.771  32.842  27.248  1.00  0.00     0.116 C 
BRANCH  24  25
ATOM     25  N   UNL A   1      32.428  34.205  27.623  1.00  0.00    -0.352 N 
ATOM     26  C   UNL A   1      32.987  34.997  28.595  1.00  0.00     0.251 C 
ATOM     27  H   UNL A   1      31.693  34.615  27.111  1.00  0.00     0.163 HD
ATOM     28  O   UNL A   1      32.505  36.094  28.857  1.00  0.00    -0.269 OA
BRANCH  26  29
ATOM     29  C   UNL A   1      34.155  34.503  29.352  1.00  0.00     0.039 A 
ATOM     30  C   UNL A   1      33.940  33.867  30.577  1.00  0.00     0.014 A 
ATOM     31  C   UNL A   1      35.449  34.645  28.845  1.00  0.00     0.014 A 
ATOM     32  C   UNL A   1      35.021  33.311  31.264  1.00  0.00     0.010 A 
ATOM     33  C   UNL A   1      36.515  34.031  29.496  1.00  0.00     0.010 A 
ATOM     34  C   UNL A   1      36.311  33.359  30.710  1.00  0.00    -0.014 A 
BRANCH  34  35
ATOM     35  C   UNL A   1      37.461  32.710  31.384  1.00  0.00     0.031 A 
ATOM     36  C   UNL A   1      38.177  31.570  30.718  1.00  0.00     0.074 A 
ATOM     37  C   UNL A   1      37.812  33.099  32.625  1.00  0.00     0.049 A 
ATOM     38  N   UNL A   1      39.148  30.821  31.177  1.00  0.00    -0.248 NA
ATOM     39  C   UNL A   1      37.722  31.204  29.368  1.00  0.00     0.031 C 
ATOM     40  C   UNL A   1      37.160  34.161  33.395  1.00  0.00     0.029 A 
ATOM     41  N   UNL A   1      38.796  32.637  33.462  1.00  0.00    -0.354 N 
ATOM     42  C   UNL A   1      39.405  29.888  30.181  1.00  0.00     0.074 A 
ATOM     43  C   UNL A   1      38.458  30.132  29.115  1.00  0.00     0.031 C 
ATOM     44  C   UNL A   1      37.775  34.283  34.582  1.00  0.00     0.029 A 
ATOM     45  C   UNL A   1      38.839  33.287  34.671  1.00  0.00     0.049 A 
ATOM     46  H   UNL A   1      39.412  31.910  33.219  1.00  0.00     0.167 HD
ATOM     47  C   UNL A   1      40.359  28.928  30.151  1.00  0.00     0.037 A 
ATOM     48  C   UNL A   1      39.644  33.095  35.734  1.00  0.00     0.037 A 
ATOM     49  C   UNL A   1      41.320  28.709  31.200  1.00  0.00     0.049 A 
ATOM     50  C   UNL A   1      40.702  32.028  35.670  1.00  0.00     0.074 A 
ATOM     51  C   UNL A   1      42.369  27.807  31.235  1.00  0.00     0.029 A 
ATOM     52  N   UNL A   1      41.350  29.406  32.400  1.00  0.00    -0.354 N 
ATOM     53  N   UNL A   1      40.980  31.194  34.697  1.00  0.00    -0.248 NA
ATOM     54  C   UNL A   1      41.563  31.879  36.853  1.00  0.00     0.031 C 
ATOM     55  C   UNL A   1      43.010  27.931  32.472  1.00  0.00     0.029 A 
ATOM     56  C   UNL A   1      42.389  28.940  33.190  1.00  0.00     0.049 A 
ATOM     57  H   UNL A   1      40.726  30.124  32.652  1.00  0.00     0.167 HD
ATOM     58  C   UNL A   1      42.061  30.443  35.135  1.00  0.00     0.074 A 
ATOM     59  C   UNL A   1      42.397  30.927  36.458  1.00  0.00     0.031 C 
ATOM     60  C   UNL A   1      42.716  29.441  34.499  1.00  0.00     0.037 A 
BRANCH  47  61
ATOM     61  C   UNL A   1      40.414  28.044  28.941  1.00  0.00     0.064 A 
ATOM     62  C   UNL A   1      39.702  26.837  28.881  1.00  0.00     0.173 A 
ATOM     63  C   UNL A   1      41.160  28.424  27.815  1.00  0.00     0.173 A 
ATOM     64  F   UNL A   1      38.985  26.423  29.936  1.00  0.00    -0.203 F 
ATOM     65  C   UNL A   1      39.756  26.029  27.748  1.00  0.00     0.198 A 
ATOM     66  C   UNL A   1      41.188  27.626  26.673  1.00  0.00     0.198 A 
ATOM     67  F   UNL A   1      41.855  29.570  27.818  1.00  0.00    -0.203 F 
ATOM     68  F   UNL A   1      39.106  24.857  27.732  1.00  0.00    -0.200 F 
ATOM     69  C   UNL A   1      40.492  26.427  26.643  1.00  0.00     0.200 A 
ATOM     70  F   UNL A   1      41.892  28.019  25.601  1.00  0.00    -0.200 F 
ATOM     71  F   UNL A   1      40.539  25.651  25.552  1.00  0.00    -0.200 F 
ENDBRANCH  47  61
BRANCH  48  72
ATOM     72  C   UNL A   1      39.503  33.956  36.936  1.00  0.00     0.064 A 
ATOM     73  C   UNL A   1      40.116  35.214  36.992  1.00  0.00     0.173 A 
ATOM     74  C   UNL A   1      38.759  33.539  38.049  1.00  0.00     0.173 A 
ATOM     75  F   UNL A   1      40.856  35.644  35.960  1.00  0.00    -0.203 F 
ATOM     76  C   UNL A   1      40.008  36.017  38.125  1.00  0.00     0.198 A 
ATOM     77  C   UNL A   1      38.629  34.355  39.172  1.00  0.00     0.198 A 
ATOM     78  F   UNL A   1      38.150  32.345  38.043  1.00  0.00    -0.203 F 
ATOM     79  F   UNL A   1      40.640  37.198  38.170  1.00  0.00    -0.200 F 
ATOM     80  C   UNL A   1      39.260  35.590  39.212  1.00  0.00     0.200 A 
ATOM     81  F   UNL A   1      37.898  33.943  40.216  1.00  0.00    -0.200 F 
ATOM     82  F   UNL A   1      39.154  36.363  40.301  1.00  0.00    -0.200 F 
ENDBRANCH  48  72
BRANCH  60  83
ATOM     83  C   UNL A   1      43.884  28.825  35.210  1.00  0.00     0.064 A 
ATOM     84  C   UNL A   1      43.726  27.730  36.072  1.00  0.00     0.173 A 
ATOM     85  C   UNL A   1      45.182  29.311  34.993  1.00  0.00     0.173 A 
ATOM     86  F   UNL A   1      42.503  27.240  36.324  1.00  0.00    -0.203 F 
ATOM     87  C   UNL A   1      44.824  27.158  36.708  1.00  0.00     0.198 A 
ATOM     88  C   UNL A   1      46.280  28.719  35.610  1.00  0.00     0.198 A 
ATOM     89  F   UNL A   1      45.386  30.353  34.173  1.00  0.00    -0.203 F 
ATOM     90  F   UNL A   1      44.646  26.140  37.561  1.00  0.00    -0.200 F 
ATOM     91  C   UNL A   1      46.100  27.648  36.472  1.00  0.00     0.200 A 
ATOM     92  F   UNL A   1      47.514  29.186  35.371  1.00  0.00    -0.200 F 
ATOM     93  F   UNL A   1      47.156  27.091  37.079  1.00  0.00    -0.200 F 
ENDBRANCH  60  83
ENDBRANCH  34  35
ENDBRANCH  26  29
ENDBRANCH  24  25
ENDBRANCH  23  24
ENDBRANCH  22  23
ENDBRANCH  21  22
ENDBRANCH   3  21
TORSDOF 17
ENDMDL
MODEL 3
REMARK VINA RESULT:     -11.0      2.073      7.890
REMARK SMILES CCC[C@H](C)N(C)S(=O)(=O)c1ccc(CC(=O)NCCCCNC(=O)c2ccc(-c3c4nc(c(-c5c(F)c(F)c(F)c(F)c5F)c5ccc([nH]5)c(-c5c(F)c(F)c(F)c(F)c5F)c5nc(c(-c6c(F)c(F)c(F)c(F)c6F)c6ccc3[nH]6)C=C5)C=C4)cc2)s1
REMARK SMILES IDX 16 1 17 2 18 3 15 5 14 6 11 7 12 8 89 9 13 10 8 11 9 12
REMARK SMILES IDX 10 13 6 14 7 15 4 16 5 17 3 18 2 19 1 20 19 21 20 22 21 23
REMARK SMILES IDX 22 24 23 25 24 26 25 28 26 29 27 30 88 31 28 32 87 33 29 34
REMARK SMILES IDX 30 35 31 36 81 37 32 38 86 39 80 40 82 41 33 42 85 43 79 44
REMARK SMILES IDX 78 45 34 47 66 48 46 49 65 50 47 51 50 52 64 53 83 54 48 55
REMARK SMILES IDX 49 56 63 58 84 59 51 60 35 61 36 62 44 63 37 64 38 65 42 66
REMARK SMILES IDX 45 67 39 68 40 69 43 70 41 71 67 72 68 73 76 74 69 75 70 76
REMARK SMILES IDX 74 77 77 78 71 79 72 80 75 81 73 82 52 83 53 84 61 85 54 86
REMARK SMILES IDX 55 87 59 88 62 89 56 90 57 91 60 92 58 93
REMARK H PARENT 18 4 23 27 82 46 50 57
REMARK Flexibility Score: inf
ROOT
ATOM      1  C   UNL A   1      35.121  30.011  27.979  1.00  0.00     0.225 C 
ATOM      2  O   UNL A   1      35.917  29.215  28.484  1.00  0.00    -0.275 OA
ATOM      3  N   UNL A   1      34.846  31.164  28.658  1.00  0.00    -0.356 N 
ATOM      4  H   UNL A   1      35.331  31.281  29.507  1.00  0.00     0.163 HD
ENDROOT
BRANCH   1   5
ATOM      5  C   UNL A   1      34.511  29.752  26.609  1.00  0.00     0.146 C 
BRANCH   5   6
ATOM      6  C   UNL A   1      33.430  28.711  26.638  1.00  0.00     0.015 A 
ATOM      7  C   UNL A   1      32.154  26.601  26.425  1.00  0.00     0.135 A 
ATOM      8  C   UNL A   1      31.450  27.574  27.109  1.00  0.00     0.034 A 
ATOM      9  S   UNL A   1      33.662  27.198  25.879  1.00  0.00    -0.127 S 
ATOM     10  C   UNL A   1      32.180  28.794  27.219  1.00  0.00     0.017 A 
BRANCH   7  11
ATOM     11  S   UNL A   1      31.780  24.898  26.041  1.00  0.00     0.252 S 
ATOM     12  O   UNL A   1      30.847  24.988  24.935  1.00  0.00    -0.206 OA
ATOM     13  O   UNL A   1      31.390  24.289  27.294  1.00  0.00    -0.206 OA
BRANCH  11  14
ATOM     14  N   UNL A   1      33.193  24.144  25.481  1.00  0.00    -0.197 NA
ATOM     15  C   UNL A   1      33.982  23.380  26.463  1.00  0.00     0.124 C 
BRANCH  14  16
ATOM     16  C   UNL A   1      33.226  23.583  24.097  1.00  0.00     0.070 C 
ATOM     17  C   UNL A   1      33.903  24.510  23.085  1.00  0.00     0.026 C 
BRANCH  16  18
ATOM     18  C   UNL A   1      33.865  22.183  24.096  1.00  0.00     0.020 C 
BRANCH  18  19
ATOM     19  C   UNL A   1      32.917  21.018  23.781  1.00  0.00    -0.002 C 
ATOM     20  C   UNL A   1      32.235  20.414  24.997  1.00  0.00     0.004 C 
ENDBRANCH  18  19
ENDBRANCH  16  18
ENDBRANCH  14  16
ENDBRANCH  11  14
ENDBRANCH   7  11
ENDBRANCH   5   6
ENDBRANCH   1   5
BRANCH   3  21
ATOM     21  C   UNL A   1      33.941  32.240  28.303  1.00  0.00     0.116 C 
BRANCH  21  22
ATOM     22  C   UNL A   1      34.195  33.506  29.125  1.00  0.00     0.023 C 
BRANCH  22  23
ATOM     23  C   UNL A   1      33.279  34.685  28.796  1.00  0.00     0.023 C 
BRANCH  23  24
ATOM     24  C   UNL A   1      33.525  35.938  29.624  1.00  0.00     0.116 C 
BRANCH  24  25
ATOM     25  N   UNL A   1      32.539  36.131  30.676  1.00  0.00    -0.352 N 
ATOM     26  C   UNL A   1      32.576  35.704  31.980  1.00  0.00     0.251 C 
ATOM     27  H   UNL A   1      31.734  36.636  30.417  1.00  0.00     0.163 HD
ATOM     28  O   UNL A   1      31.606  35.860  32.714  1.00  0.00    -0.269 OA
BRANCH  26  29
ATOM     29  C   UNL A   1      33.784  35.020  32.487  1.00  0.00     0.039 A 
ATOM     30  C   UNL A   1      33.670  33.702  32.935  1.00  0.00     0.014 A 
ATOM     31  C   UNL A   1      35.022  35.666  32.495  1.00  0.00     0.014 A 
ATOM     32  C   UNL A   1      34.814  33.007  33.330  1.00  0.00     0.010 A 
ATOM     33  C   UNL A   1      36.170  34.952  32.823  1.00  0.00     0.010 A 
ATOM     34  C   UNL A   1      36.076  33.616  33.243  1.00  0.00    -0.014 A 
BRANCH  34  35
ATOM     35  C   UNL A   1      37.313  32.874  33.586  1.00  0.00     0.031 A 
ATOM     36  C   UNL A   1      38.033  33.165  34.871  1.00  0.00     0.074 A 
ATOM     37  C   UNL A   1      37.826  31.992  32.706  1.00  0.00     0.049 A 
ATOM     38  N   UNL A   1      39.169  32.685  35.312  1.00  0.00    -0.248 NA
ATOM     39  C   UNL A   1      37.408  34.149  35.769  1.00  0.00     0.031 C 
ATOM     40  C   UNL A   1      37.245  31.661  31.403  1.00  0.00     0.029 A 
ATOM     41  N   UNL A   1      38.960  31.222  32.769  1.00  0.00    -0.354 N 
ATOM     42  C   UNL A   1      39.401  33.320  36.524  1.00  0.00     0.074 A 
ATOM     43  C   UNL A   1      38.315  34.255  36.728  1.00  0.00     0.031 C 
ATOM     44  C   UNL A   1      38.014  30.741  30.800  1.00  0.00     0.029 A 
ATOM     45  C   UNL A   1      39.159  30.443  31.655  1.00  0.00     0.049 A 
ATOM     46  H   UNL A   1      39.572  31.227  33.540  1.00  0.00     0.167 HD
ATOM     47  C   UNL A   1      40.417  33.125  37.398  1.00  0.00     0.037 A 
ATOM     48  C   UNL A   1      40.157  29.590  31.358  1.00  0.00     0.037 A 
ATOM     49  C   UNL A   1      41.476  32.171  37.206  1.00  0.00     0.049 A 
ATOM     50  C   UNL A   1      41.269  29.385  32.351  1.00  0.00     0.074 A 
ATOM     51  C   UNL A   1      42.515  31.851  38.063  1.00  0.00     0.029 A 
ATOM     52  N   UNL A   1      41.631  31.380  36.077  1.00  0.00    -0.354 N 
ATOM     53  N   UNL A   1      41.444  29.943  33.524  1.00  0.00    -0.248 NA
ATOM     54  C   UNL A   1      42.320  28.427  31.978  1.00  0.00     0.031 C 
ATOM     55  C   UNL A   1      43.319  30.893  37.436  1.00  0.00     0.029 A 
ATOM     56  C   UNL A   1      42.758  30.585  36.208  1.00  0.00     0.049 A 
ATOM     57  H   UNL A   1      41.029  31.383  35.298  1.00  0.00     0.167 HD
ATOM     58  C   UNL A   1      42.605  29.386  34.042  1.00  0.00     0.074 A 
ATOM     59  C   UNL A   1      43.086  28.437  33.060  1.00  0.00     0.031 C 
ATOM     60  C   UNL A   1      43.217  29.638  35.225  1.00  0.00     0.037 A 
BRANCH  47  61
ATOM     61  C   UNL A   1      40.426  33.958  38.645  1.00  0.00     0.064 A 
ATOM     62  C   UNL A   1      39.723  33.568  39.794  1.00  0.00     0.173 A 
ATOM     63  C   UNL A   1      41.176  35.143  38.704  1.00  0.00     0.173 A 
ATOM     64  F   UNL A   1      38.981  32.450  39.784  1.00  0.00    -0.203 F 
ATOM     65  C   UNL A   1      39.746  34.346  40.948  1.00  0.00     0.198 A 
ATOM     66  C   UNL A   1      41.220  35.905  39.870  1.00  0.00     0.198 A 
ATOM     67  F   UNL A   1      41.871  35.559  37.635  1.00  0.00    -0.203 F 
ATOM     68  F   UNL A   1      39.028  33.978  42.018  1.00  0.00    -0.200 F 
ATOM     69  C   UNL A   1      40.500  35.510  40.988  1.00  0.00     0.200 A 
ATOM     70  F   UNL A   1      41.958  37.023  39.910  1.00  0.00    -0.200 F 
ATOM     71  F   UNL A   1      40.526  36.255  42.101  1.00  0.00    -0.200 F 
ENDBRANCH  47  61
BRANCH  48  72
ATOM     72  C   UNL A   1      40.134  28.840  30.077  1.00  0.00     0.064 A 
ATOM     73  C   UNL A   1      39.496  27.595  29.987  1.00  0.00     0.173 A 
ATOM     74  C   UNL A   1      40.748  29.345  28.922  1.00  0.00     0.173 A 
ATOM     75  F   UNL A   1      38.915  27.062  31.072  1.00  0.00    -0.203 F 
ATOM     76  C   UNL A   1      39.490  26.874  28.795  1.00  0.00     0.198 A 
ATOM     77  C   UNL A   1      40.718  28.635  27.723  1.00  0.00     0.198 A 
ATOM     78  F   UNL A   1      41.367  30.534  28.955  1.00  0.00    -0.203 F 
ATOM     79  F   UNL A   1      38.911  25.667  28.748  1.00  0.00    -0.200 F 
ATOM     80  C   UNL A   1      40.095  27.397  27.662  1.00  0.00     0.200 A 
ATOM     81  F   UNL A   1      41.296  29.148  26.628  1.00  0.00    -0.200 F 
ATOM     82  F   UNL A   1      40.088  26.704  26.516  1.00  0.00    -0.200 F 
ENDBRANCH  48  72
BRANCH  60  83
ATOM     83  C   UNL A   1      44.455  28.852  35.538  1.00  0.00     0.064 A 
ATOM     84  C   UNL A   1      45.730  29.318  35.188  1.00  0.00     0.173 A 
ATOM     85  C   UNL A   1      44.365  27.637  36.234  1.00  0.00     0.173 A 
ATOM     86  F   UNL A   1      45.866  30.466  34.507  1.00  0.00    -0.203 F 
ATOM     87  C   UNL A   1      46.870  28.585  35.504  1.00  0.00     0.198 A 
ATOM     88  C   UNL A   1      45.509  26.920  36.573  1.00  0.00     0.198 A 
ATOM     89  F   UNL A   1      43.169  27.151  36.597  1.00  0.00    -0.203 F 
ATOM     90  F   UNL A   1      48.076  29.027  35.122  1.00  0.00    -0.200 F 
ATOM     91  C   UNL A   1      46.760  27.391  36.202  1.00  0.00     0.200 A 
ATOM     92  F   UNL A   1      45.402  25.774  37.258  1.00  0.00    -0.200 F 
ATOM     93  F   UNL A   1      47.859  26.691  36.512  1.00  0.00    -0.200 F 
ENDBRANCH  60  83
ENDBRANCH  34  35
ENDBRANCH  26  29
ENDBRANCH  24  25
ENDBRANCH  23  24
ENDBRANCH  22  23
ENDBRANCH  21  22
ENDBRANCH   3  21
TORSDOF 17
ENDMDL
