MODEL 1
REMARK VINA RESULT:     -13.1      0.000      0.000
REMARK SMILES C=CCn1nc(C(=O)NCCCCNC(=O)c2ccc(-c3c4nc(c(-c5c(F)c(F)c(F)c(F)c5F)c5ccc([nH]5)c(-c5c(F)c(F)c(F)c(F)c5F)c5nc(c(-c6c(F)c(F)c(F)c(F)c6F)c6ccc3[nH]6)C=C5)C=C4)cc2)c2c1CC[C@@H]([NH+]1CCC(C(C)(C)O)CC1)C2
REMARK SMILES IDX 11 1 10 2 9 3 7 4 8 5 6 7 4 8 5 9 81 10 80 11 82 12 95 13
REMARK SMILES IDX 83 14 84 15 3 16 2 17 1 18 85 19 86 20 94 21 87 23 93 24
REMARK SMILES IDX 88 25 89 26 90 27 91 28 92 29 12 31 13 32 14 33 15 34 16 36
REMARK SMILES IDX 17 37 18 38 79 39 19 40 78 41 20 42 21 43 22 44 72 45 23 46
REMARK SMILES IDX 77 47 71 48 73 49 24 50 76 51 70 52 69 53 25 55 57 56 37 57
REMARK SMILES IDX 56 58 38 59 41 60 55 61 74 62 39 63 40 64 54 66 75 67 42 68
REMARK SMILES IDX 26 69 27 70 35 71 28 72 29 73 33 74 36 75 30 76 31 77 34 78
REMARK SMILES IDX 32 79 58 80 59 81 67 82 60 83 61 84 65 85 68 86 62 87 63 88
REMARK SMILES IDX 66 89 64 90 43 91 44 92 52 93 45 94 46 95 50 96 53 97 47 98
REMARK SMILES IDX 48 99 51 100 49 101
REMARK H PARENT 9 6 85 22 92 30 14 35 73 54 41 65
REMARK Flexibility Score: inf
ROOT
ATOM      1  C   UNL A   1      40.283  20.915  26.477  1.00  0.00     0.023 C 
ENDROOT
BRANCH   1   2
ATOM      2  C   UNL A   1      39.028  21.155  25.610  1.00  0.00     0.116 C 
BRANCH   2   3
ATOM      3  N   UNL A   1      38.476  22.496  25.760  1.00  0.00    -0.351 N 
ATOM      4  C   UNL A   1      37.237  23.096  25.622  1.00  0.00     0.272 C 
ATOM      5  O   UNL A   1      37.220  24.267  26.027  1.00  0.00    -0.267 OA
ATOM      6  H   UNL A   1      39.166  23.144  26.029  1.00  0.00     0.163 HD
BRANCH   4   7
ATOM      7  C   UNL A   1      36.009  22.456  25.074  1.00  0.00     0.153 A 
ATOM      8  N   UNL A   1      34.567  20.863  24.802  1.00  0.00    -0.265 N 
ATOM      9  N   UNL A   1      35.768  21.149  25.348  1.00  0.00    -0.167 NA
ATOM     10  C   UNL A   1      34.114  21.876  24.011  1.00  0.00     0.043 A 
ATOM     11  C   UNL A   1      34.908  22.957  24.332  1.00  0.00     0.012 A 
ATOM     12  C   UNL A   1      32.919  21.906  23.131  1.00  0.00     0.062 C 
ATOM     13  C   UNL A   1      34.505  24.327  23.977  1.00  0.00     0.105 C 
ATOM     14  C   UNL A   1      32.594  23.361  22.719  1.00  0.00     0.072 C 
ATOM     15  C   UNL A   1      33.005  24.502  23.686  1.00  0.00     0.189 C 
BRANCH   8  16
ATOM     16  C   UNL A   1      33.900  19.604  25.153  1.00  0.00     0.171 C 
BRANCH  16  17
ATOM     17  C   UNL A   1      34.470  18.404  24.432  1.00  0.00    -0.011 C 
ATOM     18  C   UNL A   1      33.755  17.556  23.678  1.00  0.00     0.006 C 
ENDBRANCH  16  17
ENDBRANCH   8  16
BRANCH  15  19
ATOM     19  N   UNL A   1      32.307  24.894  24.930  1.00  0.00    -0.332 N 
ATOM     20  C   UNL A   1      30.868  24.737  25.045  1.00  0.00     0.262 C 
ATOM     21  C   UNL A   1      32.706  26.158  25.525  1.00  0.00     0.262 C 
ATOM     22  H   UNL A   1      32.685  24.120  25.476  1.00  0.00     0.348 HD
ATOM     23  C   UNL A   1      30.082  25.825  24.333  1.00  0.00     0.068 C 
ATOM     24  C   UNL A   1      32.155  27.352  24.770  1.00  0.00     0.068 C 
ATOM     25  C   UNL A   1      30.656  27.260  24.383  1.00  0.00     0.031 C 
BRANCH  25  26
ATOM     26  C   UNL A   1      30.362  28.092  23.079  1.00  0.00     0.062 C 
ATOM     27  C   UNL A   1      28.874  28.318  22.810  1.00  0.00     0.042 C 
ATOM     28  C   UNL A   1      31.099  29.432  23.121  1.00  0.00     0.042 C 
BRANCH  26  29
ATOM     29  O   UNL A   1      30.856  27.397  21.929  1.00  0.00    -0.390 OA
ATOM     30  H   UNL A   1      30.291  26.630  21.748  1.00  0.00     0.211 HD
ENDBRANCH  26  29
ENDBRANCH  25  26
ENDBRANCH  15  19
ENDBRANCH   4   7
ENDBRANCH   2   3
ENDBRANCH   1   2
BRANCH   1  31
ATOM     31  C   UNL A   1      41.124  19.681  26.157  1.00  0.00     0.023 C 
BRANCH  31  32
ATOM     32  C   UNL A   1      42.537  19.758  26.722  1.00  0.00     0.116 C 
BRANCH  32  33
ATOM     33  N   UNL A   1      43.583  19.436  25.748  1.00  0.00    -0.352 N 
ATOM     34  C   UNL A   1      44.190  20.324  24.881  1.00  0.00     0.251 C 
ATOM     35  H   UNL A   1      43.882  18.499  25.707  1.00  0.00     0.163 HD
ATOM     36  O   UNL A   1      44.728  19.953  23.840  1.00  0.00    -0.269 OA
BRANCH  34  37
ATOM     37  C   UNL A   1      44.184  21.748  25.248  1.00  0.00     0.039 A 
ATOM     38  C   UNL A   1      43.198  22.614  24.777  1.00  0.00     0.014 A 
ATOM     39  C   UNL A   1      45.150  22.173  26.162  1.00  0.00     0.014 A 
ATOM     40  C   UNL A   1      43.129  23.897  25.313  1.00  0.00     0.010 A 
ATOM     41  C   UNL A   1      45.012  23.400  26.769  1.00  0.00     0.010 A 
ATOM     42  C   UNL A   1      44.020  24.275  26.334  1.00  0.00    -0.014 A 
BRANCH  42  43
ATOM     43  C   UNL A   1      43.798  25.517  27.073  1.00  0.00     0.031 A 
ATOM     44  C   UNL A   1      44.752  26.610  26.723  1.00  0.00     0.074 A 
ATOM     45  C   UNL A   1      42.711  25.742  27.845  1.00  0.00     0.049 A 
ATOM     46  N   UNL A   1      45.633  27.157  27.494  1.00  0.00    -0.248 NA
ATOM     47  C   UNL A   1      44.837  27.055  25.322  1.00  0.00     0.031 C 
ATOM     48  C   UNL A   1      41.545  24.873  28.032  1.00  0.00     0.029 A 
ATOM     49  N   UNL A   1      42.367  26.853  28.557  1.00  0.00    -0.354 N 
ATOM     50  C   UNL A   1      46.244  28.155  26.737  1.00  0.00     0.074 A 
ATOM     51  C   UNL A   1      45.846  27.928  25.374  1.00  0.00     0.031 C 
ATOM     52  C   UNL A   1      40.539  25.575  28.598  1.00  0.00     0.029 A 
ATOM     53  C   UNL A   1      41.035  26.887  28.966  1.00  0.00     0.049 A 
ATOM     54  H   UNL A   1      43.007  27.572  28.767  1.00  0.00     0.167 HD
ATOM     55  C   UNL A   1      46.809  29.234  27.349  1.00  0.00     0.037 A 
ATOM     56  C   UNL A   1      40.381  27.927  29.542  1.00  0.00     0.037 A 
ATOM     57  C   UNL A   1      47.042  28.962  28.746  1.00  0.00     0.049 A 
ATOM     58  C   UNL A   1      41.410  28.828  30.112  1.00  0.00     0.074 A 
ATOM     59  C   UNL A   1      47.785  28.039  29.456  1.00  0.00     0.029 A 
ATOM     60  N   UNL A   1      46.140  29.481  29.640  1.00  0.00    -0.354 N 
ATOM     61  N   UNL A   1      42.175  28.512  31.119  1.00  0.00    -0.248 NA
ATOM     62  C   UNL A   1      41.888  29.919  29.280  1.00  0.00     0.031 C 
ATOM     63  C   UNL A   1      46.988  27.719  30.596  1.00  0.00     0.029 A 
ATOM     64  C   UNL A   1      45.844  28.517  30.562  1.00  0.00     0.049 A 
ATOM     65  H   UNL A   1      45.769  30.393  29.620  1.00  0.00     0.167 HD
ATOM     66  C   UNL A   1      43.416  29.025  30.781  1.00  0.00     0.074 A 
ATOM     67  C   UNL A   1      43.154  29.972  29.700  1.00  0.00     0.031 C 
ATOM     68  C   UNL A   1      44.558  28.413  31.212  1.00  0.00     0.037 A 
BRANCH  55  69
ATOM     69  C   UNL A   1      46.738  30.655  26.823  1.00  0.00     0.064 A 
ATOM     70  C   UNL A   1      47.902  31.453  26.869  1.00  0.00     0.173 A 
ATOM     71  C   UNL A   1      45.535  31.360  26.602  1.00  0.00     0.173 A 
ATOM     72  F   UNL A   1      49.104  30.898  27.080  1.00  0.00    -0.203 F 
ATOM     73  C   UNL A   1      47.847  32.849  26.815  1.00  0.00     0.198 A 
ATOM     74  C   UNL A   1      45.491  32.751  26.496  1.00  0.00     0.198 A 
ATOM     75  F   UNL A   1      44.341  30.759  26.593  1.00  0.00    -0.203 F 
ATOM     76  F   UNL A   1      48.961  33.566  27.015  1.00  0.00    -0.200 F 
ATOM     77  C   UNL A   1      46.640  33.497  26.640  1.00  0.00     0.200 A 
ATOM     78  F   UNL A   1      44.307  33.360  26.345  1.00  0.00    -0.200 F 
ATOM     79  F   UNL A   1      46.574  34.835  26.662  1.00  0.00    -0.200 F 
ENDBRANCH  55  69
BRANCH  56  80
ATOM     80  C   UNL A   1      38.972  28.364  29.364  1.00  0.00     0.064 A 
ATOM     81  C   UNL A   1      38.128  28.545  30.475  1.00  0.00     0.173 A 
ATOM     82  C   UNL A   1      38.520  28.907  28.147  1.00  0.00     0.173 A 
ATOM     83  F   UNL A   1      38.497  28.096  31.684  1.00  0.00    -0.203 F 
ATOM     84  C   UNL A   1      36.930  29.264  30.383  1.00  0.00     0.198 A 
ATOM     85  C   UNL A   1      37.322  29.617  28.053  1.00  0.00     0.198 A 
ATOM     86  F   UNL A   1      39.279  28.847  27.043  1.00  0.00    -0.203 F 
ATOM     87  F   UNL A   1      36.193  29.481  31.481  1.00  0.00    -0.200 F 
ATOM     88  C   UNL A   1      36.536  29.813  29.174  1.00  0.00     0.200 A 
ATOM     89  F   UNL A   1      36.969  30.174  26.886  1.00  0.00    -0.200 F 
ATOM     90  F   UNL A   1      35.428  30.562  29.099  1.00  0.00    -0.200 F 
ENDBRANCH  56  80
BRANCH  68  91
ATOM     91  C   UNL A   1      44.436  27.400  32.317  1.00  0.00     0.064 A 
ATOM     92  C   UNL A   1      44.237  26.022  32.125  1.00  0.00     0.173 A 
ATOM     93  C   UNL A   1      44.654  27.842  33.629  1.00  0.00     0.173 A 
ATOM     94  F   UNL A   1      44.114  25.503  30.897  1.00  0.00    -0.203 F 
ATOM     95  C   UNL A   1      44.216  25.138  33.204  1.00  0.00     0.198 A 
ATOM     96  C   UNL A   1      44.672  26.954  34.700  1.00  0.00     0.198 A 
ATOM     97  F   UNL A   1      44.896  29.141  33.869  1.00  0.00    -0.203 F 
ATOM     98  F   UNL A   1      44.007  23.829  32.999  1.00  0.00    -0.200 F 
ATOM     99  C   UNL A   1      44.441  25.605  34.489  1.00  0.00     0.200 A 
ATOM    100  F   UNL A   1      44.938  27.405  35.932  1.00  0.00    -0.200 F 
ATOM    101  F   UNL A   1      44.460  24.752  35.523  1.00  0.00    -0.200 F 
ENDBRANCH  68  91
ENDBRANCH  42  43
ENDBRANCH  34  37
ENDBRANCH  32  33
ENDBRANCH  31  32
ENDBRANCH   1  31
TORSDOF 16
ENDMDL
MODEL 2
REMARK VINA RESULT:     -12.9      2.928      8.866
REMARK SMILES C=CCn1nc(C(=O)NCCCCNC(=O)c2ccc(-c3c4nc(c(-c5c(F)c(F)c(F)c(F)c5F)c5ccc([nH]5)c(-c5c(F)c(F)c(F)c(F)c5F)c5nc(c(-c6c(F)c(F)c(F)c(F)c6F)c6ccc3[nH]6)C=C5)C=C4)cc2)c2c1CC[C@@H]([NH+]1CCC(C(C)(C)O)CC1)C2
REMARK SMILES IDX 11 1 10 2 9 3 7 4 8 5 6 7 4 8 5 9 81 10 80 11 82 12 95 13
REMARK SMILES IDX 83 14 84 15 3 16 2 17 1 18 85 19 86 20 94 21 87 23 93 24
REMARK SMILES IDX 88 25 89 26 90 27 91 28 92 29 12 31 13 32 14 33 15 34 16 36
REMARK SMILES IDX 17 37 18 38 79 39 19 40 78 41 20 42 21 43 22 44 72 45 23 46
REMARK SMILES IDX 77 47 71 48 73 49 24 50 76 51 70 52 69 53 25 55 57 56 37 57
REMARK SMILES IDX 56 58 38 59 41 60 55 61 74 62 39 63 40 64 54 66 75 67 42 68
REMARK SMILES IDX 26 69 27 70 35 71 28 72 29 73 33 74 36 75 30 76 31 77 34 78
REMARK SMILES IDX 32 79 58 80 59 81 67 82 60 83 61 84 65 85 68 86 62 87 63 88
REMARK SMILES IDX 66 89 64 90 43 91 44 92 52 93 45 94 46 95 50 96 53 97 47 98
REMARK SMILES IDX 48 99 51 100 49 101
REMARK H PARENT 9 6 85 22 92 30 14 35 73 54 41 65
REMARK Flexibility Score: inf
ROOT
ATOM      1  C   UNL A   1      34.772  30.576  27.251  1.00  0.00     0.023 C 
ENDROOT
BRANCH   1   2
ATOM      2  C   UNL A   1      34.233  29.148  27.021  1.00  0.00     0.116 C 
BRANCH   2   3
ATOM      3  N   UNL A   1      32.955  28.905  27.678  1.00  0.00    -0.351 N 
ATOM      4  C   UNL A   1      31.814  28.167  27.418  1.00  0.00     0.272 C 
ATOM      5  O   UNL A   1      31.028  28.140  28.376  1.00  0.00    -0.267 OA
ATOM      6  H   UNL A   1      32.886  29.394  28.529  1.00  0.00     0.163 HD
BRANCH   4   7
ATOM      7  C   UNL A   1      31.507  27.441  26.154  1.00  0.00     0.153 A 
ATOM      8  N   UNL A   1      31.124  27.250  24.031  1.00  0.00    -0.265 N 
ATOM      9  N   UNL A   1      31.296  28.154  25.019  1.00  0.00    -0.167 NA
ATOM     10  C   UNL A   1      31.012  25.982  24.517  1.00  0.00     0.043 A 
ATOM     11  C   UNL A   1      31.451  26.062  25.821  1.00  0.00     0.012 A 
ATOM     12  C   UNL A   1      30.681  24.732  23.787  1.00  0.00     0.062 C 
ATOM     13  C   UNL A   1      31.837  24.856  26.569  1.00  0.00     0.105 C 
ATOM     14  C   UNL A   1      31.026  23.498  24.654  1.00  0.00     0.072 C 
ATOM     15  C   UNL A   1      32.168  23.635  25.695  1.00  0.00     0.189 C 
BRANCH   8  16
ATOM     16  C   UNL A   1      31.142  27.700  22.635  1.00  0.00     0.171 C 
BRANCH  16  17
ATOM     17  C   UNL A   1      30.176  28.828  22.357  1.00  0.00    -0.011 C 
ATOM     18  C   UNL A   1      28.893  28.849  22.751  1.00  0.00     0.006 C 
ENDBRANCH  16  17
ENDBRANCH   8  16
BRANCH  15  19
ATOM     19  N   UNL A   1      33.620  23.613  25.414  1.00  0.00    -0.332 N 
ATOM     20  C   UNL A   1      34.107  23.283  24.087  1.00  0.00     0.262 C 
ATOM     21  C   UNL A   1      34.463  22.974  26.411  1.00  0.00     0.262 C 
ATOM     22  H   UNL A   1      33.724  24.626  25.471  1.00  0.00     0.348 HD
ATOM     23  C   UNL A   1      34.089  21.793  23.788  1.00  0.00     0.068 C 
ATOM     24  C   UNL A   1      34.371  21.462  26.363  1.00  0.00     0.068 C 
ATOM     25  C   UNL A   1      34.451  20.835  24.947  1.00  0.00     0.031 C 
BRANCH  25  26
ATOM     26  C   UNL A   1      33.670  19.470  24.892  1.00  0.00     0.062 C 
ATOM     27  C   UNL A   1      32.528  19.449  23.875  1.00  0.00     0.042 C 
ATOM     28  C   UNL A   1      34.633  18.312  24.626  1.00  0.00     0.042 C 
BRANCH  26  29
ATOM     29  O   UNL A   1      33.058  19.202  26.158  1.00  0.00    -0.390 OA
ATOM     30  H   UNL A   1      32.480  18.427  26.079  1.00  0.00     0.211 HD
ENDBRANCH  26  29
ENDBRANCH  25  26
ENDBRANCH  15  19
ENDBRANCH   4   7
ENDBRANCH   2   3
ENDBRANCH   1   2
BRANCH   1  31
ATOM     31  C   UNL A   1      33.825  31.581  27.902  1.00  0.00     0.023 C 
BRANCH  31  32
ATOM     32  C   UNL A   1      34.527  32.853  28.362  1.00  0.00     0.116 C 
BRANCH  32  33
ATOM     33  N   UNL A   1      34.479  33.066  29.810  1.00  0.00    -0.352 N 
ATOM     34  C   UNL A   1      35.152  32.328  30.765  1.00  0.00     0.251 C 
ATOM     35  H   UNL A   1      33.914  33.804  30.135  1.00  0.00     0.163 HD
ATOM     36  O   UNL A   1      34.770  32.270  31.932  1.00  0.00    -0.269 OA
BRANCH  34  37
ATOM     37  C   UNL A   1      36.364  31.611  30.343  1.00  0.00     0.039 A 
ATOM     38  C   UNL A   1      37.553  32.291  30.077  1.00  0.00     0.014 A 
ATOM     39  C   UNL A   1      36.302  30.217  30.313  1.00  0.00     0.014 A 
ATOM     40  C   UNL A   1      38.713  31.548  29.876  1.00  0.00     0.010 A 
ATOM     41  C   UNL A   1      37.466  29.489  30.224  1.00  0.00     0.010 A 
ATOM     42  C   UNL A   1      38.670  30.145  29.983  1.00  0.00    -0.014 A 
BRANCH  42  43
ATOM     43  C   UNL A   1      39.915  29.379  30.024  1.00  0.00     0.031 A 
ATOM     44  C   UNL A   1      40.453  29.170  31.400  1.00  0.00     0.074 A 
ATOM     45  C   UNL A   1      40.430  28.734  28.953  1.00  0.00     0.049 A 
ATOM     46  N   UNL A   1      41.562  29.623  31.885  1.00  0.00    -0.248 NA
ATOM     47  C   UNL A   1      39.602  28.499  32.398  1.00  0.00     0.031 C 
ATOM     48  C   UNL A   1      39.844  28.600  27.616  1.00  0.00     0.029 A 
ATOM     49  N   UNL A   1      41.554  27.967  28.860  1.00  0.00    -0.354 N 
ATOM     50  C   UNL A   1      41.649  29.125  33.183  1.00  0.00     0.074 A 
ATOM     51  C   UNL A   1      40.349  28.598  33.501  1.00  0.00     0.031 C 
ATOM     52  C   UNL A   1      40.482  27.623  26.935  1.00  0.00     0.029 A 
ATOM     53  C   UNL A   1      41.620  27.177  27.714  1.00  0.00     0.049 A 
ATOM     54  H   UNL A   1      42.261  27.972  29.545  1.00  0.00     0.167 HD
ATOM     55  C   UNL A   1      42.865  28.957  33.776  1.00  0.00     0.037 A 
ATOM     56  C   UNL A   1      42.531  26.209  27.438  1.00  0.00     0.037 A 
ATOM     57  C   UNL A   1      43.875  29.722  33.087  1.00  0.00     0.049 A 
ATOM     58  C   UNL A   1      43.710  26.460  28.299  1.00  0.00     0.074 A 
ATOM     59  C   UNL A   1      44.077  31.061  32.814  1.00  0.00     0.029 A 
ATOM     60  N   UNL A   1      44.693  29.038  32.224  1.00  0.00    -0.354 N 
ATOM     61  N   UNL A   1      44.496  27.492  28.172  1.00  0.00    -0.248 NA
ATOM     62  C   UNL A   1      43.762  25.787  29.585  1.00  0.00     0.031 C 
ATOM     63  C   UNL A   1      44.639  31.091  31.503  1.00  0.00     0.029 A 
ATOM     64  C   UNL A   1      44.823  29.774  31.080  1.00  0.00     0.049 A 
ATOM     65  H   UNL A   1      45.114  28.165  32.399  1.00  0.00     0.167 HD
ATOM     66  C   UNL A   1      44.776  27.872  29.474  1.00  0.00     0.074 A 
ATOM     67  C   UNL A   1      44.392  26.725  30.295  1.00  0.00     0.031 C 
ATOM     68  C   UNL A   1      45.013  29.182  29.776  1.00  0.00     0.037 A 
BRANCH  55  69
ATOM     69  C   UNL A   1      43.233  27.785  34.667  1.00  0.00     0.064 A 
ATOM     70  C   UNL A   1      43.728  28.050  35.962  1.00  0.00     0.173 A 
ATOM     71  C   UNL A   1      43.440  26.469  34.202  1.00  0.00     0.173 A 
ATOM     72  F   UNL A   1      43.596  29.267  36.510  1.00  0.00    -0.203 F 
ATOM     73  C   UNL A   1      44.471  27.107  36.679  1.00  0.00     0.198 A 
ATOM     74  C   UNL A   1      44.138  25.515  34.943  1.00  0.00     0.198 A 
ATOM     75  F   UNL A   1      43.086  26.077  32.974  1.00  0.00    -0.203 F 
ATOM     76  F   UNL A   1      45.048  27.457  37.837  1.00  0.00    -0.200 F 
ATOM     77  C   UNL A   1      44.685  25.844  36.164  1.00  0.00     0.200 A 
ATOM     78  F   UNL A   1      44.350  24.301  34.415  1.00  0.00    -0.200 F 
ATOM     79  F   UNL A   1      45.458  24.963  36.813  1.00  0.00    -0.200 F 
ENDBRANCH  55  69
BRANCH  56  80
ATOM     80  C   UNL A   1      42.340  24.916  26.731  1.00  0.00     0.064 A 
ATOM     81  C   UNL A   1      43.149  24.568  25.633  1.00  0.00     0.173 A 
ATOM     82  C   UNL A   1      41.583  23.874  27.298  1.00  0.00     0.173 A 
ATOM     83  F   UNL A   1      43.934  25.489  25.054  1.00  0.00    -0.203 F 
ATOM     84  C   UNL A   1      43.231  23.252  25.165  1.00  0.00     0.198 A 
ATOM     85  C   UNL A   1      41.659  22.563  26.826  1.00  0.00     0.198 A 
ATOM     86  F   UNL A   1      40.830  24.085  28.388  1.00  0.00    -0.203 F 
ATOM     87  F   UNL A   1      44.073  22.947  24.168  1.00  0.00    -0.200 F 
ATOM     88  C   UNL A   1      42.497  22.247  25.772  1.00  0.00     0.200 A 
ATOM     89  F   UNL A   1      40.971  21.592  27.445  1.00  0.00    -0.200 F 
ATOM     90  F   UNL A   1      42.629  20.975  25.372  1.00  0.00    -0.200 F 
ENDBRANCH  56  80
BRANCH  68  91
ATOM     91  C   UNL A   1      45.298  30.123  28.638  1.00  0.00     0.064 A 
ATOM     92  C   UNL A   1      44.319  30.811  27.901  1.00  0.00     0.173 A 
ATOM     93  C   UNL A   1      46.639  30.429  28.369  1.00  0.00     0.173 A 
ATOM     94  F   UNL A   1      43.015  30.648  28.157  1.00  0.00    -0.203 F 
ATOM     95  C   UNL A   1      44.672  31.730  26.912  1.00  0.00     0.198 A 
ATOM     96  C   UNL A   1      46.989  31.375  27.410  1.00  0.00     0.198 A 
ATOM     97  F   UNL A   1      47.617  29.839  29.075  1.00  0.00    -0.203 F 
ATOM     98  F   UNL A   1      43.721  32.361  26.208  1.00  0.00    -0.200 F 
ATOM     99  C   UNL A   1      46.007  32.015  26.674  1.00  0.00     0.200 A 
ATOM    100  F   UNL A   1      48.279  31.681  27.220  1.00  0.00    -0.200 F 
ATOM    101  F   UNL A   1      46.347  32.926  25.751  1.00  0.00    -0.200 F 
ENDBRANCH  68  91
ENDBRANCH  42  43
ENDBRANCH  34  37
ENDBRANCH  32  33
ENDBRANCH  31  32
ENDBRANCH   1  31
TORSDOF 16
ENDMDL
MODEL 3
REMARK VINA RESULT:     -12.9      1.940      6.321
REMARK SMILES C=CCn1nc(C(=O)NCCCCNC(=O)c2ccc(-c3c4nc(c(-c5c(F)c(F)c(F)c(F)c5F)c5ccc([nH]5)c(-c5c(F)c(F)c(F)c(F)c5F)c5nc(c(-c6c(F)c(F)c(F)c(F)c6F)c6ccc3[nH]6)C=C5)C=C4)cc2)c2c1CC[C@@H]([NH+]1CCC(C(C)(C)O)CC1)C2
REMARK SMILES IDX 11 1 10 2 9 3 7 4 8 5 6 7 4 8 5 9 81 10 80 11 82 12 95 13
REMARK SMILES IDX 83 14 84 15 3 16 2 17 1 18 85 19 86 20 94 21 87 23 93 24
REMARK SMILES IDX 88 25 89 26 90 27 91 28 92 29 12 31 13 32 14 33 15 34 16 36
REMARK SMILES IDX 17 37 18 38 79 39 19 40 78 41 20 42 21 43 22 44 72 45 23 46
REMARK SMILES IDX 77 47 71 48 73 49 24 50 76 51 70 52 69 53 25 55 57 56 37 57
REMARK SMILES IDX 56 58 38 59 41 60 55 61 74 62 39 63 40 64 54 66 75 67 42 68
REMARK SMILES IDX 26 69 27 70 35 71 28 72 29 73 33 74 36 75 30 76 31 77 34 78
REMARK SMILES IDX 32 79 58 80 59 81 67 82 60 83 61 84 65 85 68 86 62 87 63 88
REMARK SMILES IDX 66 89 64 90 43 91 44 92 52 93 45 94 46 95 50 96 53 97 47 98
REMARK SMILES IDX 48 99 51 100 49 101
REMARK H PARENT 9 6 85 22 92 30 14 35 73 54 41 65
REMARK Flexibility Score: inf
ROOT
ATOM      1  C   UNL A   1      38.892  22.170  26.191  1.00  0.00     0.023 C 
ENDROOT
BRANCH   1   2
ATOM      2  C   UNL A   1      37.613  22.869  25.683  1.00  0.00     0.116 C 
BRANCH   2   3
ATOM      3  N   UNL A   1      37.436  22.763  24.240  1.00  0.00    -0.351 N 
ATOM      4  C   UNL A   1      36.377  22.795  23.351  1.00  0.00     0.272 C 
ATOM      5  O   UNL A   1      36.741  22.829  22.167  1.00  0.00    -0.267 OA
ATOM      6  H   UNL A   1      38.295  22.634  23.778  1.00  0.00     0.163 HD
BRANCH   4   7
ATOM      7  C   UNL A   1      34.931  22.811  23.708  1.00  0.00     0.153 A 
ATOM      8  N   UNL A   1      33.159  22.196  24.791  1.00  0.00    -0.265 N 
ATOM      9  N   UNL A   1      34.462  21.900  24.598  1.00  0.00    -0.167 NA
ATOM     10  C   UNL A   1      32.715  23.135  23.909  1.00  0.00     0.043 A 
ATOM     11  C   UNL A   1      33.859  23.675  23.360  1.00  0.00     0.012 A 
ATOM     12  C   UNL A   1      31.332  23.631  23.696  1.00  0.00     0.062 C 
ATOM     13  C   UNL A   1      33.827  24.962  22.649  1.00  0.00     0.105 C 
ATOM     14  C   UNL A   1      31.354  24.938  22.869  1.00  0.00     0.072 C 
ATOM     15  C   UNL A   1      32.609  25.844  22.968  1.00  0.00     0.189 C 
BRANCH   8  16
ATOM     16  C   UNL A   1      32.435  21.563  25.899  1.00  0.00     0.171 C 
BRANCH  16  17
ATOM     17  C   UNL A   1      33.282  21.377  27.137  1.00  0.00    -0.011 C 
ATOM     18  C   UNL A   1      33.532  22.334  28.043  1.00  0.00     0.006 C 
ENDBRANCH  16  17
ENDBRANCH   8  16
BRANCH  15  19
ATOM     19  N   UNL A   1      32.945  26.760  24.081  1.00  0.00    -0.332 N 
ATOM     20  C   UNL A   1      32.005  26.975  25.165  1.00  0.00     0.262 C 
ATOM     21  C   UNL A   1      33.560  28.025  23.714  1.00  0.00     0.262 C 
ATOM     22  H   UNL A   1      33.647  26.138  24.481  1.00  0.00     0.348 HD
ATOM     23  C   UNL A   1      30.874  27.924  24.807  1.00  0.00     0.068 C 
ATOM     24  C   UNL A   1      32.561  29.005  23.131  1.00  0.00     0.068 C 
ATOM     25  C   UNL A   1      31.224  29.132  23.906  1.00  0.00     0.031 C 
BRANCH  25  26
ATOM     26  C   UNL A   1      30.052  29.546  22.940  1.00  0.00     0.062 C 
ATOM     27  C   UNL A   1      29.037  28.431  22.682  1.00  0.00     0.042 C 
ATOM     28  C   UNL A   1      29.341  30.794  23.466  1.00  0.00     0.042 C 
BRANCH  26  29
ATOM     29  O   UNL A   1      30.574  29.892  21.653  1.00  0.00    -0.390 OA
ATOM     30  H   UNL A   1      29.843  30.128  21.061  1.00  0.00     0.211 HD
ENDBRANCH  26  29
ENDBRANCH  25  26
ENDBRANCH  15  19
ENDBRANCH   4   7
ENDBRANCH   2   3
ENDBRANCH   1   2
BRANCH   1  31
ATOM     31  C   UNL A   1      39.299  20.873  25.496  1.00  0.00     0.023 C 
BRANCH  31  32
ATOM     32  C   UNL A   1      39.903  19.848  26.448  1.00  0.00     0.116 C 
BRANCH  32  33
ATOM     33  N   UNL A   1      41.089  19.173  25.918  1.00  0.00    -0.352 N 
ATOM     34  C   UNL A   1      42.313  19.760  25.657  1.00  0.00     0.251 C 
ATOM     35  H   UNL A   1      41.008  18.210  25.728  1.00  0.00     0.163 HD
ATOM     36  O   UNL A   1      43.109  19.278  24.854  1.00  0.00    -0.269 OA
BRANCH  34  37
ATOM     37  C   UNL A   1      42.647  20.991  26.387  1.00  0.00     0.039 A 
ATOM     38  C   UNL A   1      42.956  22.173  25.713  1.00  0.00     0.014 A 
ATOM     39  C   UNL A   1      42.549  20.953  27.779  1.00  0.00     0.014 A 
ATOM     40  C   UNL A   1      43.070  23.348  26.450  1.00  0.00     0.010 A 
ATOM     41  C   UNL A   1      42.552  22.131  28.490  1.00  0.00     0.010 A 
ATOM     42  C   UNL A   1      42.835  23.328  27.837  1.00  0.00    -0.014 A 
BRANCH  42  43
ATOM     43  C   UNL A   1      42.703  24.584  28.573  1.00  0.00     0.031 A 
ATOM     44  C   UNL A   1      41.451  25.336  28.270  1.00  0.00     0.074 A 
ATOM     45  C   UNL A   1      43.520  24.943  29.589  1.00  0.00     0.049 A 
ATOM     46  N   UNL A   1      41.350  26.495  27.706  1.00  0.00    -0.248 NA
ATOM     47  C   UNL A   1      40.155  24.672  28.490  1.00  0.00     0.031 C 
ATOM     48  C   UNL A   1      44.601  24.159  30.194  1.00  0.00     0.029 A 
ATOM     49  N   UNL A   1      43.493  26.059  30.372  1.00  0.00    -0.354 N 
ATOM     50  C   UNL A   1      39.990  26.798  27.684  1.00  0.00     0.074 A 
ATOM     51  C   UNL A   1      39.300  25.579  28.010  1.00  0.00     0.031 C 
ATOM     52  C   UNL A   1      44.957  24.709  31.376  1.00  0.00     0.029 A 
ATOM     53  C   UNL A   1      44.254  25.967  31.535  1.00  0.00     0.049 A 
ATOM     54  H   UNL A   1      42.978  26.865  30.135  1.00  0.00     0.167 HD
ATOM     55  C   UNL A   1      39.575  28.096  27.659  1.00  0.00     0.037 A 
ATOM     56  C   UNL A   1      44.286  26.849  32.566  1.00  0.00     0.037 A 
ATOM     57  C   UNL A   1      40.648  28.964  27.241  1.00  0.00     0.049 A 
ATOM     58  C   UNL A   1      43.777  28.141  32.051  1.00  0.00     0.074 A 
ATOM     59  C   UNL A   1      41.431  29.083  26.109  1.00  0.00     0.029 A 
ATOM     60  N   UNL A   1      41.308  29.655  28.225  1.00  0.00    -0.354 N 
ATOM     61  N   UNL A   1      44.402  28.869  31.168  1.00  0.00    -0.248 NA
ATOM     62  C   UNL A   1      42.357  28.413  32.195  1.00  0.00     0.031 C 
ATOM     63  C   UNL A   1      42.728  29.432  26.591  1.00  0.00     0.029 A 
ATOM     64  C   UNL A   1      42.650  29.584  27.976  1.00  0.00     0.049 A 
ATOM     65  H   UNL A   1      40.887  30.122  28.983  1.00  0.00     0.167 HD
ATOM     66  C   UNL A   1      43.398  29.339  30.338  1.00  0.00     0.074 A 
ATOM     67  C   UNL A   1      42.158  29.120  31.080  1.00  0.00     0.031 C 
ATOM     68  C   UNL A   1      43.649  29.584  29.019  1.00  0.00     0.037 A 
BRANCH  55  69
ATOM     69  C   UNL A   1      38.378  28.631  28.423  1.00  0.00     0.064 A 
ATOM     70  C   UNL A   1      37.572  29.617  27.814  1.00  0.00     0.173 A 
ATOM     71  C   UNL A   1      38.193  28.479  29.814  1.00  0.00     0.173 A 
ATOM     72  F   UNL A   1      37.663  29.858  26.498  1.00  0.00    -0.203 F 
ATOM     73  C   UNL A   1      36.737  30.456  28.557  1.00  0.00     0.198 A 
ATOM     74  C   UNL A   1      37.319  29.284  30.545  1.00  0.00     0.198 A 
ATOM     75  F   UNL A   1      38.923  27.633  30.548  1.00  0.00    -0.203 F 
ATOM     76  F   UNL A   1      36.108  31.473  27.953  1.00  0.00    -0.200 F 
ATOM     77  C   UNL A   1      36.620  30.297  29.924  1.00  0.00     0.200 A 
ATOM     78  F   UNL A   1      37.235  29.124  31.873  1.00  0.00    -0.200 F 
ATOM     79  F   UNL A   1      35.880  31.145  30.650  1.00  0.00    -0.200 F 
ENDBRANCH  55  69
BRANCH  56  80
ATOM     80  C   UNL A   1      44.418  26.586  34.023  1.00  0.00     0.064 A 
ATOM     81  C   UNL A   1      43.314  26.151  34.779  1.00  0.00     0.173 A 
ATOM     82  C   UNL A   1      45.679  26.457  34.634  1.00  0.00     0.173 A 
ATOM     83  F   UNL A   1      42.078  26.201  34.261  1.00  0.00    -0.203 F 
ATOM     84  C   UNL A   1      43.469  25.579  36.048  1.00  0.00     0.198 A 
ATOM     85  C   UNL A   1      45.832  25.893  35.902  1.00  0.00     0.198 A 
ATOM     86  F   UNL A   1      46.801  26.781  33.974  1.00  0.00    -0.203 F 
ATOM     87  F   UNL A   1      42.400  25.105  36.703  1.00  0.00    -0.200 F 
ATOM     88  C   UNL A   1      44.729  25.437  36.601  1.00  0.00     0.200 A 
ATOM     89  F   UNL A   1      47.061  25.728  36.412  1.00  0.00    -0.200 F 
ATOM     90  F   UNL A   1      44.886  24.824  37.783  1.00  0.00    -0.200 F 
ENDBRANCH  56  80
BRANCH  68  91
ATOM     91  C   UNL A   1      45.086  29.661  28.582  1.00  0.00     0.064 A 
ATOM     92  C   UNL A   1      45.853  28.566  28.148  1.00  0.00     0.173 A 
ATOM     93  C   UNL A   1      45.668  30.932  28.487  1.00  0.00     0.173 A 
ATOM     94  F   UNL A   1      45.342  27.329  28.117  1.00  0.00    -0.203 F 
ATOM     95  C   UNL A   1      47.157  28.737  27.682  1.00  0.00     0.198 A 
ATOM     96  C   UNL A   1      46.955  31.105  27.985  1.00  0.00     0.198 A 
ATOM     97  F   UNL A   1      44.967  32.020  28.843  1.00  0.00    -0.203 F 
ATOM     98  F   UNL A   1      47.877  27.675  27.289  1.00  0.00    -0.200 F 
ATOM     99  C   UNL A   1      47.702  30.007  27.595  1.00  0.00     0.200 A 
ATOM    100  F   UNL A   1      47.457  32.340  27.858  1.00  0.00    -0.200 F 
ATOM    101  F   UNL A   1      48.941  30.177  27.110  1.00  0.00    -0.200 F 
ENDBRANCH  68  91
ENDBRANCH  42  43
ENDBRANCH  34  37
ENDBRANCH  32  33
ENDBRANCH  31  32
ENDBRANCH   1  31
TORSDOF 16
ENDMDL
