MODEL 1
REMARK VINA RESULT:     -13.5      0.000      0.000
REMARK SMILES C=CCN1C[C@]2(C(=O)NCCCCNC(=O)c3ccc(-c4c5nc(c(-c6c(F)c(F)c(F)c(F)c6F)c6ccc([nH]6)c(-c6c(F)c(F)c(F)c(F)c6F)c6nc(c(-c7c(F)c(F)c(F)c(F)c7F)c7ccc4[nH]7)C=C6)C=C5)cc3)CN(C(=O)c3cccc(C#N)c3)C[C@H]2C1=O
REMARK SMILES IDX 11 1 10 2 9 3 7 4 8 5 6 7 4 8 5 9 94 10 93 11 95 12 80 13
REMARK SMILES IDX 92 14 81 15 3 16 2 17 1 18 82 19 83 20 84 21 85 22 91 23
REMARK SMILES IDX 86 24 88 25 87 26 89 27 90 28 12 29 13 30 14 31 15 32 16 34
REMARK SMILES IDX 17 35 18 36 79 37 19 38 78 39 20 40 21 41 22 42 72 43 23 44
REMARK SMILES IDX 77 45 71 46 73 47 24 48 76 49 70 50 69 51 25 53 57 54 37 55
REMARK SMILES IDX 56 56 38 57 41 58 55 59 74 60 39 61 40 62 54 64 75 65 42 66
REMARK SMILES IDX 26 67 27 68 35 69 28 70 29 71 33 72 36 73 30 74 31 75 34 76
REMARK SMILES IDX 32 77 58 78 59 79 67 80 60 81 61 82 65 83 68 84 62 85 63 86
REMARK SMILES IDX 66 87 64 88 43 89 44 90 52 91 45 92 46 93 50 94 53 95 47 96
REMARK SMILES IDX 48 97 51 98 49 99
REMARK H PARENT 9 6 14 33 73 52 41 63
REMARK Flexibility Score: inf
ROOT
ATOM      1  C   UNL A   1      32.243  30.375  26.882  1.00  0.00     0.023 C 
ENDROOT
BRANCH   1   2
ATOM      2  C   UNL A   1      31.458  29.540  25.887  1.00  0.00     0.116 C 
BRANCH   2   3
ATOM      3  N   UNL A   1      32.004  29.788  24.572  1.00  0.00    -0.355 N 
ATOM      4  C   UNL A   1      31.638  29.078  23.450  1.00  0.00     0.230 C 
ATOM      5  O   UNL A   1      32.380  29.038  22.472  1.00  0.00    -0.274 OA
ATOM      6  H   UNL A   1      32.674  30.503  24.473  1.00  0.00     0.163 HD
BRANCH   4   7
ATOM      7  C   UNL A   1      30.240  28.459  23.538  1.00  0.00     0.097 C 
ATOM      8  N   UNL A   1      28.472  29.907  22.808  1.00  0.00    -0.337 N 
ATOM      9  C   UNL A   1      29.845  29.593  22.460  1.00  0.00     0.139 C 
ATOM     10  C   UNL A   1      27.846  28.740  23.182  1.00  0.00     0.229 C 
ATOM     11  C   UNL A   1      28.934  27.706  23.131  1.00  0.00     0.117 C 
ATOM     12  O   UNL A   1      26.668  28.567  23.422  1.00  0.00    -0.274 OA
ATOM     13  C   UNL A   1      30.968  27.021  23.663  1.00  0.00     0.139 C 
ATOM     14  C   UNL A   1      28.700  26.591  24.118  1.00  0.00     0.134 C 
ATOM     15  N   UNL A   1      30.041  26.222  24.485  1.00  0.00    -0.337 N 
BRANCH   8  16
ATOM     16  C   UNL A   1      27.755  31.147  22.551  1.00  0.00     0.146 C 
BRANCH  16  17
ATOM     17  C   UNL A   1      28.478  32.042  21.593  1.00  0.00    -0.014 C 
ATOM     18  C   UNL A   1      28.027  32.359  20.370  1.00  0.00     0.006 C 
ENDBRANCH  16  17
ENDBRANCH   8  16
BRANCH  15  19
ATOM     19  C   UNL A   1      30.215  25.387  25.584  1.00  0.00     0.253 C 
ATOM     20  O   UNL A   1      29.430  25.377  26.532  1.00  0.00    -0.269 OA
BRANCH  19  21
ATOM     21  C   UNL A   1      31.387  24.496  25.714  1.00  0.00     0.041 A 
ATOM     22  C   UNL A   1      32.617  25.004  26.132  1.00  0.00     0.014 A 
ATOM     23  C   UNL A   1      31.301  23.171  25.251  1.00  0.00     0.033 A 
ATOM     24  C   UNL A   1      33.738  24.169  26.162  1.00  0.00     0.002 A 
ATOM     25  C   UNL A   1      32.401  22.315  25.374  1.00  0.00     0.053 A 
ATOM     26  C   UNL A   1      33.622  22.823  25.818  1.00  0.00     0.019 A 
BRANCH  25  27
ATOM     27  C   UNL A   1      32.315  20.904  25.128  1.00  0.00     0.099 C 
ATOM     28  N   UNL A   1      32.104  19.777  24.959  1.00  0.00    -0.192 NA
ENDBRANCH  25  27
ENDBRANCH  19  21
ENDBRANCH  15  19
ENDBRANCH   4   7
ENDBRANCH   2   3
ENDBRANCH   1   2
BRANCH   1  29
ATOM     29  C   UNL A   1      31.880  31.844  26.858  1.00  0.00     0.023 C 
BRANCH  29  30
ATOM     30  C   UNL A   1      32.992  32.705  27.412  1.00  0.00     0.116 C 
BRANCH  30  31
ATOM     31  N   UNL A   1      32.589  34.087  27.675  1.00  0.00    -0.352 N 
ATOM     32  C   UNL A   1      33.036  34.958  28.645  1.00  0.00     0.251 C 
ATOM     33  H   UNL A   1      31.899  34.446  27.072  1.00  0.00     0.163 HD
ATOM     34  O   UNL A   1      32.514  36.057  28.788  1.00  0.00    -0.269 OA
BRANCH  32  35
ATOM     35  C   UNL A   1      34.160  34.528  29.494  1.00  0.00     0.039 A 
ATOM     36  C   UNL A   1      33.931  33.912  30.725  1.00  0.00     0.014 A 
ATOM     37  C   UNL A   1      35.450  34.642  28.982  1.00  0.00     0.014 A 
ATOM     38  C   UNL A   1      35.005  33.329  31.400  1.00  0.00     0.010 A 
ATOM     39  C   UNL A   1      36.468  33.911  29.556  1.00  0.00     0.010 A 
ATOM     40  C   UNL A   1      36.272  33.291  30.798  1.00  0.00    -0.014 A 
BRANCH  40  41
ATOM     41  C   UNL A   1      37.460  32.711  31.463  1.00  0.00     0.031 A 
ATOM     42  C   UNL A   1      38.163  31.562  30.792  1.00  0.00     0.074 A 
ATOM     43  C   UNL A   1      37.835  33.123  32.686  1.00  0.00     0.049 A 
ATOM     44  N   UNL A   1      39.110  30.784  31.248  1.00  0.00    -0.248 NA
ATOM     45  C   UNL A   1      37.690  31.199  29.443  1.00  0.00     0.031 C 
ATOM     46  C   UNL A   1      37.192  34.186  33.461  1.00  0.00     0.029 A 
ATOM     47  N   UNL A   1      38.841  32.674  33.504  1.00  0.00    -0.354 N 
ATOM     48  C   UNL A   1      39.316  29.834  30.256  1.00  0.00     0.074 A 
ATOM     49  C   UNL A   1      38.325  30.061  29.232  1.00  0.00     0.031 C 
ATOM     50  C   UNL A   1      37.835  34.321  34.632  1.00  0.00     0.029 A 
ATOM     51  C   UNL A   1      38.900  33.324  34.710  1.00  0.00     0.049 A 
ATOM     52  H   UNL A   1      39.462  31.954  33.247  1.00  0.00     0.167 HD
ATOM     53  C   UNL A   1      40.277  28.885  30.181  1.00  0.00     0.037 A 
ATOM     54  C   UNL A   1      39.715  33.123  35.763  1.00  0.00     0.037 A 
ATOM     55  C   UNL A   1      41.271  28.684  31.197  1.00  0.00     0.049 A 
ATOM     56  C   UNL A   1      40.769  32.052  35.675  1.00  0.00     0.074 A 
ATOM     57  C   UNL A   1      42.326  27.793  31.208  1.00  0.00     0.029 A 
ATOM     58  N   UNL A   1      41.324  29.387  32.394  1.00  0.00    -0.354 N 
ATOM     59  N   UNL A   1      41.010  31.204  34.703  1.00  0.00    -0.248 NA
ATOM     60  C   UNL A   1      41.672  31.916  36.824  1.00  0.00     0.031 C 
ATOM     61  C   UNL A   1      42.975  27.905  32.442  1.00  0.00     0.029 A 
ATOM     62  C   UNL A   1      42.375  28.925  33.167  1.00  0.00     0.049 A 
ATOM     63  H   UNL A   1      40.706  30.108  32.653  1.00  0.00     0.167 HD
ATOM     64  C   UNL A   1      42.107  30.453  35.109  1.00  0.00     0.074 A 
ATOM     65  C   UNL A   1      42.491  30.959  36.411  1.00  0.00     0.031 C 
ATOM     66  C   UNL A   1      42.739  29.441  34.464  1.00  0.00     0.037 A 
BRANCH  53  67
ATOM     67  C   UNL A   1      40.276  28.005  28.961  1.00  0.00     0.064 A 
ATOM     68  C   UNL A   1      39.593  26.776  28.932  1.00  0.00     0.173 A 
ATOM     69  C   UNL A   1      40.994  28.378  27.816  1.00  0.00     0.173 A 
ATOM     70  F   UNL A   1      38.901  26.360  30.004  1.00  0.00    -0.203 F 
ATOM     71  C   UNL A   1      39.684  25.930  27.830  1.00  0.00     0.198 A 
ATOM     72  C   UNL A   1      41.042  27.550  26.697  1.00  0.00     0.198 A 
ATOM     73  F   UNL A   1      41.662  29.540  27.784  1.00  0.00    -0.203 F 
ATOM     74  F   UNL A   1      39.104  24.722  27.867  1.00  0.00    -0.200 F 
ATOM     75  C   UNL A   1      40.403  26.319  26.712  1.00  0.00     0.200 A 
ATOM     76  F   UNL A   1      41.724  27.936  25.610  1.00  0.00    -0.200 F 
ATOM     77  F   UNL A   1      40.494  25.503  25.654  1.00  0.00    -0.200 F 
ENDBRANCH  53  67
BRANCH  54  78
ATOM     78  C   UNL A   1      39.568  33.969  36.977  1.00  0.00     0.064 A 
ATOM     79  C   UNL A   1      40.168  35.234  37.055  1.00  0.00     0.173 A 
ATOM     80  C   UNL A   1      38.803  33.543  38.072  1.00  0.00     0.173 A 
ATOM     81  F   UNL A   1      40.926  35.680  36.041  1.00  0.00    -0.203 F 
ATOM     82  C   UNL A   1      40.019  36.034  38.185  1.00  0.00     0.198 A 
ATOM     83  C   UNL A   1      38.628  34.358  39.190  1.00  0.00     0.198 A 
ATOM     84  F   UNL A   1      38.202  32.344  38.047  1.00  0.00    -0.203 F 
ATOM     85  F   UNL A   1      40.636  37.222  38.250  1.00  0.00    -0.200 F 
ATOM     86  C   UNL A   1      39.242  35.599  39.248  1.00  0.00     0.200 A 
ATOM     87  F   UNL A   1      37.860  33.941  40.206  1.00  0.00    -0.200 F 
ATOM     88  F   UNL A   1      39.087  36.374  40.330  1.00  0.00    -0.200 F 
ENDBRANCH  54  78
BRANCH  66  89
ATOM     89  C   UNL A   1      43.938  28.833  35.137  1.00  0.00     0.064 A 
ATOM     90  C   UNL A   1      43.828  27.720  35.984  1.00  0.00     0.173 A 
ATOM     91  C   UNL A   1      45.221  29.342  34.887  1.00  0.00     0.173 A 
ATOM     92  F   UNL A   1      42.624  27.199  36.264  1.00  0.00    -0.203 F 
ATOM     93  C   UNL A   1      44.956  27.161  36.580  1.00  0.00     0.198 A 
ATOM     94  C   UNL A   1      46.350  28.755  35.453  1.00  0.00     0.198 A 
ATOM     95  F   UNL A   1      45.385  30.399  34.076  1.00  0.00    -0.203 F 
ATOM     96  F   UNL A   1      44.821  26.133  37.431  1.00  0.00    -0.200 F 
ATOM     97  C   UNL A   1      46.215  27.673  36.307  1.00  0.00     0.200 A 
ATOM     98  F   UNL A   1      47.568  29.237  35.167  1.00  0.00    -0.200 F 
ATOM     99  F   UNL A   1      47.300  27.125  36.871  1.00  0.00    -0.200 F 
ENDBRANCH  66  89
ENDBRANCH  40  41
ENDBRANCH  32  35
ENDBRANCH  30  31
ENDBRANCH  29  30
ENDBRANCH   1  29
TORSDOF 16
ENDMDL
MODEL 2
REMARK VINA RESULT:     -13.4      5.583     11.324
REMARK SMILES C=CCN1C[C@]2(C(=O)NCCCCNC(=O)c3ccc(-c4c5nc(c(-c6c(F)c(F)c(F)c(F)c6F)c6ccc([nH]6)c(-c6c(F)c(F)c(F)c(F)c6F)c6nc(c(-c7c(F)c(F)c(F)c(F)c7F)c7ccc4[nH]7)C=C6)C=C5)cc3)CN(C(=O)c3cccc(C#N)c3)C[C@H]2C1=O
REMARK SMILES IDX 11 1 10 2 9 3 7 4 8 5 6 7 4 8 5 9 94 10 93 11 95 12 80 13
REMARK SMILES IDX 92 14 81 15 3 16 2 17 1 18 82 19 83 20 84 21 85 22 91 23
REMARK SMILES IDX 86 24 88 25 87 26 89 27 90 28 12 29 13 30 14 31 15 32 16 34
REMARK SMILES IDX 17 35 18 36 79 37 19 38 78 39 20 40 21 41 22 42 72 43 23 44
REMARK SMILES IDX 77 45 71 46 73 47 24 48 76 49 70 50 69 51 25 53 57 54 37 55
REMARK SMILES IDX 56 56 38 57 41 58 55 59 74 60 39 61 40 62 54 64 75 65 42 66
REMARK SMILES IDX 26 67 27 68 35 69 28 70 29 71 33 72 36 73 30 74 31 75 34 76
REMARK SMILES IDX 32 77 58 78 59 79 67 80 60 81 61 82 65 83 68 84 62 85 63 86
REMARK SMILES IDX 66 87 64 88 43 89 44 90 52 91 45 92 46 93 50 94 53 95 47 96
REMARK SMILES IDX 48 97 51 98 49 99
REMARK H PARENT 9 6 14 33 73 52 41 63
REMARK Flexibility Score: inf
ROOT
ATOM      1  C   UNL A   1      36.693  20.189  25.023  1.00  0.00     0.023 C 
ENDROOT
BRANCH   1   2
ATOM      2  C   UNL A   1      36.280  21.615  25.338  1.00  0.00     0.116 C 
BRANCH   2   3
ATOM      3  N   UNL A   1      35.520  21.596  26.568  1.00  0.00    -0.355 N 
ATOM      4  C   UNL A   1      34.178  21.895  26.638  1.00  0.00     0.230 C 
ATOM      5  O   UNL A   1      33.677  22.251  27.701  1.00  0.00    -0.274 OA
ATOM      6  H   UNL A   1      35.988  21.356  27.400  1.00  0.00     0.163 HD
BRANCH   4   7
ATOM      7  C   UNL A   1      33.422  21.656  25.328  1.00  0.00     0.097 C 
ATOM      8  N   UNL A   1      32.961  19.348  24.861  1.00  0.00    -0.337 N 
ATOM      9  C   UNL A   1      33.025  20.243  26.000  1.00  0.00     0.139 C 
ATOM     10  C   UNL A   1      32.423  20.041  23.800  1.00  0.00     0.229 C 
ATOM     11  C   UNL A   1      32.245  21.436  24.325  1.00  0.00     0.117 C 
ATOM     12  O   UNL A   1      32.094  19.609  22.714  1.00  0.00    -0.274 OA
ATOM     13  C   UNL A   1      33.041  23.227  25.350  1.00  0.00     0.139 C 
ATOM     14  C   UNL A   1      32.353  22.469  23.232  1.00  0.00     0.134 C 
ATOM     15  N   UNL A   1      32.933  23.588  23.925  1.00  0.00    -0.337 N 
BRANCH   8  16
ATOM     16  C   UNL A   1      33.140  17.904  24.857  1.00  0.00     0.146 C 
BRANCH  16  17
ATOM     17  C   UNL A   1      34.315  17.472  24.036  1.00  0.00    -0.014 C 
ATOM     18  C   UNL A   1      34.222  16.773  22.895  1.00  0.00     0.006 C 
ENDBRANCH  16  17
ENDBRANCH   8  16
BRANCH  15  19
ATOM     19  C   UNL A   1      33.420  24.649  23.167  1.00  0.00     0.253 C 
ATOM     20  O   UNL A   1      34.173  24.480  22.209  1.00  0.00    -0.269 OA
BRANCH  19  21
ATOM     21  C   UNL A   1      33.111  26.056  23.500  1.00  0.00     0.041 A 
ATOM     22  C   UNL A   1      33.812  26.712  24.511  1.00  0.00     0.014 A 
ATOM     23  C   UNL A   1      31.993  26.674  22.911  1.00  0.00     0.033 A 
ATOM     24  C   UNL A   1      33.447  28.012  24.877  1.00  0.00     0.002 A 
ATOM     25  C   UNL A   1      31.694  28.007  23.212  1.00  0.00     0.053 A 
ATOM     26  C   UNL A   1      32.416  28.668  24.206  1.00  0.00     0.019 A 
BRANCH  25  27
ATOM     27  C   UNL A   1      30.711  28.762  22.488  1.00  0.00     0.099 C 
ATOM     28  N   UNL A   1      30.009  29.364  21.791  1.00  0.00    -0.192 NA
ENDBRANCH  25  27
ENDBRANCH  19  21
ENDBRANCH  15  19
ENDBRANCH   4   7
ENDBRANCH   2   3
ENDBRANCH   1   2
BRANCH   1  29
ATOM     29  C   UNL A   1      38.167  20.041  24.713  1.00  0.00     0.023 C 
BRANCH  29  30
ATOM     30  C   UNL A   1      39.005  20.013  25.971  1.00  0.00     0.116 C 
BRANCH  30  31
ATOM     31  N   UNL A   1      40.173  19.137  25.879  1.00  0.00    -0.352 N 
ATOM     32  C   UNL A   1      41.506  19.436  26.052  1.00  0.00     0.251 C 
ATOM     33  H   UNL A   1      39.977  18.197  25.661  1.00  0.00     0.163 HD
ATOM     34  O   UNL A   1      42.370  18.595  25.839  1.00  0.00    -0.269 OA
BRANCH  32  35
ATOM     35  C   UNL A   1      41.855  20.793  26.508  1.00  0.00     0.039 A 
ATOM     36  C   UNL A   1      42.210  21.032  27.836  1.00  0.00     0.014 A 
ATOM     37  C   UNL A   1      41.937  21.805  25.554  1.00  0.00     0.014 A 
ATOM     38  C   UNL A   1      42.737  22.277  28.182  1.00  0.00     0.010 A 
ATOM     39  C   UNL A   1      42.623  22.961  25.858  1.00  0.00     0.010 A 
ATOM     40  C   UNL A   1      42.983  23.234  27.185  1.00  0.00    -0.014 A 
BRANCH  40  41
ATOM     41  C   UNL A   1      43.518  24.582  27.481  1.00  0.00     0.031 A 
ATOM     42  C   UNL A   1      42.568  25.630  27.996  1.00  0.00     0.074 A 
ATOM     43  C   UNL A   1      44.792  24.896  27.191  1.00  0.00     0.049 A 
ATOM     44  N   UNL A   1      42.755  26.912  28.166  1.00  0.00    -0.248 NA
ATOM     45  C   UNL A   1      41.197  25.180  28.302  1.00  0.00     0.031 C 
ATOM     46  C   UNL A   1      45.789  23.982  26.631  1.00  0.00     0.029 A 
ATOM     47  N   UNL A   1      45.461  26.089  27.309  1.00  0.00    -0.354 N 
ATOM     48  C   UNL A   1      41.523  27.414  28.568  1.00  0.00     0.074 A 
ATOM     49  C   UNL A   1      40.577  26.328  28.505  1.00  0.00     0.031 C 
ATOM     50  C   UNL A   1      46.947  24.643  26.475  1.00  0.00     0.029 A 
ATOM     51  C   UNL A   1      46.761  26.035  26.877  1.00  0.00     0.049 A 
ATOM     52  H   UNL A   1      45.045  26.905  27.671  1.00  0.00     0.167 HD
ATOM     53  C   UNL A   1      41.218  28.660  28.997  1.00  0.00     0.037 A 
ATOM     54  C   UNL A   1      47.689  27.007  26.801  1.00  0.00     0.037 A 
ATOM     55  C   UNL A   1      42.176  29.727  29.076  1.00  0.00     0.049 A 
ATOM     56  C   UNL A   1      47.332  28.394  27.266  1.00  0.00     0.074 A 
ATOM     57  C   UNL A   1      41.998  31.013  29.546  1.00  0.00     0.029 A 
ATOM     58  N   UNL A   1      43.498  29.627  28.664  1.00  0.00    -0.354 N 
ATOM     59  N   UNL A   1      46.186  28.848  27.717  1.00  0.00    -0.248 NA
ATOM     60  C   UNL A   1      48.399  29.402  27.222  1.00  0.00     0.031 C 
ATOM     61  C   UNL A   1      43.192  31.714  29.350  1.00  0.00     0.029 A 
ATOM     62  C   UNL A   1      44.139  30.841  28.836  1.00  0.00     0.049 A 
ATOM     63  H   UNL A   1      43.917  28.812  28.302  1.00  0.00     0.167 HD
ATOM     64  C   UNL A   1      46.399  30.183  28.036  1.00  0.00     0.074 A 
ATOM     65  C   UNL A   1      47.790  30.460  27.740  1.00  0.00     0.031 C 
ATOM     66  C   UNL A   1      45.526  31.096  28.531  1.00  0.00     0.037 A 
BRANCH  53  67
ATOM     67  C   UNL A   1      39.792  28.914  29.401  1.00  0.00     0.064 A 
ATOM     68  C   UNL A   1      39.343  28.704  30.718  1.00  0.00     0.173 A 
ATOM     69  C   UNL A   1      38.850  29.341  28.454  1.00  0.00     0.173 A 
ATOM     70  F   UNL A   1      40.196  28.282  31.664  1.00  0.00    -0.203 F 
ATOM     71  C   UNL A   1      37.999  28.850  31.051  1.00  0.00     0.198 A 
ATOM     72  C   UNL A   1      37.516  29.533  28.803  1.00  0.00     0.198 A 
ATOM     73  F   UNL A   1      39.219  29.560  27.184  1.00  0.00    -0.203 F 
ATOM     74  F   UNL A   1      37.583  28.550  32.289  1.00  0.00    -0.200 F 
ATOM     75  C   UNL A   1      37.088  29.270  30.095  1.00  0.00     0.200 A 
ATOM     76  F   UNL A   1      36.639  29.955  27.881  1.00  0.00    -0.200 F 
ATOM     77  F   UNL A   1      35.794  29.406  30.415  1.00  0.00    -0.200 F 
ENDBRANCH  53  67
BRANCH  54  78
ATOM     78  C   UNL A   1      49.045  26.689  26.281  1.00  0.00     0.064 A 
ATOM     79  C   UNL A   1      50.026  26.127  27.109  1.00  0.00     0.173 A 
ATOM     80  C   UNL A   1      49.379  26.913  24.937  1.00  0.00     0.173 A 
ATOM     81  F   UNL A   1      49.763  25.910  28.407  1.00  0.00    -0.203 F 
ATOM     82  C   UNL A   1      51.292  25.815  26.618  1.00  0.00     0.198 A 
ATOM     83  C   UNL A   1      50.635  26.570  24.439  1.00  0.00     0.198 A 
ATOM     84  F   UNL A   1      48.475  27.442  24.099  1.00  0.00    -0.203 F 
ATOM     85  F   UNL A   1      52.225  25.316  27.443  1.00  0.00    -0.200 F 
ATOM     86  C   UNL A   1      51.593  26.028  25.282  1.00  0.00     0.200 A 
ATOM     87  F   UNL A   1      50.914  26.761  23.142  1.00  0.00    -0.200 F 
ATOM     88  F   UNL A   1      52.806  25.715  24.806  1.00  0.00    -0.200 F 
ENDBRANCH  54  78
BRANCH  66  89
ATOM     89  C   UNL A   1      46.054  32.474  28.820  1.00  0.00     0.064 A 
ATOM     90  C   UNL A   1      46.682  32.789  30.034  1.00  0.00     0.173 A 
ATOM     91  C   UNL A   1      45.976  33.478  27.843  1.00  0.00     0.173 A 
ATOM     92  F   UNL A   1      46.775  31.868  31.006  1.00  0.00    -0.203 F 
ATOM     93  C   UNL A   1      47.181  34.067  30.271  1.00  0.00     0.198 A 
ATOM     94  C   UNL A   1      46.513  34.743  28.068  1.00  0.00     0.198 A 
ATOM     95  F   UNL A   1      45.397  33.228  26.658  1.00  0.00    -0.203 F 
ATOM     96  F   UNL A   1      47.725  34.361  31.460  1.00  0.00    -0.200 F 
ATOM     97  C   UNL A   1      47.104  35.039  29.285  1.00  0.00     0.200 A 
ATOM     98  F   UNL A   1      46.459  35.672  27.104  1.00  0.00    -0.200 F 
ATOM     99  F   UNL A   1      47.597  36.264  29.510  1.00  0.00    -0.200 F 
ENDBRANCH  66  89
ENDBRANCH  40  41
ENDBRANCH  32  35
ENDBRANCH  30  31
ENDBRANCH  29  30
ENDBRANCH   1  29
TORSDOF 16
ENDMDL
MODEL 3
REMARK VINA RESULT:     -13.3      5.860     11.496
REMARK SMILES C=CCN1C[C@]2(C(=O)NCCCCNC(=O)c3ccc(-c4c5nc(c(-c6c(F)c(F)c(F)c(F)c6F)c6ccc([nH]6)c(-c6c(F)c(F)c(F)c(F)c6F)c6nc(c(-c7c(F)c(F)c(F)c(F)c7F)c7ccc4[nH]7)C=C6)C=C5)cc3)CN(C(=O)c3cccc(C#N)c3)C[C@H]2C1=O
REMARK SMILES IDX 11 1 10 2 9 3 7 4 8 5 6 7 4 8 5 9 94 10 93 11 95 12 80 13
REMARK SMILES IDX 92 14 81 15 3 16 2 17 1 18 82 19 83 20 84 21 85 22 91 23
REMARK SMILES IDX 86 24 88 25 87 26 89 27 90 28 12 29 13 30 14 31 15 32 16 34
REMARK SMILES IDX 17 35 18 36 79 37 19 38 78 39 20 40 21 41 22 42 72 43 23 44
REMARK SMILES IDX 77 45 71 46 73 47 24 48 76 49 70 50 69 51 25 53 57 54 37 55
REMARK SMILES IDX 56 56 38 57 41 58 55 59 74 60 39 61 40 62 54 64 75 65 42 66
REMARK SMILES IDX 26 67 27 68 35 69 28 70 29 71 33 72 36 73 30 74 31 75 34 76
REMARK SMILES IDX 32 77 58 78 59 79 67 80 60 81 61 82 65 83 68 84 62 85 63 86
REMARK SMILES IDX 66 87 64 88 43 89 44 90 52 91 45 92 46 93 50 94 53 95 47 96
REMARK SMILES IDX 48 97 51 98 49 99
REMARK H PARENT 9 6 14 33 73 52 41 63
REMARK Flexibility Score: inf
ROOT
ATOM      1  C   UNL A   1      36.870  19.927  24.979  1.00  0.00     0.023 C 
ENDROOT
BRANCH   1   2
ATOM      2  C   UNL A   1      36.411  21.374  24.989  1.00  0.00     0.116 C 
BRANCH   2   3
ATOM      3  N   UNL A   1      35.755  21.621  26.253  1.00  0.00    -0.355 N 
ATOM      4  C   UNL A   1      34.450  22.048  26.362  1.00  0.00     0.230 C 
ATOM      5  O   UNL A   1      34.066  22.615  27.382  1.00  0.00    -0.274 OA
ATOM      6  H   UNL A   1      36.269  21.479  27.081  1.00  0.00     0.163 HD
BRANCH   4   7
ATOM      7  C   UNL A   1      33.574  21.670  25.165  1.00  0.00     0.097 C 
ATOM      8  N   UNL A   1      33.113  19.322  24.981  1.00  0.00    -0.337 N 
ATOM      9  C   UNL A   1      33.272  20.329  26.012  1.00  0.00     0.139 C 
ATOM     10  C   UNL A   1      32.461  19.899  23.915  1.00  0.00     0.229 C 
ATOM     11  C   UNL A   1      32.308  21.338  24.311  1.00  0.00     0.117 C 
ATOM     12  O   UNL A   1      32.035  19.355  22.916  1.00  0.00    -0.274 OA
ATOM     13  C   UNL A   1      33.167  23.231  25.067  1.00  0.00     0.139 C 
ATOM     14  C   UNL A   1      32.288  22.255  23.115  1.00  0.00     0.134 C 
ATOM     15  N   UNL A   1      32.913  23.444  23.630  1.00  0.00    -0.337 N 
BRANCH   8  16
ATOM     16  C   UNL A   1      33.319  17.887  25.105  1.00  0.00     0.146 C 
BRANCH  16  17
ATOM     17  C   UNL A   1      34.412  17.383  24.215  1.00  0.00    -0.014 C 
ATOM     18  C   UNL A   1      34.210  16.621  23.129  1.00  0.00     0.006 C 
ENDBRANCH  16  17
ENDBRANCH   8  16
BRANCH  15  19
ATOM     19  C   UNL A   1      33.302  24.427  22.726  1.00  0.00     0.253 C 
ATOM     20  O   UNL A   1      33.653  24.160  21.577  1.00  0.00    -0.269 OA
BRANCH  19  21
ATOM     21  C   UNL A   1      33.377  25.854  23.103  1.00  0.00     0.041 A 
ATOM     22  C   UNL A   1      33.406  26.843  22.121  1.00  0.00     0.014 A 
ATOM     23  C   UNL A   1      33.591  26.201  24.449  1.00  0.00     0.033 A 
ATOM     24  C   UNL A   1      33.569  28.182  22.489  1.00  0.00     0.002 A 
ATOM     25  C   UNL A   1      33.656  27.548  24.822  1.00  0.00     0.053 A 
ATOM     26  C   UNL A   1      33.658  28.535  23.835  1.00  0.00     0.019 A 
BRANCH  25  27
ATOM     27  C   UNL A   1      33.650  27.974  26.192  1.00  0.00     0.099 C 
ATOM     28  N   UNL A   1      33.577  28.437  27.251  1.00  0.00    -0.192 NA
ENDBRANCH  25  27
ENDBRANCH  19  21
ENDBRANCH  15  19
ENDBRANCH   4   7
ENDBRANCH   2   3
ENDBRANCH   1   2
BRANCH   1  29
ATOM     29  C   UNL A   1      38.338  19.761  24.649  1.00  0.00     0.023 C 
BRANCH  29  30
ATOM     30  C   UNL A   1      39.200  19.801  25.891  1.00  0.00     0.116 C 
BRANCH  30  31
ATOM     31  N   UNL A   1      40.380  18.940  25.815  1.00  0.00    -0.352 N 
ATOM     32  C   UNL A   1      41.711  19.266  25.964  1.00  0.00     0.251 C 
ATOM     33  H   UNL A   1      40.197  17.991  25.629  1.00  0.00     0.163 HD
ATOM     34  O   UNL A   1      42.585  18.431  25.768  1.00  0.00    -0.269 OA
BRANCH  32  35
ATOM     35  C   UNL A   1      42.042  20.641  26.372  1.00  0.00     0.039 A 
ATOM     36  C   UNL A   1      42.320  20.944  27.705  1.00  0.00     0.014 A 
ATOM     37  C   UNL A   1      42.189  21.604  25.376  1.00  0.00     0.014 A 
ATOM     38  C   UNL A   1      42.835  22.202  28.020  1.00  0.00     0.010 A 
ATOM     39  C   UNL A   1      42.865  22.771  25.663  1.00  0.00     0.010 A 
ATOM     40  C   UNL A   1      43.148  23.107  26.994  1.00  0.00    -0.014 A 
BRANCH  40  41
ATOM     41  C   UNL A   1      43.676  24.466  27.254  1.00  0.00     0.031 A 
ATOM     42  C   UNL A   1      42.718  25.523  27.733  1.00  0.00     0.074 A 
ATOM     43  C   UNL A   1      44.951  24.777  26.964  1.00  0.00     0.049 A 
ATOM     44  N   UNL A   1      42.898  26.811  27.868  1.00  0.00    -0.248 NA
ATOM     45  C   UNL A   1      41.347  25.077  28.043  1.00  0.00     0.031 C 
ATOM     46  C   UNL A   1      45.955  23.851  26.437  1.00  0.00     0.029 A 
ATOM     47  N   UNL A   1      45.613  25.975  27.052  1.00  0.00    -0.354 N 
ATOM     48  C   UNL A   1      41.662  27.319  28.246  1.00  0.00     0.074 A 
ATOM     49  C   UNL A   1      40.720  26.227  28.209  1.00  0.00     0.031 C 
ATOM     50  C   UNL A   1      47.111  24.512  26.270  1.00  0.00     0.029 A 
ATOM     51  C   UNL A   1      46.917  25.914  26.630  1.00  0.00     0.049 A 
ATOM     52  H   UNL A   1      45.192  26.799  27.388  1.00  0.00     0.167 HD
ATOM     53  C   UNL A   1      41.349  28.575  28.637  1.00  0.00     0.037 A 
ATOM     54  C   UNL A   1      47.842  26.888  26.533  1.00  0.00     0.037 A 
ATOM     55  C   UNL A   1      42.302  29.648  28.692  1.00  0.00     0.049 A 
ATOM     56  C   UNL A   1      47.476  28.285  26.955  1.00  0.00     0.074 A 
ATOM     57  C   UNL A   1      42.115  30.946  29.123  1.00  0.00     0.029 A 
ATOM     58  N   UNL A   1      43.627  29.542  28.291  1.00  0.00    -0.354 N 
ATOM     59  N   UNL A   1      46.325  28.747  27.385  1.00  0.00    -0.248 NA
ATOM     60  C   UNL A   1      48.538  29.296  26.889  1.00  0.00     0.031 C 
ATOM     61  C   UNL A   1      43.308  31.647  28.915  1.00  0.00     0.029 A 
ATOM     62  C   UNL A   1      44.263  30.763  28.432  1.00  0.00     0.049 A 
ATOM     63  H   UNL A   1      44.052  28.719  27.956  1.00  0.00     0.167 HD
ATOM     64  C   UNL A   1      46.530  30.092  27.667  1.00  0.00     0.074 A 
ATOM     65  C   UNL A   1      47.922  30.366  27.372  1.00  0.00     0.031 C 
ATOM     66  C   UNL A   1      45.651  31.015  28.130  1.00  0.00     0.037 A 
BRANCH  53  67
ATOM     67  C   UNL A   1      39.919  28.834  29.025  1.00  0.00     0.064 A 
ATOM     68  C   UNL A   1      39.465  28.671  30.346  1.00  0.00     0.173 A 
ATOM     69  C   UNL A   1      38.980  29.220  28.058  1.00  0.00     0.173 A 
ATOM     70  F   UNL A   1      40.316  28.290  31.311  1.00  0.00    -0.203 F 
ATOM     71  C   UNL A   1      38.119  28.820  30.666  1.00  0.00     0.198 A 
ATOM     72  C   UNL A   1      37.642  29.416  28.392  1.00  0.00     0.198 A 
ATOM     73  F   UNL A   1      39.354  29.395  26.782  1.00  0.00    -0.203 F 
ATOM     74  F   UNL A   1      37.697  28.564  31.913  1.00  0.00    -0.200 F 
ATOM     75  C   UNL A   1      37.210  29.198  29.692  1.00  0.00     0.200 A 
ATOM     76  F   UNL A   1      36.768  29.798  27.452  1.00  0.00    -0.200 F 
ATOM     77  F   UNL A   1      35.913  29.337  30.000  1.00  0.00    -0.200 F 
ENDBRANCH  53  67
BRANCH  54  78
ATOM     78  C   UNL A   1      49.202  26.560  26.030  1.00  0.00     0.064 A 
ATOM     79  C   UNL A   1      49.575  26.843  24.709  1.00  0.00     0.173 A 
ATOM     80  C   UNL A   1      50.168  25.983  26.869  1.00  0.00     0.173 A 
ATOM     81  F   UNL A   1      48.682  27.378  23.861  1.00  0.00    -0.203 F 
ATOM     82  C   UNL A   1      50.854  26.550  24.242  1.00  0.00     0.198 A 
ATOM     83  C   UNL A   1      51.457  25.720  26.410  1.00  0.00     0.198 A 
ATOM     84  F   UNL A   1      49.866  25.698  28.145  1.00  0.00    -0.203 F 
ATOM     85  F   UNL A   1      51.171  26.794  22.963  1.00  0.00    -0.200 F 
ATOM     86  C   UNL A   1      51.797  25.997  25.095  1.00  0.00     0.200 A 
ATOM     87  F   UNL A   1      52.370  25.204  27.244  1.00  0.00    -0.200 F 
ATOM     88  F   UNL A   1      53.032  25.728  24.650  1.00  0.00    -0.200 F 
ENDBRANCH  54  78
BRANCH  66  89
ATOM     89  C   UNL A   1      46.171  32.403  28.382  1.00  0.00     0.064 A 
ATOM     90  C   UNL A   1      46.118  33.405  27.403  1.00  0.00     0.173 A 
ATOM     91  C   UNL A   1      46.682  32.746  29.644  1.00  0.00     0.173 A 
ATOM     92  F   UNL A   1      45.647  33.129  26.177  1.00  0.00    -0.203 F 
ATOM     93  C   UNL A   1      46.588  34.690  27.667  1.00  0.00     0.198 A 
ATOM     94  C   UNL A   1      47.113  34.041  29.916  1.00  0.00     0.198 A 
ATOM     95  F   UNL A   1      46.745  31.829  30.621  1.00  0.00    -0.203 F 
ATOM     96  F   UNL A   1      46.580  35.615  26.697  1.00  0.00    -0.200 F 
ATOM     97  C   UNL A   1      47.075  35.008  28.925  1.00  0.00     0.200 A 
ATOM     98  F   UNL A   1      47.560  34.352  31.141  1.00  0.00    -0.200 F 
ATOM     99  F   UNL A   1      47.514  36.248  29.181  1.00  0.00    -0.200 F 
ENDBRANCH  66  89
ENDBRANCH  40  41
ENDBRANCH  32  35
ENDBRANCH  30  31
ENDBRANCH  29  30
ENDBRANCH   1  29
TORSDOF 16
ENDMDL
