MODEL 1
REMARK VINA RESULT:     -12.7      0.000      0.000
REMARK SMILES C[C@@H](C(=O)NCCCCNC(=O)c1ccc(-c2c3nc(c(-c4c(F)c(F)c(F)c(F)c4F)c4ccc([nH]4)c(-c4c(F)c(F)c(F)c(F)c4F)c4nc(c(-c5c(F)c(F)c(F)c(F)c5F)c5ccc2[nH]5)C=C4)C=C3)cc1)c1ccc(NC2CCCC2)cc1F
REMARK SMILES IDX 7 1 6 2 5 3 3 4 4 5 2 7 1 8 76 9 77 10 87 11 78 12 86 13
REMARK SMILES IDX 88 14 79 15 80 16 81 18 82 19 85 20 83 21 84 22 8 23 9 24
REMARK SMILES IDX 10 25 11 26 12 28 13 29 14 30 75 31 15 32 74 33 16 34 17 35
REMARK SMILES IDX 18 36 68 37 19 38 73 39 67 40 69 41 20 42 72 43 66 44 65 45
REMARK SMILES IDX 21 47 53 48 33 49 52 50 34 51 37 52 51 53 70 54 35 55 36 56
REMARK SMILES IDX 50 58 71 59 38 60 22 61 23 62 31 63 24 64 25 65 29 66 32 67
REMARK SMILES IDX 26 68 27 69 30 70 28 71 54 72 55 73 63 74 56 75 57 76 61 77
REMARK SMILES IDX 64 78 58 79 59 80 62 81 60 82 39 83 40 84 48 85 41 86 42 87
REMARK SMILES IDX 46 88 49 89 43 90 44 91 47 92 45 93
REMARK H PARENT 5 6 80 17 10 27 69 46 37 57
REMARK Flexibility Score: inf
ROOT
ATOM      1  C   UNL A   1      31.853  30.437  26.876  1.00  0.00     0.023 C 
ENDROOT
BRANCH   1   2
ATOM      2  C   UNL A   1      32.665  29.890  25.703  1.00  0.00     0.116 C 
BRANCH   2   3
ATOM      3  N   UNL A   1      31.806  29.277  24.711  1.00  0.00    -0.356 N 
ATOM      4  C   UNL A   1      32.122  28.456  23.665  1.00  0.00     0.227 C 
ATOM      5  O   UNL A   1      31.193  28.113  22.931  1.00  0.00    -0.274 OA
ATOM      6  H   UNL A   1      30.848  29.482  24.805  1.00  0.00     0.163 HD
BRANCH   4   7
ATOM      7  C   UNL A   1      33.567  27.964  23.491  1.00  0.00     0.108 C 
ATOM      8  C   UNL A   1      34.096  28.164  22.068  1.00  0.00     0.023 C 
BRANCH   7   9
ATOM      9  C   UNL A   1      33.733  26.520  23.934  1.00  0.00     0.000 A 
ATOM     10  C   UNL A   1      33.689  25.488  22.993  1.00  0.00     0.009 A 
ATOM     11  C   UNL A   1      33.937  26.170  25.269  1.00  0.00     0.129 A 
ATOM     12  C   UNL A   1      33.808  24.151  23.395  1.00  0.00     0.026 A 
ATOM     13  C   UNL A   1      34.038  24.837  25.667  1.00  0.00     0.065 A 
ATOM     14  F   UNL A   1      34.019  27.119  26.213  1.00  0.00    -0.207 F 
ATOM     15  C   UNL A   1      33.959  23.794  24.737  1.00  0.00     0.037 A 
BRANCH  15  16
ATOM     16  N   UNL A   1      34.043  22.497  25.197  1.00  0.00    -0.382 N 
ATOM     17  H   UNL A   1      34.275  22.404  26.150  1.00  0.00     0.160 HD
BRANCH  16  18
ATOM     18  C   UNL A   1      33.838  21.246  24.487  1.00  0.00     0.079 C 
ATOM     19  C   UNL A   1      34.752  20.108  24.921  1.00  0.00     0.025 C 
ATOM     20  C   UNL A   1      32.409  20.713  24.564  1.00  0.00     0.025 C 
ATOM     21  C   UNL A   1      34.016  18.866  24.444  1.00  0.00     0.002 C 
ATOM     22  C   UNL A   1      32.533  19.191  24.596  1.00  0.00     0.002 C 
ENDBRANCH  16  18
ENDBRANCH  15  16
ENDBRANCH   7   9
ENDBRANCH   4   7
ENDBRANCH   2   3
ENDBRANCH   1   2
BRANCH   1  23
ATOM     23  C   UNL A   1      31.637  31.952  26.850  1.00  0.00     0.023 C 
BRANCH  23  24
ATOM     24  C   UNL A   1      32.782  32.781  27.420  1.00  0.00     0.116 C 
BRANCH  24  25
ATOM     25  N   UNL A   1      32.402  34.157  27.704  1.00  0.00    -0.352 N 
ATOM     26  C   UNL A   1      32.955  35.033  28.605  1.00  0.00     0.251 C 
ATOM     27  H   UNL A   1      31.646  34.507  27.178  1.00  0.00     0.163 HD
ATOM     28  O   UNL A   1      32.440  36.128  28.809  1.00  0.00    -0.269 OA
BRANCH  26  29
ATOM     29  C   UNL A   1      34.158  34.631  29.360  1.00  0.00     0.039 A 
ATOM     30  C   UNL A   1      34.010  34.167  30.670  1.00  0.00     0.014 A 
ATOM     31  C   UNL A   1      35.419  34.664  28.757  1.00  0.00     0.014 A 
ATOM     32  C   UNL A   1      35.116  33.654  31.348  1.00  0.00     0.010 A 
ATOM     33  C   UNL A   1      36.507  34.096  29.412  1.00  0.00     0.010 A 
ATOM     34  C   UNL A   1      36.362  33.573  30.707  1.00  0.00    -0.014 A 
BRANCH  34  35
ATOM     35  C   UNL A   1      37.523  32.908  31.349  1.00  0.00     0.031 A 
ATOM     36  C   UNL A   1      38.170  31.724  30.692  1.00  0.00     0.074 A 
ATOM     37  C   UNL A   1      37.920  33.308  32.574  1.00  0.00     0.049 A 
ATOM     38  N   UNL A   1      39.102  30.929  31.155  1.00  0.00    -0.248 NA
ATOM     39  C   UNL A   1      37.688  31.369  29.349  1.00  0.00     0.031 C 
ATOM     40  C   UNL A   1      37.336  34.413  33.335  1.00  0.00     0.029 A 
ATOM     41  N   UNL A   1      38.892  32.809  33.408  1.00  0.00    -0.354 N 
ATOM     42  C   UNL A   1      39.297  29.967  30.173  1.00  0.00     0.074 A 
ATOM     43  C   UNL A   1      38.366  30.257  29.104  1.00  0.00     0.031 C 
ATOM     44  C   UNL A   1      37.957  34.509  34.521  1.00  0.00     0.029 A 
ATOM     45  C   UNL A   1      38.954  33.449  34.623  1.00  0.00     0.049 A 
ATOM     46  H   UNL A   1      39.485  32.065  33.158  1.00  0.00     0.167 HD
ATOM     47  C   UNL A   1      40.183  28.945  30.164  1.00  0.00     0.037 A 
ATOM     48  C   UNL A   1      39.713  33.191  35.705  1.00  0.00     0.037 A 
ATOM     49  C   UNL A   1      41.135  28.687  31.212  1.00  0.00     0.049 A 
ATOM     50  C   UNL A   1      40.689  32.047  35.665  1.00  0.00     0.074 A 
ATOM     51  C   UNL A   1      42.146  27.743  31.244  1.00  0.00     0.029 A 
ATOM     52  N   UNL A   1      41.187  29.371  32.416  1.00  0.00    -0.354 N 
ATOM     53  N   UNL A   1      40.929  31.200  34.694  1.00  0.00    -0.248 NA
ATOM     54  C   UNL A   1      41.497  31.820  36.871  1.00  0.00     0.031 C 
ATOM     55  C   UNL A   1      42.779  27.822  32.489  1.00  0.00     0.029 A 
ATOM     56  C   UNL A   1      42.191  28.846  33.213  1.00  0.00     0.049 A 
ATOM     57  H   UNL A   1      40.599  30.121  32.667  1.00  0.00     0.167 HD
ATOM     58  C   UNL A   1      41.926  30.356  35.163  1.00  0.00     0.074 A 
ATOM     59  C   UNL A   1      42.259  30.801  36.499  1.00  0.00     0.031 C 
ATOM     60  C   UNL A   1      42.511  29.303  34.541  1.00  0.00     0.037 A 
BRANCH  47  61
ATOM     61  C   UNL A   1      40.175  28.021  28.982  1.00  0.00     0.064 A 
ATOM     62  C   UNL A   1      40.887  28.316  27.811  1.00  0.00     0.173 A 
ATOM     63  C   UNL A   1      39.498  26.794  29.048  1.00  0.00     0.173 A 
ATOM     64  F   UNL A   1      41.544  29.480  27.695  1.00  0.00    -0.203 F 
ATOM     65  C   UNL A   1      40.907  27.424  26.741  1.00  0.00     0.198 A 
ATOM     66  C   UNL A   1      39.540  25.894  27.988  1.00  0.00     0.198 A 
ATOM     67  F   UNL A   1      38.806  26.461  30.149  1.00  0.00    -0.203 F 
ATOM     68  F   UNL A   1      41.565  27.743  25.618  1.00  0.00    -0.200 F 
ATOM     69  C   UNL A   1      40.240  26.211  26.834  1.00  0.00     0.200 A 
ATOM     70  F   UNL A   1      38.906  24.717  28.083  1.00  0.00    -0.200 F 
ATOM     71  F   UNL A   1      40.271  25.349  25.808  1.00  0.00    -0.200 F 
ENDBRANCH  47  61
BRANCH  48  72
ATOM     72  C   UNL A   1      39.577  34.029  36.925  1.00  0.00     0.064 A 
ATOM     73  C   UNL A   1      38.812  33.595  38.017  1.00  0.00     0.173 A 
ATOM     74  C   UNL A   1      40.193  35.286  37.019  1.00  0.00     0.173 A 
ATOM     75  F   UNL A   1      38.185  32.411  37.964  1.00  0.00    -0.203 F 
ATOM     76  C   UNL A   1      38.651  34.394  39.146  1.00  0.00     0.198 A 
ATOM     77  C   UNL A   1      40.053  36.073  38.160  1.00  0.00     0.198 A 
ATOM     78  F   UNL A   1      40.937  35.746  36.003  1.00  0.00    -0.203 F 
ATOM     79  F   UNL A   1      37.875  33.976  40.155  1.00  0.00    -0.200 F 
ATOM     80  C   UNL A   1      39.275  35.631  39.219  1.00  0.00     0.200 A 
ATOM     81  F   UNL A   1      40.669  37.261  38.231  1.00  0.00    -0.200 F 
ATOM     82  F   UNL A   1      39.119  36.400  40.306  1.00  0.00    -0.200 F 
ENDBRANCH  48  72
BRANCH  60  83
ATOM     83  C   UNL A   1      43.585  28.571  35.289  1.00  0.00     0.064 A 
ATOM     84  C   UNL A   1      43.279  27.506  36.149  1.00  0.00     0.173 A 
ATOM     85  C   UNL A   1      44.935  28.898  35.098  1.00  0.00     0.173 A 
ATOM     86  F   UNL A   1      42.001  27.167  36.376  1.00  0.00    -0.203 F 
ATOM     87  C   UNL A   1      44.289  26.804  36.803  1.00  0.00     0.198 A 
ATOM     88  C   UNL A   1      45.943  28.177  35.733  1.00  0.00     0.198 A 
ATOM     89  F   UNL A   1      45.278  29.905  34.281  1.00  0.00    -0.203 F 
ATOM     90  F   UNL A   1      43.973  25.814  37.648  1.00  0.00    -0.200 F 
ATOM     91  C   UNL A   1      45.618  27.134  36.587  1.00  0.00     0.200 A 
ATOM     92  F   UNL A   1      47.228  28.488  35.513  1.00  0.00    -0.200 F 
ATOM     93  F   UNL A   1      46.589  26.449  37.207  1.00  0.00    -0.200 F 
ENDBRANCH  60  83
ENDBRANCH  34  35
ENDBRANCH  26  29
ENDBRANCH  24  25
ENDBRANCH  23  24
ENDBRANCH   1  23
TORSDOF 14
ENDMDL
MODEL 2
REMARK VINA RESULT:     -12.6      0.724      2.210
REMARK SMILES C[C@@H](C(=O)NCCCCNC(=O)c1ccc(-c2c3nc(c(-c4c(F)c(F)c(F)c(F)c4F)c4ccc([nH]4)c(-c4c(F)c(F)c(F)c(F)c4F)c4nc(c(-c5c(F)c(F)c(F)c(F)c5F)c5ccc2[nH]5)C=C4)C=C3)cc1)c1ccc(NC2CCCC2)cc1F
REMARK SMILES IDX 7 1 6 2 5 3 3 4 4 5 2 7 1 8 76 9 77 10 87 11 78 12 86 13
REMARK SMILES IDX 88 14 79 15 80 16 81 18 82 19 85 20 83 21 84 22 8 23 9 24
REMARK SMILES IDX 10 25 11 26 12 28 13 29 14 30 75 31 15 32 74 33 16 34 17 35
REMARK SMILES IDX 18 36 68 37 19 38 73 39 67 40 69 41 20 42 72 43 66 44 65 45
REMARK SMILES IDX 21 47 53 48 33 49 52 50 34 51 37 52 51 53 70 54 35 55 36 56
REMARK SMILES IDX 50 58 71 59 38 60 22 61 23 62 31 63 24 64 25 65 29 66 32 67
REMARK SMILES IDX 26 68 27 69 30 70 28 71 54 72 55 73 63 74 56 75 57 76 61 77
REMARK SMILES IDX 64 78 58 79 59 80 62 81 60 82 39 83 40 84 48 85 41 86 42 87
REMARK SMILES IDX 46 88 49 89 43 90 44 91 47 92 45 93
REMARK H PARENT 5 6 80 17 10 27 69 46 37 57
REMARK Flexibility Score: inf
ROOT
ATOM      1  C   UNL A   1      32.078  30.224  26.712  1.00  0.00     0.023 C 
ENDROOT
BRANCH   1   2
ATOM      2  C   UNL A   1      32.581  29.814  25.329  1.00  0.00     0.116 C 
BRANCH   2   3
ATOM      3  N   UNL A   1      31.663  28.893  24.689  1.00  0.00    -0.356 N 
ATOM      4  C   UNL A   1      31.915  27.852  23.841  1.00  0.00     0.227 C 
ATOM      5  O   UNL A   1      30.936  27.255  23.393  1.00  0.00    -0.274 OA
ATOM      6  H   UNL A   1      30.713  29.040  24.898  1.00  0.00     0.163 HD
BRANCH   4   7
ATOM      7  C   UNL A   1      33.367  27.447  23.542  1.00  0.00     0.108 C 
ATOM      8  C   UNL A   1      33.709  27.516  22.051  1.00  0.00     0.023 C 
BRANCH   7   9
ATOM      9  C   UNL A   1      33.706  26.080  24.114  1.00  0.00     0.000 A 
ATOM     10  C   UNL A   1      33.883  24.988  23.262  1.00  0.00     0.009 A 
ATOM     11  C   UNL A   1      33.856  25.864  25.484  1.00  0.00     0.129 A 
ATOM     12  C   UNL A   1      34.162  23.717  23.781  1.00  0.00     0.026 A 
ATOM     13  C   UNL A   1      34.118  24.594  25.997  1.00  0.00     0.065 A 
ATOM     14  F   UNL A   1      33.729  26.881  26.349  1.00  0.00    -0.207 F 
ATOM     15  C   UNL A   1      34.261  23.485  25.155  1.00  0.00     0.037 A 
BRANCH  15  16
ATOM     16  N   UNL A   1      34.496  22.253  25.727  1.00  0.00    -0.382 N 
ATOM     17  H   UNL A   1      33.697  21.793  26.074  1.00  0.00     0.160 HD
BRANCH  16  18
ATOM     18  C   UNL A   1      35.745  21.530  25.892  1.00  0.00     0.079 C 
ATOM     19  C   UNL A   1      35.970  20.405  24.891  1.00  0.00     0.025 C 
ATOM     20  C   UNL A   1      36.988  22.416  25.842  1.00  0.00     0.025 C 
ATOM     21  C   UNL A   1      37.474  20.190  24.937  1.00  0.00     0.002 C 
ATOM     22  C   UNL A   1      38.073  21.573  25.176  1.00  0.00     0.002 C 
ENDBRANCH  16  18
ENDBRANCH  15  16
ENDBRANCH   7   9
ENDBRANCH   4   7
ENDBRANCH   2   3
ENDBRANCH   1   2
BRANCH   1  23
ATOM     23  C   UNL A   1      31.757  31.714  26.858  1.00  0.00     0.023 C 
BRANCH  23  24
ATOM     24  C   UNL A   1      32.895  32.572  27.396  1.00  0.00     0.116 C 
BRANCH  24  25
ATOM     25  N   UNL A   1      32.498  33.950  27.649  1.00  0.00    -0.352 N 
ATOM     26  C   UNL A   1      33.026  34.847  28.543  1.00  0.00     0.251 C 
ATOM     27  H   UNL A   1      31.750  34.284  27.102  1.00  0.00     0.163 HD
ATOM     28  O   UNL A   1      32.498  35.941  28.718  1.00  0.00    -0.269 OA
BRANCH  26  29
ATOM     29  C   UNL A   1      34.218  34.469  29.328  1.00  0.00     0.039 A 
ATOM     30  C   UNL A   1      34.043  33.908  30.596  1.00  0.00     0.014 A 
ATOM     31  C   UNL A   1      35.500  34.621  28.790  1.00  0.00     0.014 A 
ATOM     32  C   UNL A   1      35.149  33.420  31.292  1.00  0.00     0.010 A 
ATOM     33  C   UNL A   1      36.592  34.078  29.459  1.00  0.00     0.010 A 
ATOM     34  C   UNL A   1      36.425  33.460  30.708  1.00  0.00    -0.014 A 
BRANCH  34  35
ATOM     35  C   UNL A   1      37.597  32.826  31.361  1.00  0.00     0.031 A 
ATOM     36  C   UNL A   1      38.261  31.639  30.726  1.00  0.00     0.074 A 
ATOM     37  C   UNL A   1      37.990  33.254  32.576  1.00  0.00     0.049 A 
ATOM     38  N   UNL A   1      39.205  30.867  31.201  1.00  0.00    -0.248 NA
ATOM     39  C   UNL A   1      37.783  31.250  29.391  1.00  0.00     0.031 C 
ATOM     40  C   UNL A   1      37.390  34.365  33.317  1.00  0.00     0.029 A 
ATOM     41  N   UNL A   1      38.970  32.787  33.418  1.00  0.00    -0.354 N 
ATOM     42  C   UNL A   1      39.414  29.890  30.238  1.00  0.00     0.074 A 
ATOM     43  C   UNL A   1      38.478  30.144  29.165  1.00  0.00     0.031 C 
ATOM     44  C   UNL A   1      38.011  34.493  34.500  1.00  0.00     0.029 A 
ATOM     45  C   UNL A   1      39.025  33.451  34.620  1.00  0.00     0.049 A 
ATOM     46  H   UNL A   1      39.575  32.047  33.182  1.00  0.00     0.167 HD
ATOM     47  C   UNL A   1      40.316  28.881  30.247  1.00  0.00     0.037 A 
ATOM     48  C   UNL A   1      39.789  33.226  35.706  1.00  0.00     0.037 A 
ATOM     49  C   UNL A   1      41.273  28.658  31.298  1.00  0.00     0.049 A 
ATOM     50  C   UNL A   1      40.782  32.096  35.686  1.00  0.00     0.074 A 
ATOM     51  C   UNL A   1      42.299  27.731  31.346  1.00  0.00     0.029 A 
ATOM     52  N   UNL A   1      41.317  29.366  32.489  1.00  0.00    -0.354 N 
ATOM     53  N   UNL A   1      41.034  31.235  34.732  1.00  0.00    -0.248 NA
ATOM     54  C   UNL A   1      41.596  31.905  36.895  1.00  0.00     0.031 C 
ATOM     55  C   UNL A   1      42.932  27.844  32.588  1.00  0.00     0.029 A 
ATOM     56  C   UNL A   1      42.330  28.872  33.294  1.00  0.00     0.049 A 
ATOM     57  H   UNL A   1      40.718  30.111  32.726  1.00  0.00     0.167 HD
ATOM     58  C   UNL A   1      42.045  30.415  35.214  1.00  0.00     0.074 A 
ATOM     59  C   UNL A   1      42.373  30.891  36.541  1.00  0.00     0.031 C 
ATOM     60  C   UNL A   1      42.645  29.359  34.611  1.00  0.00     0.037 A 
BRANCH  47  61
ATOM     61  C   UNL A   1      40.321  27.934  29.083  1.00  0.00     0.064 A 
ATOM     62  C   UNL A   1      39.566  26.753  29.092  1.00  0.00     0.173 A 
ATOM     63  C   UNL A   1      41.042  28.246  27.921  1.00  0.00     0.173 A 
ATOM     64  F   UNL A   1      38.867  26.406  30.183  1.00  0.00    -0.203 F 
ATOM     65  C   UNL A   1      39.545  25.909  27.984  1.00  0.00     0.198 A 
ATOM     66  C   UNL A   1      40.999  27.414  26.806  1.00  0.00     0.198 A 
ATOM     67  F   UNL A   1      41.776  29.367  27.860  1.00  0.00    -0.203 F 
ATOM     68  F   UNL A   1      38.844  24.767  28.027  1.00  0.00    -0.200 F 
ATOM     69  C   UNL A   1      40.255  26.244  26.840  1.00  0.00     0.200 A 
ATOM     70  F   UNL A   1      41.675  27.744  25.697  1.00  0.00    -0.200 F 
ATOM     71  F   UNL A   1      40.223  25.437  25.771  1.00  0.00    -0.200 F 
ENDBRANCH  47  61
BRANCH  48  72
ATOM     72  C   UNL A   1      39.642  34.085  36.910  1.00  0.00     0.064 A 
ATOM     73  C   UNL A   1      40.320  35.308  37.011  1.00  0.00     0.173 A 
ATOM     74  C   UNL A   1      38.835  33.695  37.990  1.00  0.00     0.173 A 
ATOM     75  F   UNL A   1      41.121  35.712  36.014  1.00  0.00    -0.203 F 
ATOM     76  C   UNL A   1      40.214  36.097  38.154  1.00  0.00     0.198 A 
ATOM     77  C   UNL A   1      38.709  34.498  39.120  1.00  0.00     0.198 A 
ATOM     78  F   UNL A   1      38.164  32.536  37.941  1.00  0.00    -0.203 F 
ATOM     79  F   UNL A   1      40.911  37.238  38.244  1.00  0.00    -0.200 F 
ATOM     80  C   UNL A   1      39.405  35.695  39.206  1.00  0.00     0.200 A 
ATOM     81  F   UNL A   1      37.916  34.112  40.129  1.00  0.00    -0.200 F 
ATOM     82  F   UNL A   1      39.304  36.454  40.305  1.00  0.00    -0.200 F 
ENDBRANCH  48  72
BRANCH  60  83
ATOM     83  C   UNL A   1      43.731  28.658  35.372  1.00  0.00     0.064 A 
ATOM     84  C   UNL A   1      45.074  29.047  35.252  1.00  0.00     0.173 A 
ATOM     85  C   UNL A   1      43.419  27.630  36.273  1.00  0.00     0.173 A 
ATOM     86  F   UNL A   1      45.422  30.014  34.391  1.00  0.00    -0.203 F 
ATOM     87  C   UNL A   1      46.068  28.418  35.998  1.00  0.00     0.198 A 
ATOM     88  C   UNL A   1      44.412  27.022  37.036  1.00  0.00     0.198 A 
ATOM     89  F   UNL A   1      42.149  27.227  36.426  1.00  0.00    -0.203 F 
ATOM     90  F   UNL A   1      47.348  28.779  35.842  1.00  0.00    -0.200 F 
ATOM     91  C   UNL A   1      45.735  27.414  36.895  1.00  0.00     0.200 A 
ATOM     92  F   UNL A   1      44.088  26.062  37.912  1.00  0.00    -0.200 F 
ATOM     93  F   UNL A   1      46.691  26.820  37.622  1.00  0.00    -0.200 F 
ENDBRANCH  60  83
ENDBRANCH  34  35
ENDBRANCH  26  29
ENDBRANCH  24  25
ENDBRANCH  23  24
ENDBRANCH   1  23
TORSDOF 14
ENDMDL
MODEL 3
REMARK VINA RESULT:     -12.6      2.126      3.595
REMARK SMILES C[C@@H](C(=O)NCCCCNC(=O)c1ccc(-c2c3nc(c(-c4c(F)c(F)c(F)c(F)c4F)c4ccc([nH]4)c(-c4c(F)c(F)c(F)c(F)c4F)c4nc(c(-c5c(F)c(F)c(F)c(F)c5F)c5ccc2[nH]5)C=C4)C=C3)cc1)c1ccc(NC2CCCC2)cc1F
REMARK SMILES IDX 7 1 6 2 5 3 3 4 4 5 2 7 1 8 76 9 77 10 87 11 78 12 86 13
REMARK SMILES IDX 88 14 79 15 80 16 81 18 82 19 85 20 83 21 84 22 8 23 9 24
REMARK SMILES IDX 10 25 11 26 12 28 13 29 14 30 75 31 15 32 74 33 16 34 17 35
REMARK SMILES IDX 18 36 68 37 19 38 73 39 67 40 69 41 20 42 72 43 66 44 65 45
REMARK SMILES IDX 21 47 53 48 33 49 52 50 34 51 37 52 51 53 70 54 35 55 36 56
REMARK SMILES IDX 50 58 71 59 38 60 22 61 23 62 31 63 24 64 25 65 29 66 32 67
REMARK SMILES IDX 26 68 27 69 30 70 28 71 54 72 55 73 63 74 56 75 57 76 61 77
REMARK SMILES IDX 64 78 58 79 59 80 62 81 60 82 39 83 40 84 48 85 41 86 42 87
REMARK SMILES IDX 46 88 49 89 43 90 44 91 47 92 45 93
REMARK H PARENT 5 6 80 17 10 27 69 46 37 57
REMARK Flexibility Score: inf
ROOT
ATOM      1  C   UNL A   1      32.552  28.085  23.281  1.00  0.00     0.023 C 
ENDROOT
BRANCH   1   2
ATOM      2  C   UNL A   1      31.884  26.804  22.784  1.00  0.00     0.116 C 
BRANCH   2   3
ATOM      3  N   UNL A   1      32.869  25.827  22.367  1.00  0.00    -0.356 N 
ATOM      4  C   UNL A   1      33.574  24.921  23.108  1.00  0.00     0.227 C 
ATOM      5  O   UNL A   1      34.399  24.235  22.503  1.00  0.00    -0.274 OA
ATOM      6  H   UNL A   1      33.058  25.813  21.401  1.00  0.00     0.163 HD
BRANCH   4   7
ATOM      7  C   UNL A   1      33.272  24.762  24.606  1.00  0.00     0.108 C 
ATOM      8  C   UNL A   1      34.278  25.498  25.496  1.00  0.00     0.023 C 
BRANCH   7   9
ATOM      9  C   UNL A   1      33.155  23.302  25.011  1.00  0.00     0.000 A 
ATOM     10  C   UNL A   1      34.194  22.683  25.710  1.00  0.00     0.009 A 
ATOM     11  C   UNL A   1      32.028  22.536  24.713  1.00  0.00     0.129 A 
ATOM     12  C   UNL A   1      34.111  21.329  26.059  1.00  0.00     0.026 A 
ATOM     13  C   UNL A   1      31.956  21.185  25.048  1.00  0.00     0.065 A 
ATOM     14  F   UNL A   1      30.987  23.085  24.071  1.00  0.00    -0.207 F 
ATOM     15  C   UNL A   1      33.007  20.544  25.717  1.00  0.00     0.037 A 
BRANCH  15  16
ATOM     16  N   UNL A   1      32.884  19.200  25.998  1.00  0.00    -0.382 N 
ATOM     17  H   UNL A   1      32.812  18.977  26.955  1.00  0.00     0.160 HD
BRANCH  16  18
ATOM     18  C   UNL A   1      32.843  18.064  25.094  1.00  0.00     0.079 C 
ATOM     19  C   UNL A   1      33.923  18.063  24.020  1.00  0.00     0.025 C 
ATOM     20  C   UNL A   1      32.919  16.709  25.793  1.00  0.00     0.025 C 
ATOM     21  C   UNL A   1      33.986  16.607  23.589  1.00  0.00     0.002 C 
ATOM     22  C   UNL A   1      33.703  15.798  24.851  1.00  0.00     0.002 C 
ENDBRANCH  16  18
ENDBRANCH  15  16
ENDBRANCH   7   9
ENDBRANCH   4   7
ENDBRANCH   2   3
ENDBRANCH   1   2
BRANCH   1  23
ATOM     23  C   UNL A   1      32.160  28.499  24.701  1.00  0.00     0.023 C 
BRANCH  23  24
ATOM     24  C   UNL A   1      33.215  29.297  25.458  1.00  0.00     0.116 C 
BRANCH  24  25
ATOM     25  N   UNL A   1      32.684  30.510  26.064  1.00  0.00    -0.352 N 
ATOM     26  C   UNL A   1      33.223  31.277  27.068  1.00  0.00     0.251 C 
ATOM     27  H   UNL A   1      31.823  30.824  25.703  1.00  0.00     0.163 HD
ATOM     28  O   UNL A   1      32.589  32.210  27.549  1.00  0.00    -0.269 OA
BRANCH  26  29
ATOM     29  C   UNL A   1      34.561  30.942  27.594  1.00  0.00     0.039 A 
ATOM     30  C   UNL A   1      35.512  31.958  27.717  1.00  0.00     0.014 A 
ATOM     31  C   UNL A   1      34.855  29.640  28.011  1.00  0.00     0.014 A 
ATOM     32  C   UNL A   1      36.732  31.688  28.339  1.00  0.00     0.010 A 
ATOM     33  C   UNL A   1      36.045  29.389  28.685  1.00  0.00     0.010 A 
ATOM     34  C   UNL A   1      36.988  30.413  28.868  1.00  0.00    -0.014 A 
BRANCH  34  35
ATOM     35  C   UNL A   1      38.214  30.132  29.655  1.00  0.00     0.031 A 
ATOM     36  C   UNL A   1      39.234  29.160  29.137  1.00  0.00     0.074 A 
ATOM     37  C   UNL A   1      38.351  30.672  30.882  1.00  0.00     0.049 A 
ATOM     38  N   UNL A   1      40.297  28.682  29.733  1.00  0.00    -0.248 NA
ATOM     39  C   UNL A   1      39.016  28.633  27.782  1.00  0.00     0.031 C 
ATOM     40  C   UNL A   1      37.402  31.590  31.514  1.00  0.00     0.029 A 
ATOM     41  N   UNL A   1      39.330  30.503  31.831  1.00  0.00    -0.354 N 
ATOM     42  C   UNL A   1      40.857  27.782  28.838  1.00  0.00     0.074 A 
ATOM     43  C   UNL A   1      40.001  27.754  27.671  1.00  0.00     0.031 C 
ATOM     44  C   UNL A   1      37.842  31.902  32.743  1.00  0.00     0.029 A 
ATOM     45  C   UNL A   1      39.081  31.177  33.003  1.00  0.00     0.049 A 
ATOM     46  H   UNL A   1      40.131  29.951  31.686  1.00  0.00     0.167 HD
ATOM     47  C   UNL A   1      41.992  27.056  28.975  1.00  0.00     0.037 A 
ATOM     48  C   UNL A   1      39.763  31.187  34.165  1.00  0.00     0.037 A 
ATOM     49  C   UNL A   1      42.861  27.120  30.119  1.00  0.00     0.049 A 
ATOM     50  C   UNL A   1      41.020  30.369  34.287  1.00  0.00     0.074 A 
ATOM     51  C   UNL A   1      44.088  26.507  30.304  1.00  0.00     0.029 A 
ATOM     52  N   UNL A   1      42.591  27.833  31.277  1.00  0.00    -0.354 N 
ATOM     53  N   UNL A   1      41.590  29.592  33.399  1.00  0.00    -0.248 NA
ATOM     54  C   UNL A   1      41.727  30.426  35.574  1.00  0.00     0.031 C 
ATOM     55  C   UNL A   1      44.537  26.808  31.594  1.00  0.00     0.029 A 
ATOM     56  C   UNL A   1      43.612  27.647  32.194  1.00  0.00     0.049 A 
ATOM     57  H   UNL A   1      41.793  28.391  31.425  1.00  0.00     0.167 HD
ATOM     58  C   UNL A   1      42.729  29.086  34.010  1.00  0.00     0.074 A 
ATOM     59  C   UNL A   1      42.780  29.656  35.340  1.00  0.00     0.031 C 
ATOM     60  C   UNL A   1      43.649  28.223  33.513  1.00  0.00     0.037 A 
BRANCH  47  61
ATOM     61  C   UNL A   1      42.369  26.127  27.860  1.00  0.00     0.064 A 
ATOM     62  C   UNL A   1      41.781  24.861  27.724  1.00  0.00     0.173 A 
ATOM     63  C   UNL A   1      43.285  26.534  26.879  1.00  0.00     0.173 A 
ATOM     64  F   UNL A   1      40.906  24.422  28.641  1.00  0.00    -0.203 F 
ATOM     65  C   UNL A   1      42.109  24.030  26.656  1.00  0.00     0.198 A 
ATOM     66  C   UNL A   1      43.592  25.713  25.798  1.00  0.00     0.198 A 
ATOM     67  F   UNL A   1      43.873  27.738  26.959  1.00  0.00    -0.203 F 
ATOM     68  F   UNL A   1      41.561  22.811  26.565  1.00  0.00    -0.200 F 
ATOM     69  C   UNL A   1      43.008  24.460  25.690  1.00  0.00     0.200 A 
ATOM     70  F   UNL A   1      44.451  26.133  24.860  1.00  0.00    -0.200 F 
ATOM     71  F   UNL A   1      43.312  23.663  24.656  1.00  0.00    -0.200 F 
ENDBRANCH  47  61
BRANCH  48  72
ATOM     72  C   UNL A   1      39.268  31.994  35.311  1.00  0.00     0.064 A 
ATOM     73  C   UNL A   1      38.472  31.416  36.310  1.00  0.00     0.173 A 
ATOM     74  C   UNL A   1      39.566  33.360  35.422  1.00  0.00     0.173 A 
ATOM     75  F   UNL A   1      38.141  30.119  36.233  1.00  0.00    -0.203 F 
ATOM     76  C   UNL A   1      37.975  32.178  37.364  1.00  0.00     0.198 A 
ATOM     77  C   UNL A   1      39.092  34.115  36.492  1.00  0.00     0.198 A 
ATOM     78  F   UNL A   1      40.326  33.959  34.495  1.00  0.00    -0.203 F 
ATOM     79  F   UNL A   1      37.177  31.612  38.278  1.00  0.00    -0.200 F 
ATOM     80  C   UNL A   1      38.289  33.526  37.458  1.00  0.00     0.200 A 
ATOM     81  F   UNL A   1      39.408  35.413  36.586  1.00  0.00    -0.200 F 
ATOM     82  F   UNL A   1      37.810  34.259  38.472  1.00  0.00    -0.200 F 
ENDBRANCH  48  72
BRANCH  60  83
ATOM     83  C   UNL A   1      44.800  27.857  34.401  1.00  0.00     0.064 A 
ATOM     84  C   UNL A   1      45.960  28.643  34.454  1.00  0.00     0.173 A 
ATOM     85  C   UNL A   1      44.716  26.744  35.251  1.00  0.00     0.173 A 
ATOM     86  F   UNL A   1      46.092  29.706  33.649  1.00  0.00    -0.203 F 
ATOM     87  C   UNL A   1      47.004  28.317  35.317  1.00  0.00     0.198 A 
ATOM     88  C   UNL A   1      45.751  26.438  36.132  1.00  0.00     0.198 A 
ATOM     89  F   UNL A   1      43.625  25.965  35.241  1.00  0.00    -0.203 F 
ATOM     90  F   UNL A   1      48.119  29.060  35.326  1.00  0.00    -0.200 F 
ATOM     91  C   UNL A   1      46.894  27.222  36.161  1.00  0.00     0.200 A 
ATOM     92  F   UNL A   1      45.638  25.387  36.956  1.00  0.00    -0.200 F 
ATOM     93  F   UNL A   1      47.893  26.918  37.000  1.00  0.00    -0.200 F 
ENDBRANCH  60  83
ENDBRANCH  34  35
ENDBRANCH  26  29
ENDBRANCH  24  25
ENDBRANCH  23  24
ENDBRANCH   1  23
TORSDOF 14
ENDMDL
