MODEL 1
REMARK VINA RESULT:     -14.2      0.000      0.000
REMARK SMILES COc1ccc(-c2cc(Cl)cc3c2O[C@@H](C(F)(F)F)C(C(=O)NCCCCNC(=O)c2ccc(-c4c5nc(c(-c6c(F)c(F)c(F)c(F)c6F)c6ccc([nH]6)c(-c6c(F)c(F)c(F)c(F)c6F)c6nc(c(-c7c(F)c(F)c(F)c(F)c7F)c7ccc4[nH]7)C=C6)C=C5)cc2)=C3)cc1C
REMARK SMILES IDX 25 1 24 2 23 3 21 4 22 5 20 7 7 8 8 9 13 10 9 11 12 12 14 13
REMARK SMILES IDX 10 14 11 15 94 16 15 17 6 18 3 19 4 20 96 21 5 22 95 23
REMARK SMILES IDX 97 24 2 25 1 26 16 27 17 28 18 29 19 30 26 31 27 32 28 33
REMARK SMILES IDX 29 34 30 36 31 37 32 38 93 39 33 40 92 41 34 42 35 43 36 44
REMARK SMILES IDX 86 45 37 46 91 47 85 48 87 49 38 50 90 51 84 52 83 53 39 55
REMARK SMILES IDX 71 56 51 57 70 58 52 59 55 60 69 61 88 62 53 63 54 64 68 66
REMARK SMILES IDX 89 67 56 68 40 69 41 70 49 71 42 72 43 73 47 74 50 75 44 76
REMARK SMILES IDX 45 77 48 78 46 79 72 80 73 81 81 82 74 83 75 84 79 85 82 86
REMARK SMILES IDX 76 87 77 88 80 89 78 90 57 91 58 92 66 93 59 94 60 95 64 96
REMARK SMILES IDX 67 97 61 98 62 99 65 100 63 101
REMARK H PARENT 23 6 28 35 87 54 55 65
REMARK Flexibility Score: inf
ROOT
ATOM      1  C   UNL A   1      33.820  28.476  25.761  1.00  0.00     0.023 C 
ENDROOT
BRANCH   1   2
ATOM      2  C   UNL A   1      33.345  27.773  24.477  1.00  0.00     0.116 C 
BRANCH   2   3
ATOM      3  N   UNL A   1      33.991  26.506  24.171  1.00  0.00    -0.352 N 
ATOM      4  C   UNL A   1      33.591  25.427  23.427  1.00  0.00     0.251 C 
ATOM      5  O   UNL A   1      34.478  24.845  22.795  1.00  0.00    -0.270 OA
ATOM      6  H   UNL A   1      34.883  26.405  24.575  1.00  0.00     0.163 HD
BRANCH   4   7
ATOM      7  C   UNL A   1      32.173  24.845  23.452  1.00  0.00     0.067 C 
ATOM      8  C   UNL A   1      33.908  21.882  25.515  1.00  0.00     0.026 A 
ATOM      9  C   UNL A   1      33.492  20.547  25.356  1.00  0.00     0.033 A 
ATOM     10  C   UNL A   1      33.083  22.825  24.909  1.00  0.00     0.135 A 
ATOM     11  C   UNL A   1      32.593  20.208  24.337  1.00  0.00     0.042 A 
ATOM     12  C   UNL A   1      32.462  22.510  23.675  1.00  0.00     0.019 A 
ATOM     13  O   UNL A   1      32.677  23.987  25.609  1.00  0.00    -0.475 OA
ATOM     14  Cl  UNL A   1      32.153  18.559  24.115  1.00  0.00    -0.084 Cl
ATOM     15  C   UNL A   1      32.160  21.176  23.425  1.00  0.00     0.032 A 
ATOM     16  C   UNL A   1      32.085  23.663  22.779  1.00  0.00     0.025 C 
ATOM     17  C   UNL A   1      31.601  24.621  24.841  1.00  0.00     0.314 C 
BRANCH   8  18
ATOM     18  C   UNL A   1      35.393  22.059  25.423  1.00  0.00    -0.014 A 
ATOM     19  C   UNL A   1      38.233  22.089  25.510  1.00  0.00     0.121 A 
ATOM     20  C   UNL A   1      37.473  23.239  25.791  1.00  0.00     0.047 A 
ATOM     21  C   UNL A   1      37.584  20.901  25.172  1.00  0.00    -0.008 A 
ATOM     22  C   UNL A   1      36.067  23.231  25.747  1.00  0.00     0.013 A 
ATOM     23  C   UNL A   1      36.179  20.924  25.091  1.00  0.00     0.016 A 
ATOM     24  C   UNL A   1      38.285  19.590  24.952  1.00  0.00     0.048 C 
BRANCH  19  25
ATOM     25  O   UNL A   1      39.579  22.218  25.727  1.00  0.00    -0.496 OA
ATOM     26  C   UNL A   1      40.019  21.912  27.047  1.00  0.00     0.278 C 
ENDBRANCH  19  25
ENDBRANCH   8  18
BRANCH  17  27
ATOM     27  C   UNL A   1      30.713  25.744  25.393  1.00  0.00     0.429 C 
ATOM     28  F   UNL A   1      31.306  26.327  26.471  1.00  0.00    -0.167 F 
ATOM     29  F   UNL A   1      30.457  26.726  24.513  1.00  0.00    -0.167 F 
ATOM     30  F   UNL A   1      29.529  25.273  25.861  1.00  0.00    -0.167 F 
ENDBRANCH  17  27
ENDBRANCH   4   7
ENDBRANCH   2   3
ENDBRANCH   1   2
BRANCH   1  31
ATOM     31  C   UNL A   1      33.312  29.893  26.041  1.00  0.00     0.023 C 
BRANCH  31  32
ATOM     32  C   UNL A   1      33.197  30.310  27.501  1.00  0.00     0.116 C 
BRANCH  32  33
ATOM     33  N   UNL A   1      33.934  31.493  27.929  1.00  0.00    -0.352 N 
ATOM     34  C   UNL A   1      35.205  31.565  28.501  1.00  0.00     0.251 C 
ATOM     35  H   UNL A   1      33.476  32.354  27.795  1.00  0.00     0.163 HD
ATOM     36  O   UNL A   1      35.649  32.631  28.892  1.00  0.00    -0.269 OA
BRANCH  34  37
ATOM     37  C   UNL A   1      36.075  30.354  28.506  1.00  0.00     0.039 A 
ATOM     38  C   UNL A   1      36.267  29.675  29.716  1.00  0.00     0.014 A 
ATOM     39  C   UNL A   1      36.876  30.053  27.414  1.00  0.00     0.014 A 
ATOM     40  C   UNL A   1      37.440  28.942  29.906  1.00  0.00     0.010 A 
ATOM     41  C   UNL A   1      38.102  29.465  27.645  1.00  0.00     0.010 A 
ATOM     42  C   UNL A   1      38.417  28.973  28.914  1.00  0.00    -0.014 A 
BRANCH  42  43
ATOM     43  C   UNL A   1      39.826  28.655  29.139  1.00  0.00     0.031 A 
ATOM     44  C   UNL A   1      40.375  27.334  28.766  1.00  0.00     0.074 A 
ATOM     45  C   UNL A   1      40.671  29.645  29.509  1.00  0.00     0.049 A 
ATOM     46  N   UNL A   1      41.526  26.892  29.145  1.00  0.00    -0.248 NA
ATOM     47  C   UNL A   1      39.648  26.383  27.936  1.00  0.00     0.031 C 
ATOM     48  C   UNL A   1      42.133  29.640  29.441  1.00  0.00     0.029 A 
ATOM     49  N   UNL A   1      40.369  30.814  30.228  1.00  0.00    -0.354 N 
ATOM     50  C   UNL A   1      41.818  25.769  28.406  1.00  0.00     0.074 A 
ATOM     51  C   UNL A   1      40.592  25.467  27.703  1.00  0.00     0.031 C 
ATOM     52  C   UNL A   1      42.608  30.520  30.335  1.00  0.00     0.029 A 
ATOM     53  C   UNL A   1      41.475  31.008  31.096  1.00  0.00     0.049 A 
ATOM     54  H   UNL A   1      39.564  31.377  30.147  1.00  0.00     0.167 HD
ATOM     55  C   UNL A   1      43.100  25.298  28.398  1.00  0.00     0.037 A 
ATOM     56  C   UNL A   1      41.325  30.896  32.448  1.00  0.00     0.037 A 
ATOM     57  C   UNL A   1      43.946  26.030  29.343  1.00  0.00     0.049 A 
ATOM     58  C   UNL A   1      42.135  29.785  33.089  1.00  0.00     0.074 A 
ATOM     59  C   UNL A   1      44.918  27.012  29.242  1.00  0.00     0.029 A 
ATOM     60  N   UNL A   1      43.628  25.958  30.687  1.00  0.00    -0.354 N 
ATOM     61  N   UNL A   1      42.898  28.954  32.435  1.00  0.00    -0.248 NA
ATOM     62  C   UNL A   1      42.066  29.464  34.516  1.00  0.00     0.031 C 
ATOM     63  C   UNL A   1      45.182  27.519  30.549  1.00  0.00     0.029 A 
ATOM     64  C   UNL A   1      44.367  26.847  31.440  1.00  0.00     0.049 A 
ATOM     65  H   UNL A   1      42.954  25.347  31.063  1.00  0.00     0.167 HD
ATOM     66  C   UNL A   1      43.355  27.985  33.288  1.00  0.00     0.074 A 
ATOM     67  C   UNL A   1      42.812  28.349  34.583  1.00  0.00     0.031 C 
ATOM     68  C   UNL A   1      44.108  26.928  32.866  1.00  0.00     0.037 A 
BRANCH  55  69
ATOM     69  C   UNL A   1      43.645  24.307  27.390  1.00  0.00     0.064 A 
ATOM     70  C   UNL A   1      44.409  24.747  26.284  1.00  0.00     0.173 A 
ATOM     71  C   UNL A   1      43.418  22.919  27.421  1.00  0.00     0.173 A 
ATOM     72  F   UNL A   1      44.813  26.018  26.171  1.00  0.00    -0.203 F 
ATOM     73  C   UNL A   1      44.793  23.893  25.245  1.00  0.00     0.198 A 
ATOM     74  C   UNL A   1      43.749  22.075  26.355  1.00  0.00     0.198 A 
ATOM     75  F   UNL A   1      42.940  22.313  28.512  1.00  0.00    -0.203 F 
ATOM     76  F   UNL A   1      45.513  24.375  24.223  1.00  0.00    -0.200 F 
ATOM     77  C   UNL A   1      44.426  22.565  25.259  1.00  0.00     0.200 A 
ATOM     78  F   UNL A   1      43.410  20.778  26.405  1.00  0.00    -0.200 F 
ATOM     79  F   UNL A   1      44.752  21.757  24.242  1.00  0.00    -0.200 F 
ENDBRANCH  55  69
BRANCH  56  80
ATOM     80  C   UNL A   1      39.990  31.370  32.906  1.00  0.00     0.064 A 
ATOM     81  C   UNL A   1      39.728  32.755  32.871  1.00  0.00     0.173 A 
ATOM     82  C   UNL A   1      38.893  30.507  32.986  1.00  0.00     0.173 A 
ATOM     83  F   UNL A   1      40.746  33.627  32.792  1.00  0.00    -0.203 F 
ATOM     84  C   UNL A   1      38.427  33.244  32.780  1.00  0.00     0.198 A 
ATOM     85  C   UNL A   1      37.589  31.004  32.920  1.00  0.00     0.198 A 
ATOM     86  F   UNL A   1      39.071  29.178  32.995  1.00  0.00    -0.203 F 
ATOM     87  F   UNL A   1      38.218  34.557  32.612  1.00  0.00    -0.200 F 
ATOM     88  C   UNL A   1      37.360  32.365  32.777  1.00  0.00     0.200 A 
ATOM     89  F   UNL A   1      36.556  30.151  32.886  1.00  0.00    -0.200 F 
ATOM     90  F   UNL A   1      36.114  32.820  32.589  1.00  0.00    -0.200 F 
ENDBRANCH  56  80
BRANCH  68  91
ATOM     91  C   UNL A   1      44.646  25.862  33.778  1.00  0.00     0.064 A 
ATOM     92  C   UNL A   1      46.022  25.662  33.970  1.00  0.00     0.173 A 
ATOM     93  C   UNL A   1      43.792  24.918  34.390  1.00  0.00     0.173 A 
ATOM     94  F   UNL A   1      46.921  26.464  33.380  1.00  0.00    -0.203 F 
ATOM     95  C   UNL A   1      46.508  24.615  34.757  1.00  0.00     0.198 A 
ATOM     96  C   UNL A   1      44.281  23.842  35.129  1.00  0.00     0.198 A 
ATOM     97  F   UNL A   1      42.458  25.023  34.311  1.00  0.00    -0.203 F 
ATOM     98  F   UNL A   1      47.827  24.490  34.956  1.00  0.00    -0.200 F 
ATOM     99  C   UNL A   1      45.639  23.698  35.324  1.00  0.00     0.200 A 
ATOM    100  F   UNL A   1      43.427  22.953  35.654  1.00  0.00    -0.200 F 
ATOM    101  F   UNL A   1      46.110  22.681  36.058  1.00  0.00    -0.200 F 
ENDBRANCH  68  91
ENDBRANCH  42  43
ENDBRANCH  34  37
ENDBRANCH  32  33
ENDBRANCH  31  32
ENDBRANCH   1  31
TORSDOF 14
ENDMDL
MODEL 2
REMARK VINA RESULT:     -14.1      3.205      9.481
REMARK SMILES COc1ccc(-c2cc(Cl)cc3c2O[C@@H](C(F)(F)F)C(C(=O)NCCCCNC(=O)c2ccc(-c4c5nc(c(-c6c(F)c(F)c(F)c(F)c6F)c6ccc([nH]6)c(-c6c(F)c(F)c(F)c(F)c6F)c6nc(c(-c7c(F)c(F)c(F)c(F)c7F)c7ccc4[nH]7)C=C6)C=C5)cc2)=C3)cc1C
REMARK SMILES IDX 25 1 24 2 23 3 21 4 22 5 20 7 7 8 8 9 13 10 9 11 12 12 14 13
REMARK SMILES IDX 10 14 11 15 94 16 15 17 6 18 3 19 4 20 96 21 5 22 95 23
REMARK SMILES IDX 97 24 2 25 1 26 16 27 17 28 18 29 19 30 26 31 27 32 28 33
REMARK SMILES IDX 29 34 30 36 31 37 32 38 93 39 33 40 92 41 34 42 35 43 36 44
REMARK SMILES IDX 86 45 37 46 91 47 85 48 87 49 38 50 90 51 84 52 83 53 39 55
REMARK SMILES IDX 71 56 51 57 70 58 52 59 55 60 69 61 88 62 53 63 54 64 68 66
REMARK SMILES IDX 89 67 56 68 40 69 41 70 49 71 42 72 43 73 47 74 50 75 44 76
REMARK SMILES IDX 45 77 48 78 46 79 72 80 73 81 81 82 74 83 75 84 79 85 82 86
REMARK SMILES IDX 76 87 77 88 80 89 78 90 57 91 58 92 66 93 59 94 60 95 64 96
REMARK SMILES IDX 67 97 61 98 62 99 65 100 63 101
REMARK H PARENT 23 6 28 35 87 54 55 65
REMARK Flexibility Score: inf
ROOT
ATOM      1  C   UNL A   1      35.978  23.303  26.113  1.00  0.00     0.023 C 
ENDROOT
BRANCH   1   2
ATOM      2  C   UNL A   1      34.452  23.115  26.056  1.00  0.00     0.116 C 
BRANCH   2   3
ATOM      3  N   UNL A   1      33.655  24.308  26.300  1.00  0.00    -0.352 N 
ATOM      4  C   UNL A   1      32.338  24.598  26.059  1.00  0.00     0.251 C 
ATOM      5  O   UNL A   1      31.778  25.313  26.895  1.00  0.00    -0.270 OA
ATOM      6  H   UNL A   1      34.158  25.045  26.716  1.00  0.00     0.163 HD
BRANCH   4   7
ATOM      7  C   UNL A   1      31.593  24.206  24.778  1.00  0.00     0.067 C 
ATOM      8  C   UNL A   1      31.956  28.101  23.912  1.00  0.00     0.026 A 
ATOM      9  C   UNL A   1      30.936  28.790  23.230  1.00  0.00     0.033 A 
ATOM     10  C   UNL A   1      31.797  26.718  23.953  1.00  0.00     0.135 A 
ATOM     11  C   UNL A   1      29.697  28.174  23.010  1.00  0.00     0.042 A 
ATOM     12  C   UNL A   1      30.494  26.175  24.070  1.00  0.00     0.019 A 
ATOM     13  O   UNL A   1      32.879  25.856  23.652  1.00  0.00    -0.475 OA
ATOM     14  Cl  UNL A   1      28.441  29.061  22.238  1.00  0.00    -0.084 Cl
ATOM     15  C   UNL A   1      29.439  26.901  23.527  1.00  0.00     0.032 A 
ATOM     16  C   UNL A   1      30.371  24.803  24.684  1.00  0.00     0.025 C 
ATOM     17  C   UNL A   1      32.342  24.502  23.489  1.00  0.00     0.314 C 
BRANCH   8  18
ATOM     18  C   UNL A   1      32.435  28.807  25.143  1.00  0.00    -0.014 A 
ATOM     19  C   UNL A   1      33.351  30.480  27.249  1.00  0.00     0.121 A 
ATOM     20  C   UNL A   1      34.046  29.317  26.875  1.00  0.00     0.047 A 
ATOM     21  C   UNL A   1      32.177  30.827  26.579  1.00  0.00    -0.008 A 
ATOM     22  C   UNL A   1      33.596  28.483  25.834  1.00  0.00     0.013 A 
ATOM     23  C   UNL A   1      31.720  29.958  25.571  1.00  0.00     0.016 A 
ATOM     24  C   UNL A   1      31.408  32.095  26.823  1.00  0.00     0.048 C 
BRANCH  19  25
ATOM     25  O   UNL A   1      33.984  31.258  28.182  1.00  0.00    -0.496 OA
ATOM     26  C   UNL A   1      34.833  32.275  27.659  1.00  0.00     0.278 C 
ENDBRANCH  19  25
ENDBRANCH   8  18
BRANCH  17  27
ATOM     27  C   UNL A   1      33.144  23.337  22.895  1.00  0.00     0.429 C 
ATOM     28  F   UNL A   1      32.838  23.178  21.578  1.00  0.00    -0.167 F 
ATOM     29  F   UNL A   1      34.477  23.491  22.967  1.00  0.00    -0.167 F 
ATOM     30  F   UNL A   1      32.822  22.151  23.472  1.00  0.00    -0.167 F 
ENDBRANCH  17  27
ENDBRANCH   4   7
ENDBRANCH   2   3
ENDBRANCH   1   2
BRANCH   1  31
ATOM     31  C   UNL A   1      36.868  22.089  25.838  1.00  0.00     0.023 C 
BRANCH  31  32
ATOM     32  C   UNL A   1      38.227  22.356  25.205  1.00  0.00     0.116 C 
BRANCH  32  33
ATOM     33  N   UNL A   1      39.415  22.063  25.998  1.00  0.00    -0.352 N 
ATOM     34  C   UNL A   1      40.239  22.952  26.689  1.00  0.00     0.251 C 
ATOM     35  H   UNL A   1      39.669  21.113  26.053  1.00  0.00     0.163 HD
ATOM     36  O   UNL A   1      41.256  22.558  27.234  1.00  0.00    -0.269 OA
BRANCH  34  37
ATOM     37  C   UNL A   1      39.797  24.364  26.878  1.00  0.00     0.039 A 
ATOM     38  C   UNL A   1      40.466  25.373  26.174  1.00  0.00     0.014 A 
ATOM     39  C   UNL A   1      38.929  24.703  27.905  1.00  0.00     0.014 A 
ATOM     40  C   UNL A   1      40.499  26.664  26.702  1.00  0.00     0.010 A 
ATOM     41  C   UNL A   1      39.084  25.931  28.514  1.00  0.00     0.010 A 
ATOM     42  C   UNL A   1      39.929  26.892  27.952  1.00  0.00    -0.014 A 
BRANCH  42  43
ATOM     43  C   UNL A   1      40.264  28.023  28.814  1.00  0.00     0.031 A 
ATOM     44  C   UNL A   1      39.348  29.177  28.944  1.00  0.00     0.074 A 
ATOM     45  C   UNL A   1      41.325  27.921  29.648  1.00  0.00     0.049 A 
ATOM     46  N   UNL A   1      39.672  30.304  29.481  1.00  0.00    -0.248 NA
ATOM     47  C   UNL A   1      37.979  29.156  28.451  1.00  0.00     0.031 C 
ATOM     48  C   UNL A   1      41.623  28.750  30.817  1.00  0.00     0.029 A 
ATOM     49  N   UNL A   1      42.484  27.144  29.479  1.00  0.00    -0.354 N 
ATOM     50  C   UNL A   1      38.521  31.034  29.670  1.00  0.00     0.074 A 
ATOM     51  C   UNL A   1      37.500  30.293  28.964  1.00  0.00     0.031 C 
ATOM     52  C   UNL A   1      42.942  28.699  31.055  1.00  0.00     0.029 A 
ATOM     53  C   UNL A   1      43.543  27.954  29.967  1.00  0.00     0.049 A 
ATOM     54  H   UNL A   1      42.548  26.236  29.103  1.00  0.00     0.167 HD
ATOM     55  C   UNL A   1      38.555  32.120  30.496  1.00  0.00     0.037 A 
ATOM     56  C   UNL A   1      44.503  28.429  29.121  1.00  0.00     0.037 A 
ATOM     57  C   UNL A   1      39.919  32.413  30.941  1.00  0.00     0.049 A 
ATOM     58  C   UNL A   1      44.565  29.941  29.012  1.00  0.00     0.074 A 
ATOM     59  C   UNL A   1      40.637  32.222  32.111  1.00  0.00     0.029 A 
ATOM     60  N   UNL A   1      40.854  32.757  29.982  1.00  0.00    -0.354 N 
ATOM     61  N   UNL A   1      43.761  30.760  29.631  1.00  0.00    -0.248 NA
ATOM     62  C   UNL A   1      45.483  30.642  28.112  1.00  0.00     0.031 C 
ATOM     63  C   UNL A   1      42.015  32.469  31.837  1.00  0.00     0.029 A 
ATOM     64  C   UNL A   1      42.131  32.803  30.502  1.00  0.00     0.049 A 
ATOM     65  H   UNL A   1      40.636  32.947  29.041  1.00  0.00     0.167 HD
ATOM     66  C   UNL A   1      43.986  32.038  29.194  1.00  0.00     0.074 A 
ATOM     67  C   UNL A   1      45.077  31.916  28.246  1.00  0.00     0.031 C 
ATOM     68  C   UNL A   1      43.233  33.100  29.603  1.00  0.00     0.037 A 
BRANCH  55  69
ATOM     69  C   UNL A   1      37.330  32.805  31.067  1.00  0.00     0.064 A 
ATOM     70  C   UNL A   1      36.902  32.536  32.387  1.00  0.00     0.173 A 
ATOM     71  C   UNL A   1      36.503  33.699  30.361  1.00  0.00     0.173 A 
ATOM     72  F   UNL A   1      37.639  31.803  33.230  1.00  0.00    -0.203 F 
ATOM     73  C   UNL A   1      35.692  33.015  32.900  1.00  0.00     0.198 A 
ATOM     74  C   UNL A   1      35.265  34.130  30.851  1.00  0.00     0.198 A 
ATOM     75  F   UNL A   1      36.894  34.250  29.208  1.00  0.00    -0.203 F 
ATOM     76  F   UNL A   1      35.342  32.720  34.160  1.00  0.00    -0.200 F 
ATOM     77  C   UNL A   1      34.853  33.777  32.117  1.00  0.00     0.200 A 
ATOM     78  F   UNL A   1      34.479  34.898  30.081  1.00  0.00    -0.200 F 
ATOM     79  F   UNL A   1      33.672  34.197  32.590  1.00  0.00    -0.200 F 
ENDBRANCH  55  69
BRANCH  56  80
ATOM     80  C   UNL A   1      44.809  27.469  28.025  1.00  0.00     0.064 A 
ATOM     81  C   UNL A   1      45.524  26.297  28.349  1.00  0.00     0.173 A 
ATOM     82  C   UNL A   1      44.102  27.481  26.818  1.00  0.00     0.173 A 
ATOM     83  F   UNL A   1      46.218  26.231  29.497  1.00  0.00    -0.203 F 
ATOM     84  C   UNL A   1      45.423  25.148  27.569  1.00  0.00     0.198 A 
ATOM     85  C   UNL A   1      44.024  26.334  26.026  1.00  0.00     0.198 A 
ATOM     86  F   UNL A   1      43.380  28.554  26.464  1.00  0.00    -0.203 F 
ATOM     87  F   UNL A   1      46.005  24.011  27.975  1.00  0.00    -0.200 F 
ATOM     88  C   UNL A   1      44.649  25.160  26.422  1.00  0.00     0.200 A 
ATOM     89  F   UNL A   1      43.250  26.336  24.932  1.00  0.00    -0.200 F 
ATOM     90  F   UNL A   1      44.465  24.032  25.723  1.00  0.00    -0.200 F 
ENDBRANCH  56  80
BRANCH  68  91
ATOM     91  C   UNL A   1      43.467  34.517  29.162  1.00  0.00     0.064 A 
ATOM     92  C   UNL A   1      43.760  35.547  30.070  1.00  0.00     0.173 A 
ATOM     93  C   UNL A   1      43.276  34.911  27.819  1.00  0.00     0.173 A 
ATOM     94  F   UNL A   1      43.898  35.290  31.379  1.00  0.00    -0.203 F 
ATOM     95  C   UNL A   1      43.895  36.874  29.654  1.00  0.00     0.198 A 
ATOM     96  C   UNL A   1      43.357  36.242  27.417  1.00  0.00     0.198 A 
ATOM     97  F   UNL A   1      43.029  34.015  26.854  1.00  0.00    -0.203 F 
ATOM     98  F   UNL A   1      44.225  37.820  30.545  1.00  0.00    -0.200 F 
ATOM     99  C   UNL A   1      43.680  37.223  28.331  1.00  0.00     0.200 A 
ATOM    100  F   UNL A   1      43.126  36.565  26.136  1.00  0.00    -0.200 F 
ATOM    101  F   UNL A   1      43.786  38.500  27.940  1.00  0.00    -0.200 F 
ENDBRANCH  68  91
ENDBRANCH  42  43
ENDBRANCH  34  37
ENDBRANCH  32  33
ENDBRANCH  31  32
ENDBRANCH   1  31
TORSDOF 14
ENDMDL
MODEL 3
REMARK VINA RESULT:     -14.0      1.060      1.956
REMARK SMILES COc1ccc(-c2cc(Cl)cc3c2O[C@@H](C(F)(F)F)C(C(=O)NCCCCNC(=O)c2ccc(-c4c5nc(c(-c6c(F)c(F)c(F)c(F)c6F)c6ccc([nH]6)c(-c6c(F)c(F)c(F)c(F)c6F)c6nc(c(-c7c(F)c(F)c(F)c(F)c7F)c7ccc4[nH]7)C=C6)C=C5)cc2)=C3)cc1C
REMARK SMILES IDX 25 1 24 2 23 3 21 4 22 5 20 7 7 8 8 9 13 10 9 11 12 12 14 13
REMARK SMILES IDX 10 14 11 15 94 16 15 17 6 18 3 19 4 20 96 21 5 22 95 23
REMARK SMILES IDX 97 24 2 25 1 26 16 27 17 28 18 29 19 30 26 31 27 32 28 33
REMARK SMILES IDX 29 34 30 36 31 37 32 38 93 39 33 40 92 41 34 42 35 43 36 44
REMARK SMILES IDX 86 45 37 46 91 47 85 48 87 49 38 50 90 51 84 52 83 53 39 55
REMARK SMILES IDX 71 56 51 57 70 58 52 59 55 60 69 61 88 62 53 63 54 64 68 66
REMARK SMILES IDX 89 67 56 68 40 69 41 70 49 71 42 72 43 73 47 74 50 75 44 76
REMARK SMILES IDX 45 77 48 78 46 79 72 80 73 81 81 82 74 83 75 84 79 85 82 86
REMARK SMILES IDX 76 87 77 88 80 89 78 90 57 91 58 92 66 93 59 94 60 95 64 96
REMARK SMILES IDX 67 97 61 98 62 99 65 100 63 101
REMARK H PARENT 23 6 28 35 87 54 55 65
REMARK Flexibility Score: inf
ROOT
ATOM      1  C   UNL A   1      34.093  28.784  25.418  1.00  0.00     0.023 C 
ENDROOT
BRANCH   1   2
ATOM      2  C   UNL A   1      33.292  27.754  24.602  1.00  0.00     0.116 C 
BRANCH   2   3
ATOM      3  N   UNL A   1      33.958  26.484  24.355  1.00  0.00    -0.352 N 
ATOM      4  C   UNL A   1      33.578  25.369  23.654  1.00  0.00     0.251 C 
ATOM      5  O   UNL A   1      34.478  24.774  23.053  1.00  0.00    -0.270 OA
ATOM      6  H   UNL A   1      34.848  26.413  24.769  1.00  0.00     0.163 HD
BRANCH   4   7
ATOM      7  C   UNL A   1      32.168  24.770  23.692  1.00  0.00     0.067 C 
ATOM      8  C   UNL A   1      33.974  21.796  25.679  1.00  0.00     0.026 A 
ATOM      9  C   UNL A   1      33.572  20.459  25.505  1.00  0.00     0.033 A 
ATOM     10  C   UNL A   1      33.127  22.738  25.101  1.00  0.00     0.135 A 
ATOM     11  C   UNL A   1      32.661  20.125  24.495  1.00  0.00     0.042 A 
ATOM     12  C   UNL A   1      32.490  22.435  23.873  1.00  0.00     0.019 A 
ATOM     13  O   UNL A   1      32.718  23.884  25.827  1.00  0.00    -0.475 OA
ATOM     14  Cl  UNL A   1      32.238  18.474  24.254  1.00  0.00    -0.084 Cl
ATOM     15  C   UNL A   1      32.200  21.101  23.606  1.00  0.00     0.032 A 
ATOM     16  C   UNL A   1      32.084  23.597  23.002  1.00  0.00     0.025 C 
ATOM     17  C   UNL A   1      31.622  24.515  25.087  1.00  0.00     0.314 C 
BRANCH   8  18
ATOM     18  C   UNL A   1      35.455  21.994  25.565  1.00  0.00    -0.014 A 
ATOM     19  C   UNL A   1      38.296  22.053  25.598  1.00  0.00     0.121 A 
ATOM     20  C   UNL A   1      37.530  23.181  25.940  1.00  0.00     0.047 A 
ATOM     21  C   UNL A   1      37.653  20.871  25.225  1.00  0.00    -0.008 A 
ATOM     22  C   UNL A   1      36.123  23.159  25.923  1.00  0.00     0.013 A 
ATOM     23  C   UNL A   1      36.247  20.881  25.172  1.00  0.00     0.016 A 
ATOM     24  C   UNL A   1      38.363  19.578  24.938  1.00  0.00     0.048 C 
BRANCH  19  25
ATOM     25  O   UNL A   1      39.645  22.187  25.794  1.00  0.00    -0.496 OA
ATOM     26  C   UNL A   1      40.112  21.846  27.096  1.00  0.00     0.278 C 
ENDBRANCH  19  25
ENDBRANCH   8  18
BRANCH  17  27
ATOM     27  C   UNL A   1      30.729  25.618  25.671  1.00  0.00     0.429 C 
ATOM     28  F   UNL A   1      30.372  26.500  24.696  1.00  0.00    -0.167 F 
ATOM     29  F   UNL A   1      29.590  25.171  26.224  1.00  0.00    -0.167 F 
ATOM     30  F   UNL A   1      31.384  26.368  26.594  1.00  0.00    -0.167 F 
ENDBRANCH  17  27
ENDBRANCH   4   7
ENDBRANCH   2   3
ENDBRANCH   1   2
BRANCH   1  31
ATOM     31  C   UNL A   1      33.356  29.587  26.493  1.00  0.00     0.023 C 
BRANCH  31  32
ATOM     32  C   UNL A   1      33.997  29.647  27.873  1.00  0.00     0.116 C 
BRANCH  32  33
ATOM     33  N   UNL A   1      34.758  30.842  28.217  1.00  0.00    -0.352 N 
ATOM     34  C   UNL A   1      36.079  30.935  28.657  1.00  0.00     0.251 C 
ATOM     35  H   UNL A   1      34.276  31.696  28.126  1.00  0.00     0.163 HD
ATOM     36  O   UNL A   1      36.546  32.010  28.994  1.00  0.00    -0.269 OA
BRANCH  34  37
ATOM     37  C   UNL A   1      36.962  29.736  28.579  1.00  0.00     0.039 A 
ATOM     38  C   UNL A   1      37.140  28.962  29.733  1.00  0.00     0.014 A 
ATOM     39  C   UNL A   1      37.786  29.532  27.482  1.00  0.00     0.014 A 
ATOM     40  C   UNL A   1      38.317  28.227  29.885  1.00  0.00     0.010 A 
ATOM     41  C   UNL A   1      39.014  28.940  27.687  1.00  0.00     0.010 A 
ATOM     42  C   UNL A   1      39.312  28.348  28.918  1.00  0.00    -0.014 A 
BRANCH  42  43
ATOM     43  C   UNL A   1      40.719  28.026  29.143  1.00  0.00     0.031 A 
ATOM     44  C   UNL A   1      41.323  26.810  28.556  1.00  0.00     0.074 A 
ATOM     45  C   UNL A   1      41.519  28.949  29.725  1.00  0.00     0.049 A 
ATOM     46  N   UNL A   1      42.471  26.332  28.898  1.00  0.00    -0.248 NA
ATOM     47  C   UNL A   1      40.659  26.013  27.534  1.00  0.00     0.031 C 
ATOM     48  C   UNL A   1      42.981  28.990  29.723  1.00  0.00     0.029 A 
ATOM     49  N   UNL A   1      41.152  29.958  30.633  1.00  0.00    -0.354 N 
ATOM     50  C   UNL A   1      42.826  25.372  27.979  1.00  0.00     0.074 A 
ATOM     51  C   UNL A   1      41.639  25.178  27.178  1.00  0.00     0.031 C 
ATOM     52  C   UNL A   1      43.394  29.699  30.784  1.00  0.00     0.029 A 
ATOM     53  C   UNL A   1      42.217  30.011  31.571  1.00  0.00     0.049 A 
ATOM     54  H   UNL A   1      40.335  30.506  30.622  1.00  0.00     0.167 HD
ATOM     55  C   UNL A   1      44.121  24.940  27.941  1.00  0.00     0.037 A 
ATOM     56  C   UNL A   1      42.017  29.648  32.871  1.00  0.00     0.037 A 
ATOM     57  C   UNL A   1      44.906  25.502  29.042  1.00  0.00     0.049 A 
ATOM     58  C   UNL A   1      42.835  28.455  33.332  1.00  0.00     0.074 A 
ATOM     59  C   UNL A   1      45.851  26.508  29.167  1.00  0.00     0.029 A 
ATOM     60  N   UNL A   1      44.537  25.176  30.334  1.00  0.00    -0.354 N 
ATOM     61  N   UNL A   1      43.648  27.778  32.570  1.00  0.00    -0.248 NA
ATOM     62  C   UNL A   1      42.719  27.874  34.670  1.00  0.00     0.031 C 
ATOM     63  C   UNL A   1      46.048  26.770  30.555  1.00  0.00     0.029 A 
ATOM     64  C   UNL A   1      45.219  25.926  31.269  1.00  0.00     0.049 A 
ATOM     65  H   UNL A   1      43.868  24.490  30.560  1.00  0.00     0.167 HD
ATOM     66  C   UNL A   1      44.101  26.678  33.249  1.00  0.00     0.074 A 
ATOM     67  C   UNL A   1      43.496  26.783  34.564  1.00  0.00     0.031 C 
ATOM     68  C   UNL A   1      44.901  25.735  32.673  1.00  0.00     0.037 A 
BRANCH  55  69
ATOM     69  C   UNL A   1      44.736  24.165  26.792  1.00  0.00     0.064 A 
ATOM     70  C   UNL A   1      44.426  22.801  26.594  1.00  0.00     0.173 A 
ATOM     71  C   UNL A   1      45.671  24.686  25.879  1.00  0.00     0.173 A 
ATOM     72  F   UNL A   1      43.469  22.187  27.301  1.00  0.00    -0.203 F 
ATOM     73  C   UNL A   1      45.090  22.006  25.654  1.00  0.00     0.198 A 
ATOM     74  C   UNL A   1      46.377  23.880  24.980  1.00  0.00     0.198 A 
ATOM     75  F   UNL A   1      45.881  26.001  25.766  1.00  0.00    -0.203 F 
ATOM     76  F   UNL A   1      44.751  20.716  25.519  1.00  0.00    -0.200 F 
ATOM     77  C   UNL A   1      46.096  22.535  24.876  1.00  0.00     0.200 A 
ATOM     78  F   UNL A   1      47.331  24.425  24.209  1.00  0.00    -0.200 F 
ATOM     79  F   UNL A   1      46.765  21.765  24.009  1.00  0.00    -0.200 F 
ENDBRANCH  55  69
BRANCH  56  80
ATOM     80  C   UNL A   1      40.652  29.998  33.348  1.00  0.00     0.064 A 
ATOM     81  C   UNL A   1      40.347  31.359  33.551  1.00  0.00     0.173 A 
ATOM     82  C   UNL A   1      39.580  29.107  33.226  1.00  0.00     0.173 A 
ATOM     83  F   UNL A   1      41.338  32.257  33.672  1.00  0.00    -0.203 F 
ATOM     84  C   UNL A   1      39.035  31.825  33.493  1.00  0.00     0.198 A 
ATOM     85  C   UNL A   1      38.265  29.575  33.194  1.00  0.00     0.198 A 
ATOM     86  F   UNL A   1      39.801  27.803  33.005  1.00  0.00    -0.203 F 
ATOM     87  F   UNL A   1      38.790  33.141  33.554  1.00  0.00    -0.200 F 
ATOM     88  C   UNL A   1      37.997  30.934  33.287  1.00  0.00     0.200 A 
ATOM     89  F   UNL A   1      37.262  28.717  32.964  1.00  0.00    -0.200 F 
ATOM     90  F   UNL A   1      36.745  31.384  33.130  1.00  0.00    -0.200 F 
ENDBRANCH  56  80
BRANCH  68  91
ATOM     91  C   UNL A   1      45.436  24.530  33.396  1.00  0.00     0.064 A 
ATOM     92  C   UNL A   1      44.653  23.391  33.636  1.00  0.00     0.173 A 
ATOM     93  C   UNL A   1      46.719  24.537  33.986  1.00  0.00     0.173 A 
ATOM     94  F   UNL A   1      43.396  23.311  33.174  1.00  0.00    -0.203 F 
ATOM     95  C   UNL A   1      45.138  22.312  34.380  1.00  0.00     0.198 A 
ATOM     96  C   UNL A   1      47.179  23.483  34.774  1.00  0.00     0.198 A 
ATOM     97  F   UNL A   1      47.573  25.552  33.798  1.00  0.00    -0.203 F 
ATOM     98  F   UNL A   1      44.377  21.221  34.543  1.00  0.00    -0.200 F 
ATOM     99  C   UNL A   1      46.394  22.364  34.960  1.00  0.00     0.200 A 
ATOM    100  F   UNL A   1      48.390  23.559  35.344  1.00  0.00    -0.200 F 
ATOM    101  F   UNL A   1      46.847  21.339  35.693  1.00  0.00    -0.200 F 
ENDBRANCH  68  91
ENDBRANCH  42  43
ENDBRANCH  34  37
ENDBRANCH  32  33
ENDBRANCH  31  32
ENDBRANCH   1  31
TORSDOF 14
ENDMDL
