MODEL 1
REMARK VINA RESULT:     -13.6      0.000      0.000
REMARK SMILES Cc1ccc([N+](=O)[O-])c(O[C@@H]2CCC[C@]([NH3+])(C(=O)NCCCCNC(=O)c3ccc(-c4c5nc(c(-c6c(F)c(F)c(F)c(F)c6F)c6ccc([nH]6)c(-c6c(F)c(F)c(F)c(F)c6F)c6nc(c(-c7c(F)c(F)c(F)c(F)c7F)c7ccc4[nH]7)C=C6)C=C5)cc3)C2)c1
REMARK SMILES IDX 21 1 20 2 19 3 17 4 18 5 15 7 11 8 12 9 90 10 13 11 14 12
REMARK SMILES IDX 10 13 9 14 1 15 2 16 3 17 91 18 4 19 5 20 6 21 7 22 8 23
REMARK SMILES IDX 16 24 22 28 23 29 24 30 25 31 26 33 27 34 28 35 89 36 29 37
REMARK SMILES IDX 88 38 30 39 31 40 32 41 82 42 33 43 87 44 81 45 83 46 34 47
REMARK SMILES IDX 86 48 80 49 79 50 35 52 67 53 47 54 66 55 48 56 51 57 65 58
REMARK SMILES IDX 84 59 49 60 50 61 64 63 85 64 52 65 36 66 37 67 45 68 38 69
REMARK SMILES IDX 39 70 43 71 46 72 40 73 41 74 44 75 42 76 68 77 69 78 77 79
REMARK SMILES IDX 70 80 71 81 75 82 78 83 72 84 73 85 76 86 74 87 53 88 54 89
REMARK SMILES IDX 62 90 55 91 56 92 60 93 63 94 57 95 58 96 61 97 59 98
REMARK H PARENT 19 6 16 25 16 26 16 27 24 32 83 51 51 62
REMARK Flexibility Score: inf
ROOT
ATOM      1  C   UNL A   1      31.806  29.500  26.778  1.00  0.00     0.023 C 
ENDROOT
BRANCH   1   2
ATOM      2  C   UNL A   1      31.552  29.294  25.287  1.00  0.00     0.116 C 
BRANCH   2   3
ATOM      3  N   UNL A   1      32.721  29.430  24.442  1.00  0.00    -0.351 N 
ATOM      4  C   UNL A   1      33.166  28.682  23.390  1.00  0.00     0.281 C 
ATOM      5  O   UNL A   1      34.138  29.135  22.771  1.00  0.00    -0.268 OA
ATOM      6  H   UNL A   1      33.297  30.196  24.666  1.00  0.00     0.163 HD
BRANCH   4   7
ATOM      7  C   UNL A   1      32.548  27.294  22.993  1.00  0.00     0.177 C 
ATOM      8  C   UNL A   1      32.325  24.816  23.725  1.00  0.00     0.180 C 
ATOM      9  C   UNL A   1      32.892  24.365  22.371  1.00  0.00     0.046 C 
ATOM     10  C   UNL A   1      32.552  26.278  24.151  1.00  0.00     0.124 C 
ATOM     11  C   UNL A   1      32.725  25.407  21.276  1.00  0.00     0.011 C 
ATOM     12  C   UNL A   1      33.246  26.770  21.725  1.00  0.00     0.079 C 
BRANCH   8  13
ATOM     13  O   UNL A   1      32.602  23.891  24.791  1.00  0.00    -0.483 OA
BRANCH  13  14
ATOM     14  C   UNL A   1      33.756  23.182  24.952  1.00  0.00     0.197 A 
ATOM     15  C   UNL A   1      37.456  23.657  25.835  1.00  0.00     0.044 C 
ATOM     16  C   UNL A   1      36.164  23.006  25.429  1.00  0.00    -0.047 A 
ATOM     17  C   UNL A   1      36.125  21.639  25.177  1.00  0.00     0.011 A 
ATOM     18  C   UNL A   1      34.980  23.755  25.326  1.00  0.00     0.057 A 
ATOM     19  C   UNL A   1      34.922  21.033  24.820  1.00  0.00     0.090 A 
ATOM     20  C   UNL A   1      33.740  21.795  24.708  1.00  0.00     0.310 A 
BRANCH  20  21
ATOM     21  N   UNL A   1      32.508  21.072  24.334  1.00  0.00     0.066 N 
ATOM     22  O   UNL A   1      32.124  21.182  23.158  1.00  0.00    -0.258 OA
ATOM     23  O   UNL A   1      31.920  20.384  25.178  1.00  0.00    -0.258 OA
ENDBRANCH  20  21
ENDBRANCH  13  14
ENDBRANCH   8  13
BRANCH   7  24
ATOM     24  N   UNL A   1      31.118  27.525  22.625  1.00  0.00    -0.345 N 
ATOM     25  H   UNL A   1      31.015  28.460  22.232  1.00  0.00     0.345 HD
ATOM     26  H   UNL A   1      30.534  27.439  23.458  1.00  0.00     0.345 HD
ATOM     27  H   UNL A   1      30.828  26.832  21.935  1.00  0.00     0.345 HD
ENDBRANCH   7  24
ENDBRANCH   4   7
ENDBRANCH   2   3
ENDBRANCH   1   2
BRANCH   1  28
ATOM     28  C   UNL A   1      32.549  30.772  27.162  1.00  0.00     0.023 C 
BRANCH  28  29
ATOM     29  C   UNL A   1      34.059  30.631  27.286  1.00  0.00     0.116 C 
BRANCH  29  30
ATOM     30  N   UNL A   1      34.693  31.543  28.225  1.00  0.00    -0.352 N 
ATOM     31  C   UNL A   1      35.780  31.342  29.068  1.00  0.00     0.251 C 
ATOM     32  H   UNL A   1      34.291  32.441  28.271  1.00  0.00     0.163 HD
ATOM     33  O   UNL A   1      36.112  32.223  29.840  1.00  0.00    -0.269 OA
BRANCH  31  34
ATOM     34  C   UNL A   1      36.629  30.124  28.924  1.00  0.00     0.039 A 
ATOM     35  C   UNL A   1      36.790  29.301  30.048  1.00  0.00     0.014 A 
ATOM     36  C   UNL A   1      37.409  29.901  27.796  1.00  0.00     0.014 A 
ATOM     37  C   UNL A   1      37.906  28.471  30.136  1.00  0.00     0.010 A 
ATOM     38  C   UNL A   1      38.574  29.178  27.923  1.00  0.00     0.010 A 
ATOM     39  C   UNL A   1      38.861  28.532  29.127  1.00  0.00    -0.014 A 
BRANCH  39  40
ATOM     40  C   UNL A   1      40.237  28.085  29.276  1.00  0.00     0.031 A 
ATOM     41  C   UNL A   1      40.644  26.747  28.805  1.00  0.00     0.074 A 
ATOM     42  C   UNL A   1      41.158  28.992  29.677  1.00  0.00     0.049 A 
ATOM     43  N   UNL A   1      41.790  26.216  29.058  1.00  0.00    -0.248 NA
ATOM     44  C   UNL A   1      39.756  25.855  28.063  1.00  0.00     0.031 C 
ATOM     45  C   UNL A   1      42.609  28.923  29.527  1.00  0.00     0.029 A 
ATOM     46  N   UNL A   1      40.950  30.115  30.502  1.00  0.00    -0.354 N 
ATOM     47  C   UNL A   1      41.904  25.077  28.297  1.00  0.00     0.074 A 
ATOM     48  C   UNL A   1      40.574  24.828  27.807  1.00  0.00     0.031 C 
ATOM     49  C   UNL A   1      43.180  29.736  30.432  1.00  0.00     0.029 A 
ATOM     50  C   UNL A   1      42.116  30.210  31.299  1.00  0.00     0.049 A 
ATOM     51  H   UNL A   1      40.162  30.706  30.520  1.00  0.00     0.167 HD
ATOM     52  C   UNL A   1      43.149  24.569  28.079  1.00  0.00     0.037 A 
ATOM     53  C   UNL A   1      42.073  30.002  32.647  1.00  0.00     0.037 A 
ATOM     54  C   UNL A   1      44.109  25.157  29.014  1.00  0.00     0.049 A 
ATOM     55  C   UNL A   1      42.958  28.873  33.123  1.00  0.00     0.074 A 
ATOM     56  C   UNL A   1      45.117  26.096  28.887  1.00  0.00     0.029 A 
ATOM     57  N   UNL A   1      43.910  24.972  30.380  1.00  0.00    -0.354 N 
ATOM     58  N   UNL A   1      43.385  27.907  32.356  1.00  0.00    -0.248 NA
ATOM     59  C   UNL A   1      43.399  28.728  34.506  1.00  0.00     0.031 C 
ATOM     60  C   UNL A   1      45.452  26.548  30.194  1.00  0.00     0.029 A 
ATOM     61  C   UNL A   1      44.685  25.849  31.111  1.00  0.00     0.049 A 
ATOM     62  H   UNL A   1      43.299  24.306  30.771  1.00  0.00     0.167 HD
ATOM     63  C   UNL A   1      44.105  27.015  33.106  1.00  0.00     0.074 A 
ATOM     64  C   UNL A   1      44.106  27.587  34.440  1.00  0.00     0.031 C 
ATOM     65  C   UNL A   1      44.617  25.869  32.567  1.00  0.00     0.037 A 
BRANCH  52  66
ATOM     66  C   UNL A   1      43.558  23.682  26.916  1.00  0.00     0.064 A 
ATOM     67  C   UNL A   1      43.162  22.324  26.889  1.00  0.00     0.173 A 
ATOM     68  C   UNL A   1      44.439  24.048  25.875  1.00  0.00     0.173 A 
ATOM     69  F   UNL A   1      42.331  21.825  27.816  1.00  0.00    -0.203 F 
ATOM     70  C   UNL A   1      43.624  21.419  25.925  1.00  0.00     0.198 A 
ATOM     71  C   UNL A   1      44.862  23.154  24.884  1.00  0.00     0.198 A 
ATOM     72  F   UNL A   1      44.986  25.263  25.791  1.00  0.00    -0.203 F 
ATOM     73  F   UNL A   1      43.260  20.131  25.991  1.00  0.00    -0.200 F 
ATOM     74  C   UNL A   1      44.468  21.836  24.917  1.00  0.00     0.200 A 
ATOM     75  F   UNL A   1      45.685  23.584  23.916  1.00  0.00    -0.200 F 
ATOM     76  F   UNL A   1      44.913  20.974  23.995  1.00  0.00    -0.200 F 
ENDBRANCH  52  66
BRANCH  53  77
ATOM     77  C   UNL A   1      40.764  30.363  33.255  1.00  0.00     0.064 A 
ATOM     78  C   UNL A   1      40.462  31.727  33.441  1.00  0.00     0.173 A 
ATOM     79  C   UNL A   1      39.699  29.454  33.289  1.00  0.00     0.173 A 
ATOM     80  F   UNL A   1      41.446  32.640  33.416  1.00  0.00    -0.203 F 
ATOM     81  C   UNL A   1      39.145  32.170  33.532  1.00  0.00     0.198 A 
ATOM     82  C   UNL A   1      38.381  29.903  33.396  1.00  0.00     0.198 A 
ATOM     83  F   UNL A   1      39.917  28.146  33.097  1.00  0.00    -0.203 F 
ATOM     84  F   UNL A   1      38.881  33.483  33.593  1.00  0.00    -0.200 F 
ATOM     85  C   UNL A   1      38.104  31.259  33.480  1.00  0.00     0.200 A 
ATOM     86  F   UNL A   1      37.370  29.027  33.311  1.00  0.00    -0.200 F 
ATOM     87  F   UNL A   1      36.835  31.691  33.463  1.00  0.00    -0.200 F 
ENDBRANCH  53  77
BRANCH  65  88
ATOM     88  C   UNL A   1      45.160  24.690  33.347  1.00  0.00     0.064 A 
ATOM     89  C   UNL A   1      44.414  23.542  33.665  1.00  0.00     0.173 A 
ATOM     90  C   UNL A   1      46.538  24.623  33.674  1.00  0.00     0.173 A 
ATOM     91  F   UNL A   1      43.134  23.414  33.293  1.00  0.00    -0.203 F 
ATOM     92  C   UNL A   1      44.981  22.446  34.324  1.00  0.00     0.198 A 
ATOM     93  C   UNL A   1      47.113  23.503  34.273  1.00  0.00     0.198 A 
ATOM     94  F   UNL A   1      47.376  25.631  33.391  1.00  0.00    -0.203 F 
ATOM     95  F   UNL A   1      44.211  21.396  34.644  1.00  0.00    -0.200 F 
ATOM     96  C   UNL A   1      46.331  22.421  34.617  1.00  0.00     0.200 A 
ATOM     97  F   UNL A   1      48.435  23.470  34.494  1.00  0.00    -0.200 F 
ATOM     98  F   UNL A   1      46.878  21.347  35.202  1.00  0.00    -0.200 F 
ENDBRANCH  65  88
ENDBRANCH  39  40
ENDBRANCH  31  34
ENDBRANCH  29  30
ENDBRANCH  28  29
ENDBRANCH   1  28
TORSDOF 15
ENDMDL
MODEL 2
REMARK VINA RESULT:     -13.5      0.284      1.190
REMARK SMILES Cc1ccc([N+](=O)[O-])c(O[C@@H]2CCC[C@]([NH3+])(C(=O)NCCCCNC(=O)c3ccc(-c4c5nc(c(-c6c(F)c(F)c(F)c(F)c6F)c6ccc([nH]6)c(-c6c(F)c(F)c(F)c(F)c6F)c6nc(c(-c7c(F)c(F)c(F)c(F)c7F)c7ccc4[nH]7)C=C6)C=C5)cc3)C2)c1
REMARK SMILES IDX 21 1 20 2 19 3 17 4 18 5 15 7 11 8 12 9 90 10 13 11 14 12
REMARK SMILES IDX 10 13 9 14 1 15 2 16 3 17 91 18 4 19 5 20 6 21 7 22 8 23
REMARK SMILES IDX 16 24 22 28 23 29 24 30 25 31 26 33 27 34 28 35 89 36 29 37
REMARK SMILES IDX 88 38 30 39 31 40 32 41 82 42 33 43 87 44 81 45 83 46 34 47
REMARK SMILES IDX 86 48 80 49 79 50 35 52 67 53 47 54 66 55 48 56 51 57 65 58
REMARK SMILES IDX 84 59 49 60 50 61 64 63 85 64 52 65 36 66 37 67 45 68 38 69
REMARK SMILES IDX 39 70 43 71 46 72 40 73 41 74 44 75 42 76 68 77 69 78 77 79
REMARK SMILES IDX 70 80 71 81 75 82 78 83 72 84 73 85 76 86 74 87 53 88 54 89
REMARK SMILES IDX 62 90 55 91 56 92 60 93 63 94 57 95 58 96 61 97 59 98
REMARK H PARENT 19 6 16 25 16 26 16 27 24 32 83 51 51 62
REMARK Flexibility Score: inf
ROOT
ATOM      1  C   UNL A   1      31.776  29.726  26.740  1.00  0.00     0.023 C 
ENDROOT
BRANCH   1   2
ATOM      2  C   UNL A   1      31.568  29.299  25.289  1.00  0.00     0.116 C 
BRANCH   2   3
ATOM      3  N   UNL A   1      32.731  29.443  24.436  1.00  0.00    -0.351 N 
ATOM      4  C   UNL A   1      33.166  28.706  23.372  1.00  0.00     0.281 C 
ATOM      5  O   UNL A   1      34.133  29.165  22.750  1.00  0.00    -0.268 OA
ATOM      6  H   UNL A   1      33.309  30.207  24.663  1.00  0.00     0.163 HD
BRANCH   4   7
ATOM      7  C   UNL A   1      32.543  27.323  22.966  1.00  0.00     0.177 C 
ATOM      8  C   UNL A   1      32.297  24.846  23.690  1.00  0.00     0.180 C 
ATOM      9  C   UNL A   1      32.876  24.393  22.342  1.00  0.00     0.046 C 
ATOM     10  C   UNL A   1      32.528  26.305  24.122  1.00  0.00     0.124 C 
ATOM     11  C   UNL A   1      32.728  25.439  21.247  1.00  0.00     0.011 C 
ATOM     12  C   UNL A   1      33.253  26.797  21.704  1.00  0.00     0.079 C 
BRANCH   8  13
ATOM     13  O   UNL A   1      32.556  23.917  24.757  1.00  0.00    -0.483 OA
BRANCH  13  14
ATOM     14  C   UNL A   1      33.711  23.215  24.942  1.00  0.00     0.197 A 
ATOM     15  C   UNL A   1      37.387  23.711  25.909  1.00  0.00     0.044 C 
ATOM     16  C   UNL A   1      36.108  23.053  25.472  1.00  0.00    -0.047 A 
ATOM     17  C   UNL A   1      36.085  21.687  25.212  1.00  0.00     0.011 A 
ATOM     18  C   UNL A   1      34.922  23.795  25.345  1.00  0.00     0.057 A 
ATOM     19  C   UNL A   1      34.894  21.075  24.826  1.00  0.00     0.090 A 
ATOM     20  C   UNL A   1      33.710  21.829  24.690  1.00  0.00     0.310 A 
BRANCH  20  21
ATOM     21  N   UNL A   1      32.491  21.099  24.286  1.00  0.00     0.066 N 
ATOM     22  O   UNL A   1      31.789  20.627  25.195  1.00  0.00    -0.258 OA
ATOM     23  O   UNL A   1      32.205  20.999  23.086  1.00  0.00    -0.258 OA
ENDBRANCH  20  21
ENDBRANCH  13  14
ENDBRANCH   8  13
BRANCH   7  24
ATOM     24  N   UNL A   1      31.119  27.564  22.583  1.00  0.00    -0.345 N 
ATOM     25  H   UNL A   1      31.080  28.259  21.838  1.00  0.00     0.345 HD
ATOM     26  H   UNL A   1      30.601  27.904  23.393  1.00  0.00     0.345 HD
ATOM     27  H   UNL A   1      30.702  26.692  22.255  1.00  0.00     0.345 HD
ENDBRANCH   7  24
ENDBRANCH   4   7
ENDBRANCH   2   3
ENDBRANCH   1   2
BRANCH   1  28
ATOM     28  C   UNL A   1      32.805  30.823  26.975  1.00  0.00     0.023 C 
BRANCH  28  29
ATOM     29  C   UNL A   1      34.147  30.350  27.515  1.00  0.00     0.116 C 
BRANCH  29  30
ATOM     30  N   UNL A   1      34.832  31.293  28.387  1.00  0.00    -0.352 N 
ATOM     31  C   UNL A   1      35.988  31.130  29.142  1.00  0.00     0.251 C 
ATOM     32  H   UNL A   1      34.413  32.181  28.452  1.00  0.00     0.163 HD
ATOM     33  O   UNL A   1      36.359  32.031  29.872  1.00  0.00    -0.269 OA
BRANCH  31  34
ATOM     34  C   UNL A   1      36.852  29.931  28.947  1.00  0.00     0.039 A 
ATOM     35  C   UNL A   1      37.026  29.064  30.036  1.00  0.00     0.014 A 
ATOM     36  C   UNL A   1      37.633  29.765  27.810  1.00  0.00     0.014 A 
ATOM     37  C   UNL A   1      38.153  28.246  30.089  1.00  0.00     0.010 A 
ATOM     38  C   UNL A   1      38.808  29.052  27.906  1.00  0.00     0.010 A 
ATOM     39  C   UNL A   1      39.105  28.361  29.082  1.00  0.00    -0.014 A 
BRANCH  39  40
ATOM     40  C   UNL A   1      40.487  27.926  29.212  1.00  0.00     0.031 A 
ATOM     41  C   UNL A   1      40.900  26.593  28.730  1.00  0.00     0.074 A 
ATOM     42  C   UNL A   1      41.405  28.840  29.604  1.00  0.00     0.049 A 
ATOM     43  N   UNL A   1      42.054  26.072  28.966  1.00  0.00    -0.248 NA
ATOM     44  C   UNL A   1      40.010  25.696  27.997  1.00  0.00     0.031 C 
ATOM     45  C   UNL A   1      42.855  28.784  29.434  1.00  0.00     0.029 A 
ATOM     46  N   UNL A   1      41.197  29.958  30.435  1.00  0.00    -0.354 N 
ATOM     47  C   UNL A   1      42.168  24.937  28.199  1.00  0.00     0.074 A 
ATOM     48  C   UNL A   1      40.834  24.677  27.726  1.00  0.00     0.031 C 
ATOM     49  C   UNL A   1      43.429  29.599  30.334  1.00  0.00     0.029 A 
ATOM     50  C   UNL A   1      42.373  30.061  31.217  1.00  0.00     0.049 A 
ATOM     51  H   UNL A   1      40.405  30.542  30.466  1.00  0.00     0.167 HD
ATOM     52  C   UNL A   1      43.414  24.441  27.963  1.00  0.00     0.037 A 
ATOM     53  C   UNL A   1      42.350  29.848  32.565  1.00  0.00     0.037 A 
ATOM     54  C   UNL A   1      44.382  25.035  28.887  1.00  0.00     0.049 A 
ATOM     55  C   UNL A   1      43.251  28.725  33.025  1.00  0.00     0.074 A 
ATOM     56  C   UNL A   1      45.380  25.983  28.750  1.00  0.00     0.029 A 
ATOM     57  N   UNL A   1      44.202  24.842  30.255  1.00  0.00    -0.354 N 
ATOM     58  N   UNL A   1      43.677  27.766  32.249  1.00  0.00    -0.248 NA
ATOM     59  C   UNL A   1      43.712  28.579  34.402  1.00  0.00     0.031 C 
ATOM     60  C   UNL A   1      45.727  26.433  30.054  1.00  0.00     0.029 A 
ATOM     61  C   UNL A   1      44.979  25.724  30.979  1.00  0.00     0.049 A 
ATOM     62  H   UNL A   1      43.603  24.170  30.652  1.00  0.00     0.167 HD
ATOM     63  C   UNL A   1      44.414  26.878  32.986  1.00  0.00     0.074 A 
ATOM     64  C   UNL A   1      44.428  27.445  34.322  1.00  0.00     0.031 C 
ATOM     65  C   UNL A   1      44.930  25.738  32.436  1.00  0.00     0.037 A 
BRANCH  52  66
ATOM     66  C   UNL A   1      43.817  23.562  26.791  1.00  0.00     0.064 A 
ATOM     67  C   UNL A   1      43.373  22.220  26.730  1.00  0.00     0.173 A 
ATOM     68  C   UNL A   1      44.733  23.915  25.777  1.00  0.00     0.173 A 
ATOM     69  F   UNL A   1      42.504  21.734  27.629  1.00  0.00    -0.203 F 
ATOM     70  C   UNL A   1      43.823  21.318  25.757  1.00  0.00     0.198 A 
ATOM     71  C   UNL A   1      45.144  23.025  24.777  1.00  0.00     0.198 A 
ATOM     72  F   UNL A   1      45.324  25.111  25.728  1.00  0.00    -0.203 F 
ATOM     73  F   UNL A   1      43.411  20.043  25.790  1.00  0.00    -0.200 F 
ATOM     74  C   UNL A   1      44.702  21.723  24.776  1.00  0.00     0.200 A 
ATOM     75  F   UNL A   1      46.002  23.444  23.834  1.00  0.00    -0.200 F 
ATOM     76  F   UNL A   1      45.136  20.862  23.846  1.00  0.00    -0.200 F 
ENDBRANCH  52  66
BRANCH  53  77
ATOM     77  C   UNL A   1      41.046  30.194  33.191  1.00  0.00     0.064 A 
ATOM     78  C   UNL A   1      40.743  31.554  33.407  1.00  0.00     0.173 A 
ATOM     79  C   UNL A   1      39.983  29.283  33.217  1.00  0.00     0.173 A 
ATOM     80  F   UNL A   1      41.725  32.469  33.392  1.00  0.00    -0.203 F 
ATOM     81  C   UNL A   1      39.426  31.993  33.518  1.00  0.00     0.198 A 
ATOM     82  C   UNL A   1      38.664  29.728  33.344  1.00  0.00     0.198 A 
ATOM     83  F   UNL A   1      40.201  27.979  32.997  1.00  0.00    -0.203 F 
ATOM     84  F   UNL A   1      39.161  33.304  33.608  1.00  0.00    -0.200 F 
ATOM     85  C   UNL A   1      38.386  31.082  33.457  1.00  0.00     0.200 A 
ATOM     86  F   UNL A   1      37.654  28.851  33.251  1.00  0.00    -0.200 F 
ATOM     87  F   UNL A   1      37.116  31.511  33.460  1.00  0.00    -0.200 F 
ENDBRANCH  53  77
BRANCH  65  88
ATOM     88  C   UNL A   1      45.494  24.562  33.204  1.00  0.00     0.064 A 
ATOM     89  C   UNL A   1      46.780  24.534  33.773  1.00  0.00     0.173 A 
ATOM     90  C   UNL A   1      44.670  23.455  33.524  1.00  0.00     0.173 A 
ATOM     91  F   UNL A   1      47.615  25.575  33.665  1.00  0.00    -0.203 F 
ATOM     92  C   UNL A   1      47.231  23.453  34.537  1.00  0.00     0.198 A 
ATOM     93  C   UNL A   1      45.101  22.408  34.339  1.00  0.00     0.198 A 
ATOM     94  F   UNL A   1      43.407  23.370  33.082  1.00  0.00    -0.203 F 
ATOM     95  F   UNL A   1      48.483  23.459  35.017  1.00  0.00    -0.200 F 
ATOM     96  C   UNL A   1      46.389  22.397  34.831  1.00  0.00     0.200 A 
ATOM     97  F   UNL A   1      44.253  21.423  34.665  1.00  0.00    -0.200 F 
ATOM     98  F   UNL A   1      46.811  21.389  35.605  1.00  0.00    -0.200 F 
ENDBRANCH  65  88
ENDBRANCH  39  40
ENDBRANCH  31  34
ENDBRANCH  29  30
ENDBRANCH  28  29
ENDBRANCH   1  28
TORSDOF 15
ENDMDL
MODEL 3
REMARK VINA RESULT:     -13.3      1.537      2.142
REMARK SMILES Cc1ccc([N+](=O)[O-])c(O[C@@H]2CCC[C@]([NH3+])(C(=O)NCCCCNC(=O)c3ccc(-c4c5nc(c(-c6c(F)c(F)c(F)c(F)c6F)c6ccc([nH]6)c(-c6c(F)c(F)c(F)c(F)c6F)c6nc(c(-c7c(F)c(F)c(F)c(F)c7F)c7ccc4[nH]7)C=C6)C=C5)cc3)C2)c1
REMARK SMILES IDX 21 1 20 2 19 3 17 4 18 5 15 7 11 8 12 9 90 10 13 11 14 12
REMARK SMILES IDX 10 13 9 14 1 15 2 16 3 17 91 18 4 19 5 20 6 21 7 22 8 23
REMARK SMILES IDX 16 24 22 28 23 29 24 30 25 31 26 33 27 34 28 35 89 36 29 37
REMARK SMILES IDX 88 38 30 39 31 40 32 41 82 42 33 43 87 44 81 45 83 46 34 47
REMARK SMILES IDX 86 48 80 49 79 50 35 52 67 53 47 54 66 55 48 56 51 57 65 58
REMARK SMILES IDX 84 59 49 60 50 61 64 63 85 64 52 65 36 66 37 67 45 68 38 69
REMARK SMILES IDX 39 70 43 71 46 72 40 73 41 74 44 75 42 76 68 77 69 78 77 79
REMARK SMILES IDX 70 80 71 81 75 82 78 83 72 84 73 85 76 86 74 87 53 88 54 89
REMARK SMILES IDX 62 90 55 91 56 92 60 93 63 94 57 95 58 96 61 97 59 98
REMARK H PARENT 19 6 16 25 16 26 16 27 24 32 83 51 51 62
REMARK Flexibility Score: inf
ROOT
ATOM      1  C   UNL A   1      31.373  30.665  25.567  1.00  0.00     0.023 C 
ENDROOT
BRANCH   1   2
ATOM      2  C   UNL A   1      31.922  29.344  25.032  1.00  0.00     0.116 C 
BRANCH   2   3
ATOM      3  N   UNL A   1      30.917  28.389  24.610  1.00  0.00    -0.351 N 
ATOM      4  C   UNL A   1      30.691  27.094  24.981  1.00  0.00     0.281 C 
ATOM      5  O   UNL A   1      29.656  26.574  24.542  1.00  0.00    -0.268 OA
ATOM      6  H   UNL A   1      30.287  28.733  23.937  1.00  0.00     0.163 HD
BRANCH   4   7
ATOM      7  C   UNL A   1      31.690  26.260  25.859  1.00  0.00     0.177 C 
ATOM      8  C   UNL A   1      34.033  25.151  25.883  1.00  0.00     0.180 C 
ATOM      9  C   UNL A   1      33.394  23.806  26.256  1.00  0.00     0.046 C 
ATOM     10  C   UNL A   1      33.123  26.245  25.295  1.00  0.00     0.124 C 
ATOM     11  C   UNL A   1      32.030  23.954  26.912  1.00  0.00     0.011 C 
ATOM     12  C   UNL A   1      31.112  24.850  26.084  1.00  0.00     0.079 C 
BRANCH   8  13
ATOM     13  O   UNL A   1      35.258  25.010  25.142  1.00  0.00    -0.483 OA
BRANCH  13  14
ATOM     14  C   UNL A   1      36.002  23.871  25.039  1.00  0.00     0.197 A 
ATOM     15  C   UNL A   1      39.107  22.186  26.526  1.00  0.00     0.044 C 
ATOM     16  C   UNL A   1      37.907  22.442  25.660  1.00  0.00    -0.047 A 
ATOM     17  C   UNL A   1      37.539  21.513  24.692  1.00  0.00     0.011 A 
ATOM     18  C   UNL A   1      37.129  23.600  25.828  1.00  0.00     0.057 A 
ATOM     19  C   UNL A   1      36.414  21.742  23.903  1.00  0.00     0.090 A 
ATOM     20  C   UNL A   1      35.645  22.912  24.071  1.00  0.00     0.310 A 
BRANCH  20  21
ATOM     21  N   UNL A   1      34.464  23.071  23.199  1.00  0.00     0.066 N 
ATOM     22  O   UNL A   1      34.472  24.030  22.408  1.00  0.00    -0.258 OA
ATOM     23  O   UNL A   1      33.535  22.256  23.267  1.00  0.00    -0.258 OA
ENDBRANCH  20  21
ENDBRANCH  13  14
ENDBRANCH   8  13
BRANCH   7  24
ATOM     24  N   UNL A   1      31.760  26.909  27.204  1.00  0.00    -0.345 N 
ATOM     25  H   UNL A   1      30.831  26.922  27.624  1.00  0.00     0.345 HD
ATOM     26  H   UNL A   1      32.102  27.865  27.103  1.00  0.00     0.345 HD
ATOM     27  H   UNL A   1      32.397  26.383  27.803  1.00  0.00     0.345 HD
ENDBRANCH   7  24
ENDBRANCH   4   7
ENDBRANCH   2   3
ENDBRANCH   1   2
BRANCH   1  28
ATOM     28  C   UNL A   1      31.864  31.086  26.944  1.00  0.00     0.023 C 
BRANCH  28  29
ATOM     29  C   UNL A   1      33.331  30.798  27.227  1.00  0.00     0.116 C 
BRANCH  29  30
ATOM     30  N   UNL A   1      34.025  31.814  28.003  1.00  0.00    -0.352 N 
ATOM     31  C   UNL A   1      35.197  31.723  28.745  1.00  0.00     0.251 C 
ATOM     32  H   UNL A   1      33.600  32.702  28.003  1.00  0.00     0.163 HD
ATOM     33  O   UNL A   1      35.575  32.685  29.390  1.00  0.00    -0.269 OA
BRANCH  31  34
ATOM     34  C   UNL A   1      36.068  30.518  28.633  1.00  0.00     0.039 A 
ATOM     35  C   UNL A   1      36.276  29.750  29.789  1.00  0.00     0.014 A 
ATOM     36  C   UNL A   1      36.823  30.260  27.496  1.00  0.00     0.014 A 
ATOM     37  C   UNL A   1      37.412  28.948  29.884  1.00  0.00     0.010 A 
ATOM     38  C   UNL A   1      38.007  29.566  27.624  1.00  0.00     0.010 A 
ATOM     39  C   UNL A   1      38.338  28.982  28.847  1.00  0.00    -0.014 A 
BRANCH  39  40
ATOM     40  C   UNL A   1      39.727  28.571  28.980  1.00  0.00     0.031 A 
ATOM     41  C   UNL A   1      40.130  27.186  28.664  1.00  0.00     0.074 A 
ATOM     42  C   UNL A   1      40.653  29.530  29.210  1.00  0.00     0.049 A 
ATOM     43  N   UNL A   1      41.296  26.702  28.922  1.00  0.00    -0.248 NA
ATOM     44  C   UNL A   1      39.218  26.197  28.093  1.00  0.00     0.031 C 
ATOM     45  C   UNL A   1      42.096  29.454  28.993  1.00  0.00     0.029 A 
ATOM     46  N   UNL A   1      40.471  30.749  29.893  1.00  0.00    -0.354 N 
ATOM     47  C   UNL A   1      41.387  25.475  28.310  1.00  0.00     0.074 A 
ATOM     48  C   UNL A   1      40.038  25.153  27.928  1.00  0.00     0.031 C 
ATOM     49  C   UNL A   1      42.699  30.383  29.753  1.00  0.00     0.029 A 
ATOM     50  C   UNL A   1      41.675  30.957  30.607  1.00  0.00     0.049 A 
ATOM     51  H   UNL A   1      39.676  31.331  29.876  1.00  0.00     0.167 HD
ATOM     52  C   UNL A   1      42.627  24.954  28.094  1.00  0.00     0.037 A 
ATOM     53  C   UNL A   1      41.705  30.926  31.971  1.00  0.00     0.037 A 
ATOM     54  C   UNL A   1      43.625  25.667  28.892  1.00  0.00     0.049 A 
ATOM     55  C   UNL A   1      42.631  29.876  32.541  1.00  0.00     0.074 A 
ATOM     56  C   UNL A   1      44.611  26.590  28.590  1.00  0.00     0.029 A 
ATOM     57  N   UNL A   1      43.500  25.659  30.279  1.00  0.00    -0.354 N 
ATOM     58  N   UNL A   1      43.033  28.822  31.884  1.00  0.00    -0.248 NA
ATOM     59  C   UNL A   1      43.146  29.916  33.906  1.00  0.00     0.031 C 
ATOM     60  C   UNL A   1      45.006  27.211  29.808  1.00  0.00     0.029 A 
ATOM     61  C   UNL A   1      44.298  26.631  30.848  1.00  0.00     0.049 A 
ATOM     62  H   UNL A   1      42.921  25.045  30.785  1.00  0.00     0.167 HD
ATOM     63  C   UNL A   1      43.804  28.042  32.704  1.00  0.00     0.074 A 
ATOM     64  C   UNL A   1      43.866  28.782  33.950  1.00  0.00     0.031 C 
ATOM     65  C   UNL A   1      44.306  26.839  32.291  1.00  0.00     0.037 A 
BRANCH  52  66
ATOM     66  C   UNL A   1      42.989  23.927  27.034  1.00  0.00     0.064 A 
ATOM     67  C   UNL A   1      42.668  22.563  27.234  1.00  0.00     0.173 A 
ATOM     68  C   UNL A   1      43.761  24.176  25.879  1.00  0.00     0.173 A 
ATOM     69  F   UNL A   1      41.944  22.168  28.291  1.00  0.00    -0.203 F 
ATOM     70  C   UNL A   1      43.100  21.550  26.369  1.00  0.00     0.198 A 
ATOM     71  C   UNL A   1      44.151  23.168  24.990  1.00  0.00     0.198 A 
ATOM     72  F   UNL A   1      44.231  25.389  25.577  1.00  0.00    -0.203 F 
ATOM     73  F   UNL A   1      42.815  20.270  26.646  1.00  0.00    -0.200 F 
ATOM     74  C   UNL A   1      43.834  21.853  25.242  1.00  0.00     0.200 A 
ATOM     75  F   UNL A   1      44.867  23.489  23.902  1.00  0.00    -0.200 F 
ATOM     76  F   UNL A   1      44.251  20.887  24.414  1.00  0.00    -0.200 F 
ENDBRANCH  52  66
BRANCH  53  77
ATOM     77  C   UNL A   1      40.425  31.351  32.596  1.00  0.00     0.064 A 
ATOM     78  C   UNL A   1      40.123  32.727  32.642  1.00  0.00     0.173 A 
ATOM     79  C   UNL A   1      39.368  30.451  32.783  1.00  0.00     0.173 A 
ATOM     80  F   UNL A   1      41.098  33.633  32.469  1.00  0.00    -0.203 F 
ATOM     81  C   UNL A   1      38.808  33.176  32.746  1.00  0.00     0.198 A 
ATOM     82  C   UNL A   1      38.053  30.907  32.901  1.00  0.00     0.198 A 
ATOM     83  F   UNL A   1      39.585  29.129  32.728  1.00  0.00    -0.203 F 
ATOM     84  F   UNL A   1      38.540  34.487  32.672  1.00  0.00    -0.200 F 
ATOM     85  C   UNL A   1      37.772  32.264  32.845  1.00  0.00     0.200 A 
ATOM     86  F   UNL A   1      37.045  30.026  32.963  1.00  0.00    -0.200 F 
ATOM     87  F   UNL A   1      36.501  32.690  32.841  1.00  0.00    -0.200 F 
ENDBRANCH  53  77
BRANCH  65  88
ATOM     88  C   UNL A   1      44.907  25.777  33.186  1.00  0.00     0.064 A 
ATOM     89  C   UNL A   1      46.268  25.426  33.191  1.00  0.00     0.173 A 
ATOM     90  C   UNL A   1      44.126  25.170  34.201  1.00  0.00     0.173 A 
ATOM     91  F   UNL A   1      47.147  26.024  32.376  1.00  0.00    -0.203 F 
ATOM     92  C   UNL A   1      46.792  24.490  34.088  1.00  0.00     0.198 A 
ATOM     93  C   UNL A   1      44.664  24.285  35.134  1.00  0.00     0.198 A 
ATOM     94  F   UNL A   1      42.820  25.444  34.338  1.00  0.00    -0.203 F 
ATOM     95  F   UNL A   1      48.089  24.159  34.017  1.00  0.00    -0.200 F 
ATOM     96  C   UNL A   1      45.994  23.929  35.067  1.00  0.00     0.200 A 
ATOM     97  F   UNL A   1      43.890  23.798  36.115  1.00  0.00    -0.200 F 
ATOM     98  F   UNL A   1      46.512  23.071  35.955  1.00  0.00    -0.200 F 
ENDBRANCH  65  88
ENDBRANCH  39  40
ENDBRANCH  31  34
ENDBRANCH  29  30
ENDBRANCH  28  29
ENDBRANCH   1  28
TORSDOF 15
ENDMDL
