MODEL 1
REMARK VINA RESULT:     -14.3      0.000      0.000
REMARK SMILES Cc1cc(F)cc(N[C@](C)(C(=O)NCCCCNC(=O)c2ccc(-c3c4nc(c(-c5c(F)c(F)c(F)c(F)c5F)c5ccc([nH]5)c(-c5c(F)c(F)c(F)c(F)c5F)c5nc(c(-c6c(F)c(F)c(F)c(F)c6F)c6ccc3[nH]6)C=C5)C=C4)cc2)c2cccc(F)c2)c1
REMARK SMILES IDX 15 1 14 2 13 3 11 4 12 5 9 7 10 8 8 9 7 11 1 12 2 13 3 14
REMARK SMILES IDX 91 15 4 16 5 17 6 18 84 19 85 20 90 21 86 22 88 23 87 24
REMARK SMILES IDX 89 25 16 26 17 27 18 28 19 29 20 31 21 32 22 33 83 34 23 35
REMARK SMILES IDX 82 36 24 37 25 38 26 39 76 40 27 41 81 42 75 43 77 44 28 45
REMARK SMILES IDX 80 46 74 47 73 48 29 50 61 51 41 52 60 53 42 54 45 55 59 56
REMARK SMILES IDX 78 57 43 58 44 59 58 61 79 62 46 63 30 64 31 65 39 66 32 67
REMARK SMILES IDX 33 68 37 69 40 70 34 71 35 72 38 73 36 74 62 75 63 76 71 77
REMARK SMILES IDX 64 78 65 79 69 80 72 81 66 82 67 83 70 84 68 85 47 86 48 87
REMARK SMILES IDX 56 88 49 89 50 90 54 91 57 92 51 93 52 94 55 95 53 96
REMARK H PARENT 13 6 8 10 18 30 77 49 45 60
REMARK Flexibility Score: inf
ROOT
ATOM      1  C   UNL A   1      34.797  24.009  25.213  1.00  0.00     0.023 C 
ENDROOT
BRANCH   1   2
ATOM      2  C   UNL A   1      34.403  25.276  24.444  1.00  0.00     0.116 C 
BRANCH   2   3
ATOM      3  N   UNL A   1      33.326  24.995  23.524  1.00  0.00    -0.354 N 
ATOM      4  C   UNL A   1      32.258  25.771  23.177  1.00  0.00     0.250 C 
ATOM      5  O   UNL A   1      31.233  25.124  22.908  1.00  0.00    -0.272 OA
ATOM      6  H   UNL A   1      33.368  24.116  23.083  1.00  0.00     0.163 HD
BRANCH   4   7
ATOM      7  C   UNL A   1      32.271  27.371  23.121  1.00  0.00     0.139 C 
ATOM      8  C   UNL A   1      33.553  28.051  22.575  1.00  0.00     0.051 C 
BRANCH   7   9
ATOM      9  N   UNL A   1      31.183  27.767  22.165  1.00  0.00    -0.368 N 
ATOM     10  H   UNL A   1      31.310  27.509  21.223  1.00  0.00     0.161 HD
BRANCH   9  11
ATOM     11  C   UNL A   1      30.010  28.461  22.468  1.00  0.00     0.038 A 
ATOM     12  C   UNL A   1      28.753  32.056  21.979  1.00  0.00     0.044 C 
ATOM     13  C   UNL A   1      28.787  30.600  22.334  1.00  0.00    -0.046 A 
ATOM     14  C   UNL A   1      27.664  30.000  22.901  1.00  0.00     0.042 A 
ATOM     15  C   UNL A   1      29.936  29.820  22.104  1.00  0.00     0.029 A 
ATOM     16  C   UNL A   1      27.717  28.660  23.252  1.00  0.00     0.125 A 
ATOM     17  F   UNL A   1      26.642  28.081  23.805  1.00  0.00    -0.207 F 
ATOM     18  C   UNL A   1      28.868  27.902  23.049  1.00  0.00     0.065 A 
ENDBRANCH   9  11
ENDBRANCH   7   9
BRANCH   7  19
ATOM     19  C   UNL A   1      31.962  27.907  24.561  1.00  0.00    -0.011 A 
ATOM     20  C   UNL A   1      31.458  27.094  25.598  1.00  0.00     0.007 A 
ATOM     21  C   UNL A   1      32.299  29.229  24.929  1.00  0.00     0.046 A 
ATOM     22  C   UNL A   1      31.334  27.565  26.917  1.00  0.00     0.003 A 
ATOM     23  C   UNL A   1      32.229  29.670  26.250  1.00  0.00     0.123 A 
ATOM     24  C   UNL A   1      31.751  28.848  27.251  1.00  0.00     0.039 A 
ATOM     25  F   UNL A   1      32.686  30.893  26.554  1.00  0.00    -0.207 F 
ENDBRANCH   7  19
ENDBRANCH   4   7
ENDBRANCH   2   3
ENDBRANCH   1   2
BRANCH   1  26
ATOM     26  C   UNL A   1      36.252  23.562  25.058  1.00  0.00     0.023 C 
BRANCH  26  27
ATOM     27  C   UNL A   1      37.161  24.119  26.136  1.00  0.00     0.116 C 
BRANCH  27  28
ATOM     28  N   UNL A   1      38.273  23.221  26.454  1.00  0.00    -0.352 N 
ATOM     29  C   UNL A   1      39.563  23.571  26.801  1.00  0.00     0.251 C 
ATOM     30  H   UNL A   1      38.079  22.257  26.416  1.00  0.00     0.163 HD
ATOM     31  O   UNL A   1      40.486  22.775  26.781  1.00  0.00    -0.269 OA
BRANCH  29  32
ATOM     32  C   UNL A   1      39.774  24.954  27.237  1.00  0.00     0.039 A 
ATOM     33  C   UNL A   1      40.217  25.955  26.364  1.00  0.00     0.014 A 
ATOM     34  C   UNL A   1      39.441  25.224  28.559  1.00  0.00     0.014 A 
ATOM     35  C   UNL A   1      40.278  27.267  26.825  1.00  0.00     0.010 A 
ATOM     36  C   UNL A   1      39.310  26.520  28.944  1.00  0.00     0.010 A 
ATOM     37  C   UNL A   1      39.814  27.528  28.114  1.00  0.00    -0.014 A 
BRANCH  37  38
ATOM     38  C   UNL A   1      39.938  28.789  28.816  1.00  0.00     0.031 A 
ATOM     39  C   UNL A   1      38.855  29.773  28.813  1.00  0.00     0.074 A 
ATOM     40  C   UNL A   1      40.985  28.808  29.670  1.00  0.00     0.049 A 
ATOM     41  N   UNL A   1      39.002  30.998  29.168  1.00  0.00    -0.248 NA
ATOM     42  C   UNL A   1      37.496  29.459  28.388  1.00  0.00     0.031 C 
ATOM     43  C   UNL A   1      41.241  29.631  30.837  1.00  0.00     0.029 A 
ATOM     44  N   UNL A   1      42.139  28.010  29.562  1.00  0.00    -0.354 N 
ATOM     45  C   UNL A   1      37.741  31.523  29.366  1.00  0.00     0.074 A 
ATOM     46  C   UNL A   1      36.853  30.588  28.718  1.00  0.00     0.031 C 
ATOM     47  C   UNL A   1      42.551  29.543  31.140  1.00  0.00     0.029 A 
ATOM     48  C   UNL A   1      43.190  28.778  30.077  1.00  0.00     0.049 A 
ATOM     49  H   UNL A   1      42.196  27.098  29.197  1.00  0.00     0.167 HD
ATOM     50  C   UNL A   1      37.620  32.581  30.223  1.00  0.00     0.037 A 
ATOM     51  C   UNL A   1      44.115  29.259  29.193  1.00  0.00     0.037 A 
ATOM     52  C   UNL A   1      38.950  32.966  30.711  1.00  0.00     0.049 A 
ATOM     53  C   UNL A   1      44.044  30.761  29.116  1.00  0.00     0.074 A 
ATOM     54  C   UNL A   1      39.618  32.669  31.889  1.00  0.00     0.029 A 
ATOM     55  N   UNL A   1      39.909  33.429  29.816  1.00  0.00    -0.354 N 
ATOM     56  N   UNL A   1      42.949  31.453  29.287  1.00  0.00    -0.248 NA
ATOM     57  C   UNL A   1      45.225  31.594  28.942  1.00  0.00     0.031 C 
ATOM     58  C   UNL A   1      41.003  32.879  31.667  1.00  0.00     0.029 A 
ATOM     59  C   UNL A   1      41.173  33.321  30.365  1.00  0.00     0.049 A 
ATOM     60  H   UNL A   1      39.715  33.783  28.918  1.00  0.00     0.167 HD
ATOM     61  C   UNL A   1      43.267  32.784  29.339  1.00  0.00     0.074 A 
ATOM     62  C   UNL A   1      44.699  32.822  29.094  1.00  0.00     0.031 C 
ATOM     63  C   UNL A   1      42.352  33.757  29.630  1.00  0.00     0.037 A 
BRANCH  50  64
ATOM     64  C   UNL A   1      36.343  33.077  30.888  1.00  0.00     0.064 A 
ATOM     65  C   UNL A   1      35.494  33.982  30.206  1.00  0.00     0.173 A 
ATOM     66  C   UNL A   1      35.912  32.756  32.189  1.00  0.00     0.173 A 
ATOM     67  F   UNL A   1      35.703  34.314  28.925  1.00  0.00    -0.203 F 
ATOM     68  C   UNL A   1      34.383  34.585  30.805  1.00  0.00     0.198 A 
ATOM     69  C   UNL A   1      34.810  33.374  32.798  1.00  0.00     0.198 A 
ATOM     70  F   UNL A   1      36.500  31.802  32.914  1.00  0.00    -0.203 F 
ATOM     71  F   UNL A   1      33.639  35.455  30.106  1.00  0.00    -0.200 F 
ATOM     72  C   UNL A   1      34.053  34.297  32.112  1.00  0.00     0.200 A 
ATOM     73  F   UNL A   1      34.487  33.056  34.060  1.00  0.00    -0.200 F 
ATOM     74  F   UNL A   1      33.000  34.885  32.694  1.00  0.00    -0.200 F 
ENDBRANCH  50  64
BRANCH  51  75
ATOM     75  C   UNL A   1      44.344  28.315  28.050  1.00  0.00     0.064 A 
ATOM     76  C   UNL A   1      44.805  27.016  28.365  1.00  0.00     0.173 A 
ATOM     77  C   UNL A   1      43.729  28.484  26.801  1.00  0.00     0.173 A 
ATOM     78  F   UNL A   1      45.402  26.791  29.547  1.00  0.00    -0.203 F 
ATOM     79  C   UNL A   1      44.532  25.922  27.545  1.00  0.00     0.198 A 
ATOM     80  C   UNL A   1      43.479  27.385  25.968  1.00  0.00     0.198 A 
ATOM     81  F   UNL A   1      43.268  29.685  26.427  1.00  0.00    -0.203 F 
ATOM     82  F   UNL A   1      44.863  24.686  27.949  1.00  0.00    -0.200 F 
ATOM     83  C   UNL A   1      43.843  26.103  26.360  1.00  0.00     0.200 A 
ATOM     84  F   UNL A   1      42.808  27.556  24.819  1.00  0.00    -0.200 F 
ATOM     85  F   UNL A   1      43.503  25.044  25.612  1.00  0.00    -0.200 F 
ENDBRANCH  51  75
BRANCH  63  86
ATOM     86  C   UNL A   1      42.536  35.235  29.385  1.00  0.00     0.064 A 
ATOM     87  C   UNL A   1      43.344  36.059  30.184  1.00  0.00     0.173 A 
ATOM     88  C   UNL A   1      42.018  35.847  28.216  1.00  0.00     0.173 A 
ATOM     89  F   UNL A   1      44.023  35.574  31.231  1.00  0.00    -0.203 F 
ATOM     90  C   UNL A   1      43.535  37.411  29.895  1.00  0.00     0.198 A 
ATOM     91  C   UNL A   1      42.275  37.175  27.889  1.00  0.00     0.198 A 
ATOM     92  F   UNL A   1      41.272  35.169  27.330  1.00  0.00    -0.203 F 
ATOM     93  F   UNL A   1      44.261  38.167  30.728  1.00  0.00    -0.200 F 
ATOM     94  C   UNL A   1      43.011  37.966  28.743  1.00  0.00     0.200 A 
ATOM     95  F   UNL A   1      41.821  37.675  26.731  1.00  0.00    -0.200 F 
ATOM     96  F   UNL A   1      43.238  39.251  28.446  1.00  0.00    -0.200 F 
ENDBRANCH  63  86
ENDBRANCH  37  38
ENDBRANCH  29  32
ENDBRANCH  27  28
ENDBRANCH  26  27
ENDBRANCH   1  26
TORSDOF 14
ENDMDL
MODEL 2
REMARK VINA RESULT:     -14.1      4.129     10.279
REMARK SMILES Cc1cc(F)cc(N[C@](C)(C(=O)NCCCCNC(=O)c2ccc(-c3c4nc(c(-c5c(F)c(F)c(F)c(F)c5F)c5ccc([nH]5)c(-c5c(F)c(F)c(F)c(F)c5F)c5nc(c(-c6c(F)c(F)c(F)c(F)c6F)c6ccc3[nH]6)C=C5)C=C4)cc2)c2cccc(F)c2)c1
REMARK SMILES IDX 15 1 14 2 13 3 11 4 12 5 9 7 10 8 8 9 7 11 1 12 2 13 3 14
REMARK SMILES IDX 91 15 4 16 5 17 6 18 84 19 85 20 90 21 86 22 88 23 87 24
REMARK SMILES IDX 89 25 16 26 17 27 18 28 19 29 20 31 21 32 22 33 83 34 23 35
REMARK SMILES IDX 82 36 24 37 25 38 26 39 76 40 27 41 81 42 75 43 77 44 28 45
REMARK SMILES IDX 80 46 74 47 73 48 29 50 61 51 41 52 60 53 42 54 45 55 59 56
REMARK SMILES IDX 78 57 43 58 44 59 58 61 79 62 46 63 30 64 31 65 39 66 32 67
REMARK SMILES IDX 33 68 37 69 40 70 34 71 35 72 38 73 36 74 62 75 63 76 71 77
REMARK SMILES IDX 64 78 65 79 69 80 72 81 66 82 67 83 70 84 68 85 47 86 48 87
REMARK SMILES IDX 56 88 49 89 50 90 54 91 57 92 51 93 52 94 55 95 53 96
REMARK H PARENT 13 6 8 10 18 30 77 49 45 60
REMARK Flexibility Score: inf
ROOT
ATOM      1  C   UNL A   1      32.796  27.041  26.461  1.00  0.00     0.023 C 
ENDROOT
BRANCH   1   2
ATOM      2  C   UNL A   1      33.209  25.628  26.030  1.00  0.00     0.116 C 
BRANCH   2   3
ATOM      3  N   UNL A   1      32.066  24.893  25.541  1.00  0.00    -0.354 N 
ATOM      4  C   UNL A   1      31.972  23.584  25.169  1.00  0.00     0.250 C 
ATOM      5  O   UNL A   1      31.152  23.378  24.259  1.00  0.00    -0.272 OA
ATOM      6  H   UNL A   1      31.234  25.412  25.467  1.00  0.00     0.163 HD
BRANCH   4   7
ATOM      7  C   UNL A   1      32.829  22.389  25.802  1.00  0.00     0.139 C 
ATOM      8  C   UNL A   1      33.088  22.436  27.330  1.00  0.00     0.051 C 
BRANCH   7   9
ATOM      9  N   UNL A   1      32.031  21.136  25.580  1.00  0.00    -0.368 N 
ATOM     10  H   UNL A   1      31.161  21.082  26.039  1.00  0.00     0.161 HD
BRANCH   9  11
ATOM     11  C   UNL A   1      32.389  20.040  24.794  1.00  0.00     0.038 A 
ATOM     12  C   UNL A   1      33.885  16.567  25.457  1.00  0.00     0.044 C 
ATOM     13  C   UNL A   1      33.280  17.739  24.746  1.00  0.00    -0.046 A 
ATOM     14  C   UNL A   1      33.067  17.680  23.369  1.00  0.00     0.042 A 
ATOM     15  C   UNL A   1      32.919  18.907  25.443  1.00  0.00     0.029 A 
ATOM     16  C   UNL A   1      32.535  18.781  22.719  1.00  0.00     0.125 A 
ATOM     17  F   UNL A   1      32.336  18.731  21.394  1.00  0.00    -0.207 F 
ATOM     18  C   UNL A   1      32.207  19.944  23.411  1.00  0.00     0.065 A 
ENDBRANCH   9  11
ENDBRANCH   7   9
BRANCH   7  19
ATOM     19  C   UNL A   1      34.195  22.316  25.038  1.00  0.00    -0.011 A 
ATOM     20  C   UNL A   1      34.400  22.886  23.764  1.00  0.00     0.007 A 
ATOM     21  C   UNL A   1      35.342  21.772  25.657  1.00  0.00     0.046 A 
ATOM     22  C   UNL A   1      35.674  22.935  23.170  1.00  0.00     0.003 A 
ATOM     23  C   UNL A   1      36.611  21.879  25.088  1.00  0.00     0.123 A 
ATOM     24  C   UNL A   1      36.789  22.459  23.848  1.00  0.00     0.039 A 
ATOM     25  F   UNL A   1      37.675  21.459  25.786  1.00  0.00    -0.207 F 
ENDBRANCH   7  19
ENDBRANCH   4   7
ENDBRANCH   2   3
ENDBRANCH   1   2
BRANCH   1  26
ATOM     26  C   UNL A   1      33.669  28.179  25.930  1.00  0.00     0.023 C 
BRANCH  26  27
ATOM     27  C   UNL A   1      34.804  28.542  26.866  1.00  0.00     0.116 C 
BRANCH  27  28
ATOM     28  N   UNL A   1      34.905  29.985  27.097  1.00  0.00    -0.352 N 
ATOM     29  C   UNL A   1      35.792  30.644  27.924  1.00  0.00     0.251 C 
ATOM     30  H   UNL A   1      34.265  30.551  26.606  1.00  0.00     0.163 HD
ATOM     31  O   UNL A   1      35.632  31.803  28.267  1.00  0.00    -0.269 OA
BRANCH  29  32
ATOM     32  C   UNL A   1      36.974  29.892  28.353  1.00  0.00     0.039 A 
ATOM     33  C   UNL A   1      36.990  29.127  29.526  1.00  0.00     0.014 A 
ATOM     34  C   UNL A   1      38.057  29.930  27.483  1.00  0.00     0.014 A 
ATOM     35  C   UNL A   1      38.110  28.346  29.801  1.00  0.00     0.010 A 
ATOM     36  C   UNL A   1      39.055  29.024  27.648  1.00  0.00     0.010 A 
ATOM     37  C   UNL A   1      39.126  28.304  28.847  1.00  0.00    -0.014 A 
BRANCH  37  38
ATOM     38  C   UNL A   1      40.421  27.677  29.021  1.00  0.00     0.031 A 
ATOM     39  C   UNL A   1      40.686  26.326  28.527  1.00  0.00     0.074 A 
ATOM     40  C   UNL A   1      41.377  28.555  29.396  1.00  0.00     0.049 A 
ATOM     41  N   UNL A   1      41.696  25.619  28.887  1.00  0.00    -0.248 NA
ATOM     42  C   UNL A   1      39.813  25.638  27.582  1.00  0.00     0.031 C 
ATOM     43  C   UNL A   1      42.822  28.491  29.275  1.00  0.00     0.029 A 
ATOM     44  N   UNL A   1      41.149  29.770  30.068  1.00  0.00    -0.354 N 
ATOM     45  C   UNL A   1      41.810  24.578  27.989  1.00  0.00     0.074 A 
ATOM     46  C   UNL A   1      40.538  24.545  27.308  1.00  0.00     0.031 C 
ATOM     47  C   UNL A   1      43.358  29.408  30.104  1.00  0.00     0.029 A 
ATOM     48  C   UNL A   1      42.266  29.974  30.886  1.00  0.00     0.049 A 
ATOM     49  H   UNL A   1      40.364  30.356  29.982  1.00  0.00     0.167 HD
ATOM     50  C   UNL A   1      43.045  24.017  27.820  1.00  0.00     0.037 A 
ATOM     51  C   UNL A   1      42.097  29.838  32.235  1.00  0.00     0.037 A 
ATOM     52  C   UNL A   1      43.999  24.657  28.734  1.00  0.00     0.049 A 
ATOM     53  C   UNL A   1      42.869  28.651  32.749  1.00  0.00     0.074 A 
ATOM     54  C   UNL A   1      44.927  25.665  28.534  1.00  0.00     0.029 A 
ATOM     55  N   UNL A   1      43.820  24.548  30.109  1.00  0.00    -0.354 N 
ATOM     56  N   UNL A   1      43.101  27.570  32.053  1.00  0.00    -0.248 NA
ATOM     57  C   UNL A   1      43.520  28.643  34.051  1.00  0.00     0.031 C 
ATOM     58  C   UNL A   1      45.244  26.221  29.800  1.00  0.00     0.029 A 
ATOM     59  C   UNL A   1      44.524  25.539  30.767  1.00  0.00     0.049 A 
ATOM     60  H   UNL A   1      43.268  23.863  30.551  1.00  0.00     0.167 HD
ATOM     61  C   UNL A   1      43.980  26.777  32.741  1.00  0.00     0.074 A 
ATOM     62  C   UNL A   1      44.193  27.480  33.995  1.00  0.00     0.031 C 
ATOM     63  C   UNL A   1      44.513  25.631  32.220  1.00  0.00     0.037 A 
BRANCH  50  64
ATOM     64  C   UNL A   1      43.503  23.149  26.655  1.00  0.00     0.064 A 
ATOM     65  C   UNL A   1      43.168  21.773  26.621  1.00  0.00     0.173 A 
ATOM     66  C   UNL A   1      44.301  23.572  25.575  1.00  0.00     0.173 A 
ATOM     67  F   UNL A   1      42.334  21.230  27.517  1.00  0.00    -0.203 F 
ATOM     68  C   UNL A   1      43.670  20.890  25.658  1.00  0.00     0.198 A 
ATOM     69  C   UNL A   1      44.819  22.685  24.621  1.00  0.00     0.198 A 
ATOM     70  F   UNL A   1      44.577  24.861  25.362  1.00  0.00    -0.203 F 
ATOM     71  F   UNL A   1      43.332  19.593  25.705  1.00  0.00    -0.200 F 
ATOM     72  C   UNL A   1      44.515  21.342  24.669  1.00  0.00     0.200 A 
ATOM     73  F   UNL A   1      45.616  23.151  23.647  1.00  0.00    -0.200 F 
ATOM     74  F   UNL A   1      45.011  20.497  23.757  1.00  0.00    -0.200 F 
ENDBRANCH  50  64
BRANCH  51  75
ATOM     75  C   UNL A   1      40.732  30.276  32.678  1.00  0.00     0.064 A 
ATOM     76  C   UNL A   1      40.358  31.609  32.394  1.00  0.00     0.173 A 
ATOM     77  C   UNL A   1      39.696  29.366  32.932  1.00  0.00     0.173 A 
ATOM     78  F   UNL A   1      41.305  32.528  32.142  1.00  0.00    -0.203 F 
ATOM     79  C   UNL A   1      39.022  31.976  32.226  1.00  0.00     0.198 A 
ATOM     80  C   UNL A   1      38.355  29.746  32.786  1.00  0.00     0.198 A 
ATOM     81  F   UNL A   1      39.970  28.085  33.211  1.00  0.00    -0.203 F 
ATOM     82  F   UNL A   1      38.718  33.217  31.819  1.00  0.00    -0.200 F 
ATOM     83  C   UNL A   1      38.023  31.035  32.394  1.00  0.00     0.200 A 
ATOM     84  F   UNL A   1      37.382  28.836  32.945  1.00  0.00    -0.200 F 
ATOM     85  F   UNL A   1      36.746  31.361  32.148  1.00  0.00    -0.200 F 
ENDBRANCH  51  75
BRANCH  63  86
ATOM     86  C   UNL A   1      45.208  24.549  33.011  1.00  0.00     0.064 A 
ATOM     87  C   UNL A   1      46.505  24.680  33.531  1.00  0.00     0.173 A 
ATOM     88  C   UNL A   1      44.510  23.382  33.413  1.00  0.00     0.173 A 
ATOM     89  F   UNL A   1      47.219  25.801  33.362  1.00  0.00    -0.203 F 
ATOM     90  C   UNL A   1      47.095  23.681  34.306  1.00  0.00     0.198 A 
ATOM     91  C   UNL A   1      45.074  22.424  34.250  1.00  0.00     0.198 A 
ATOM     92  F   UNL A   1      43.244  23.146  33.037  1.00  0.00    -0.203 F 
ATOM     93  F   UNL A   1      48.360  23.828  34.721  1.00  0.00    -0.200 F 
ATOM     94  C   UNL A   1      46.377  22.559  34.675  1.00  0.00     0.200 A 
ATOM     95  F   UNL A   1      44.337  21.381  34.657  1.00  0.00    -0.200 F 
ATOM     96  F   UNL A   1      46.932  21.626  35.457  1.00  0.00    -0.200 F 
ENDBRANCH  63  86
ENDBRANCH  37  38
ENDBRANCH  29  32
ENDBRANCH  27  28
ENDBRANCH  26  27
ENDBRANCH   1  26
TORSDOF 14
ENDMDL
MODEL 3
REMARK VINA RESULT:     -14.1      1.019      1.877
REMARK SMILES Cc1cc(F)cc(N[C@](C)(C(=O)NCCCCNC(=O)c2ccc(-c3c4nc(c(-c5c(F)c(F)c(F)c(F)c5F)c5ccc([nH]5)c(-c5c(F)c(F)c(F)c(F)c5F)c5nc(c(-c6c(F)c(F)c(F)c(F)c6F)c6ccc3[nH]6)C=C5)C=C4)cc2)c2cccc(F)c2)c1
REMARK SMILES IDX 15 1 14 2 13 3 11 4 12 5 9 7 10 8 8 9 7 11 1 12 2 13 3 14
REMARK SMILES IDX 91 15 4 16 5 17 6 18 84 19 85 20 90 21 86 22 88 23 87 24
REMARK SMILES IDX 89 25 16 26 17 27 18 28 19 29 20 31 21 32 22 33 83 34 23 35
REMARK SMILES IDX 82 36 24 37 25 38 26 39 76 40 27 41 81 42 75 43 77 44 28 45
REMARK SMILES IDX 80 46 74 47 73 48 29 50 61 51 41 52 60 53 42 54 45 55 59 56
REMARK SMILES IDX 78 57 43 58 44 59 58 61 79 62 46 63 30 64 31 65 39 66 32 67
REMARK SMILES IDX 33 68 37 69 40 70 34 71 35 72 38 73 36 74 62 75 63 76 71 77
REMARK SMILES IDX 64 78 65 79 69 80 72 81 66 82 67 83 70 84 68 85 47 86 48 87
REMARK SMILES IDX 56 88 49 89 50 90 54 91 57 92 51 93 52 94 55 95 53 96
REMARK H PARENT 13 6 8 10 18 30 77 49 45 60
REMARK Flexibility Score: inf
ROOT
ATOM      1  C   UNL A   1      34.747  24.048  25.421  1.00  0.00     0.023 C 
ENDROOT
BRANCH   1   2
ATOM      2  C   UNL A   1      34.401  25.263  24.551  1.00  0.00     0.116 C 
BRANCH   2   3
ATOM      3  N   UNL A   1      33.295  24.960  23.673  1.00  0.00    -0.354 N 
ATOM      4  C   UNL A   1      32.222  25.730  23.332  1.00  0.00     0.250 C 
ATOM      5  O   UNL A   1      31.185  25.081  23.117  1.00  0.00    -0.272 OA
ATOM      6  H   UNL A   1      33.319  24.066  23.261  1.00  0.00     0.163 HD
BRANCH   4   7
ATOM      7  C   UNL A   1      32.241  27.327  23.224  1.00  0.00     0.139 C 
ATOM      8  C   UNL A   1      33.528  27.984  22.660  1.00  0.00     0.051 C 
BRANCH   7   9
ATOM      9  N   UNL A   1      31.158  27.695  22.251  1.00  0.00    -0.368 N 
ATOM     10  H   UNL A   1      31.290  27.410  21.317  1.00  0.00     0.161 HD
BRANCH   9  11
ATOM     11  C   UNL A   1      29.984  28.399  22.526  1.00  0.00     0.038 A 
ATOM     12  C   UNL A   1      28.760  31.998  21.990  1.00  0.00     0.044 C 
ATOM     13  C   UNL A   1      28.778  30.545  22.355  1.00  0.00    -0.046 A 
ATOM     14  C   UNL A   1      27.640  29.955  22.905  1.00  0.00     0.042 A 
ATOM     15  C   UNL A   1      29.926  29.756  22.152  1.00  0.00     0.029 A 
ATOM     16  C   UNL A   1      27.678  28.618  23.266  1.00  0.00     0.125 A 
ATOM     17  F   UNL A   1      26.589  28.049  23.803  1.00  0.00    -0.207 F 
ATOM     18  C   UNL A   1      28.828  27.851  23.089  1.00  0.00     0.065 A 
ENDBRANCH   9  11
ENDBRANCH   7   9
BRANCH   7  19
ATOM     19  C   UNL A   1      31.929  27.913  24.644  1.00  0.00    -0.011 A 
ATOM     20  C   UNL A   1      31.459  27.128  25.717  1.00  0.00     0.007 A 
ATOM     21  C   UNL A   1      32.230  29.258  24.954  1.00  0.00     0.046 A 
ATOM     22  C   UNL A   1      31.332  27.649  27.017  1.00  0.00     0.003 A 
ATOM     23  C   UNL A   1      32.159  29.750  26.257  1.00  0.00     0.123 A 
ATOM     24  C   UNL A   1      31.714  28.957  27.295  1.00  0.00     0.039 A 
ATOM     25  F   UNL A   1      32.581  30.997  26.506  1.00  0.00    -0.207 F 
ENDBRANCH   7  19
ENDBRANCH   4   7
ENDBRANCH   2   3
ENDBRANCH   1   2
BRANCH   1  26
ATOM     26  C   UNL A   1      35.957  23.230  24.967  1.00  0.00     0.023 C 
BRANCH  26  27
ATOM     27  C   UNL A   1      37.274  23.794  25.462  1.00  0.00     0.116 C 
BRANCH  27  28
ATOM     28  N   UNL A   1      38.192  22.754  25.933  1.00  0.00    -0.352 N 
ATOM     29  C   UNL A   1      39.432  22.927  26.512  1.00  0.00     0.251 C 
ATOM     30  H   UNL A   1      37.889  21.823  25.822  1.00  0.00     0.163 HD
ATOM     31  O   UNL A   1      40.238  22.019  26.621  1.00  0.00    -0.269 OA
BRANCH  29  32
ATOM     32  C   UNL A   1      39.734  24.263  27.034  1.00  0.00     0.039 A 
ATOM     33  C   UNL A   1      40.373  25.241  26.263  1.00  0.00     0.014 A 
ATOM     34  C   UNL A   1      39.282  24.519  28.323  1.00  0.00     0.014 A 
ATOM     35  C   UNL A   1      40.515  26.522  26.790  1.00  0.00     0.010 A 
ATOM     36  C   UNL A   1      39.242  25.807  28.753  1.00  0.00     0.010 A 
ATOM     37  C   UNL A   1      39.937  26.785  28.031  1.00  0.00    -0.014 A 
BRANCH  37  38
ATOM     38  C   UNL A   1      40.110  27.999  28.802  1.00  0.00     0.031 A 
ATOM     39  C   UNL A   1      39.150  29.100  28.715  1.00  0.00     0.074 A 
ATOM     40  C   UNL A   1      41.037  27.870  29.777  1.00  0.00     0.049 A 
ATOM     41  N   UNL A   1      39.384  30.288  29.143  1.00  0.00    -0.248 NA
ATOM     42  C   UNL A   1      37.829  28.958  28.114  1.00  0.00     0.031 C 
ATOM     43  C   UNL A   1      41.232  28.619  31.004  1.00  0.00     0.029 A 
ATOM     44  N   UNL A   1      42.101  26.949  29.771  1.00  0.00    -0.354 N 
ATOM     45  C   UNL A   1      38.174  30.946  29.211  1.00  0.00     0.074 A 
ATOM     46  C   UNL A   1      37.277  30.141  28.417  1.00  0.00     0.031 C 
ATOM     47  C   UNL A   1      42.476  28.371  31.459  1.00  0.00     0.029 A 
ATOM     48  C   UNL A   1      43.156  27.574  30.445  1.00  0.00     0.049 A 
ATOM     49  H   UNL A   1      42.103  26.049  29.373  1.00  0.00     0.167 HD
ATOM     50  C   UNL A   1      38.062  31.982  30.096  1.00  0.00     0.037 A 
ATOM     51  C   UNL A   1      44.232  27.975  29.704  1.00  0.00     0.037 A 
ATOM     52  C   UNL A   1      39.354  32.195  30.760  1.00  0.00     0.049 A 
ATOM     53  C   UNL A   1      44.336  29.477  29.690  1.00  0.00     0.074 A 
ATOM     54  C   UNL A   1      39.832  31.785  31.994  1.00  0.00     0.029 A 
ATOM     55  N   UNL A   1      40.463  32.576  30.010  1.00  0.00    -0.354 N 
ATOM     56  N   UNL A   1      43.311  30.284  29.760  1.00  0.00    -0.248 NA
ATOM     57  C   UNL A   1      45.614  30.175  29.700  1.00  0.00     0.031 C 
ATOM     58  C   UNL A   1      41.249  31.843  31.951  1.00  0.00     0.029 A 
ATOM     59  C   UNL A   1      41.629  32.305  30.702  1.00  0.00     0.049 A 
ATOM     60  H   UNL A   1      40.423  32.979  29.113  1.00  0.00     0.167 HD
ATOM     61  C   UNL A   1      43.764  31.567  29.913  1.00  0.00     0.074 A 
ATOM     62  C   UNL A   1      45.210  31.449  29.845  1.00  0.00     0.031 C 
ATOM     63  C   UNL A   1      42.930  32.628  30.137  1.00  0.00     0.037 A 
BRANCH  50  64
ATOM     64  C   UNL A   1      36.774  32.598  30.625  1.00  0.00     0.064 A 
ATOM     65  C   UNL A   1      36.049  33.519  29.828  1.00  0.00     0.173 A 
ATOM     66  C   UNL A   1      36.217  32.380  31.899  1.00  0.00     0.173 A 
ATOM     67  F   UNL A   1      36.386  33.764  28.555  1.00  0.00    -0.203 F 
ATOM     68  C   UNL A   1      34.939  34.227  30.300  1.00  0.00     0.198 A 
ATOM     69  C   UNL A   1      35.115  33.103  32.380  1.00  0.00     0.198 A 
ATOM     70  F   UNL A   1      36.674  31.431  32.718  1.00  0.00    -0.203 F 
ATOM     71  F   UNL A   1      34.318  35.104  29.498  1.00  0.00    -0.200 F 
ATOM     72  C   UNL A   1      34.484  34.035  31.586  1.00  0.00     0.200 A 
ATOM     73  F   UNL A   1      34.668  32.878  33.625  1.00  0.00    -0.200 F 
ATOM     74  F   UNL A   1      33.432  34.723  32.047  1.00  0.00    -0.200 F 
ENDBRANCH  50  64
BRANCH  51  75
ATOM     75  C   UNL A   1      44.498  27.050  28.553  1.00  0.00     0.064 A 
ATOM     76  C   UNL A   1      44.136  27.500  27.264  1.00  0.00     0.173 A 
ATOM     77  C   UNL A   1      45.446  26.018  28.623  1.00  0.00     0.173 A 
ATOM     78  F   UNL A   1      43.234  28.486  27.132  1.00  0.00    -0.203 F 
ATOM     79  C   UNL A   1      44.794  27.051  26.118  1.00  0.00     0.198 A 
ATOM     80  C   UNL A   1      46.086  25.552  27.466  1.00  0.00     0.198 A 
ATOM     81  F   UNL A   1      45.839  25.534  29.809  1.00  0.00    -0.203 F 
ATOM     82  F   UNL A   1      44.517  27.607  24.929  1.00  0.00    -0.200 F 
ATOM     83  C   UNL A   1      45.789  26.097  26.225  1.00  0.00     0.200 A 
ATOM     84  F   UNL A   1      47.054  24.629  27.565  1.00  0.00    -0.200 F 
ATOM     85  F   UNL A   1      46.482  25.726  25.139  1.00  0.00    -0.200 F 
ENDBRANCH  51  75
BRANCH  63  86
ATOM     86  C   UNL A   1      43.305  34.083  29.986  1.00  0.00     0.064 A 
ATOM     87  C   UNL A   1      43.390  34.737  28.747  1.00  0.00     0.173 A 
ATOM     88  C   UNL A   1      43.439  34.919  31.122  1.00  0.00     0.173 A 
ATOM     89  F   UNL A   1      43.130  34.101  27.598  1.00  0.00    -0.203 F 
ATOM     90  C   UNL A   1      43.686  36.097  28.649  1.00  0.00     0.198 A 
ATOM     91  C   UNL A   1      43.656  36.291  31.021  1.00  0.00     0.198 A 
ATOM     92  F   UNL A   1      43.329  34.444  32.372  1.00  0.00    -0.203 F 
ATOM     93  F   UNL A   1      43.821  36.657  27.440  1.00  0.00    -0.200 F 
ATOM     94  C   UNL A   1      43.807  36.876  29.784  1.00  0.00     0.200 A 
ATOM     95  F   UNL A   1      43.696  37.041  32.131  1.00  0.00    -0.200 F 
ATOM     96  F   UNL A   1      44.043  38.190  29.683  1.00  0.00    -0.200 F 
ENDBRANCH  63  86
ENDBRANCH  37  38
ENDBRANCH  29  32
ENDBRANCH  27  28
ENDBRANCH  26  27
ENDBRANCH   1  26
TORSDOF 14
ENDMDL
