MODEL 1
REMARK VINA RESULT:     -12.4      0.000      0.000
REMARK SMILES O=C(NCCCCNC(=O)[C@H]1CC[C@@H](C[NH2+][C@H]2CCC[C@H](C3CC3)C2)CC1)c1ccc(-c2c3nc(c(-c4c(F)c(F)c(F)c(F)c4F)c4ccc([nH]4)c(-c4c(F)c(F)c(F)c(F)c4F)c4nc(c(-c5c(F)c(F)c(F)c(F)c5F)c5ccc2[nH]5)C=C4)C=C3)cc1
REMARK SMILES IDX 6 1 5 2 4 3 3 4 1 5 2 6 28 8 29 9 90 10 30 11 89 12 31 13
REMARK SMILES IDX 32 14 33 15 83 16 34 17 88 18 82 19 84 20 35 21 87 22 81 23
REMARK SMILES IDX 80 24 36 26 68 27 48 28 67 29 49 30 52 31 66 32 85 33 50 34
REMARK SMILES IDX 51 35 65 37 86 38 53 39 37 40 38 41 46 42 39 43 40 44 44 45
REMARK SMILES IDX 47 46 41 47 42 48 45 49 43 50 69 51 70 52 78 53 71 54 72 55
REMARK SMILES IDX 76 56 79 57 73 58 74 59 77 60 75 61 54 62 55 63 63 64 56 65
REMARK SMILES IDX 57 66 61 67 64 68 58 69 59 70 62 71 60 72 7 73 8 74 9 75
REMARK SMILES IDX 10 77 11 78 27 79 12 80 26 81 13 82 14 83 15 84 16 85 17 88
REMARK SMILES IDX 18 89 25 90 19 91 21 92 20 93 22 94 23 95 24 96
REMARK H PARENT 3 7 84 25 52 36 8 76 16 86 16 87
REMARK Flexibility Score: inf
ROOT
ATOM      1  C   UNL A   1      31.623  30.811  26.122  1.00  0.00     0.023 C 
ENDROOT
BRANCH   1   2
ATOM      2  C   UNL A   1      31.404  32.232  26.641  1.00  0.00     0.023 C 
BRANCH   2   3
ATOM      3  C   UNL A   1      32.653  32.919  27.179  1.00  0.00     0.116 C 
BRANCH   3   4
ATOM      4  N   UNL A   1      32.393  34.271  27.651  1.00  0.00    -0.352 N 
ATOM      5  O   UNL A   1      32.558  36.041  29.043  1.00  0.00    -0.269 OA
ATOM      6  C   UNL A   1      32.993  34.953  28.680  1.00  0.00     0.251 C 
ATOM      7  H   UNL A   1      31.692  34.763  27.167  1.00  0.00     0.163 HD
BRANCH   6   8
ATOM      8  C   UNL A   1      34.151  34.350  29.367  1.00  0.00     0.039 A 
ATOM      9  C   UNL A   1      35.449  34.577  28.901  1.00  0.00     0.014 A 
ATOM     10  C   UNL A   1      33.930  33.544  30.486  1.00  0.00     0.014 A 
ATOM     11  C   UNL A   1      36.516  33.896  29.476  1.00  0.00     0.010 A 
ATOM     12  C   UNL A   1      35.012  32.922  31.110  1.00  0.00     0.010 A 
ATOM     13  C   UNL A   1      36.309  33.075  30.595  1.00  0.00    -0.014 A 
BRANCH  13  14
ATOM     14  C   UNL A   1      37.467  32.435  31.261  1.00  0.00     0.031 A 
ATOM     15  C   UNL A   1      38.196  31.291  30.620  1.00  0.00     0.074 A 
ATOM     16  C   UNL A   1      37.846  32.890  32.470  1.00  0.00     0.049 A 
ATOM     17  N   UNL A   1      39.196  30.587  31.084  1.00  0.00    -0.248 NA
ATOM     18  C   UNL A   1      37.735  30.876  29.287  1.00  0.00     0.031 C 
ATOM     19  C   UNL A   1      37.196  33.985  33.194  1.00  0.00     0.029 A 
ATOM     20  N   UNL A   1      38.855  32.490  33.305  1.00  0.00    -0.354 N 
ATOM     21  C   UNL A   1      39.471  29.631  30.115  1.00  0.00     0.074 A 
ATOM     22  C   UNL A   1      38.516  29.832  29.045  1.00  0.00     0.031 C 
ATOM     23  C   UNL A   1      37.829  34.177  34.358  1.00  0.00     0.029 A 
ATOM     24  C   UNL A   1      38.889  33.183  34.488  1.00  0.00     0.049 A 
ATOM     25  H   UNL A   1      39.493  31.775  33.078  1.00  0.00     0.167 HD
ATOM     26  C   UNL A   1      40.437  28.680  30.121  1.00  0.00     0.037 A 
ATOM     27  C   UNL A   1      39.664  33.017  35.575  1.00  0.00     0.037 A 
ATOM     28  C   UNL A   1      41.389  28.501  31.188  1.00  0.00     0.049 A 
ATOM     29  C   UNL A   1      40.712  31.943  35.566  1.00  0.00     0.074 A 
ATOM     30  C   UNL A   1      42.443  27.608  31.262  1.00  0.00     0.029 A 
ATOM     31  N   UNL A   1      41.391  29.222  32.375  1.00  0.00    -0.354 N 
ATOM     32  N   UNL A   1      40.999  31.081  34.622  1.00  0.00    -0.248 NA
ATOM     33  C   UNL A   1      41.544  31.820  36.769  1.00  0.00     0.031 C 
ATOM     34  C   UNL A   1      43.050  27.751  32.515  1.00  0.00     0.029 A 
ATOM     35  C   UNL A   1      42.409  28.770  33.201  1.00  0.00     0.049 A 
ATOM     36  H   UNL A   1      40.763  29.947  32.596  1.00  0.00     0.167 HD
ATOM     37  C   UNL A   1      42.052  30.320  35.108  1.00  0.00     0.074 A 
ATOM     38  C   UNL A   1      42.363  30.835  36.427  1.00  0.00     0.031 C 
ATOM     39  C   UNL A   1      42.701  29.290  34.514  1.00  0.00     0.037 A 
BRANCH  26  40
ATOM     40  C   UNL A   1      40.495  27.742  28.950  1.00  0.00     0.064 A 
ATOM     41  C   UNL A   1      41.334  27.977  27.851  1.00  0.00     0.173 A 
ATOM     42  C   UNL A   1      39.718  26.572  28.942  1.00  0.00     0.173 A 
ATOM     43  F   UNL A   1      42.091  29.083  27.804  1.00  0.00    -0.203 F 
ATOM     44  C   UNL A   1      41.369  27.095  26.773  1.00  0.00     0.198 A 
ATOM     45  C   UNL A   1      39.778  25.677  27.876  1.00  0.00     0.198 A 
ATOM     46  F   UNL A   1      38.904  26.293  29.970  1.00  0.00    -0.203 F 
ATOM     47  F   UNL A   1      42.140  27.367  25.712  1.00  0.00    -0.200 F 
ATOM     48  C   UNL A   1      40.596  25.944  26.788  1.00  0.00     0.200 A 
ATOM     49  F   UNL A   1      39.039  24.560  27.899  1.00  0.00    -0.200 F 
ATOM     50  F   UNL A   1      40.631  25.096  25.751  1.00  0.00    -0.200 F 
ENDBRANCH  26  40
BRANCH  27  51
ATOM     51  C   UNL A   1      39.448  33.889  36.756  1.00  0.00     0.064 A 
ATOM     52  C   UNL A   1      38.685  33.456  37.847  1.00  0.00     0.173 A 
ATOM     53  C   UNL A   1      40.055  35.152  36.840  1.00  0.00     0.173 A 
ATOM     54  F   UNL A   1      38.074  32.262  37.805  1.00  0.00    -0.203 F 
ATOM     55  C   UNL A   1      38.534  34.255  38.978  1.00  0.00     0.198 A 
ATOM     56  C   UNL A   1      39.926  35.936  37.982  1.00  0.00     0.198 A 
ATOM     57  F   UNL A   1      40.805  35.605  35.825  1.00  0.00    -0.203 F 
ATOM     58  F   UNL A   1      37.779  33.828  39.999  1.00  0.00    -0.200 F 
ATOM     59  C   UNL A   1      39.162  35.490  39.049  1.00  0.00     0.200 A 
ATOM     60  F   UNL A   1      40.553  37.119  38.055  1.00  0.00    -0.200 F 
ATOM     61  F   UNL A   1      39.033  36.247  40.147  1.00  0.00    -0.200 F 
ENDBRANCH  27  51
BRANCH  39  62
ATOM     62  C   UNL A   1      43.827  28.658  35.277  1.00  0.00     0.064 A 
ATOM     63  C   UNL A   1      43.615  27.562  36.125  1.00  0.00     0.173 A 
ATOM     64  C   UNL A   1      45.141  29.126  35.120  1.00  0.00     0.173 A 
ATOM     65  F   UNL A   1      42.374  27.090  36.322  1.00  0.00    -0.203 F 
ATOM     66  C   UNL A   1      44.676  26.964  36.799  1.00  0.00     0.198 A 
ATOM     67  C   UNL A   1      46.203  28.509  35.774  1.00  0.00     0.198 A 
ATOM     68  F   UNL A   1      45.396  30.170  34.318  1.00  0.00    -0.203 F 
ATOM     69  F   UNL A   1      44.447  25.941  37.635  1.00  0.00    -0.200 F 
ATOM     70  C   UNL A   1      45.970  27.433  36.617  1.00  0.00     0.200 A 
ATOM     71  F   UNL A   1      47.453  28.954  35.587  1.00  0.00    -0.200 F 
ATOM     72  F   UNL A   1      46.992  26.849  37.258  1.00  0.00    -0.200 F 
ENDBRANCH  39  62
ENDBRANCH  13  14
ENDBRANCH   6   8
ENDBRANCH   3   4
ENDBRANCH   2   3
ENDBRANCH   1   2
BRANCH   1  73
ATOM     73  C   UNL A   1      32.970  30.203  26.498  1.00  0.00     0.116 C 
BRANCH  73  74
ATOM     74  N   UNL A   1      33.564  29.488  25.384  1.00  0.00    -0.356 N 
ATOM     75  C   UNL A   1      33.344  28.224  24.935  1.00  0.00     0.223 C 
ATOM     76  H   UNL A   1      34.231  29.999  24.872  1.00  0.00     0.163 HD
ATOM     77  O   UNL A   1      34.006  27.826  23.975  1.00  0.00    -0.275 OA
BRANCH  75  78
ATOM     78  C   UNL A   1      32.322  27.342  25.628  1.00  0.00     0.078 C 
ATOM     79  C   UNL A   1      31.045  27.266  24.781  1.00  0.00     0.014 C 
ATOM     80  C   UNL A   1      32.937  25.966  25.898  1.00  0.00     0.014 C 
ATOM     81  C   UNL A   1      30.040  26.280  25.374  1.00  0.00     0.010 C 
ATOM     82  C   UNL A   1      31.899  25.022  26.498  1.00  0.00     0.010 C 
ATOM     83  C   UNL A   1      30.652  24.885  25.605  1.00  0.00     0.044 C 
BRANCH  83  84
ATOM     84  C   UNL A   1      30.917  24.192  24.247  1.00  0.00     0.264 C 
BRANCH  84  85
ATOM     85  N   UNL A   1      31.408  22.827  24.420  1.00  0.00    -0.344 N 
ATOM     86  H   UNL A   1      30.608  22.200  24.506  1.00  0.00     0.346 HD
ATOM     87  H   UNL A   1      31.990  22.812  25.258  1.00  0.00     0.346 HD
BRANCH  85  88
ATOM     88  C   UNL A   1      32.242  22.374  23.293  1.00  0.00     0.182 C 
ATOM     89  C   UNL A   1      33.564  23.157  23.322  1.00  0.00     0.065 C 
ATOM     90  C   UNL A   1      32.542  20.868  23.352  1.00  0.00     0.069 C 
ATOM     91  C   UNL A   1      34.415  22.808  24.542  1.00  0.00     0.006 C 
ATOM     92  C   UNL A   1      33.383  20.473  24.584  1.00  0.00    -0.002 C 
ATOM     93  C   UNL A   1      34.676  21.305  24.626  1.00  0.00     0.004 C 
BRANCH  92  94
ATOM     94  C   UNL A   1      33.600  18.971  24.594  1.00  0.00    -0.008 C 
ATOM     95  C   UNL A   1      32.889  18.014  25.520  1.00  0.00     0.004 C 
ATOM     96  C   UNL A   1      32.531  18.048  24.061  1.00  0.00     0.004 C 
ENDBRANCH  92  94
ENDBRANCH  85  88
ENDBRANCH  84  85
ENDBRANCH  83  84
ENDBRANCH  75  78
ENDBRANCH  73  74
ENDBRANCH   1  73
TORSDOF 15
ENDMDL
MODEL 2
REMARK VINA RESULT:     -12.3      0.447      1.986
REMARK SMILES O=C(NCCCCNC(=O)[C@H]1CC[C@@H](C[NH2+][C@H]2CCC[C@H](C3CC3)C2)CC1)c1ccc(-c2c3nc(c(-c4c(F)c(F)c(F)c(F)c4F)c4ccc([nH]4)c(-c4c(F)c(F)c(F)c(F)c4F)c4nc(c(-c5c(F)c(F)c(F)c(F)c5F)c5ccc2[nH]5)C=C4)C=C3)cc1
REMARK SMILES IDX 6 1 5 2 4 3 3 4 1 5 2 6 28 8 29 9 90 10 30 11 89 12 31 13
REMARK SMILES IDX 32 14 33 15 83 16 34 17 88 18 82 19 84 20 35 21 87 22 81 23
REMARK SMILES IDX 80 24 36 26 68 27 48 28 67 29 49 30 52 31 66 32 85 33 50 34
REMARK SMILES IDX 51 35 65 37 86 38 53 39 37 40 38 41 46 42 39 43 40 44 44 45
REMARK SMILES IDX 47 46 41 47 42 48 45 49 43 50 69 51 70 52 78 53 71 54 72 55
REMARK SMILES IDX 76 56 79 57 73 58 74 59 77 60 75 61 54 62 55 63 63 64 56 65
REMARK SMILES IDX 57 66 61 67 64 68 58 69 59 70 62 71 60 72 7 73 8 74 9 75
REMARK SMILES IDX 10 77 11 78 27 79 12 80 26 81 13 82 14 83 15 84 16 85 17 88
REMARK SMILES IDX 18 89 25 90 19 91 21 92 20 93 22 94 23 95 24 96
REMARK H PARENT 3 7 84 25 52 36 8 76 16 86 16 87
REMARK Flexibility Score: inf
ROOT
ATOM      1  C   UNL A   1      31.496  30.814  26.131  1.00  0.00     0.023 C 
ENDROOT
BRANCH   1   2
ATOM      2  C   UNL A   1      31.375  32.289  26.512  1.00  0.00     0.023 C 
BRANCH   2   3
ATOM      3  C   UNL A   1      32.598  32.877  27.205  1.00  0.00     0.116 C 
BRANCH   3   4
ATOM      4  N   UNL A   1      32.394  34.250  27.641  1.00  0.00    -0.352 N 
ATOM      5  O   UNL A   1      32.675  36.064  28.955  1.00  0.00    -0.269 OA
ATOM      6  C   UNL A   1      33.066  34.954  28.609  1.00  0.00     0.251 C 
ATOM      7  H   UNL A   1      31.677  34.740  27.179  1.00  0.00     0.163 HD
BRANCH   6   8
ATOM      8  C   UNL A   1      34.248  34.350  29.252  1.00  0.00     0.039 A 
ATOM      9  C   UNL A   1      35.537  34.722  28.860  1.00  0.00     0.014 A 
ATOM     10  C   UNL A   1      34.060  33.395  30.254  1.00  0.00     0.014 A 
ATOM     11  C   UNL A   1      36.636  34.048  29.379  1.00  0.00     0.010 A 
ATOM     12  C   UNL A   1      35.168  32.774  30.830  1.00  0.00     0.010 A 
ATOM     13  C   UNL A   1      36.463  33.079  30.379  1.00  0.00    -0.014 A 
BRANCH  13  14
ATOM     14  C   UNL A   1      37.648  32.441  30.997  1.00  0.00     0.031 A 
ATOM     15  C   UNL A   1      38.382  31.332  30.302  1.00  0.00     0.074 A 
ATOM     16  C   UNL A   1      38.047  32.865  32.211  1.00  0.00     0.049 A 
ATOM     17  N   UNL A   1      39.406  30.632  30.720  1.00  0.00    -0.248 NA
ATOM     18  C   UNL A   1      37.897  30.950  28.968  1.00  0.00     0.031 C 
ATOM     19  C   UNL A   1      37.396  33.923  32.985  1.00  0.00     0.029 A 
ATOM     20  N   UNL A   1      39.084  32.458  33.008  1.00  0.00    -0.354 N 
ATOM     21  C   UNL A   1      39.675  29.714  29.714  1.00  0.00     0.074 A 
ATOM     22  C   UNL A   1      38.691  29.930  28.674  1.00  0.00     0.031 C 
ATOM     23  C   UNL A   1      38.053  34.090  34.139  1.00  0.00     0.029 A 
ATOM     24  C   UNL A   1      39.134  33.113  34.212  1.00  0.00     0.049 A 
ATOM     25  H   UNL A   1      39.729  31.762  32.744  1.00  0.00     0.167 HD
ATOM     26  C   UNL A   1      40.657  28.781  29.667  1.00  0.00     0.037 A 
ATOM     27  C   UNL A   1      39.937  32.927  35.275  1.00  0.00     0.037 A 
ATOM     28  C   UNL A   1      41.638  28.587  30.705  1.00  0.00     0.049 A 
ATOM     29  C   UNL A   1      41.005  31.875  35.206  1.00  0.00     0.074 A 
ATOM     30  C   UNL A   1      42.710  27.712  30.726  1.00  0.00     0.029 A 
ATOM     31  N   UNL A   1      41.656  29.269  31.914  1.00  0.00    -0.354 N 
ATOM     32  N   UNL A   1      41.284  31.048  34.229  1.00  0.00    -0.248 NA
ATOM     33  C   UNL A   1      41.867  31.729  36.385  1.00  0.00     0.031 C 
ATOM     34  C   UNL A   1      43.344  27.827  31.968  1.00  0.00     0.029 A 
ATOM     35  C   UNL A   1      42.702  28.811  32.701  1.00  0.00     0.049 A 
ATOM     36  H   UNL A   1      41.020  29.975  32.174  1.00  0.00     0.167 HD
ATOM     37  C   UNL A   1      42.362  30.293  34.665  1.00  0.00     0.074 A 
ATOM     38  C   UNL A   1      42.696  30.771  35.993  1.00  0.00     0.031 C 
ATOM     39  C   UNL A   1      43.015  29.294  34.023  1.00  0.00     0.037 A 
BRANCH  26  40
ATOM     40  C   UNL A   1      40.704  27.882  28.466  1.00  0.00     0.064 A 
ATOM     41  C   UNL A   1      40.029  26.653  28.432  1.00  0.00     0.173 A 
ATOM     42  C   UNL A   1      41.415  28.270  27.318  1.00  0.00     0.173 A 
ATOM     43  F   UNL A   1      39.341  26.230  29.503  1.00  0.00    -0.203 F 
ATOM     44  C   UNL A   1      40.089  25.831  27.308  1.00  0.00     0.198 A 
ATOM     45  C   UNL A   1      41.449  27.459  26.186  1.00  0.00     0.198 A 
ATOM     46  F   UNL A   1      42.073  29.437  27.293  1.00  0.00    -0.203 F 
ATOM     47  F   UNL A   1      39.477  24.640  27.318  1.00  0.00    -0.200 F 
ATOM     48  C   UNL A   1      40.794  26.237  26.185  1.00  0.00     0.200 A 
ATOM     49  F   UNL A   1      42.120  27.859  25.098  1.00  0.00    -0.200 F 
ATOM     50  F   UNL A   1      40.850  25.446  25.105  1.00  0.00    -0.200 F 
ENDBRANCH  26  40
BRANCH  27  51
ATOM     51  C   UNL A   1      39.734  33.757  36.488  1.00  0.00     0.064 A 
ATOM     52  C   UNL A   1      40.378  34.991  36.638  1.00  0.00     0.173 A 
ATOM     53  C   UNL A   1      38.841  33.357  37.494  1.00  0.00     0.173 A 
ATOM     54  F   UNL A   1      41.251  35.408  35.708  1.00  0.00    -0.203 F 
ATOM     55  C   UNL A   1      40.140  35.794  37.751  1.00  0.00     0.198 A 
ATOM     56  C   UNL A   1      38.583  34.173  38.591  1.00  0.00     0.198 A 
ATOM     57  F   UNL A   1      38.192  32.188  37.389  1.00  0.00    -0.203 F 
ATOM     58  F   UNL A   1      40.787  36.960  37.883  1.00  0.00    -0.200 F 
ATOM     59  C   UNL A   1      39.235  35.389  38.721  1.00  0.00     0.200 A 
ATOM     60  F   UNL A   1      37.692  33.787  39.516  1.00  0.00    -0.200 F 
ATOM     61  F   UNL A   1      38.991  36.172  39.781  1.00  0.00    -0.200 F 
ENDBRANCH  27  51
BRANCH  39  62
ATOM     62  C   UNL A   1      44.172  28.660  34.738  1.00  0.00     0.064 A 
ATOM     63  C   UNL A   1      45.465  29.197  34.661  1.00  0.00     0.173 A 
ATOM     64  C   UNL A   1      43.973  27.532  35.548  1.00  0.00     0.173 A 
ATOM     65  F   UNL A   1      45.709  30.264  33.885  1.00  0.00    -0.203 F 
ATOM     66  C   UNL A   1      46.521  28.618  35.359  1.00  0.00     0.198 A 
ATOM     67  C   UNL A   1      45.026  26.972  36.266  1.00  0.00     0.198 A 
ATOM     68  F   UNL A   1      42.754  26.984  35.656  1.00  0.00    -0.203 F 
ATOM     69  F   UNL A   1      47.757  29.123  35.243  1.00  0.00    -0.200 F 
ATOM     70  C   UNL A   1      46.299  27.512  36.167  1.00  0.00     0.200 A 
ATOM     71  F   UNL A   1      44.807  25.912  37.055  1.00  0.00    -0.200 F 
ATOM     72  F   UNL A   1      47.315  26.962  36.847  1.00  0.00    -0.200 F 
ENDBRANCH  39  62
ENDBRANCH  13  14
ENDBRANCH   6   8
ENDBRANCH   3   4
ENDBRANCH   2   3
ENDBRANCH   1   2
BRANCH   1  73
ATOM     73  C   UNL A   1      32.835  30.178  26.491  1.00  0.00     0.116 C 
BRANCH  73  74
ATOM     74  N   UNL A   1      33.427  29.500  25.353  1.00  0.00    -0.356 N 
ATOM     75  C   UNL A   1      33.304  28.211  24.939  1.00  0.00     0.223 C 
ATOM     76  H   UNL A   1      34.010  30.062  24.793  1.00  0.00     0.163 HD
ATOM     77  O   UNL A   1      33.944  27.858  23.945  1.00  0.00    -0.275 OA
BRANCH  75  78
ATOM     78  C   UNL A   1      32.416  27.250  25.706  1.00  0.00     0.078 C 
ATOM     79  C   UNL A   1      31.061  27.122  25.000  1.00  0.00     0.014 C 
ATOM     80  C   UNL A   1      33.134  25.906  25.860  1.00  0.00     0.014 C 
ATOM     81  C   UNL A   1      30.184  26.060  25.663  1.00  0.00     0.010 C 
ATOM     82  C   UNL A   1      32.224  24.885  26.536  1.00  0.00     0.010 C 
ATOM     83  C   UNL A   1      30.896  24.699  25.778  1.00  0.00     0.044 C 
BRANCH  83  84
ATOM     84  C   UNL A   1      31.049  24.062  24.376  1.00  0.00     0.264 C 
BRANCH  84  85
ATOM     85  N   UNL A   1      31.362  22.637  24.458  1.00  0.00    -0.344 N 
ATOM     86  H   UNL A   1      30.489  22.109  24.452  1.00  0.00     0.346 HD
ATOM     87  H   UNL A   1      31.889  22.486  25.318  1.00  0.00     0.346 HD
BRANCH  85  88
ATOM     88  C   UNL A   1      32.199  22.173  23.337  1.00  0.00     0.182 C 
ATOM     89  C   UNL A   1      33.540  22.922  23.389  1.00  0.00     0.065 C 
ATOM     90  C   UNL A   1      32.461  20.660  23.387  1.00  0.00     0.069 C 
ATOM     91  C   UNL A   1      34.366  22.542  24.617  1.00  0.00     0.006 C 
ATOM     92  C   UNL A   1      33.276  20.234  24.626  1.00  0.00    -0.002 C 
ATOM     93  C   UNL A   1      34.588  21.033  24.692  1.00  0.00     0.004 C 
BRANCH  92  94
ATOM     94  C   UNL A   1      33.455  18.726  24.627  1.00  0.00    -0.008 C 
ATOM     95  C   UNL A   1      32.721  17.781  25.547  1.00  0.00     0.004 C 
ATOM     96  C   UNL A   1      32.364  17.834  24.088  1.00  0.00     0.004 C 
ENDBRANCH  92  94
ENDBRANCH  85  88
ENDBRANCH  84  85
ENDBRANCH  83  84
ENDBRANCH  75  78
ENDBRANCH  73  74
ENDBRANCH   1  73
TORSDOF 15
ENDMDL
MODEL 3
REMARK VINA RESULT:     -12.2      5.605     11.342
REMARK SMILES O=C(NCCCCNC(=O)[C@H]1CC[C@@H](C[NH2+][C@H]2CCC[C@H](C3CC3)C2)CC1)c1ccc(-c2c3nc(c(-c4c(F)c(F)c(F)c(F)c4F)c4ccc([nH]4)c(-c4c(F)c(F)c(F)c(F)c4F)c4nc(c(-c5c(F)c(F)c(F)c(F)c5F)c5ccc2[nH]5)C=C4)C=C3)cc1
REMARK SMILES IDX 6 1 5 2 4 3 3 4 1 5 2 6 28 8 29 9 90 10 30 11 89 12 31 13
REMARK SMILES IDX 32 14 33 15 83 16 34 17 88 18 82 19 84 20 35 21 87 22 81 23
REMARK SMILES IDX 80 24 36 26 68 27 48 28 67 29 49 30 52 31 66 32 85 33 50 34
REMARK SMILES IDX 51 35 65 37 86 38 53 39 37 40 38 41 46 42 39 43 40 44 44 45
REMARK SMILES IDX 47 46 41 47 42 48 45 49 43 50 69 51 70 52 78 53 71 54 72 55
REMARK SMILES IDX 76 56 79 57 73 58 74 59 77 60 75 61 54 62 55 63 63 64 56 65
REMARK SMILES IDX 57 66 61 67 64 68 58 69 59 70 62 71 60 72 7 73 8 74 9 75
REMARK SMILES IDX 10 77 11 78 27 79 12 80 26 81 13 82 14 83 15 84 16 85 17 88
REMARK SMILES IDX 18 89 25 90 19 91 21 92 20 93 22 94 23 95 24 96
REMARK H PARENT 3 7 84 25 52 36 8 76 16 86 16 87
REMARK Flexibility Score: inf
ROOT
ATOM      1  C   UNL A   1      36.992  20.411  24.885  1.00  0.00     0.023 C 
ENDROOT
BRANCH   1   2
ATOM      2  C   UNL A   1      38.158  19.431  25.001  1.00  0.00     0.023 C 
BRANCH   2   3
ATOM      3  C   UNL A   1      39.371  19.961  25.755  1.00  0.00     0.116 C 
BRANCH   3   4
ATOM      4  N   UNL A   1      40.441  18.980  25.862  1.00  0.00    -0.352 N 
ATOM      5  O   UNL A   1      42.576  18.258  25.999  1.00  0.00    -0.269 OA
ATOM      6  C   UNL A   1      41.780  19.188  26.077  1.00  0.00     0.251 C 
ATOM      7  H   UNL A   1      40.167  18.040  25.766  1.00  0.00     0.163 HD
BRANCH   6   8
ATOM      8  C   UNL A   1      42.260  20.551  26.376  1.00  0.00     0.039 A 
ATOM      9  C   UNL A   1      42.324  21.008  27.695  1.00  0.00     0.014 A 
ATOM     10  C   UNL A   1      42.643  21.381  25.319  1.00  0.00     0.014 A 
ATOM     11  C   UNL A   1      42.649  22.335  27.950  1.00  0.00     0.010 A 
ATOM     12  C   UNL A   1      43.044  22.690  25.583  1.00  0.00     0.010 A 
ATOM     13  C   UNL A   1      43.027  23.183  26.898  1.00  0.00    -0.014 A 
BRANCH  13  14
ATOM     14  C   UNL A   1      43.469  24.566  27.193  1.00  0.00     0.031 A 
ATOM     15  C   UNL A   1      42.516  25.584  27.746  1.00  0.00     0.074 A 
ATOM     16  C   UNL A   1      44.748  24.901  26.936  1.00  0.00     0.049 A 
ATOM     17  N   UNL A   1      42.724  26.848  28.015  1.00  0.00    -0.248 NA
ATOM     18  C   UNL A   1      41.147  25.127  28.023  1.00  0.00     0.031 C 
ATOM     19  C   UNL A   1      45.755  23.995  26.380  1.00  0.00     0.029 A 
ATOM     20  N   UNL A   1      45.416  26.085  27.098  1.00  0.00    -0.354 N 
ATOM     21  C   UNL A   1      41.510  27.344  28.471  1.00  0.00     0.074 A 
ATOM     22  C   UNL A   1      40.563  26.250  28.421  1.00  0.00     0.031 C 
ATOM     23  C   UNL A   1      46.916  24.652  26.258  1.00  0.00     0.029 A 
ATOM     24  C   UNL A   1      46.719  26.038  26.671  1.00  0.00     0.049 A 
ATOM     25  H   UNL A   1      45.002  26.891  27.483  1.00  0.00     0.167 HD
ATOM     26  C   UNL A   1      41.220  28.598  28.896  1.00  0.00     0.037 A 
ATOM     27  C   UNL A   1      47.646  27.008  26.586  1.00  0.00     0.037 A 
ATOM     28  C   UNL A   1      42.177  29.674  28.953  1.00  0.00     0.049 A 
ATOM     29  C   UNL A   1      47.295  28.394  27.043  1.00  0.00     0.074 A 
ATOM     30  C   UNL A   1      41.999  30.963  29.425  1.00  0.00     0.029 A 
ATOM     31  N   UNL A   1      43.490  29.590  28.509  1.00  0.00    -0.354 N 
ATOM     32  N   UNL A   1      46.160  28.839  27.524  1.00  0.00    -0.248 NA
ATOM     33  C   UNL A   1      48.350  29.409  26.949  1.00  0.00     0.031 C 
ATOM     34  C   UNL A   1      43.187  31.672  29.217  1.00  0.00     0.029 A 
ATOM     35  C   UNL A   1      44.123  30.813  28.665  1.00  0.00     0.049 A 
ATOM     36  H   UNL A   1      43.909  28.780  28.137  1.00  0.00     0.167 HD
ATOM     37  C   UNL A   1      46.364  30.182  27.802  1.00  0.00     0.074 A 
ATOM     38  C   UNL A   1      47.740  30.475  27.451  1.00  0.00     0.031 C 
ATOM     39  C   UNL A   1      45.491  31.088  28.304  1.00  0.00     0.037 A 
BRANCH  26  40
ATOM     40  C   UNL A   1      39.804  28.882  29.308  1.00  0.00     0.064 A 
ATOM     41  C   UNL A   1      38.849  29.360  28.399  1.00  0.00     0.173 A 
ATOM     42  C   UNL A   1      39.390  28.645  30.628  1.00  0.00     0.173 A 
ATOM     43  F   UNL A   1      39.192  29.611  27.127  1.00  0.00    -0.203 F 
ATOM     44  C   UNL A   1      37.541  29.621  28.803  1.00  0.00     0.198 A 
ATOM     45  C   UNL A   1      38.074  28.879  31.022  1.00  0.00     0.198 A 
ATOM     46  F   UNL A   1      40.260  28.181  31.537  1.00  0.00    -0.203 F 
ATOM     47  F   UNL A   1      36.660  30.125  27.929  1.00  0.00    -0.200 F 
ATOM     48  C   UNL A   1      37.153  29.376  30.112  1.00  0.00     0.200 A 
ATOM     49  F   UNL A   1      37.700  28.630  32.284  1.00  0.00    -0.200 F 
ATOM     50  F   UNL A   1      35.896  29.627  30.499  1.00  0.00    -0.200 F 
ENDBRANCH  26  40
BRANCH  27  51
ATOM     51  C   UNL A   1      48.982  26.685  26.028  1.00  0.00     0.064 A 
ATOM     52  C   UNL A   1      49.292  26.951  24.689  1.00  0.00     0.173 A 
ATOM     53  C   UNL A   1      49.996  26.157  26.843  1.00  0.00     0.173 A 
ATOM     54  F   UNL A   1      48.350  27.443  23.869  1.00  0.00    -0.203 F 
ATOM     55  C   UNL A   1      50.566  26.700  24.184  1.00  0.00     0.198 A 
ATOM     56  C   UNL A   1      51.275  25.933  26.345  1.00  0.00     0.198 A 
ATOM     57  F   UNL A   1      49.750  25.896  28.136  1.00  0.00    -0.203 F 
ATOM     58  F   UNL A   1      50.831  26.942  22.893  1.00  0.00    -0.200 F 
ATOM     59  C   UNL A   1      51.559  26.201  25.015  1.00  0.00     0.200 A 
ATOM     60  F   UNL A   1      52.237  25.471  27.156  1.00  0.00    -0.200 F 
ATOM     61  F   UNL A   1      52.789  25.980  24.532  1.00  0.00    -0.200 F 
ENDBRANCH  27  51
BRANCH  39  62
ATOM     62  C   UNL A   1      46.000  32.483  28.522  1.00  0.00     0.064 A 
ATOM     63  C   UNL A   1      45.873  33.473  27.537  1.00  0.00     0.173 A 
ATOM     64  C   UNL A   1      46.579  32.843  29.748  1.00  0.00     0.173 A 
ATOM     65  F   UNL A   1      45.343  33.172  26.342  1.00  0.00    -0.203 F 
ATOM     66  C   UNL A   1      46.318  34.771  27.768  1.00  0.00     0.198 A 
ATOM     67  C   UNL A   1      46.999  34.149  29.985  1.00  0.00     0.198 A 
ATOM     68  F   UNL A   1      46.721  31.933  30.722  1.00  0.00    -0.203 F 
ATOM     69  F   UNL A   1      46.221  35.694  26.800  1.00  0.00    -0.200 F 
ATOM     70  C   UNL A   1      46.873  35.110  28.994  1.00  0.00     0.200 A 
ATOM     71  F   UNL A   1      47.523  34.477  31.174  1.00  0.00    -0.200 F 
ATOM     72  F   UNL A   1      47.291  36.364  29.218  1.00  0.00    -0.200 F 
ENDBRANCH  39  62
ENDBRANCH  13  14
ENDBRANCH   6   8
ENDBRANCH   3   4
ENDBRANCH   2   3
ENDBRANCH   1   2
BRANCH   1  73
ATOM     73  C   UNL A   1      37.288  21.809  25.419  1.00  0.00     0.116 C 
BRANCH  73  74
ATOM     74  N   UNL A   1      36.248  22.269  26.319  1.00  0.00    -0.356 N 
ATOM     75  C   UNL A   1      35.144  23.024  26.072  1.00  0.00     0.223 C 
ATOM     76  H   UNL A   1      36.359  21.991  27.256  1.00  0.00     0.163 HD
ATOM     77  O   UNL A   1      34.417  23.316  27.024  1.00  0.00    -0.275 OA
BRANCH  75  78
ATOM     78  C   UNL A   1      34.851  23.497  24.661  1.00  0.00     0.078 C 
ATOM     79  C   UNL A   1      33.885  22.521  23.978  1.00  0.00     0.014 C 
ATOM     80  C   UNL A   1      34.312  24.930  24.707  1.00  0.00     0.014 C 
ATOM     81  C   UNL A   1      33.456  23.032  22.603  1.00  0.00     0.010 C 
ATOM     82  C   UNL A   1      33.908  25.397  23.312  1.00  0.00     0.010 C 
ATOM     83  C   UNL A   1      32.876  24.458  22.661  1.00  0.00     0.044 C 
BRANCH  83  84
ATOM     84  C   UNL A   1      31.499  24.441  23.367  1.00  0.00     0.264 C 
BRANCH  84  85
ATOM     85  N   UNL A   1      30.719  25.639  23.065  1.00  0.00    -0.344 N 
ATOM     86  H   UNL A   1      30.019  25.405  22.361  1.00  0.00     0.346 HD
ATOM     87  H   UNL A   1      31.366  26.353  22.730  1.00  0.00     0.346 HD
BRANCH  85  88
ATOM     88  C   UNL A   1      30.031  26.184  24.248  1.00  0.00     0.182 C 
ATOM     89  C   UNL A   1      31.034  27.034  25.045  1.00  0.00     0.065 C 
ATOM     90  C   UNL A   1      28.817  27.049  23.876  1.00  0.00     0.069 C 
ATOM     91  C   UNL A   1      31.458  28.289  24.284  1.00  0.00     0.006 C 
ATOM     92  C   UNL A   1      29.204  28.317  23.087  1.00  0.00    -0.002 C 
ATOM     93  C   UNL A   1      30.249  29.126  23.874  1.00  0.00     0.004 C 
BRANCH  92  94
ATOM     94  C   UNL A   1      27.952  29.093  22.720  1.00  0.00    -0.008 C 
ATOM     95  C   UNL A   1      27.666  30.508  23.163  1.00  0.00     0.004 C 
ATOM     96  C   UNL A   1      28.030  30.231  21.732  1.00  0.00     0.004 C 
ENDBRANCH  92  94
ENDBRANCH  85  88
ENDBRANCH  84  85
ENDBRANCH  83  84
ENDBRANCH  75  78
ENDBRANCH  73  74
ENDBRANCH   1  73
TORSDOF 15
ENDMDL
