MODEL 1
REMARK VINA RESULT:     -12.8      0.000      0.000
REMARK SMILES C[C@H]1[C@H](C(=O)NCCCCNC(=O)c2ccc(-c3c4nc(c(-c5c(F)c(F)c(F)c(F)c5F)c5ccc([nH]5)c(-c5c(F)c(F)c(F)c(F)c5F)c5nc(c(-c6c(F)c(F)c(F)c(F)c6F)c6ccc3[nH]6)C=C5)C=C4)cc2)CCN1c1ncnc2sccc12
REMARK SMILES IDX 9 1 8 2 7 3 6 4 4 5 5 6 3 8 1 9 2 10 79 11 77 12 78 13 80 14
REMARK SMILES IDX 81 15 88 16 82 17 84 18 87 19 83 20 85 21 86 22 10 23 11 24
REMARK SMILES IDX 12 25 13 27 14 28 15 29 76 30 16 31 75 32 17 33 18 34 19 35
REMARK SMILES IDX 69 36 20 37 74 38 68 39 70 40 21 41 73 42 67 43 66 44 22 46
REMARK SMILES IDX 54 47 34 48 53 49 35 50 38 51 52 52 71 53 36 54 37 55 51 57
REMARK SMILES IDX 72 58 39 59 23 60 24 61 32 62 25 63 26 64 30 65 33 66 27 67
REMARK SMILES IDX 28 68 31 69 29 70 55 71 56 72 64 73 57 74 58 75 62 76 65 77
REMARK SMILES IDX 59 78 60 79 63 80 61 81 40 82 41 83 49 84 42 85 43 86 47 87
REMARK SMILES IDX 50 88 44 89 45 90 48 91 46 92
REMARK H PARENT 6 7 11 26 70 45 38 56
REMARK Flexibility Score: inf
ROOT
ATOM      1  C   UNL A   1      31.568  31.955  26.831  1.00  0.00     0.023 C 
ENDROOT
BRANCH   1   2
ATOM      2  C   UNL A   1      31.807  30.448  26.739  1.00  0.00     0.023 C 
BRANCH   2   3
ATOM      3  C   UNL A   1      32.660  30.016  25.548  1.00  0.00     0.116 C 
BRANCH   3   4
ATOM      4  N   UNL A   1      31.847  29.563  24.434  1.00  0.00    -0.356 N 
ATOM      5  C   UNL A   1      32.022  28.531  23.566  1.00  0.00     0.225 C 
ATOM      6  O   UNL A   1      31.182  28.401  22.670  1.00  0.00    -0.275 OA
ATOM      7  H   UNL A   1      31.032  30.093  24.280  1.00  0.00     0.163 HD
BRANCH   5   8
ATOM      8  C   UNL A   1      33.169  27.536  23.682  1.00  0.00     0.102 C 
ATOM      9  C   UNL A   1      33.992  26.551  25.852  1.00  0.00     0.032 C 
ATOM     10  C   UNL A   1      32.932  26.464  24.753  1.00  0.00     0.093 C 
ATOM     11  N   UNL A   1      33.022  25.186  24.033  1.00  0.00    -0.352 N 
ATOM     12  C   UNL A   1      33.465  26.817  22.370  1.00  0.00     0.037 C 
ATOM     13  C   UNL A   1      33.558  25.333  22.697  1.00  0.00     0.119 C 
BRANCH  11  14
ATOM     14  C   UNL A   1      32.527  24.023  24.583  1.00  0.00     0.141 A 
ATOM     15  N   UNL A   1      31.228  24.042  24.988  1.00  0.00    -0.219 NA
ATOM     16  C   UNL A   1      33.230  22.795  24.741  1.00  0.00     0.054 A 
ATOM     17  C   UNL A   1      30.666  22.947  25.516  1.00  0.00     0.225 A 
ATOM     18  C   UNL A   1      32.505  21.736  25.279  1.00  0.00     0.128 A 
ATOM     19  C   UNL A   1      34.579  22.357  24.471  1.00  0.00     0.026 A 
ATOM     20  N   UNL A   1      31.227  21.756  25.685  1.00  0.00    -0.225 NA
ATOM     21  S   UNL A   1      33.399  20.288  25.398  1.00  0.00    -0.124 S 
ATOM     22  C   UNL A   1      34.794  21.027  24.758  1.00  0.00     0.068 A 
ENDBRANCH  11  14
ENDBRANCH   5   8
ENDBRANCH   3   4
ENDBRANCH   2   3
ENDBRANCH   1   2
BRANCH   1  23
ATOM     23  C   UNL A   1      32.766  32.772  27.302  1.00  0.00     0.116 C 
BRANCH  23  24
ATOM     24  N   UNL A   1      32.430  34.151  27.624  1.00  0.00    -0.352 N 
ATOM     25  C   UNL A   1      32.993  34.976  28.567  1.00  0.00     0.251 C 
ATOM     26  H   UNL A   1      31.700  34.546  27.094  1.00  0.00     0.163 HD
ATOM     27  O   UNL A   1      32.517  36.084  28.791  1.00  0.00    -0.269 OA
BRANCH  25  28
ATOM     28  C   UNL A   1      34.158  34.503  29.342  1.00  0.00     0.039 A 
ATOM     29  C   UNL A   1      33.943  33.920  30.593  1.00  0.00     0.014 A 
ATOM     30  C   UNL A   1      35.450  34.602  28.820  1.00  0.00     0.014 A 
ATOM     31  C   UNL A   1      35.019  33.370  31.291  1.00  0.00     0.010 A 
ATOM     32  C   UNL A   1      36.508  33.989  29.481  1.00  0.00     0.010 A 
ATOM     33  C   UNL A   1      36.303  33.365  30.722  1.00  0.00    -0.014 A 
BRANCH  33  34
ATOM     34  C   UNL A   1      37.444  32.707  31.406  1.00  0.00     0.031 A 
ATOM     35  C   UNL A   1      38.143  31.545  30.758  1.00  0.00     0.074 A 
ATOM     36  C   UNL A   1      37.802  33.108  32.641  1.00  0.00     0.049 A 
ATOM     37  N   UNL A   1      39.109  30.794  31.224  1.00  0.00    -0.248 NA
ATOM     38  C   UNL A   1      37.675  31.159  29.418  1.00  0.00     0.031 C 
ATOM     39  C   UNL A   1      37.165  34.188  33.397  1.00  0.00     0.029 A 
ATOM     40  N   UNL A   1      38.782  32.647  33.484  1.00  0.00    -0.354 N 
ATOM     41  C   UNL A   1      39.352  29.841  30.244  1.00  0.00     0.074 A 
ATOM     42  C   UNL A   1      38.397  30.073  29.182  1.00  0.00     0.031 C 
ATOM     43  C   UNL A   1      37.784  34.321  34.581  1.00  0.00     0.029 A 
ATOM     44  C   UNL A   1      38.836  33.314  34.683  1.00  0.00     0.049 A 
ATOM     45  H   UNL A   1      39.388  31.908  33.250  1.00  0.00     0.167 HD
ATOM     46  C   UNL A   1      40.300  28.875  30.224  1.00  0.00     0.037 A 
ATOM     47  C   UNL A   1      39.640  33.127  35.748  1.00  0.00     0.037 A 
ATOM     48  C   UNL A   1      41.265  28.666  31.270  1.00  0.00     0.049 A 
ATOM     49  C   UNL A   1      40.686  32.048  35.698  1.00  0.00     0.074 A 
ATOM     50  C   UNL A   1      42.308  27.757  31.314  1.00  0.00     0.029 A 
ATOM     51  N   UNL A   1      41.303  29.376  32.462  1.00  0.00    -0.354 N 
ATOM     52  N   UNL A   1      40.955  31.199  34.736  1.00  0.00    -0.248 NA
ATOM     53  C   UNL A   1      41.546  31.905  36.880  1.00  0.00     0.031 C 
ATOM     54  C   UNL A   1      42.950  27.887  32.550  1.00  0.00     0.029 A 
ATOM     55  C   UNL A   1      42.338  28.910  33.256  1.00  0.00     0.049 A 
ATOM     56  H   UNL A   1      40.686  30.102  32.706  1.00  0.00     0.167 HD
ATOM     57  C   UNL A   1      42.029  30.443  35.182  1.00  0.00     0.074 A 
ATOM     58  C   UNL A   1      42.373  30.943  36.497  1.00  0.00     0.031 C 
ATOM     59  C   UNL A   1      42.673  29.424  34.560  1.00  0.00     0.037 A 
BRANCH  46  60
ATOM     60  C   UNL A   1      40.345  27.974  29.024  1.00  0.00     0.064 A 
ATOM     61  C   UNL A   1      39.627  26.769  28.982  1.00  0.00     0.173 A 
ATOM     62  C   UNL A   1      41.086  28.336  27.888  1.00  0.00     0.173 A 
ATOM     63  F   UNL A   1      38.913  26.372  30.045  1.00  0.00    -0.203 F 
ATOM     64  C   UNL A   1      39.673  25.945  27.860  1.00  0.00     0.198 A 
ATOM     65  C   UNL A   1      41.105  27.524  26.757  1.00  0.00     0.198 A 
ATOM     66  F   UNL A   1      41.786  29.480  27.872  1.00  0.00    -0.203 F 
ATOM     67  F   UNL A   1      39.021  24.775  27.863  1.00  0.00    -0.200 F 
ATOM     68  C   UNL A   1      40.407  26.327  26.746  1.00  0.00     0.200 A 
ATOM     69  F   UNL A   1      41.804  27.899  25.676  1.00  0.00    -0.200 F 
ATOM     70  F   UNL A   1      40.445  25.536  25.665  1.00  0.00    -0.200 F 
ENDBRANCH  46  60
BRANCH  47  71
ATOM     71  C   UNL A   1      39.503  34.002  36.942  1.00  0.00     0.064 A 
ATOM     72  C   UNL A   1      40.140  35.250  36.994  1.00  0.00     0.173 A 
ATOM     73  C   UNL A   1      38.745  33.609  38.054  1.00  0.00     0.173 A 
ATOM     74  F   UNL A   1      40.894  35.660  35.964  1.00  0.00    -0.203 F 
ATOM     75  C   UNL A   1      40.039  36.063  38.121  1.00  0.00     0.198 A 
ATOM     76  C   UNL A   1      38.622  34.435  39.169  1.00  0.00     0.198 A 
ATOM     77  F   UNL A   1      38.112  32.426  38.052  1.00  0.00    -0.203 F 
ATOM     78  F   UNL A   1      40.695  37.231  38.163  1.00  0.00    -0.200 F 
ATOM     79  C   UNL A   1      39.275  35.657  39.206  1.00  0.00     0.200 A 
ATOM     80  F   UNL A   1      37.872  34.045  40.209  1.00  0.00    -0.200 F 
ATOM     81  F   UNL A   1      39.177  36.440  40.289  1.00  0.00    -0.200 F 
ENDBRANCH  47  71
BRANCH  59  82
ATOM     82  C   UNL A   1      43.836  28.805  35.278  1.00  0.00     0.064 A 
ATOM     83  C   UNL A   1      45.152  29.243  35.064  1.00  0.00     0.173 A 
ATOM     84  C   UNL A   1      43.628  27.787  36.220  1.00  0.00     0.173 A 
ATOM     85  F   UNL A   1      45.404  30.203  34.161  1.00  0.00    -0.203 F 
ATOM     86  C   UNL A   1      46.217  28.668  35.750  1.00  0.00     0.198 A 
ATOM     87  C   UNL A   1      44.692  27.235  36.927  1.00  0.00     0.198 A 
ATOM     88  F   UNL A   1      42.387  27.337  36.467  1.00  0.00    -0.203 F 
ATOM     89  F   UNL A   1      47.470  29.070  35.496  1.00  0.00    -0.200 F 
ATOM     90  C   UNL A   1      45.987  27.670  36.686  1.00  0.00     0.200 A 
ATOM     91  F   UNL A   1      44.465  26.281  37.841  1.00  0.00    -0.200 F 
ATOM     92  F   UNL A   1      47.012  27.124  37.351  1.00  0.00    -0.200 F 
ENDBRANCH  59  82
ENDBRANCH  33  34
ENDBRANCH  25  28
ENDBRANCH  23  24
ENDBRANCH   1  23
TORSDOF 12
ENDMDL
MODEL 2
REMARK VINA RESULT:     -12.7      0.898      2.013
REMARK SMILES C[C@H]1[C@H](C(=O)NCCCCNC(=O)c2ccc(-c3c4nc(c(-c5c(F)c(F)c(F)c(F)c5F)c5ccc([nH]5)c(-c5c(F)c(F)c(F)c(F)c5F)c5nc(c(-c6c(F)c(F)c(F)c(F)c6F)c6ccc3[nH]6)C=C5)C=C4)cc2)CCN1c1ncnc2sccc12
REMARK SMILES IDX 9 1 8 2 7 3 6 4 4 5 5 6 3 8 1 9 2 10 79 11 77 12 78 13 80 14
REMARK SMILES IDX 81 15 88 16 82 17 84 18 87 19 83 20 85 21 86 22 10 23 11 24
REMARK SMILES IDX 12 25 13 27 14 28 15 29 76 30 16 31 75 32 17 33 18 34 19 35
REMARK SMILES IDX 69 36 20 37 74 38 68 39 70 40 21 41 73 42 67 43 66 44 22 46
REMARK SMILES IDX 54 47 34 48 53 49 35 50 38 51 52 52 71 53 36 54 37 55 51 57
REMARK SMILES IDX 72 58 39 59 23 60 24 61 32 62 25 63 26 64 30 65 33 66 27 67
REMARK SMILES IDX 28 68 31 69 29 70 55 71 56 72 64 73 57 74 58 75 62 76 65 77
REMARK SMILES IDX 59 78 60 79 63 80 61 81 40 82 41 83 49 84 42 85 43 86 47 87
REMARK SMILES IDX 50 88 44 89 45 90 48 91 46 92
REMARK H PARENT 6 7 11 26 70 45 38 56
REMARK Flexibility Score: inf
ROOT
ATOM      1  C   UNL A   1      31.541  32.007  26.679  1.00  0.00     0.023 C 
ENDROOT
BRANCH   1   2
ATOM      2  C   UNL A   1      31.782  30.512  26.467  1.00  0.00     0.023 C 
BRANCH   2   3
ATOM      3  C   UNL A   1      31.467  30.016  25.058  1.00  0.00     0.116 C 
BRANCH   3   4
ATOM      4  N   UNL A   1      32.607  29.357  24.446  1.00  0.00    -0.356 N 
ATOM      5  C   UNL A   1      32.880  28.038  24.262  1.00  0.00     0.225 C 
ATOM      6  O   UNL A   1      33.964  27.755  23.743  1.00  0.00    -0.275 OA
ATOM      7  H   UNL A   1      33.300  29.969  24.107  1.00  0.00     0.163 HD
BRANCH   5   8
ATOM      8  C   UNL A   1      31.903  26.931  24.631  1.00  0.00     0.102 C 
ATOM      9  C   UNL A   1      31.153  25.104  23.063  1.00  0.00     0.032 C 
ATOM     10  C   UNL A   1      32.260  25.575  24.006  1.00  0.00     0.093 C 
ATOM     11  N   UNL A   1      32.408  24.661  25.147  1.00  0.00    -0.352 N 
ATOM     12  C   UNL A   1      31.783  26.723  26.137  1.00  0.00     0.037 C 
ATOM     13  C   UNL A   1      31.914  25.227  26.385  1.00  0.00     0.119 C 
BRANCH  11  14
ATOM     14  C   UNL A   1      33.057  23.453  25.012  1.00  0.00     0.141 A 
ATOM     15  N   UNL A   1      32.274  22.340  24.965  1.00  0.00    -0.219 NA
ATOM     16  C   UNL A   1      34.461  23.255  24.885  1.00  0.00     0.054 A 
ATOM     17  C   UNL A   1      32.826  21.129  24.816  1.00  0.00     0.225 A 
ATOM     18  C   UNL A   1      34.884  21.941  24.709  1.00  0.00     0.128 A 
ATOM     19  C   UNL A   1      35.613  24.125  24.900  1.00  0.00     0.026 A 
ATOM     20  N   UNL A   1      34.114  20.844  24.669  1.00  0.00    -0.225 NA
ATOM     21  S   UNL A   1      36.572  21.788  24.521  1.00  0.00    -0.124 S 
ATOM     22  C   UNL A   1      36.804  23.466  24.692  1.00  0.00     0.068 A 
ENDBRANCH  11  14
ENDBRANCH   5   8
ENDBRANCH   3   4
ENDBRANCH   2   3
ENDBRANCH   1   2
BRANCH   1  23
ATOM     23  C   UNL A   1      32.698  32.764  27.318  1.00  0.00     0.116 C 
BRANCH  23  24
ATOM     24  N   UNL A   1      32.377  34.149  27.629  1.00  0.00    -0.352 N 
ATOM     25  C   UNL A   1      32.958  34.981  28.555  1.00  0.00     0.251 C 
ATOM     26  H   UNL A   1      31.642  34.544  27.105  1.00  0.00     0.163 HD
ATOM     27  O   UNL A   1      32.493  36.095  28.772  1.00  0.00    -0.269 OA
BRANCH  25  28
ATOM     28  C   UNL A   1      34.130  34.508  29.318  1.00  0.00     0.039 A 
ATOM     29  C   UNL A   1      33.926  33.918  30.567  1.00  0.00     0.014 A 
ATOM     30  C   UNL A   1      35.419  34.616  28.788  1.00  0.00     0.014 A 
ATOM     31  C   UNL A   1      35.009  33.367  31.255  1.00  0.00     0.010 A 
ATOM     32  C   UNL A   1      36.484  34.003  29.439  1.00  0.00     0.010 A 
ATOM     33  C   UNL A   1      36.290  33.372  30.677  1.00  0.00    -0.014 A 
BRANCH  33  34
ATOM     34  C   UNL A   1      37.438  32.714  31.350  1.00  0.00     0.031 A 
ATOM     35  C   UNL A   1      38.146  31.567  30.684  1.00  0.00     0.074 A 
ATOM     36  C   UNL A   1      37.795  33.102  32.590  1.00  0.00     0.049 A 
ATOM     37  N   UNL A   1      39.119  30.819  31.139  1.00  0.00    -0.248 NA
ATOM     38  C   UNL A   1      37.678  31.195  29.340  1.00  0.00     0.031 C 
ATOM     39  C   UNL A   1      37.151  34.166  33.362  1.00  0.00     0.029 A 
ATOM     40  N   UNL A   1      38.782  32.637  33.424  1.00  0.00    -0.354 N 
ATOM     41  C   UNL A   1      39.368  29.881  30.145  1.00  0.00     0.074 A 
ATOM     42  C   UNL A   1      38.408  30.119  29.089  1.00  0.00     0.031 C 
ATOM     43  C   UNL A   1      37.772  34.288  34.545  1.00  0.00     0.029 A 
ATOM     44  C   UNL A   1      38.833  33.289  34.631  1.00  0.00     0.049 A 
ATOM     45  H   UNL A   1      39.394  31.907  33.179  1.00  0.00     0.167 HD
ATOM     46  C   UNL A   1      40.325  28.924  30.109  1.00  0.00     0.037 A 
ATOM     47  C   UNL A   1      39.641  33.095  35.693  1.00  0.00     0.037 A 
ATOM     48  C   UNL A   1      41.294  28.709  31.151  1.00  0.00     0.049 A 
ATOM     49  C   UNL A   1      40.696  32.025  35.625  1.00  0.00     0.074 A 
ATOM     50  C   UNL A   1      42.344  27.809  31.180  1.00  0.00     0.029 A 
ATOM     51  N   UNL A   1      41.328  29.403  32.352  1.00  0.00    -0.354 N 
ATOM     52  N   UNL A   1      40.970  31.192  34.651  1.00  0.00    -0.248 NA
ATOM     53  C   UNL A   1      41.560  31.874  36.803  1.00  0.00     0.031 C 
ATOM     54  C   UNL A   1      42.988  27.927  32.416  1.00  0.00     0.029 A 
ATOM     55  C   UNL A   1      42.370  28.935  33.137  1.00  0.00     0.049 A 
ATOM     56  H   UNL A   1      40.706  30.121  32.607  1.00  0.00     0.167 HD
ATOM     57  C   UNL A   1      42.052  30.439  35.084  1.00  0.00     0.074 A 
ATOM     58  C   UNL A   1      42.395  30.925  36.406  1.00  0.00     0.031 C 
ATOM     59  C   UNL A   1      42.703  29.435  34.447  1.00  0.00     0.037 A 
BRANCH  46  60
ATOM     60  C   UNL A   1      40.374  28.040  28.897  1.00  0.00     0.064 A 
ATOM     61  C   UNL A   1      39.664  26.830  28.840  1.00  0.00     0.173 A 
ATOM     62  C   UNL A   1      41.111  28.421  27.766  1.00  0.00     0.173 A 
ATOM     63  F   UNL A   1      38.954  26.413  29.898  1.00  0.00    -0.203 F 
ATOM     64  C   UNL A   1      39.715  26.022  27.707  1.00  0.00     0.198 A 
ATOM     65  C   UNL A   1      41.135  27.625  26.624  1.00  0.00     0.198 A 
ATOM     66  F   UNL A   1      41.804  29.570  27.765  1.00  0.00    -0.203 F 
ATOM     67  F   UNL A   1      39.071  24.847  27.694  1.00  0.00    -0.200 F 
ATOM     68  C   UNL A   1      40.445  26.423  26.597  1.00  0.00     0.200 A 
ATOM     69  F   UNL A   1      41.830  28.020  25.548  1.00  0.00    -0.200 F 
ATOM     70  F   UNL A   1      40.487  25.648  25.505  1.00  0.00    -0.200 F 
ENDBRANCH  46  60
BRANCH  47  71
ATOM     71  C   UNL A   1      39.500  33.952  36.898  1.00  0.00     0.064 A 
ATOM     72  C   UNL A   1      38.731  33.530  37.992  1.00  0.00     0.173 A 
ATOM     73  C   UNL A   1      40.119  35.207  36.981  1.00  0.00     0.173 A 
ATOM     74  F   UNL A   1      38.101  32.347  37.951  1.00  0.00    -0.203 F 
ATOM     75  C   UNL A   1      38.572  34.340  39.115  1.00  0.00     0.198 A 
ATOM     76  C   UNL A   1      39.982  36.004  38.115  1.00  0.00     0.198 A 
ATOM     77  F   UNL A   1      40.870  35.654  35.962  1.00  0.00    -0.203 F 
ATOM     78  F   UNL A   1      37.794  33.932  40.128  1.00  0.00    -0.200 F 
ATOM     79  C   UNL A   1      39.202  35.574  39.178  1.00  0.00     0.200 A 
ATOM     80  F   UNL A   1      40.604  37.189  38.178  1.00  0.00    -0.200 F 
ATOM     81  F   UNL A   1      39.050  36.352  40.259  1.00  0.00    -0.200 F 
ENDBRANCH  47  71
BRANCH  59  82
ATOM     82  C   UNL A   1      43.873  28.816  35.154  1.00  0.00     0.064 A 
ATOM     83  C   UNL A   1      43.722  27.698  35.988  1.00  0.00     0.173 A 
ATOM     84  C   UNL A   1      45.167  29.323  34.963  1.00  0.00     0.173 A 
ATOM     85  F   UNL A   1      42.503  27.186  36.216  1.00  0.00    -0.203 F 
ATOM     86  C   UNL A   1      44.821  27.127  36.623  1.00  0.00     0.198 A 
ATOM     87  C   UNL A   1      46.267  28.732  35.575  1.00  0.00     0.198 A 
ATOM     88  F   UNL A   1      45.365  30.387  34.169  1.00  0.00    -0.203 F 
ATOM     89  F   UNL A   1      44.648  26.089  37.453  1.00  0.00    -0.200 F 
ATOM     90  C   UNL A   1      46.093  27.639  36.411  1.00  0.00     0.200 A 
ATOM     91  F   UNL A   1      47.496  29.219  35.358  1.00  0.00    -0.200 F 
ATOM     92  F   UNL A   1      47.150  27.083  37.017  1.00  0.00    -0.200 F 
ENDBRANCH  59  82
ENDBRANCH  33  34
ENDBRANCH  25  28
ENDBRANCH  23  24
ENDBRANCH   1  23
TORSDOF 12
ENDMDL
MODEL 3
REMARK VINA RESULT:     -12.6      0.616      7.375
REMARK SMILES C[C@H]1[C@H](C(=O)NCCCCNC(=O)c2ccc(-c3c4nc(c(-c5c(F)c(F)c(F)c(F)c5F)c5ccc([nH]5)c(-c5c(F)c(F)c(F)c(F)c5F)c5nc(c(-c6c(F)c(F)c(F)c(F)c6F)c6ccc3[nH]6)C=C5)C=C4)cc2)CCN1c1ncnc2sccc12
REMARK SMILES IDX 9 1 8 2 7 3 6 4 4 5 5 6 3 8 1 9 2 10 79 11 77 12 78 13 80 14
REMARK SMILES IDX 81 15 88 16 82 17 84 18 87 19 83 20 85 21 86 22 10 23 11 24
REMARK SMILES IDX 12 25 13 27 14 28 15 29 76 30 16 31 75 32 17 33 18 34 19 35
REMARK SMILES IDX 69 36 20 37 74 38 68 39 70 40 21 41 73 42 67 43 66 44 22 46
REMARK SMILES IDX 54 47 34 48 53 49 35 50 38 51 52 52 71 53 36 54 37 55 51 57
REMARK SMILES IDX 72 58 39 59 23 60 24 61 32 62 25 63 26 64 30 65 33 66 27 67
REMARK SMILES IDX 28 68 31 69 29 70 55 71 56 72 64 73 57 74 58 75 62 76 65 77
REMARK SMILES IDX 59 78 60 79 63 80 61 81 40 82 41 83 49 84 42 85 43 86 47 87
REMARK SMILES IDX 50 88 44 89 45 90 48 91 46 92
REMARK H PARENT 6 7 11 26 70 45 38 56
REMARK Flexibility Score: inf
ROOT
ATOM      1  C   UNL A   1      31.416  32.083  26.845  1.00  0.00     0.023 C 
ENDROOT
BRANCH   1   2
ATOM      2  C   UNL A   1      31.593  30.569  26.729  1.00  0.00     0.023 C 
BRANCH   2   3
ATOM      3  C   UNL A   1      32.449  30.122  25.547  1.00  0.00     0.116 C 
BRANCH   3   4
ATOM      4  N   UNL A   1      31.641  29.636  24.444  1.00  0.00    -0.356 N 
ATOM      5  C   UNL A   1      31.864  28.634  23.551  1.00  0.00     0.225 C 
ATOM      6  O   UNL A   1      31.011  28.464  22.673  1.00  0.00    -0.275 OA
ATOM      7  H   UNL A   1      30.787  30.111  24.321  1.00  0.00     0.163 HD
BRANCH   5   8
ATOM      8  C   UNL A   1      33.078  27.719  23.618  1.00  0.00     0.102 C 
ATOM      9  C   UNL A   1      34.004  26.729  25.744  1.00  0.00     0.032 C 
ATOM     10  C   UNL A   1      32.935  26.601  24.660  1.00  0.00     0.093 C 
ATOM     11  N   UNL A   1      33.100  25.355  23.898  1.00  0.00    -0.352 N 
ATOM     12  C   UNL A   1      33.400  27.062  22.281  1.00  0.00     0.037 C 
ATOM     13  C   UNL A   1      33.601  25.579  22.559  1.00  0.00     0.119 C 
BRANCH  11  14
ATOM     14  C   UNL A   1      32.696  24.144  24.419  1.00  0.00     0.141 A 
ATOM     15  N   UNL A   1      31.383  24.031  24.759  1.00  0.00    -0.219 NA
ATOM     16  C   UNL A   1      33.509  22.990  24.610  1.00  0.00     0.054 A 
ATOM     17  C   UNL A   1      30.907  22.882  25.255  1.00  0.00     0.225 A 
ATOM     18  C   UNL A   1      32.867  21.861  25.108  1.00  0.00     0.128 A 
ATOM     19  C   UNL A   1      34.906  22.690  24.406  1.00  0.00     0.026 A 
ATOM     20  N   UNL A   1      31.575  21.751  25.449  1.00  0.00    -0.225 NA
ATOM     21  S   UNL A   1      33.893  20.508  25.267  1.00  0.00    -0.124 S 
ATOM     22  C   UNL A   1      35.237  21.386  24.700  1.00  0.00     0.068 A 
ENDBRANCH  11  14
ENDBRANCH   5   8
ENDBRANCH   3   4
ENDBRANCH   2   3
ENDBRANCH   1   2
BRANCH   1  23
ATOM     23  C   UNL A   1      32.675  32.854  27.223  1.00  0.00     0.116 C 
BRANCH  23  24
ATOM     24  N   UNL A   1      32.409  34.223  27.638  1.00  0.00    -0.352 N 
ATOM     25  C   UNL A   1      33.024  34.959  28.621  1.00  0.00     0.251 C 
ATOM     26  H   UNL A   1      31.689  34.684  27.148  1.00  0.00     0.163 HD
ATOM     27  O   UNL A   1      32.603  36.071  28.924  1.00  0.00    -0.269 OA
BRANCH  25  28
ATOM     28  C   UNL A   1      34.177  34.385  29.342  1.00  0.00     0.039 A 
ATOM     29  C   UNL A   1      33.940  33.568  30.450  1.00  0.00     0.014 A 
ATOM     30  C   UNL A   1      35.483  34.624  28.905  1.00  0.00     0.014 A 
ATOM     31  C   UNL A   1      35.012  32.930  31.077  1.00  0.00     0.010 A 
ATOM     32  C   UNL A   1      36.540  33.931  29.484  1.00  0.00     0.010 A 
ATOM     33  C   UNL A   1      36.315  33.076  30.574  1.00  0.00    -0.014 A 
BRANCH  33  34
ATOM     34  C   UNL A   1      37.455  32.336  31.171  1.00  0.00     0.031 A 
ATOM     35  C   UNL A   1      37.962  32.705  32.537  1.00  0.00     0.074 A 
ATOM     36  C   UNL A   1      38.079  31.382  30.453  1.00  0.00     0.049 A 
ATOM     37  N   UNL A   1      38.986  32.228  33.197  1.00  0.00    -0.248 NA
ATOM     38  C   UNL A   1      37.235  33.772  33.243  1.00  0.00     0.031 C 
ATOM     39  C   UNL A   1      37.715  30.971  29.096  1.00  0.00     0.029 A 
ATOM     40  N   UNL A   1      39.159  30.592  30.760  1.00  0.00    -0.354 N 
ATOM     41  C   UNL A   1      39.037  32.945  34.385  1.00  0.00     0.074 A 
ATOM     42  C   UNL A   1      37.974  33.926  34.332  1.00  0.00     0.031 C 
ATOM     43  C   UNL A   1      38.542  29.992  28.696  1.00  0.00     0.029 A 
ATOM     44  C   UNL A   1      39.515  29.731  29.752  1.00  0.00     0.049 A 
ATOM     45  H   UNL A   1      39.632  30.640  31.621  1.00  0.00     0.167 HD
ATOM     46  C   UNL A   1      39.877  32.784  35.433  1.00  0.00     0.037 A 
ATOM     47  C   UNL A   1      40.520  28.835  29.686  1.00  0.00     0.037 A 
ATOM     48  C   UNL A   1      40.915  31.789  35.493  1.00  0.00     0.049 A 
ATOM     49  C   UNL A   1      41.440  28.676  30.865  1.00  0.00     0.074 A 
ATOM     50  C   UNL A   1      41.777  31.502  36.536  1.00  0.00     0.029 A 
ATOM     51  N   UNL A   1      41.233  30.918  34.460  1.00  0.00    -0.354 N 
ATOM     52  N   UNL A   1      41.432  29.309  32.013  1.00  0.00    -0.248 NA
ATOM     53  C   UNL A   1      42.504  27.670  30.743  1.00  0.00     0.031 C 
ATOM     54  C   UNL A   1      42.646  30.488  36.120  1.00  0.00     0.029 A 
ATOM     55  C   UNL A   1      42.293  30.108  34.835  1.00  0.00     0.049 A 
ATOM     56  H   UNL A   1      40.774  30.882  33.591  1.00  0.00     0.167 HD
ATOM     57  C   UNL A   1      42.467  28.762  32.759  1.00  0.00     0.074 A 
ATOM     58  C   UNL A   1      43.073  27.734  31.938  1.00  0.00     0.031 C 
ATOM     59  C   UNL A   1      42.880  29.083  34.009  1.00  0.00     0.037 A 
BRANCH  46  60
ATOM     60  C   UNL A   1      39.704  33.702  36.608  1.00  0.00     0.064 A 
ATOM     61  C   UNL A   1      38.882  33.362  37.693  1.00  0.00     0.173 A 
ATOM     62  C   UNL A   1      40.395  34.922  36.667  1.00  0.00     0.173 A 
ATOM     63  F   UNL A   1      38.189  32.213  37.681  1.00  0.00    -0.203 F 
ATOM     64  C   UNL A   1      38.734  34.221  38.778  1.00  0.00     0.198 A 
ATOM     65  C   UNL A   1      40.268  35.765  37.768  1.00  0.00     0.198 A 
ATOM     66  F   UNL A   1      41.199  35.294  35.660  1.00  0.00    -0.203 F 
ATOM     67  F   UNL A   1      37.903  33.898  39.779  1.00  0.00    -0.200 F 
ATOM     68  C   UNL A   1      39.433  35.419  38.818  1.00  0.00     0.200 A 
ATOM     69  F   UNL A   1      40.954  36.916  37.811  1.00  0.00    -0.200 F 
ATOM     70  F   UNL A   1      39.295  36.242  39.867  1.00  0.00    -0.200 F 
ENDBRANCH  46  60
BRANCH  47  71
ATOM     71  C   UNL A   1      40.692  28.002  28.467  1.00  0.00     0.064 A 
ATOM     72  C   UNL A   1      40.084  26.742  28.368  1.00  0.00     0.173 A 
ATOM     73  C   UNL A   1      41.468  28.439  27.385  1.00  0.00     0.173 A 
ATOM     74  F   UNL A   1      39.349  26.271  29.386  1.00  0.00    -0.203 F 
ATOM     75  C   UNL A   1      40.263  25.944  27.240  1.00  0.00     0.198 A 
ATOM     76  C   UNL A   1      41.624  27.653  26.246  1.00  0.00     0.198 A 
ATOM     77  F   UNL A   1      42.067  29.640  27.429  1.00  0.00    -0.203 F 
ATOM     78  F   UNL A   1      39.708  24.725  27.190  1.00  0.00    -0.200 F 
ATOM     79  C   UNL A   1      41.028  26.402  26.177  1.00  0.00     0.200 A 
ATOM     80  F   UNL A   1      42.352  28.105  25.216  1.00  0.00    -0.200 F 
ATOM     81  F   UNL A   1      41.198  25.634  25.092  1.00  0.00    -0.200 F 
ENDBRANCH  47  71
BRANCH  59  82
ATOM     82  C   UNL A   1      44.019  28.292  34.582  1.00  0.00     0.064 A 
ATOM     83  C   UNL A   1      45.348  28.728  34.469  1.00  0.00     0.173 A 
ATOM     84  C   UNL A   1      43.775  27.105  35.287  1.00  0.00     0.173 A 
ATOM     85  F   UNL A   1      45.635  29.849  33.790  1.00  0.00    -0.203 F 
ATOM     86  C   UNL A   1      46.391  27.989  35.020  1.00  0.00     0.198 A 
ATOM     87  C   UNL A   1      44.817  26.385  35.863  1.00  0.00     0.198 A 
ATOM     88  F   UNL A   1      42.520  26.649  35.430  1.00  0.00    -0.203 F 
ATOM     89  F   UNL A   1      47.658  28.399  34.860  1.00  0.00    -0.200 F 
ATOM     90  C   UNL A   1      46.125  26.823  35.723  1.00  0.00     0.200 A 
ATOM     91  F   UNL A   1      44.556  25.266  36.553  1.00  0.00    -0.200 F 
ATOM     92  F   UNL A   1      47.130  26.118  36.259  1.00  0.00    -0.200 F 
ENDBRANCH  59  82
ENDBRANCH  33  34
ENDBRANCH  25  28
ENDBRANCH  23  24
ENDBRANCH   1  23
TORSDOF 12
ENDMDL
