MODEL 1
REMARK VINA RESULT:     -12.7      0.000      0.000
REMARK SMILES C[N@H+]([C@H]1CCC[C@]([NH3+])(C(=O)NCCCCNC(=O)c2ccc(-c3c4nc(c(-c5c(F)c(F)c(F)c(F)c5F)c5ccc([nH]5)c(-c5c(F)c(F)c(F)c(F)c5F)c5nc(c(-c6c(F)c(F)c(F)c(F)c6F)c6ccc3[nH]6)C=C5)C=C4)cc2)C1)[C@H]1CC[C@H](C)CC1
REMARK SMILES IDX 13 1 12 2 11 3 9 4 10 5 7 7 3 8 4 9 82 10 5 11 6 12 2 13
REMARK SMILES IDX 1 14 83 16 87 17 86 18 85 19 88 20 84 21 89 22 8 23 14 27
REMARK SMILES IDX 15 28 16 29 17 30 18 32 19 33 20 34 81 35 21 36 80 37 22 38
REMARK SMILES IDX 23 39 24 40 74 41 25 42 79 43 73 44 75 45 26 46 78 47 72 48
REMARK SMILES IDX 71 49 27 51 59 52 39 53 58 54 40 55 43 56 57 57 76 58 41 59
REMARK SMILES IDX 42 60 56 62 77 63 44 64 28 65 29 66 37 67 30 68 31 69 35 70
REMARK SMILES IDX 38 71 32 72 33 73 36 74 34 75 60 76 61 77 69 78 62 79 63 80
REMARK SMILES IDX 67 81 70 82 64 83 65 84 68 85 66 86 45 87 46 88 54 89 47 90
REMARK SMILES IDX 48 91 52 92 55 93 49 94 50 95 53 96 51 97
REMARK H PARENT 11 6 2 15 8 24 8 25 8 26 16 31 75 50 43 61
REMARK Flexibility Score: inf
ROOT
ATOM      1  C   UNL A   1      31.811  30.422  26.688  1.00  0.00     0.023 C 
ENDROOT
BRANCH   1   2
ATOM      2  C   UNL A   1      33.166  29.904  26.211  1.00  0.00     0.116 C 
BRANCH   2   3
ATOM      3  N   UNL A   1      33.256  29.703  24.769  1.00  0.00    -0.351 N 
ATOM      4  C   UNL A   1      33.066  28.542  24.034  1.00  0.00     0.281 C 
ATOM      5  O   UNL A   1      33.151  28.601  22.806  1.00  0.00    -0.268 OA
ATOM      6  H   UNL A   1      33.484  30.503  24.244  1.00  0.00     0.163 HD
BRANCH   4   7
ATOM      7  C   UNL A   1      32.684  27.230  24.805  1.00  0.00     0.179 C 
ATOM      8  C   UNL A   1      32.303  24.638  24.689  1.00  0.00     0.190 C 
ATOM      9  C   UNL A   1      30.780  24.820  24.649  1.00  0.00     0.065 C 
ATOM     10  C   UNL A   1      32.964  25.916  24.048  1.00  0.00     0.144 C 
ATOM     11  C   UNL A   1      30.302  26.090  25.329  1.00  0.00     0.013 C 
ATOM     12  C   UNL A   1      31.124  27.331  24.976  1.00  0.00     0.079 C 
BRANCH   8  13
ATOM     13  N   UNL A   1      32.858  24.136  25.989  1.00  0.00    -0.332 N 
ATOM     14  C   UNL A   1      31.917  23.426  26.876  1.00  0.00     0.333 C 
ATOM     15  H   UNL A   1      33.118  25.029  26.408  1.00  0.00     0.348 HD
BRANCH  13  16
ATOM     16  C   UNL A   1      34.037  23.219  25.854  1.00  0.00     0.184 C 
ATOM     17  C   UNL A   1      37.778  21.155  25.001  1.00  0.00     0.007 C 
ATOM     18  C   UNL A   1      36.591  22.089  24.779  1.00  0.00    -0.014 C 
ATOM     19  C   UNL A   1      36.573  23.155  25.870  1.00  0.00     0.009 C 
ATOM     20  C   UNL A   1      35.272  21.307  24.744  1.00  0.00     0.009 C 
ATOM     21  C   UNL A   1      35.349  24.049  25.750  1.00  0.00     0.065 C 
ATOM     22  C   UNL A   1      34.033  22.215  24.684  1.00  0.00     0.065 C 
ENDBRANCH  13  16
ENDBRANCH   8  13
BRANCH   7  23
ATOM     23  N   UNL A   1      33.624  27.228  25.947  1.00  0.00    -0.345 N 
ATOM     24  H   UNL A   1      34.127  28.115  25.975  1.00  0.00     0.345 HD
ATOM     25  H   UNL A   1      34.291  26.463  25.837  1.00  0.00     0.345 HD
ATOM     26  H   UNL A   1      33.105  27.104  26.815  1.00  0.00     0.345 HD
ENDBRANCH   7  23
ENDBRANCH   4   7
ENDBRANCH   2   3
ENDBRANCH   1   2
BRANCH   1  27
ATOM     27  C   UNL A   1      31.656  31.933  26.627  1.00  0.00     0.023 C 
BRANCH  27  28
ATOM     28  C   UNL A   1      32.769  32.718  27.305  1.00  0.00     0.116 C 
BRANCH  28  29
ATOM     29  N   UNL A   1      32.411  34.093  27.626  1.00  0.00    -0.352 N 
ATOM     30  C   UNL A   1      32.999  34.937  28.538  1.00  0.00     0.251 C 
ATOM     31  H   UNL A   1      31.650  34.466  27.125  1.00  0.00     0.163 HD
ATOM     32  O   UNL A   1      32.528  36.048  28.760  1.00  0.00    -0.269 OA
BRANCH  30  33
ATOM     33  C   UNL A   1      34.179  34.464  29.290  1.00  0.00     0.039 A 
ATOM     34  C   UNL A   1      33.981  33.822  30.512  1.00  0.00     0.014 A 
ATOM     35  C   UNL A   1      35.462  34.582  28.749  1.00  0.00     0.014 A 
ATOM     36  C   UNL A   1      35.064  33.219  31.152  1.00  0.00     0.010 A 
ATOM     37  C   UNL A   1      36.521  33.904  29.341  1.00  0.00     0.010 A 
ATOM     38  C   UNL A   1      36.331  33.212  30.545  1.00  0.00    -0.014 A 
BRANCH  38  39
ATOM     39  C   UNL A   1      37.457  32.455  31.149  1.00  0.00     0.031 A 
ATOM     40  C   UNL A   1      37.951  32.794  32.526  1.00  0.00     0.074 A 
ATOM     41  C   UNL A   1      38.068  31.496  30.428  1.00  0.00     0.049 A 
ATOM     42  N   UNL A   1      38.921  32.247  33.214  1.00  0.00    -0.248 NA
ATOM     43  C   UNL A   1      37.289  33.915  33.211  1.00  0.00     0.031 C 
ATOM     44  C   UNL A   1      37.730  31.128  29.051  1.00  0.00     0.029 A 
ATOM     45  N   UNL A   1      39.105  30.656  30.749  1.00  0.00    -0.354 N 
ATOM     46  C   UNL A   1      38.988  32.958  34.405  1.00  0.00     0.074 A 
ATOM     47  C   UNL A   1      38.006  34.016  34.321  1.00  0.00     0.031 C 
ATOM     48  C   UNL A   1      38.517  30.113  28.660  1.00  0.00     0.029 A 
ATOM     49  C   UNL A   1      39.437  29.781  29.744  1.00  0.00     0.049 A 
ATOM     50  H   UNL A   1      39.567  30.678  31.618  1.00  0.00     0.167 HD
ATOM     51  C   UNL A   1      39.777  32.729  35.481  1.00  0.00     0.037 A 
ATOM     52  C   UNL A   1      40.374  28.816  29.703  1.00  0.00     0.037 A 
ATOM     53  C   UNL A   1      40.741  31.663  35.566  1.00  0.00     0.049 A 
ATOM     54  C   UNL A   1      41.229  28.575  30.917  1.00  0.00     0.074 A 
ATOM     55  C   UNL A   1      41.543  31.307  36.636  1.00  0.00     0.029 A 
ATOM     56  N   UNL A   1      41.039  30.785  34.534  1.00  0.00    -0.354 N 
ATOM     57  N   UNL A   1      41.221  29.196  32.073  1.00  0.00    -0.248 NA
ATOM     58  C   UNL A   1      42.214  27.491  30.826  1.00  0.00     0.031 C 
ATOM     59  C   UNL A   1      42.361  30.245  36.236  1.00  0.00     0.029 A 
ATOM     60  C   UNL A   1      42.031  29.903  34.936  1.00  0.00     0.049 A 
ATOM     61  H   UNL A   1      40.610  30.787  33.649  1.00  0.00     0.167 HD
ATOM     62  C   UNL A   1      42.181  28.566  32.851  1.00  0.00     0.074 A 
ATOM     63  C   UNL A   1      42.733  27.496  32.045  1.00  0.00     0.031 C 
ATOM     64  C   UNL A   1      42.575  28.849  34.117  1.00  0.00     0.037 A 
BRANCH  51  65
ATOM     65  C   UNL A   1      39.625  33.649  36.659  1.00  0.00     0.064 A 
ATOM     66  C   UNL A   1      40.284  34.886  36.717  1.00  0.00     0.173 A 
ATOM     67  C   UNL A   1      38.782  33.306  37.727  1.00  0.00     0.173 A 
ATOM     68  F   UNL A   1      41.112  35.258  35.729  1.00  0.00    -0.203 F 
ATOM     69  C   UNL A   1      40.130  35.731  37.813  1.00  0.00     0.198 A 
ATOM     70  C   UNL A   1      38.605  34.168  38.806  1.00  0.00     0.198 A 
ATOM     71  F   UNL A   1      38.124  32.136  37.721  1.00  0.00    -0.203 F 
ATOM     72  F   UNL A   1      40.812  36.884  37.869  1.00  0.00    -0.200 F 
ATOM     73  C   UNL A   1      39.285  35.375  38.852  1.00  0.00     0.200 A 
ATOM     74  F   UNL A   1      37.777  33.828  39.805  1.00  0.00    -0.200 F 
ATOM     75  F   UNL A   1      39.131  36.193  39.903  1.00  0.00    -0.200 F 
ENDBRANCH  51  65
BRANCH  52  76
ATOM     76  C   UNL A   1      40.531  27.982  28.484  1.00  0.00     0.064 A 
ATOM     77  C   UNL A   1      41.338  28.405  27.419  1.00  0.00     0.173 A 
ATOM     78  C   UNL A   1      39.876  26.748  28.353  1.00  0.00     0.173 A 
ATOM     79  F   UNL A   1      41.969  29.587  27.487  1.00  0.00    -0.203 F 
ATOM     80  C   UNL A   1      41.464  27.641  26.261  1.00  0.00     0.198 A 
ATOM     81  C   UNL A   1      40.027  25.969  27.208  1.00  0.00     0.198 A 
ATOM     82  F   UNL A   1      39.097  26.293  29.347  1.00  0.00    -0.203 F 
ATOM     83  F   UNL A   1      42.203  28.093  25.239  1.00  0.00    -0.200 F 
ATOM     84  C   UNL A   1      40.814  26.420  26.159  1.00  0.00     0.200 A 
ATOM     85  F   UNL A   1      39.409  24.784  27.120  1.00  0.00    -0.200 F 
ATOM     86  F   UNL A   1      40.939  25.683  25.047  1.00  0.00    -0.200 F 
ENDBRANCH  52  76
BRANCH  64  87
ATOM     87  C   UNL A   1      43.642  27.973  34.710  1.00  0.00     0.064 A 
ATOM     88  C   UNL A   1      43.328  26.786  35.389  1.00  0.00     0.173 A 
ATOM     89  C   UNL A   1      44.997  28.321  34.590  1.00  0.00     0.173 A 
ATOM     90  F   UNL A   1      42.047  26.416  35.544  1.00  0.00    -0.203 F 
ATOM     91  C   UNL A   1      44.326  26.002  35.961  1.00  0.00     0.198 A 
ATOM     92  C   UNL A   1      45.994  27.517  35.134  1.00  0.00     0.198 A 
ATOM     93  F   UNL A   1      45.353  29.440  33.943  1.00  0.00    -0.203 F 
ATOM     94  F   UNL A   1      43.997  24.908  36.661  1.00  0.00    -0.200 F 
ATOM     95  C   UNL A   1      45.657  26.364  35.829  1.00  0.00     0.200 A 
ATOM     96  F   UNL A   1      47.282  27.861  34.993  1.00  0.00    -0.200 F 
ATOM     97  F   UNL A   1      46.617  25.610  36.382  1.00  0.00    -0.200 F 
ENDBRANCH  64  87
ENDBRANCH  38  39
ENDBRANCH  30  33
ENDBRANCH  28  29
ENDBRANCH  27  28
ENDBRANCH   1  27
TORSDOF 14
ENDMDL
MODEL 2
REMARK VINA RESULT:     -12.7      0.824      7.356
REMARK SMILES C[N@H+]([C@H]1CCC[C@]([NH3+])(C(=O)NCCCCNC(=O)c2ccc(-c3c4nc(c(-c5c(F)c(F)c(F)c(F)c5F)c5ccc([nH]5)c(-c5c(F)c(F)c(F)c(F)c5F)c5nc(c(-c6c(F)c(F)c(F)c(F)c6F)c6ccc3[nH]6)C=C5)C=C4)cc2)C1)[C@H]1CC[C@H](C)CC1
REMARK SMILES IDX 13 1 12 2 11 3 9 4 10 5 7 7 3 8 4 9 82 10 5 11 6 12 2 13
REMARK SMILES IDX 1 14 83 16 87 17 86 18 85 19 88 20 84 21 89 22 8 23 14 27
REMARK SMILES IDX 15 28 16 29 17 30 18 32 19 33 20 34 81 35 21 36 80 37 22 38
REMARK SMILES IDX 23 39 24 40 74 41 25 42 79 43 73 44 75 45 26 46 78 47 72 48
REMARK SMILES IDX 71 49 27 51 59 52 39 53 58 54 40 55 43 56 57 57 76 58 41 59
REMARK SMILES IDX 42 60 56 62 77 63 44 64 28 65 29 66 37 67 30 68 31 69 35 70
REMARK SMILES IDX 38 71 32 72 33 73 36 74 34 75 60 76 61 77 69 78 62 79 63 80
REMARK SMILES IDX 67 81 70 82 64 83 65 84 68 85 66 86 45 87 46 88 54 89 47 90
REMARK SMILES IDX 48 91 52 92 55 93 49 94 50 95 53 96 51 97
REMARK H PARENT 11 6 2 15 8 24 8 25 8 26 16 31 75 50 43 61
REMARK Flexibility Score: inf
ROOT
ATOM      1  C   UNL A   1      32.142  30.408  26.677  1.00  0.00     0.023 C 
ENDROOT
BRANCH   1   2
ATOM      2  C   UNL A   1      31.622  29.782  25.385  1.00  0.00     0.116 C 
BRANCH   2   3
ATOM      3  N   UNL A   1      32.595  29.757  24.299  1.00  0.00    -0.351 N 
ATOM      4  C   UNL A   1      33.147  28.665  23.644  1.00  0.00     0.281 C 
ATOM      5  O   UNL A   1      33.930  28.870  22.715  1.00  0.00    -0.268 OA
ATOM      6  H   UNL A   1      32.903  30.637  23.987  1.00  0.00     0.163 HD
BRANCH   4   7
ATOM      7  C   UNL A   1      32.689  27.229  24.080  1.00  0.00     0.179 C 
ATOM      8  C   UNL A   1      32.665  24.665  23.534  1.00  0.00     0.190 C 
ATOM      9  C   UNL A   1      31.226  24.746  23.005  1.00  0.00     0.065 C 
ATOM     10  C   UNL A   1      33.347  26.066  23.310  1.00  0.00     0.144 C 
ATOM     11  C   UNL A   1      30.412  25.864  23.632  1.00  0.00     0.013 C 
ATOM     12  C   UNL A   1      31.157  27.197  23.726  1.00  0.00     0.079 C 
BRANCH   8  13
ATOM     13  N   UNL A   1      32.822  24.012  24.874  1.00  0.00    -0.332 N 
ATOM     14  C   UNL A   1      31.789  23.030  25.255  1.00  0.00     0.333 C 
ATOM     15  H   UNL A   1      32.745  24.839  25.466  1.00  0.00     0.348 HD
BRANCH  13  16
ATOM     16  C   UNL A   1      34.129  23.303  25.076  1.00  0.00     0.184 C 
ATOM     17  C   UNL A   1      38.257  21.974  25.499  1.00  0.00     0.007 C 
ATOM     18  C   UNL A   1      37.076  22.791  24.981  1.00  0.00    -0.014 C 
ATOM     19  C   UNL A   1      36.419  23.528  26.144  1.00  0.00     0.009 C 
ATOM     20  C   UNL A   1      36.067  21.899  24.246  1.00  0.00     0.009 C 
ATOM     21  C   UNL A   1      35.174  24.276  25.693  1.00  0.00     0.065 C 
ATOM     22  C   UNL A   1      34.783  22.644  23.846  1.00  0.00     0.065 C 
ENDBRANCH  13  16
ENDBRANCH   8  13
BRANCH   7  23
ATOM     23  N   UNL A   1      33.203  27.119  25.462  1.00  0.00    -0.345 N 
ATOM     24  H   UNL A   1      32.434  27.243  26.121  1.00  0.00     0.345 HD
ATOM     25  H   UNL A   1      33.906  27.841  25.622  1.00  0.00     0.345 HD
ATOM     26  H   UNL A   1      33.621  26.200  25.597  1.00  0.00     0.345 HD
ENDBRANCH   7  23
ENDBRANCH   4   7
ENDBRANCH   2   3
ENDBRANCH   1   2
BRANCH   1  27
ATOM     27  C   UNL A   1      31.756  31.865  26.873  1.00  0.00     0.023 C 
BRANCH  27  28
ATOM     28  C   UNL A   1      32.876  32.760  27.384  1.00  0.00     0.116 C 
BRANCH  28  29
ATOM     29  N   UNL A   1      32.456  34.124  27.673  1.00  0.00    -0.352 N 
ATOM     30  C   UNL A   1      32.977  34.999  28.597  1.00  0.00     0.251 C 
ATOM     31  H   UNL A   1      31.702  34.464  27.139  1.00  0.00     0.163 HD
ATOM     32  O   UNL A   1      32.457  36.095  28.787  1.00  0.00    -0.269 OA
BRANCH  30  33
ATOM     33  C   UNL A   1      34.143  34.579  29.400  1.00  0.00     0.039 A 
ATOM     34  C   UNL A   1      33.927  34.082  30.685  1.00  0.00     0.014 A 
ATOM     35  C   UNL A   1      35.428  34.599  28.852  1.00  0.00     0.014 A 
ATOM     36  C   UNL A   1      34.993  33.523  31.390  1.00  0.00     0.010 A 
ATOM     37  C   UNL A   1      36.468  33.960  29.517  1.00  0.00     0.010 A 
ATOM     38  C   UNL A   1      36.259  33.411  30.790  1.00  0.00    -0.014 A 
BRANCH  38  39
ATOM     39  C   UNL A   1      37.363  32.694  31.477  1.00  0.00     0.031 A 
ATOM     40  C   UNL A   1      38.033  31.520  30.823  1.00  0.00     0.074 A 
ATOM     41  C   UNL A   1      37.721  33.072  32.719  1.00  0.00     0.049 A 
ATOM     42  N   UNL A   1      39.009  30.771  31.270  1.00  0.00    -0.248 NA
ATOM     43  C   UNL A   1      37.521  31.114  29.505  1.00  0.00     0.031 C 
ATOM     44  C   UNL A   1      37.094  34.147  33.491  1.00  0.00     0.029 A 
ATOM     45  N   UNL A   1      38.700  32.594  33.554  1.00  0.00    -0.354 N 
ATOM     46  C   UNL A   1      39.222  29.807  30.294  1.00  0.00     0.074 A 
ATOM     47  C   UNL A   1      38.233  30.024  29.261  1.00  0.00     0.031 C 
ATOM     48  C   UNL A   1      37.726  34.272  34.668  1.00  0.00     0.029 A 
ATOM     49  C   UNL A   1      38.780  33.265  34.751  1.00  0.00     0.049 A 
ATOM     50  H   UNL A   1      39.289  31.841  33.319  1.00  0.00     0.167 HD
ATOM     51  C   UNL A   1      40.175  28.845  30.251  1.00  0.00     0.037 A 
ATOM     52  C   UNL A   1      39.613  33.091  35.793  1.00  0.00     0.037 A 
ATOM     53  C   UNL A   1      41.168  28.645  31.273  1.00  0.00     0.049 A 
ATOM     54  C   UNL A   1      40.670  32.024  35.713  1.00  0.00     0.074 A 
ATOM     55  C   UNL A   1      42.217  27.742  31.293  1.00  0.00     0.029 A 
ATOM     56  N   UNL A   1      41.230  29.354  32.464  1.00  0.00    -0.354 N 
ATOM     57  N   UNL A   1      40.921  31.176  34.745  1.00  0.00    -0.248 NA
ATOM     58  C   UNL A   1      41.569  31.899  36.868  1.00  0.00     0.031 C 
ATOM     59  C   UNL A   1      42.883  27.872  32.517  1.00  0.00     0.029 A 
ATOM     60  C   UNL A   1      42.285  28.892  33.237  1.00  0.00     0.049 A 
ATOM     61  H   UNL A   1      40.616  30.079  32.722  1.00  0.00     0.167 HD
ATOM     62  C   UNL A   1      42.016  30.433  35.162  1.00  0.00     0.074 A 
ATOM     63  C   UNL A   1      42.399  30.950  36.460  1.00  0.00     0.031 C 
ATOM     64  C   UNL A   1      42.647  29.412  34.531  1.00  0.00     0.037 A 
BRANCH  51  65
ATOM     65  C   UNL A   1      40.192  27.941  29.052  1.00  0.00     0.064 A 
ATOM     66  C   UNL A   1      40.918  28.265  27.895  1.00  0.00     0.173 A 
ATOM     67  C   UNL A   1      39.504  26.719  29.070  1.00  0.00     0.173 A 
ATOM     68  F   UNL A   1      41.584  29.428  27.820  1.00  0.00    -0.203 F 
ATOM     69  C   UNL A   1      40.929  27.416  26.792  1.00  0.00     0.198 A 
ATOM     70  C   UNL A   1      39.542  25.857  27.977  1.00  0.00     0.198 A 
ATOM     71  F   UNL A   1      38.796  26.357  30.152  1.00  0.00    -0.203 F 
ATOM     72  F   UNL A   1      41.586  27.774  25.680  1.00  0.00    -0.200 F 
ATOM     73  C   UNL A   1      40.248  26.210  26.837  1.00  0.00     0.200 A 
ATOM     74  F   UNL A   1      38.895  24.684  28.026  1.00  0.00    -0.200 F 
ATOM     75  F   UNL A   1      40.266  25.389  25.777  1.00  0.00    -0.200 F 
ENDBRANCH  51  65
BRANCH  52  76
ATOM     76  C   UNL A   1      39.505  33.969  36.987  1.00  0.00     0.064 A 
ATOM     77  C   UNL A   1      38.774  33.567  38.114  1.00  0.00     0.173 A 
ATOM     78  C   UNL A   1      40.122  35.228  37.027  1.00  0.00     0.173 A 
ATOM     79  F   UNL A   1      38.148  32.380  38.117  1.00  0.00    -0.203 F 
ATOM     80  C   UNL A   1      38.645  34.399  39.224  1.00  0.00     0.198 A 
ATOM     81  C   UNL A   1      40.019  36.046  38.149  1.00  0.00     0.198 A 
ATOM     82  F   UNL A   1      40.839  35.657  35.977  1.00  0.00    -0.203 F 
ATOM     83  F   UNL A   1      37.900  34.009  40.268  1.00  0.00    -0.200 F 
ATOM     84  C   UNL A   1      39.272  35.635  39.243  1.00  0.00     0.200 A 
ATOM     85  F   UNL A   1      40.638  37.233  38.169  1.00  0.00    -0.200 F 
ATOM     86  F   UNL A   1      39.151  36.433  40.312  1.00  0.00    -0.200 F 
ENDBRANCH  52  76
BRANCH  64  87
ATOM     87  C   UNL A   1      43.827  28.803  35.233  1.00  0.00     0.064 A 
ATOM     88  C   UNL A   1      43.681  27.724  36.118  1.00  0.00     0.173 A 
ATOM     89  C   UNL A   1      45.121  29.299  35.011  1.00  0.00     0.173 A 
ATOM     90  F   UNL A   1      42.463  27.222  36.376  1.00  0.00    -0.203 F 
ATOM     91  C   UNL A   1      44.781  27.192  36.787  1.00  0.00     0.198 A 
ATOM     92  C   UNL A   1      46.222  28.742  35.655  1.00  0.00     0.198 A 
ATOM     93  F   UNL A   1      45.318  30.323  34.168  1.00  0.00    -0.203 F 
ATOM     94  F   UNL A   1      44.608  26.206  37.677  1.00  0.00    -0.200 F 
ATOM     95  C   UNL A   1      46.050  27.697  36.551  1.00  0.00     0.200 A 
ATOM     96  F   UNL A   1      47.451  29.222  35.415  1.00  0.00    -0.200 F 
ATOM     97  F   UNL A   1      47.107  27.185  37.196  1.00  0.00    -0.200 F 
ENDBRANCH  64  87
ENDBRANCH  38  39
ENDBRANCH  30  33
ENDBRANCH  28  29
ENDBRANCH  27  28
ENDBRANCH   1  27
TORSDOF 14
ENDMDL
MODEL 3
REMARK VINA RESULT:     -12.7      0.545      1.693
REMARK SMILES C[N@H+]([C@H]1CCC[C@]([NH3+])(C(=O)NCCCCNC(=O)c2ccc(-c3c4nc(c(-c5c(F)c(F)c(F)c(F)c5F)c5ccc([nH]5)c(-c5c(F)c(F)c(F)c(F)c5F)c5nc(c(-c6c(F)c(F)c(F)c(F)c6F)c6ccc3[nH]6)C=C5)C=C4)cc2)C1)[C@H]1CC[C@H](C)CC1
REMARK SMILES IDX 13 1 12 2 11 3 9 4 10 5 7 7 3 8 4 9 82 10 5 11 6 12 2 13
REMARK SMILES IDX 1 14 83 16 87 17 86 18 85 19 88 20 84 21 89 22 8 23 14 27
REMARK SMILES IDX 15 28 16 29 17 30 18 32 19 33 20 34 81 35 21 36 80 37 22 38
REMARK SMILES IDX 23 39 24 40 74 41 25 42 79 43 73 44 75 45 26 46 78 47 72 48
REMARK SMILES IDX 71 49 27 51 59 52 39 53 58 54 40 55 43 56 57 57 76 58 41 59
REMARK SMILES IDX 42 60 56 62 77 63 44 64 28 65 29 66 37 67 30 68 31 69 35 70
REMARK SMILES IDX 38 71 32 72 33 73 36 74 34 75 60 76 61 77 69 78 62 79 63 80
REMARK SMILES IDX 67 81 70 82 64 83 65 84 68 85 66 86 45 87 46 88 54 89 47 90
REMARK SMILES IDX 48 91 52 92 55 93 49 94 50 95 53 96 51 97
REMARK H PARENT 11 6 2 15 8 24 8 25 8 26 16 31 75 50 43 61
REMARK Flexibility Score: inf
ROOT
ATOM      1  C   UNL A   1      31.938  30.420  26.677  1.00  0.00     0.023 C 
ENDROOT
BRANCH   1   2
ATOM      2  C   UNL A   1      31.498  29.759  25.374  1.00  0.00     0.116 C 
BRANCH   2   3
ATOM      3  N   UNL A   1      32.510  29.772  24.324  1.00  0.00    -0.351 N 
ATOM      4  C   UNL A   1      33.121  28.704  23.683  1.00  0.00     0.281 C 
ATOM      5  O   UNL A   1      33.930  28.939  22.784  1.00  0.00    -0.268 OA
ATOM      6  H   UNL A   1      32.802  30.664  24.029  1.00  0.00     0.163 HD
BRANCH   4   7
ATOM      7  C   UNL A   1      32.692  27.250  24.092  1.00  0.00     0.179 C 
ATOM      8  C   UNL A   1      32.756  24.692  23.520  1.00  0.00     0.190 C 
ATOM      9  C   UNL A   1      31.329  24.739  22.955  1.00  0.00     0.065 C 
ATOM     10  C   UNL A   1      33.403  26.115  23.328  1.00  0.00     0.144 C 
ATOM     11  C   UNL A   1      30.468  25.826  23.571  1.00  0.00     0.013 C 
ATOM     12  C   UNL A   1      31.172  27.179  23.698  1.00  0.00     0.079 C 
BRANCH   8  13
ATOM     13  N   UNL A   1      32.897  24.030  24.858  1.00  0.00    -0.332 N 
ATOM     14  C   UNL A   1      31.858  23.047  25.220  1.00  0.00     0.333 C 
ATOM     15  H   UNL A   1      32.814  24.853  25.455  1.00  0.00     0.348 HD
BRANCH  13  16
ATOM     16  C   UNL A   1      34.200  23.317  25.069  1.00  0.00     0.184 C 
ATOM     17  C   UNL A   1      38.321  21.979  25.530  1.00  0.00     0.007 C 
ATOM     18  C   UNL A   1      37.147  22.802  25.005  1.00  0.00    -0.014 C 
ATOM     19  C   UNL A   1      36.477  23.529  26.167  1.00  0.00     0.009 C 
ATOM     20  C   UNL A   1      36.146  21.918  24.251  1.00  0.00     0.009 C 
ATOM     21  C   UNL A   1      35.239  24.284  25.707  1.00  0.00     0.065 C 
ATOM     22  C   UNL A   1      34.868  22.668  23.841  1.00  0.00     0.065 C 
ENDBRANCH  13  16
ENDBRANCH   8  13
BRANCH   7  23
ATOM     23  N   UNL A   1      33.173  27.140  25.486  1.00  0.00    -0.345 N 
ATOM     24  H   UNL A   1      33.686  27.986  25.736  1.00  0.00     0.345 HD
ATOM     25  H   UNL A   1      33.790  26.332  25.570  1.00  0.00     0.345 HD
ATOM     26  H   UNL A   1      32.377  27.028  26.113  1.00  0.00     0.345 HD
ENDBRANCH   7  23
ENDBRANCH   4   7
ENDBRANCH   2   3
ENDBRANCH   1   2
BRANCH   1  27
ATOM     27  C   UNL A   1      31.655  31.912  26.755  1.00  0.00     0.023 C 
BRANCH  27  28
ATOM     28  C   UNL A   1      32.777  32.745  27.358  1.00  0.00     0.116 C 
BRANCH  28  29
ATOM     29  N   UNL A   1      32.384  34.105  27.700  1.00  0.00    -0.352 N 
ATOM     30  C   UNL A   1      32.955  34.952  28.620  1.00  0.00     0.251 C 
ATOM     31  H   UNL A   1      31.610  34.464  27.210  1.00  0.00     0.163 HD
ATOM     32  O   UNL A   1      32.456  36.047  28.861  1.00  0.00    -0.269 OA
BRANCH  30  33
ATOM     33  C   UNL A   1      34.153  34.501  29.357  1.00  0.00     0.039 A 
ATOM     34  C   UNL A   1      33.982  33.855  30.581  1.00  0.00     0.014 A 
ATOM     35  C   UNL A   1      35.427  34.644  28.801  1.00  0.00     0.014 A 
ATOM     36  C   UNL A   1      35.084  33.273  31.207  1.00  0.00     0.010 A 
ATOM     37  C   UNL A   1      36.506  33.986  29.379  1.00  0.00     0.010 A 
ATOM     38  C   UNL A   1      36.344  33.290  30.585  1.00  0.00    -0.014 A 
BRANCH  38  39
ATOM     39  C   UNL A   1      37.492  32.555  31.175  1.00  0.00     0.031 A 
ATOM     40  C   UNL A   1      38.011  32.919  32.535  1.00  0.00     0.074 A 
ATOM     41  C   UNL A   1      38.098  31.593  30.453  1.00  0.00     0.049 A 
ATOM     42  N   UNL A   1      39.002  32.392  33.209  1.00  0.00    -0.248 NA
ATOM     43  C   UNL A   1      37.352  34.042  33.219  1.00  0.00     0.031 C 
ATOM     44  C   UNL A   1      37.734  31.201  29.090  1.00  0.00     0.029 A 
ATOM     45  N   UNL A   1      39.150  30.769  30.764  1.00  0.00    -0.354 N 
ATOM     46  C   UNL A   1      39.087  33.120  34.389  1.00  0.00     0.074 A 
ATOM     47  C   UNL A   1      38.092  34.167  34.312  1.00  0.00     0.031 C 
ATOM     48  C   UNL A   1      38.524  30.189  28.696  1.00  0.00     0.029 A 
ATOM     49  C   UNL A   1      39.471  29.883  29.764  1.00  0.00     0.049 A 
ATOM     50  H   UNL A   1      39.631  30.808  31.622  1.00  0.00     0.167 HD
ATOM     51  C   UNL A   1      39.902  32.916  35.451  1.00  0.00     0.037 A 
ATOM     52  C   UNL A   1      40.418  28.928  29.715  1.00  0.00     0.037 A 
ATOM     53  C   UNL A   1      40.880  31.862  35.529  1.00  0.00     0.049 A 
ATOM     54  C   UNL A   1      41.302  28.714  30.914  1.00  0.00     0.074 A 
ATOM     55  C   UNL A   1      41.708  31.530  36.586  1.00  0.00     0.029 A 
ATOM     56  N   UNL A   1      41.166  30.973  34.503  1.00  0.00    -0.354 N 
ATOM     57  N   UNL A   1      41.311  29.351  32.061  1.00  0.00    -0.248 NA
ATOM     58  C   UNL A   1      42.297  27.640  30.816  1.00  0.00     0.031 C 
ATOM     59  C   UNL A   1      42.530  30.472  36.183  1.00  0.00     0.029 A 
ATOM     60  C   UNL A   1      42.176  30.108  34.895  1.00  0.00     0.049 A 
ATOM     61  H   UNL A   1      40.717  30.958  33.627  1.00  0.00     0.167 HD
ATOM     62  C   UNL A   1      42.296  28.743  32.826  1.00  0.00     0.074 A 
ATOM     63  C   UNL A   1      42.842  27.668  32.024  1.00  0.00     0.031 C 
ATOM     64  C   UNL A   1      42.714  29.048  34.080  1.00  0.00     0.037 A 
BRANCH  51  65
ATOM     65  C   UNL A   1      39.764  33.851  36.618  1.00  0.00     0.064 A 
ATOM     66  C   UNL A   1      40.425  35.088  36.653  1.00  0.00     0.173 A 
ATOM     67  C   UNL A   1      38.935  33.522  37.701  1.00  0.00     0.173 A 
ATOM     68  F   UNL A   1      41.242  35.446  35.650  1.00  0.00    -0.203 F 
ATOM     69  C   UNL A   1      40.285  35.947  37.740  1.00  0.00     0.198 A 
ATOM     70  C   UNL A   1      38.771  34.397  38.771  1.00  0.00     0.198 A 
ATOM     71  F   UNL A   1      38.276  32.353  37.718  1.00  0.00    -0.203 F 
ATOM     72  F   UNL A   1      40.969  37.100  37.773  1.00  0.00    -0.200 F 
ATOM     73  C   UNL A   1      39.453  35.605  38.794  1.00  0.00     0.200 A 
ATOM     74  F   UNL A   1      37.956  34.071  39.784  1.00  0.00    -0.200 F 
ATOM     75  F   UNL A   1      39.313  36.436  39.836  1.00  0.00    -0.200 F 
ENDBRANCH  51  65
BRANCH  52  76
ATOM     76  C   UNL A   1      40.558  28.078  28.505  1.00  0.00     0.064 A 
ATOM     77  C   UNL A   1      39.908  26.839  28.415  1.00  0.00     0.173 A 
ATOM     78  C   UNL A   1      41.345  28.481  27.416  1.00  0.00     0.173 A 
ATOM     79  F   UNL A   1      39.160  26.400  29.439  1.00  0.00    -0.203 F 
ATOM     80  C   UNL A   1      40.060  26.025  27.295  1.00  0.00     0.198 A 
ATOM     81  C   UNL A   1      41.471  27.681  26.283  1.00  0.00     0.198 A 
ATOM     82  F   UNL A   1      41.981  29.662  27.448  1.00  0.00    -0.203 F 
ATOM     83  F   UNL A   1      39.468  24.824  27.257  1.00  0.00    -0.200 F 
ATOM     84  C   UNL A   1      40.837  26.449  26.227  1.00  0.00     0.200 A 
ATOM     85  F   UNL A   1      42.210  28.100  25.248  1.00  0.00    -0.200 F 
ATOM     86  F   UNL A   1      40.979  25.668  25.148  1.00  0.00    -0.200 F 
ENDBRANCH  52  76
BRANCH  64  87
ATOM     87  C   UNL A   1      43.804  28.193  34.661  1.00  0.00     0.064 A 
ATOM     88  C   UNL A   1      45.156  28.555  34.563  1.00  0.00     0.173 A 
ATOM     89  C   UNL A   1      43.491  27.000  35.331  1.00  0.00     0.173 A 
ATOM     90  F   UNL A   1      45.509  29.679  33.919  1.00  0.00    -0.203 F 
ATOM     91  C   UNL A   1      46.157  27.734  35.078  1.00  0.00     0.198 A 
ATOM     92  C   UNL A   1      44.492  26.199  35.875  1.00  0.00     0.198 A 
ATOM     93  F   UNL A   1      42.214  26.612  35.461  1.00  0.00    -0.203 F 
ATOM     94  F   UNL A   1      47.444  28.069  34.914  1.00  0.00    -0.200 F 
ATOM     95  C   UNL A   1      45.824  26.562  35.737  1.00  0.00     0.200 A 
ATOM     96  F   UNL A   1      44.168  25.073  36.525  1.00  0.00    -0.200 F 
ATOM     97  F   UNL A   1      46.788  25.772  36.231  1.00  0.00    -0.200 F 
ENDBRANCH  64  87
ENDBRANCH  38  39
ENDBRANCH  30  33
ENDBRANCH  28  29
ENDBRANCH  27  28
ENDBRANCH   1  27
TORSDOF 14
ENDMDL
