MODEL 1
REMARK VINA RESULT:     -11.1      0.000      0.000
REMARK SMILES CCCCCCNC(=O)Oc1cccc(-c2ccc(CC(=O)NCCCCNC(=O)c3ccc(-c4c5nc(c(-c6c(F)c(F)c(F)c(F)c6F)c6ccc([nH]6)c(-c6c(F)c(F)c(F)c(F)c6F)c6nc(c(-c7c(F)c(F)c(F)c(F)c7F)c7ccc4[nH]7)C=C6)C=C5)cc3)cc2F)c1
REMARK SMILES IDX 20 1 19 2 16 3 17 4 95 5 18 6 94 7 96 8 15 9 11 10 12 11
REMARK SMILES IDX 97 12 13 13 14 14 10 15 8 16 7 17 9 19 6 20 5 21 4 22 3 23
REMARK SMILES IDX 2 24 1 25 21 26 22 27 23 28 24 30 25 31 26 32 27 33 28 34
REMARK SMILES IDX 29 35 30 37 31 38 32 39 93 40 33 41 92 42 34 43 35 44 36 45
REMARK SMILES IDX 86 46 37 47 91 48 85 49 87 50 38 51 90 52 84 53 83 54 39 56
REMARK SMILES IDX 71 57 51 58 70 59 52 60 55 61 69 62 88 63 53 64 54 65 68 67
REMARK SMILES IDX 89 68 56 69 40 70 41 71 49 72 42 73 43 74 47 75 50 76 44 77
REMARK SMILES IDX 45 78 48 79 46 80 72 81 73 82 81 83 74 84 75 85 79 86 82 87
REMARK SMILES IDX 76 88 77 89 80 90 78 91 57 92 58 93 66 94 59 95 60 96 64 97
REMARK SMILES IDX 67 98 61 99 62 100 65 101 63 102
REMARK H PARENT 7 18 23 29 28 36 87 55 55 66
REMARK Flexibility Score: inf
ROOT
ATOM      1  C   UNL A   1      38.430  21.603  25.847  1.00  0.00     0.135 C 
ENDROOT
BRANCH   1   2
ATOM      2  C   UNL A   1      37.266  22.367  25.265  1.00  0.00    -0.036 A 
ATOM      3  C   UNL A   1      34.956  23.629  24.201  1.00  0.00     0.018 A 
ATOM      4  C   UNL A   1      35.919  23.047  23.359  1.00  0.00     0.012 A 
ATOM      5  C   UNL A   1      35.211  23.605  25.580  1.00  0.00     0.131 A 
ATOM      6  C   UNL A   1      37.060  22.424  23.881  1.00  0.00     0.005 A 
ATOM      7  C   UNL A   1      36.350  23.002  26.108  1.00  0.00     0.044 A 
ATOM      8  F   UNL A   1      34.329  24.130  26.446  1.00  0.00    -0.206 F 
BRANCH   3   9
ATOM      9  C   UNL A   1      33.728  24.233  23.658  1.00  0.00    -0.012 A 
ATOM     10  C   UNL A   1      32.506  26.177  22.861  1.00  0.00     0.133 A 
ATOM     11  C   UNL A   1      31.353  25.417  22.685  1.00  0.00     0.047 A 
ATOM     12  C   UNL A   1      33.677  25.602  23.356  1.00  0.00     0.056 A 
ATOM     13  C   UNL A   1      31.386  24.056  22.976  1.00  0.00     0.004 A 
ATOM     14  C   UNL A   1      32.563  23.470  23.456  1.00  0.00     0.009 A 
BRANCH  10  15
ATOM     15  O   UNL A   1      32.407  27.560  22.647  1.00  0.00    -0.410 OA
BRANCH  15  16
ATOM     16  C   UNL A   1      33.584  28.286  22.540  1.00  0.00     0.412 C 
ATOM     17  N   UNL A   1      33.784  29.149  23.579  1.00  0.00    -0.321 N 
ATOM     18  H   UNL A   1      34.601  29.699  23.543  1.00  0.00     0.167 HD
ATOM     19  O   UNL A   1      34.402  28.208  21.626  1.00  0.00    -0.224 OA
BRANCH  17  20
ATOM     20  C   UNL A   1      32.923  29.343  24.728  1.00  0.00     0.119 C 
BRANCH  20  21
ATOM     21  C   UNL A   1      33.552  28.804  26.013  1.00  0.00     0.021 C 
BRANCH  21  22
ATOM     22  C   UNL A   1      33.192  27.351  26.351  1.00  0.00     0.002 C 
BRANCH  22  23
ATOM     23  C   UNL A   1      31.773  27.126  26.881  1.00  0.00    -0.000 C 
BRANCH  23  24
ATOM     24  C   UNL A   1      30.737  26.710  25.833  1.00  0.00    -0.003 C 
ATOM     25  C   UNL A   1      30.055  25.389  26.154  1.00  0.00     0.004 C 
ENDBRANCH  23  24
ENDBRANCH  22  23
ENDBRANCH  21  22
ENDBRANCH  20  21
ENDBRANCH  17  20
ENDBRANCH  15  16
ENDBRANCH  10  15
ENDBRANCH   3   9
ENDBRANCH   1   2
BRANCH   1  26
ATOM     26  C   UNL A   1      39.476  22.488  26.507  1.00  0.00     0.224 C 
ATOM     27  O   UNL A   1      39.443  23.715  26.393  1.00  0.00    -0.275 OA
ATOM     28  N   UNL A   1      40.462  21.937  27.277  1.00  0.00    -0.356 N 
ATOM     29  H   UNL A   1      41.052  22.581  27.734  1.00  0.00     0.163 HD
BRANCH  28  30
ATOM     30  C   UNL A   1      40.763  20.539  27.515  1.00  0.00     0.116 C 
BRANCH  30  31
ATOM     31  C   UNL A   1      42.268  20.263  27.492  1.00  0.00     0.023 C 
BRANCH  31  32
ATOM     32  C   UNL A   1      42.678  19.000  26.729  1.00  0.00     0.023 C 
BRANCH  32  33
ATOM     33  C   UNL A   1      42.696  19.133  25.211  1.00  0.00     0.116 C 
BRANCH  33  34
ATOM     34  N   UNL A   1      43.970  18.769  24.614  1.00  0.00    -0.352 N 
ATOM     35  C   UNL A   1      45.066  19.561  24.371  1.00  0.00     0.251 C 
ATOM     36  H   UNL A   1      44.059  17.825  24.347  1.00  0.00     0.163 HD
ATOM     37  O   UNL A   1      46.031  19.112  23.760  1.00  0.00    -0.269 OA
BRANCH  35  38
ATOM     38  C   UNL A   1      45.066  20.972  24.812  1.00  0.00     0.039 A 
ATOM     39  C   UNL A   1      45.445  21.265  26.124  1.00  0.00     0.014 A 
ATOM     40  C   UNL A   1      44.704  22.001  23.938  1.00  0.00     0.014 A 
ATOM     41  C   UNL A   1      45.524  22.595  26.543  1.00  0.00     0.010 A 
ATOM     42  C   UNL A   1      44.848  23.328  24.335  1.00  0.00     0.010 A 
ATOM     43  C   UNL A   1      45.258  23.638  25.641  1.00  0.00    -0.014 A 
BRANCH  43  44
ATOM     44  C   UNL A   1      45.401  25.059  26.044  1.00  0.00     0.031 A 
ATOM     45  C   UNL A   1      46.740  25.735  25.963  1.00  0.00     0.074 A 
ATOM     46  C   UNL A   1      44.343  25.718  26.551  1.00  0.00     0.049 A 
ATOM     47  N   UNL A   1      47.084  26.941  26.339  1.00  0.00    -0.248 NA
ATOM     48  C   UNL A   1      47.847  24.939  25.412  1.00  0.00     0.031 C 
ATOM     49  C   UNL A   1      43.005  25.154  26.732  1.00  0.00     0.029 A 
ATOM     50  N   UNL A   1      44.231  27.002  27.022  1.00  0.00    -0.354 N 
ATOM     51  C   UNL A   1      48.445  27.042  26.083  1.00  0.00     0.074 A 
ATOM     52  C   UNL A   1      48.876  25.757  25.573  1.00  0.00     0.031 C 
ATOM     53  C   UNL A   1      42.203  26.092  27.264  1.00  0.00     0.029 A 
ATOM     54  C   UNL A   1      42.977  27.309  27.489  1.00  0.00     0.049 A 
ATOM     55  H   UNL A   1      44.979  27.642  27.025  1.00  0.00     0.167 HD
ATOM     56  C   UNL A   1      49.258  28.115  26.237  1.00  0.00     0.037 A 
ATOM     57  C   UNL A   1      42.505  28.443  28.042  1.00  0.00     0.037 A 
ATOM     58  C   UNL A   1      48.823  29.396  26.727  1.00  0.00     0.049 A 
ATOM     59  C   UNL A   1      43.421  29.625  28.191  1.00  0.00     0.074 A 
ATOM     60  C   UNL A   1      49.557  30.561  26.871  1.00  0.00     0.029 A 
ATOM     61  N   UNL A   1      47.535  29.681  27.154  1.00  0.00    -0.354 N 
ATOM     62  N   UNL A   1      44.692  29.731  27.887  1.00  0.00    -0.248 NA
ATOM     63  C   UNL A   1      42.835  30.852  28.749  1.00  0.00     0.031 C 
ATOM     64  C   UNL A   1      48.722  31.540  27.420  1.00  0.00     0.029 A 
ATOM     65  C   UNL A   1      47.456  30.999  27.576  1.00  0.00     0.049 A 
ATOM     66  H   UNL A   1      46.786  29.042  27.157  1.00  0.00     0.167 HD
ATOM     67  C   UNL A   1      45.053  31.036  28.193  1.00  0.00     0.074 A 
ATOM     68  C   UNL A   1      43.862  31.690  28.694  1.00  0.00     0.031 C 
ATOM     69  C   UNL A   1      46.261  31.637  28.070  1.00  0.00     0.037 A 
BRANCH  56  70
ATOM     70  C   UNL A   1      50.702  27.940  25.865  1.00  0.00     0.064 A 
ATOM     71  C   UNL A   1      51.129  28.006  24.530  1.00  0.00     0.173 A 
ATOM     72  C   UNL A   1      51.673  27.718  26.853  1.00  0.00     0.173 A 
ATOM     73  F   UNL A   1      50.239  28.204  23.546  1.00  0.00    -0.203 F 
ATOM     74  C   UNL A   1      52.467  27.815  24.193  1.00  0.00     0.198 A 
ATOM     75  C   UNL A   1      53.015  27.559  26.516  1.00  0.00     0.198 A 
ATOM     76  F   UNL A   1      51.321  27.653  28.146  1.00  0.00    -0.203 F 
ATOM     77  F   UNL A   1      52.840  27.821  22.906  1.00  0.00    -0.200 F 
ATOM     78  C   UNL A   1      53.409  27.597  25.187  1.00  0.00     0.200 A 
ATOM     79  F   UNL A   1      53.926  27.360  27.478  1.00  0.00    -0.200 F 
ATOM     80  F   UNL A   1      54.696  27.413  24.862  1.00  0.00    -0.200 F 
ENDBRANCH  56  70
BRANCH  57  81
ATOM     81  C   UNL A   1      41.085  28.516  28.467  1.00  0.00     0.064 A 
ATOM     82  C   UNL A   1      40.703  28.158  29.767  1.00  0.00     0.173 A 
ATOM     83  C   UNL A   1      40.084  28.963  27.591  1.00  0.00     0.173 A 
ATOM     84  F   UNL A   1      41.622  27.707  30.632  1.00  0.00    -0.203 F 
ATOM     85  C   UNL A   1      39.373  28.231  30.172  1.00  0.00     0.198 A 
ATOM     86  C   UNL A   1      38.757  29.060  28.005  1.00  0.00     0.198 A 
ATOM     87  F   UNL A   1      40.400  29.323  26.338  1.00  0.00    -0.203 F 
ATOM     88  F   UNL A   1      39.030  27.851  31.410  1.00  0.00    -0.200 F 
ATOM     89  C   UNL A   1      38.402  28.689  29.293  1.00  0.00     0.200 A 
ATOM     90  F   UNL A   1      37.825  29.515  27.158  1.00  0.00    -0.200 F 
ATOM     91  F   UNL A   1      37.123  28.768  29.687  1.00  0.00    -0.200 F 
ENDBRANCH  57  81
BRANCH  69  92
ATOM     92  C   UNL A   1      46.351  33.084  28.456  1.00  0.00     0.064 A 
ATOM     93  C   UNL A   1      46.700  33.478  29.755  1.00  0.00     0.173 A 
ATOM     94  C   UNL A   1      46.124  34.088  27.502  1.00  0.00     0.173 A 
ATOM     95  F   UNL A   1      46.911  32.556  30.707  1.00  0.00    -0.203 F 
ATOM     96  C   UNL A   1      46.797  34.826  30.092  1.00  0.00     0.198 A 
ATOM     97  C   UNL A   1      46.249  35.434  27.835  1.00  0.00     0.198 A 
ATOM     98  F   UNL A   1      45.794  33.763  26.243  1.00  0.00    -0.203 F 
ATOM     99  F   UNL A   1      47.089  35.181  31.351  1.00  0.00    -0.200 F 
ATOM    100  C   UNL A   1      46.578  35.801  29.131  1.00  0.00     0.200 A 
ATOM    101  F   UNL A   1      46.049  36.375  26.903  1.00  0.00    -0.200 F 
ATOM    102  F   UNL A   1      46.679  37.098  29.455  1.00  0.00    -0.200 F 
ENDBRANCH  69  92
ENDBRANCH  43  44
ENDBRANCH  35  38
ENDBRANCH  33  34
ENDBRANCH  32  33
ENDBRANCH  31  32
ENDBRANCH  30  31
ENDBRANCH  28  30
ENDBRANCH   1  26
TORSDOF 20
ENDMDL
MODEL 2
REMARK VINA RESULT:     -10.9      0.463      1.995
REMARK SMILES CCCCCCNC(=O)Oc1cccc(-c2ccc(CC(=O)NCCCCNC(=O)c3ccc(-c4c5nc(c(-c6c(F)c(F)c(F)c(F)c6F)c6ccc([nH]6)c(-c6c(F)c(F)c(F)c(F)c6F)c6nc(c(-c7c(F)c(F)c(F)c(F)c7F)c7ccc4[nH]7)C=C6)C=C5)cc3)cc2F)c1
REMARK SMILES IDX 20 1 19 2 16 3 17 4 95 5 18 6 94 7 96 8 15 9 11 10 12 11
REMARK SMILES IDX 97 12 13 13 14 14 10 15 8 16 7 17 9 19 6 20 5 21 4 22 3 23
REMARK SMILES IDX 2 24 1 25 21 26 22 27 23 28 24 30 25 31 26 32 27 33 28 34
REMARK SMILES IDX 29 35 30 37 31 38 32 39 93 40 33 41 92 42 34 43 35 44 36 45
REMARK SMILES IDX 86 46 37 47 91 48 85 49 87 50 38 51 90 52 84 53 83 54 39 56
REMARK SMILES IDX 71 57 51 58 70 59 52 60 55 61 69 62 88 63 53 64 54 65 68 67
REMARK SMILES IDX 89 68 56 69 40 70 41 71 49 72 42 73 43 74 47 75 50 76 44 77
REMARK SMILES IDX 45 78 48 79 46 80 72 81 73 82 81 83 74 84 75 85 79 86 82 87
REMARK SMILES IDX 76 88 77 89 80 90 78 91 57 92 58 93 66 94 59 95 60 96 64 97
REMARK SMILES IDX 67 98 61 99 62 100 65 101 63 102
REMARK H PARENT 7 18 23 29 28 36 87 55 55 66
REMARK Flexibility Score: inf
ROOT
ATOM      1  C   UNL A   1      38.266  22.078  25.824  1.00  0.00     0.135 C 
ENDROOT
BRANCH   1   2
ATOM      2  C   UNL A   1      37.080  22.817  25.253  1.00  0.00    -0.036 A 
ATOM      3  C   UNL A   1      34.737  24.026  24.200  1.00  0.00     0.018 A 
ATOM      4  C   UNL A   1      35.741  23.526  23.352  1.00  0.00     0.012 A 
ATOM      5  C   UNL A   1      34.966  23.948  25.582  1.00  0.00     0.131 A 
ATOM      6  C   UNL A   1      36.898  22.930  23.869  1.00  0.00     0.005 A 
ATOM      7  C   UNL A   1      36.121  23.371  26.105  1.00  0.00     0.044 A 
ATOM      8  F   UNL A   1      34.045  24.393  26.452  1.00  0.00    -0.206 F 
BRANCH   3   9
ATOM      9  C   UNL A   1      33.494  24.600  23.660  1.00  0.00    -0.012 A 
ATOM     10  C   UNL A   1      32.220  26.516  22.875  1.00  0.00     0.133 A 
ATOM     11  C   UNL A   1      31.089  25.727  22.691  1.00  0.00     0.047 A 
ATOM     12  C   UNL A   1      33.406  25.969  23.367  1.00  0.00     0.056 A 
ATOM     13  C   UNL A   1      31.158  24.365  22.973  1.00  0.00     0.004 A 
ATOM     14  C   UNL A   1      32.350  23.807  23.450  1.00  0.00     0.009 A 
BRANCH  10  15
ATOM     15  O   UNL A   1      32.084  27.898  22.671  1.00  0.00    -0.410 OA
BRANCH  15  16
ATOM     16  C   UNL A   1      33.195  28.698  22.893  1.00  0.00     0.412 C 
ATOM     17  N   UNL A   1      33.049  29.542  23.957  1.00  0.00    -0.321 N 
ATOM     18  H   UNL A   1      33.806  30.143  24.148  1.00  0.00     0.167 HD
ATOM     19  O   UNL A   1      34.231  28.699  22.232  1.00  0.00    -0.224 OA
BRANCH  17  20
ATOM     20  C   UNL A   1      31.900  29.648  24.834  1.00  0.00     0.119 C 
BRANCH  20  21
ATOM     21  C   UNL A   1      32.268  30.244  26.192  1.00  0.00     0.021 C 
BRANCH  21  22
ATOM     22  C   UNL A   1      32.529  29.217  27.302  1.00  0.00     0.002 C 
BRANCH  22  23
ATOM     23  C   UNL A   1      31.507  28.081  27.406  1.00  0.00    -0.000 C 
BRANCH  23  24
ATOM     24  C   UNL A   1      31.865  26.800  26.648  1.00  0.00    -0.003 C 
ATOM     25  C   UNL A   1      30.649  25.988  26.231  1.00  0.00     0.004 C 
ENDBRANCH  23  24
ENDBRANCH  22  23
ENDBRANCH  21  22
ENDBRANCH  20  21
ENDBRANCH  17  20
ENDBRANCH  15  16
ENDBRANCH  10  15
ENDBRANCH   3   9
ENDBRANCH   1   2
BRANCH   1  26
ATOM     26  C   UNL A   1      39.289  22.984  26.493  1.00  0.00     0.224 C 
ATOM     27  O   UNL A   1      39.212  24.211  26.406  1.00  0.00    -0.275 OA
ATOM     28  N   UNL A   1      40.302  22.450  27.239  1.00  0.00    -0.356 N 
ATOM     29  H   UNL A   1      40.874  23.103  27.704  1.00  0.00     0.163 HD
BRANCH  28  30
ATOM     30  C   UNL A   1      40.653  21.058  27.443  1.00  0.00     0.116 C 
BRANCH  30  31
ATOM     31  C   UNL A   1      42.154  20.871  27.673  1.00  0.00     0.023 C 
BRANCH  31  32
ATOM     32  C   UNL A   1      42.765  19.653  26.974  1.00  0.00     0.023 C 
BRANCH  32  33
ATOM     33  C   UNL A   1      42.498  19.560  25.476  1.00  0.00     0.116 C 
BRANCH  33  34
ATOM     34  N   UNL A   1      43.607  18.993  24.726  1.00  0.00    -0.352 N 
ATOM     35  C   UNL A   1      44.770  19.600  24.317  1.00  0.00     0.251 C 
ATOM     36  H   UNL A   1      43.510  18.045  24.478  1.00  0.00     0.163 HD
ATOM     37  O   UNL A   1      45.561  18.999  23.597  1.00  0.00    -0.269 OA
BRANCH  35  38
ATOM     38  C   UNL A   1      45.050  20.997  24.713  1.00  0.00     0.039 A 
ATOM     39  C   UNL A   1      44.670  22.027  23.849  1.00  0.00     0.014 A 
ATOM     40  C   UNL A   1      45.671  21.292  25.929  1.00  0.00     0.014 A 
ATOM     41  C   UNL A   1      44.856  23.357  24.231  1.00  0.00     0.010 A 
ATOM     42  C   UNL A   1      45.794  22.617  26.339  1.00  0.00     0.010 A 
ATOM     43  C   UNL A   1      45.389  23.662  25.493  1.00  0.00    -0.014 A 
BRANCH  43  44
ATOM     44  C   UNL A   1      45.533  25.067  25.949  1.00  0.00     0.031 A 
ATOM     45  C   UNL A   1      46.872  25.746  25.890  1.00  0.00     0.074 A 
ATOM     46  C   UNL A   1      44.476  25.708  26.482  1.00  0.00     0.049 A 
ATOM     47  N   UNL A   1      47.217  26.937  26.310  1.00  0.00    -0.248 NA
ATOM     48  C   UNL A   1      47.978  24.970  25.308  1.00  0.00     0.031 C 
ATOM     49  C   UNL A   1      43.138  25.138  26.644  1.00  0.00     0.029 A 
ATOM     50  N   UNL A   1      44.365  26.974  27.000  1.00  0.00    -0.354 N 
ATOM     51  C   UNL A   1      48.578  27.047  26.056  1.00  0.00     0.074 A 
ATOM     52  C   UNL A   1      49.007  25.782  25.497  1.00  0.00     0.031 C 
ATOM     53  C   UNL A   1      42.337  26.055  27.212  1.00  0.00     0.029 A 
ATOM     54  C   UNL A   1      43.112  27.263  27.481  1.00  0.00     0.049 A 
ATOM     55  H   UNL A   1      45.113  27.613  27.026  1.00  0.00     0.167 HD
ATOM     56  C   UNL A   1      49.391  28.113  26.248  1.00  0.00     0.037 A 
ATOM     57  C   UNL A   1      42.642  28.376  28.076  1.00  0.00     0.037 A 
ATOM     58  C   UNL A   1      48.958  29.376  26.786  1.00  0.00     0.049 A 
ATOM     59  C   UNL A   1      43.559  29.551  28.267  1.00  0.00     0.074 A 
ATOM     60  C   UNL A   1      49.692  30.534  26.972  1.00  0.00     0.029 A 
ATOM     61  N   UNL A   1      47.670  29.645  27.226  1.00  0.00    -0.354 N 
ATOM     62  N   UNL A   1      44.829  29.668  27.965  1.00  0.00    -0.248 NA
ATOM     63  C   UNL A   1      42.974  30.756  28.872  1.00  0.00     0.031 C 
ATOM     64  C   UNL A   1      48.858  31.492  27.559  1.00  0.00     0.029 A 
ATOM     65  C   UNL A   1      47.592  30.946  27.697  1.00  0.00     0.049 A 
ATOM     66  H   UNL A   1      46.922  29.006  27.206  1.00  0.00     0.167 HD
ATOM     67  C   UNL A   1      45.191  30.960  28.319  1.00  0.00     0.074 A 
ATOM     68  C   UNL A   1      44.001  31.595  28.847  1.00  0.00     0.031 C 
ATOM     69  C   UNL A   1      46.399  31.565  28.216  1.00  0.00     0.037 A 
BRANCH  56  70
ATOM     70  C   UNL A   1      50.834  27.953  25.867  1.00  0.00     0.064 A 
ATOM     71  C   UNL A   1      51.817  27.651  26.823  1.00  0.00     0.173 A 
ATOM     72  C   UNL A   1      51.241  28.087  24.532  1.00  0.00     0.173 A 
ATOM     73  F   UNL A   1      51.483  27.524  28.117  1.00  0.00    -0.203 F 
ATOM     74  C   UNL A   1      53.157  27.532  26.463  1.00  0.00     0.198 A 
ATOM     75  C   UNL A   1      52.576  27.936  24.169  1.00  0.00     0.198 A 
ATOM     76  F   UNL A   1      50.341  28.369  23.576  1.00  0.00    -0.203 F 
ATOM     77  F   UNL A   1      54.084  27.304  27.403  1.00  0.00    -0.200 F 
ATOM     78  C   UNL A   1      53.535  27.668  25.136  1.00  0.00     0.200 A 
ATOM     79  F   UNL A   1      52.939  28.057  22.885  1.00  0.00    -0.200 F 
ATOM     80  F   UNL A   1      54.824  27.553  24.790  1.00  0.00    -0.200 F 
ENDBRANCH  56  70
BRANCH  57  81
ATOM     81  C   UNL A   1      41.222  28.433  28.506  1.00  0.00     0.064 A 
ATOM     82  C   UNL A   1      40.231  28.930  27.650  1.00  0.00     0.173 A 
ATOM     83  C   UNL A   1      40.825  27.975  29.771  1.00  0.00     0.173 A 
ATOM     84  F   UNL A   1      40.566  29.396  26.439  1.00  0.00    -0.203 F 
ATOM     85  C   UNL A   1      38.896  28.980  28.047  1.00  0.00     0.198 A 
ATOM     86  C   UNL A   1      39.487  28.002  30.158  1.00  0.00     0.198 A 
ATOM     87  F   UNL A   1      41.736  27.485  30.625  1.00  0.00    -0.203 F 
ATOM     88  F   UNL A   1      37.973  29.491  27.222  1.00  0.00    -0.200 F 
ATOM     89  C   UNL A   1      38.524  28.509  29.298  1.00  0.00     0.200 A 
ATOM     90  F   UNL A   1      39.129  27.534  31.361  1.00  0.00    -0.200 F 
ATOM     91  F   UNL A   1      37.239  28.548  29.675  1.00  0.00    -0.200 F 
ENDBRANCH  57  81
BRANCH  69  92
ATOM     92  C   UNL A   1      46.490  32.997  28.655  1.00  0.00     0.064 A 
ATOM     93  C   UNL A   1      46.215  34.055  27.776  1.00  0.00     0.173 A 
ATOM     94  C   UNL A   1      46.818  33.312  29.982  1.00  0.00     0.173 A 
ATOM     95  F   UNL A   1      45.912  33.805  26.493  1.00  0.00    -0.203 F 
ATOM     96  C   UNL A   1      46.287  35.378  28.205  1.00  0.00     0.198 A 
ATOM     97  C   UNL A   1      46.863  34.635  30.415  1.00  0.00     0.198 A 
ATOM     98  F   UNL A   1      47.084  32.337  30.863  1.00  0.00    -0.203 F 
ATOM     99  F   UNL A   1      46.062  36.374  27.338  1.00  0.00    -0.200 F 
ATOM    100  C   UNL A   1      46.604  35.666  29.524  1.00  0.00     0.200 A 
ATOM    101  F   UNL A   1      47.157  34.912  31.692  1.00  0.00    -0.200 F 
ATOM    102  F   UNL A   1      46.665  36.940  29.937  1.00  0.00    -0.200 F 
ENDBRANCH  69  92
ENDBRANCH  43  44
ENDBRANCH  35  38
ENDBRANCH  33  34
ENDBRANCH  32  33
ENDBRANCH  31  32
ENDBRANCH  30  31
ENDBRANCH  28  30
ENDBRANCH   1  26
TORSDOF 20
ENDMDL
MODEL 3
REMARK VINA RESULT:     -10.6      5.113      8.905
REMARK SMILES CCCCCCNC(=O)Oc1cccc(-c2ccc(CC(=O)NCCCCNC(=O)c3ccc(-c4c5nc(c(-c6c(F)c(F)c(F)c(F)c6F)c6ccc([nH]6)c(-c6c(F)c(F)c(F)c(F)c6F)c6nc(c(-c7c(F)c(F)c(F)c(F)c7F)c7ccc4[nH]7)C=C6)C=C5)cc3)cc2F)c1
REMARK SMILES IDX 20 1 19 2 16 3 17 4 95 5 18 6 94 7 96 8 15 9 11 10 12 11
REMARK SMILES IDX 97 12 13 13 14 14 10 15 8 16 7 17 9 19 6 20 5 21 4 22 3 23
REMARK SMILES IDX 2 24 1 25 21 26 22 27 23 28 24 30 25 31 26 32 27 33 28 34
REMARK SMILES IDX 29 35 30 37 31 38 32 39 93 40 33 41 92 42 34 43 35 44 36 45
REMARK SMILES IDX 86 46 37 47 91 48 85 49 87 50 38 51 90 52 84 53 83 54 39 56
REMARK SMILES IDX 71 57 51 58 70 59 52 60 55 61 69 62 88 63 53 64 54 65 68 67
REMARK SMILES IDX 89 68 56 69 40 70 41 71 49 72 42 73 43 74 47 75 50 76 44 77
REMARK SMILES IDX 45 78 48 79 46 80 72 81 73 82 81 83 74 84 75 85 79 86 82 87
REMARK SMILES IDX 76 88 77 89 80 90 78 91 57 92 58 93 66 94 59 95 60 96 64 97
REMARK SMILES IDX 67 98 61 99 62 100 65 101 63 102
REMARK H PARENT 7 18 23 29 28 36 87 55 55 66
REMARK Flexibility Score: inf
ROOT
ATOM      1  C   UNL A   1      41.457  23.325  26.314  1.00  0.00     0.135 C 
ENDROOT
BRANCH   1   2
ATOM      2  C   UNL A   1      41.246  24.514  27.220  1.00  0.00    -0.036 A 
ATOM      3  C   UNL A   1      40.881  26.875  28.753  1.00  0.00     0.018 A 
ATOM      4  C   UNL A   1      42.122  26.215  28.719  1.00  0.00     0.012 A 
ATOM      5  C   UNL A   1      39.823  26.291  28.040  1.00  0.00     0.131 A 
ATOM      6  C   UNL A   1      42.304  25.049  27.965  1.00  0.00     0.005 A 
ATOM      7  C   UNL A   1      39.991  25.123  27.299  1.00  0.00     0.044 A 
ATOM      8  F   UNL A   1      38.614  26.873  28.015  1.00  0.00    -0.206 F 
BRANCH   3   9
ATOM      9  C   UNL A   1      40.702  28.132  29.498  1.00  0.00    -0.012 A 
ATOM     10  C   UNL A   1      40.048  29.312  31.520  1.00  0.00     0.133 A 
ATOM     11  C   UNL A   1      40.284  30.542  30.914  1.00  0.00     0.047 A 
ATOM     12  C   UNL A   1      40.238  28.119  30.822  1.00  0.00     0.056 A 
ATOM     13  C   UNL A   1      40.748  30.575  29.602  1.00  0.00     0.004 A 
ATOM     14  C   UNL A   1      40.957  29.381  28.902  1.00  0.00     0.009 A 
BRANCH  10  15
ATOM     15  O   UNL A   1      39.492  29.322  32.809  1.00  0.00    -0.410 OA
BRANCH  15  16
ATOM     16  C   UNL A   1      38.180  28.899  32.952  1.00  0.00     0.412 C 
ATOM     17  N   UNL A   1      37.308  29.919  33.210  1.00  0.00    -0.321 N 
ATOM     18  H   UNL A   1      36.364  29.668  33.335  1.00  0.00     0.167 HD
ATOM     19  O   UNL A   1      37.779  27.740  32.871  1.00  0.00    -0.224 OA
BRANCH  17  20
ATOM     20  C   UNL A   1      37.625  31.328  33.321  1.00  0.00     0.119 C 
BRANCH  20  21
ATOM     21  C   UNL A   1      37.148  32.121  32.105  1.00  0.00     0.021 C 
BRANCH  21  22
ATOM     22  C   UNL A   1      36.415  31.294  31.040  1.00  0.00     0.002 C 
BRANCH  22  23
ATOM     23  C   UNL A   1      36.572  31.785  29.597  1.00  0.00    -0.000 C 
BRANCH  23  24
ATOM     24  C   UNL A   1      36.966  30.715  28.576  1.00  0.00    -0.003 C 
ATOM     25  C   UNL A   1      37.127  29.332  29.187  1.00  0.00     0.004 C 
ENDBRANCH  23  24
ENDBRANCH  22  23
ENDBRANCH  21  22
ENDBRANCH  20  21
ENDBRANCH  17  20
ENDBRANCH  15  16
ENDBRANCH  10  15
ENDBRANCH   3   9
ENDBRANCH   1   2
BRANCH   1  26
ATOM     26  C   UNL A   1      41.824  22.047  27.054  1.00  0.00     0.224 C 
ATOM     27  O   UNL A   1      41.084  21.572  27.918  1.00  0.00    -0.275 OA
ATOM     28  N   UNL A   1      42.975  21.377  26.747  1.00  0.00    -0.356 N 
ATOM     29  H   UNL A   1      43.101  20.519  27.213  1.00  0.00     0.163 HD
BRANCH  28  30
ATOM     30  C   UNL A   1      44.036  21.752  25.833  1.00  0.00     0.116 C 
BRANCH  30  31
ATOM     31  C   UNL A   1      45.102  22.613  26.512  1.00  0.00     0.023 C 
BRANCH  31  32
ATOM     32  C   UNL A   1      45.275  24.012  25.913  1.00  0.00     0.023 C 
BRANCH  32  33
ATOM     33  C   UNL A   1      46.688  24.581  25.987  1.00  0.00     0.116 C 
BRANCH  33  34
ATOM     34  N   UNL A   1      47.048  25.383  24.829  1.00  0.00    -0.352 N 
ATOM     35  C   UNL A   1      46.860  26.727  24.619  1.00  0.00     0.251 C 
ATOM     36  H   UNL A   1      47.488  24.894  24.095  1.00  0.00     0.163 HD
ATOM     37  O   UNL A   1      47.134  27.228  23.533  1.00  0.00    -0.269 OA
BRANCH  35  38
ATOM     38  C   UNL A   1      46.287  27.567  25.693  1.00  0.00     0.039 A 
ATOM     39  C   UNL A   1      44.897  27.662  25.799  1.00  0.00     0.014 A 
ATOM     40  C   UNL A   1      47.109  28.247  26.595  1.00  0.00     0.014 A 
ATOM     41  C   UNL A   1      44.330  28.388  26.848  1.00  0.00     0.010 A 
ATOM     42  C   UNL A   1      46.544  28.913  27.679  1.00  0.00     0.010 A 
ATOM     43  C   UNL A   1      45.149  28.992  27.816  1.00  0.00    -0.014 A 
BRANCH  43  44
ATOM     44  C   UNL A   1      44.568  29.711  28.977  1.00  0.00     0.031 A 
ATOM     45  C   UNL A   1      44.335  31.193  28.906  1.00  0.00     0.074 A 
ATOM     46  C   UNL A   1      44.319  29.042  30.118  1.00  0.00     0.049 A 
ATOM     47  N   UNL A   1      43.911  32.011  29.837  1.00  0.00    -0.248 NA
ATOM     48  C   UNL A   1      44.650  31.848  27.628  1.00  0.00     0.031 C 
ATOM     49  C   UNL A   1      44.554  27.614  30.329  1.00  0.00     0.029 A 
ATOM     50  N   UNL A   1      43.826  29.481  31.322  1.00  0.00    -0.354 N 
ATOM     51  C   UNL A   1      43.921  33.274  29.261  1.00  0.00     0.074 A 
ATOM     52  C   UNL A   1      44.447  33.124  27.920  1.00  0.00     0.031 C 
ATOM     53  C   UNL A   1      44.195  27.291  31.583  1.00  0.00     0.029 A 
ATOM     54  C   UNL A   1      43.734  28.493  32.271  1.00  0.00     0.049 A 
ATOM     55  H   UNL A   1      43.565  30.415  31.489  1.00  0.00     0.167 HD
ATOM     56  C   UNL A   1      43.508  34.450  29.793  1.00  0.00     0.037 A 
ATOM     57  C   UNL A   1      43.329  28.551  33.554  1.00  0.00     0.037 A 
ATOM     58  C   UNL A   1      42.969  34.593  31.119  1.00  0.00     0.049 A 
ATOM     59  C   UNL A   1      42.862  29.864  34.119  1.00  0.00     0.074 A 
ATOM     60  C   UNL A   1      42.474  35.731  31.733  1.00  0.00     0.029 A 
ATOM     61  N   UNL A   1      42.854  33.562  32.039  1.00  0.00    -0.354 N 
ATOM     62  N   UNL A   1      42.815  31.041  33.546  1.00  0.00    -0.248 NA
ATOM     63  C   UNL A   1      42.379  29.853  35.507  1.00  0.00     0.031 C 
ATOM     64  C   UNL A   1      42.095  35.395  33.037  1.00  0.00     0.029 A 
ATOM     65  C   UNL A   1      42.310  34.039  33.222  1.00  0.00     0.049 A 
ATOM     66  H   UNL A   1      43.120  32.627  31.877  1.00  0.00     0.167 HD
ATOM     67  C   UNL A   1      42.279  31.907  34.489  1.00  0.00     0.074 A 
ATOM     68  C   UNL A   1      42.003  31.114  35.671  1.00  0.00     0.031 C 
ATOM     69  C   UNL A   1      42.038  33.236  34.387  1.00  0.00     0.037 A 
BRANCH  56  70
ATOM     70  C   UNL A   1      43.623  35.672  28.929  1.00  0.00     0.064 A 
ATOM     71  C   UNL A   1      42.555  36.109  28.130  1.00  0.00     0.173 A 
ATOM     72  C   UNL A   1      44.807  36.423  28.907  1.00  0.00     0.173 A 
ATOM     73  F   UNL A   1      41.404  35.420  28.105  1.00  0.00    -0.203 F 
ATOM     74  C   UNL A   1      42.683  37.228  27.310  1.00  0.00     0.198 A 
ATOM     75  C   UNL A   1      44.921  37.560  28.111  1.00  0.00     0.198 A 
ATOM     76  F   UNL A   1      45.857  36.053  29.656  1.00  0.00    -0.203 F 
ATOM     77  F   UNL A   1      41.670  37.590  26.511  1.00  0.00    -0.200 F 
ATOM     78  C   UNL A   1      43.863  37.955  27.306  1.00  0.00     0.200 A 
ATOM     79  F   UNL A   1      46.058  38.268  28.115  1.00  0.00    -0.200 F 
ATOM     80  F   UNL A   1      43.984  39.032  26.517  1.00  0.00    -0.200 F 
ENDBRANCH  56  70
BRANCH  57  81
ATOM     81  C   UNL A   1      43.323  27.317  34.378  1.00  0.00     0.064 A 
ATOM     82  C   UNL A   1      44.494  26.857  34.993  1.00  0.00     0.173 A 
ATOM     83  C   UNL A   1      42.145  26.583  34.582  1.00  0.00     0.173 A 
ATOM     84  F   UNL A   1      45.648  27.515  34.811  1.00  0.00    -0.203 F 
ATOM     85  C   UNL A   1      44.492  25.702  35.773  1.00  0.00     0.198 A 
ATOM     86  C   UNL A   1      42.138  25.443  35.382  1.00  0.00     0.198 A 
ATOM     87  F   UNL A   1      40.996  26.986  34.018  1.00  0.00    -0.203 F 
ATOM     88  F   UNL A   1      45.632  25.265  36.323  1.00  0.00    -0.200 F 
ATOM     89  C   UNL A   1      43.312  25.000  35.973  1.00  0.00     0.200 A 
ATOM     90  F   UNL A   1      40.994  24.775  35.584  1.00  0.00    -0.200 F 
ATOM     91  F   UNL A   1      43.308  23.895  36.730  1.00  0.00    -0.200 F 
ENDBRANCH  57  81
BRANCH  69  92
ATOM     92  C   UNL A   1      41.418  33.915  35.573  1.00  0.00     0.064 A 
ATOM     93  C   UNL A   1      40.036  33.864  35.810  1.00  0.00     0.173 A 
ATOM     94  C   UNL A   1      42.220  34.592  36.503  1.00  0.00     0.173 A 
ATOM     95  F   UNL A   1      39.225  33.241  34.941  1.00  0.00    -0.203 F 
ATOM     96  C   UNL A   1      39.479  34.485  36.925  1.00  0.00     0.198 A 
ATOM     97  C   UNL A   1      41.663  35.189  37.631  1.00  0.00     0.198 A 
ATOM     98  F   UNL A   1      43.548  34.665  36.325  1.00  0.00    -0.203 F 
ATOM     99  F   UNL A   1      38.152  34.460  37.110  1.00  0.00    -0.200 F 
ATOM    100  C   UNL A   1      40.292  35.140  37.837  1.00  0.00     0.200 A 
ATOM    101  F   UNL A   1      42.451  35.811  38.517  1.00  0.00    -0.200 F 
ATOM    102  F   UNL A   1      39.755  35.731  38.914  1.00  0.00    -0.200 F 
ENDBRANCH  69  92
ENDBRANCH  43  44
ENDBRANCH  35  38
ENDBRANCH  33  34
ENDBRANCH  32  33
ENDBRANCH  31  32
ENDBRANCH  30  31
ENDBRANCH  28  30
ENDBRANCH   1  26
TORSDOF 20
ENDMDL
