MODEL 1
REMARK VINA RESULT:     -12.7      0.000      0.000
REMARK SMILES CC1(C)CCC[C@H]1NS(=O)(=O)c1ccc(O)c(C(=O)NCCCCNC(=O)c2ccc(-c3c4nc(c(-c5c(F)c(F)c(F)c(F)c5F)c5ccc([nH]5)c(-c5c(F)c(F)c(F)c(F)c5F)c5nc(c(-c6c(F)c(F)c(F)c(F)c6F)c6ccc3[nH]6)C=C5)C=C4)cc2)c1
REMARK SMILES IDX 22 1 21 2 20 3 18 4 19 5 17 7 12 8 13 9 91 10 14 11 15 12
REMARK SMILES IDX 9 13 10 14 11 15 8 16 7 18 1 19 2 20 3 21 4 22 5 23 6 24
REMARK SMILES IDX 16 25 23 27 24 28 25 29 26 30 27 32 28 33 29 34 90 35 30 36
REMARK SMILES IDX 89 37 31 38 32 39 33 40 83 41 34 42 88 43 82 44 84 45 35 46
REMARK SMILES IDX 87 47 81 48 80 49 36 51 68 52 48 53 67 54 49 55 52 56 66 57
REMARK SMILES IDX 85 58 50 59 51 60 65 62 86 63 53 64 37 65 38 66 46 67 39 68
REMARK SMILES IDX 40 69 44 70 47 71 41 72 42 73 45 74 43 75 69 76 70 77 78 78
REMARK SMILES IDX 71 79 72 80 76 81 79 82 73 83 74 84 77 85 75 86 54 87 55 88
REMARK SMILES IDX 63 89 56 90 57 91 61 92 64 93 58 94 59 95 62 96 60 97
REMARK H PARENT 20 6 8 17 16 26 25 31 84 50 52 61
REMARK Flexibility Score: inf
ROOT
ATOM      1  C   UNL A   1      31.784  30.455  26.641  1.00  0.00     0.023 C 
ENDROOT
BRANCH   1   2
ATOM      2  C   UNL A   1      31.445  29.823  25.287  1.00  0.00     0.116 C 
BRANCH   2   3
ATOM      3  N   UNL A   1      32.663  29.588  24.546  1.00  0.00    -0.352 N 
ATOM      4  C   UNL A   1      33.161  28.469  23.935  1.00  0.00     0.255 C 
ATOM      5  O   UNL A   1      34.318  28.564  23.512  1.00  0.00    -0.269 OA
ATOM      6  H   UNL A   1      33.241  30.380  24.464  1.00  0.00     0.163 HD
BRANCH   4   7
ATOM      7  C   UNL A   1      32.398  27.207  23.657  1.00  0.00     0.082 A 
ATOM      8  C   UNL A   1      31.832  25.011  24.584  1.00  0.00     0.083 A 
ATOM      9  C   UNL A   1      31.214  24.642  23.399  1.00  0.00     0.025 A 
ATOM     10  C   UNL A   1      32.473  26.253  24.689  1.00  0.00     0.039 A 
ATOM     11  C   UNL A   1      31.061  25.594  22.400  1.00  0.00     0.048 A 
ATOM     12  C   UNL A   1      31.585  26.885  22.562  1.00  0.00     0.128 A 
BRANCH   8  13
ATOM     13  S   UNL A   1      31.698  24.053  26.066  1.00  0.00     0.240 S 
ATOM     14  O   UNL A   1      30.580  23.151  25.882  1.00  0.00    -0.207 OA
ATOM     15  O   UNL A   1      31.761  24.978  27.170  1.00  0.00    -0.207 OA
BRANCH  13  16
ATOM     16  N   UNL A   1      33.099  23.140  26.188  1.00  0.00    -0.208 NA
ATOM     17  H   UNL A   1      33.818  23.776  26.533  1.00  0.00     0.141 HD
BRANCH  16  18
ATOM     18  C   UNL A   1      33.703  22.427  25.049  1.00  0.00     0.075 C 
ATOM     19  C   UNL A   1      35.532  24.275  25.441  1.00  0.00     0.013 C 
ATOM     20  C   UNL A   1      35.160  22.932  24.790  1.00  0.00    -0.019 C 
ATOM     21  C   UNL A   1      35.395  23.084  23.271  1.00  0.00     0.013 C 
ATOM     22  C   UNL A   1      36.030  21.801  25.363  1.00  0.00     0.008 C 
ATOM     23  C   UNL A   1      35.261  20.537  25.023  1.00  0.00     0.002 C 
ATOM     24  C   UNL A   1      33.814  20.915  25.300  1.00  0.00     0.020 C 
ENDBRANCH  16  18
ENDBRANCH  13  16
ENDBRANCH   8  13
BRANCH  12  25
ATOM     25  O   UNL A   1      31.183  27.807  21.644  1.00  0.00    -0.507 OA
ATOM     26  H   UNL A   1      30.291  27.822  21.357  1.00  0.00     0.293 HD
ENDBRANCH  12  25
ENDBRANCH   4   7
ENDBRANCH   2   3
ENDBRANCH   1   2
BRANCH   1  27
ATOM     27  C   UNL A   1      31.517  31.957  26.724  1.00  0.00     0.023 C 
BRANCH  27  28
ATOM     28  C   UNL A   1      32.717  32.773  27.181  1.00  0.00     0.116 C 
BRANCH  28  29
ATOM     29  N   UNL A   1      32.372  34.118  27.616  1.00  0.00    -0.352 N 
ATOM     30  C   UNL A   1      32.981  34.888  28.574  1.00  0.00     0.251 C 
ATOM     31  H   UNL A   1      31.600  34.530  27.162  1.00  0.00     0.163 HD
ATOM     32  O   UNL A   1      32.522  35.982  28.884  1.00  0.00    -0.269 OA
BRANCH  30  33
ATOM     33  C   UNL A   1      34.166  34.354  29.272  1.00  0.00     0.039 A 
ATOM     34  C   UNL A   1      33.969  33.585  30.421  1.00  0.00     0.014 A 
ATOM     35  C   UNL A   1      35.452  34.565  28.767  1.00  0.00     0.014 A 
ATOM     36  C   UNL A   1      35.062  32.969  31.028  1.00  0.00     0.010 A 
ATOM     37  C   UNL A   1      36.529  33.894  29.330  1.00  0.00     0.010 A 
ATOM     38  C   UNL A   1      36.343  33.091  30.466  1.00  0.00    -0.014 A 
BRANCH  38  39
ATOM     39  C   UNL A   1      37.499  32.383  31.059  1.00  0.00     0.031 A 
ATOM     40  C   UNL A   1      37.982  32.747  32.431  1.00  0.00     0.074 A 
ATOM     41  C   UNL A   1      38.145  31.451  30.332  1.00  0.00     0.049 A 
ATOM     42  N   UNL A   1      38.985  32.254  33.113  1.00  0.00    -0.248 NA
ATOM     43  C   UNL A   1      37.263  33.830  33.119  1.00  0.00     0.031 C 
ATOM     44  C   UNL A   1      37.810  31.066  28.959  1.00  0.00     0.029 A 
ATOM     45  N   UNL A   1      39.221  30.662  30.646  1.00  0.00    -0.354 N 
ATOM     46  C   UNL A   1      39.024  32.975  34.296  1.00  0.00     0.074 A 
ATOM     47  C   UNL A   1      37.981  33.973  34.223  1.00  0.00     0.031 C 
ATOM     48  C   UNL A   1      38.646  30.094  28.560  1.00  0.00     0.029 A 
ATOM     49  C   UNL A   1      39.584  29.802  29.638  1.00  0.00     0.049 A 
ATOM     50  H   UNL A   1      39.689  30.707  31.510  1.00  0.00     0.167 HD
ATOM     51  C   UNL A   1      39.842  32.801  35.361  1.00  0.00     0.037 A 
ATOM     52  C   UNL A   1      40.559  28.875  29.599  1.00  0.00     0.037 A 
ATOM     53  C   UNL A   1      40.854  31.783  35.445  1.00  0.00     0.049 A 
ATOM     54  C   UNL A   1      41.420  28.667  30.814  1.00  0.00     0.074 A 
ATOM     55  C   UNL A   1      41.690  31.478  36.505  1.00  0.00     0.029 A 
ATOM     56  N   UNL A   1      41.163  30.898  34.422  1.00  0.00    -0.354 N 
ATOM     57  N   UNL A   1      41.396  29.300  31.961  1.00  0.00    -0.248 NA
ATOM     58  C   UNL A   1      42.433  27.608  30.733  1.00  0.00     0.031 C 
ATOM     59  C   UNL A   1      42.524  30.425  36.113  1.00  0.00     0.029 A 
ATOM     60  C   UNL A   1      42.185  30.052  34.822  1.00  0.00     0.049 A 
ATOM     61  H   UNL A   1      40.723  30.875  33.542  1.00  0.00     0.167 HD
ATOM     62  C   UNL A   1      42.371  28.703  32.747  1.00  0.00     0.074 A 
ATOM     63  C   UNL A   1      42.959  27.646  31.950  1.00  0.00     0.031 C 
ATOM     64  C   UNL A   1      42.747  29.001  34.014  1.00  0.00     0.037 A 
BRANCH  51  65
ATOM     65  C   UNL A   1      39.662  33.727  36.527  1.00  0.00     0.064 A 
ATOM     66  C   UNL A   1      40.302  34.976  36.574  1.00  0.00     0.173 A 
ATOM     67  C   UNL A   1      38.828  33.375  37.597  1.00  0.00     0.173 A 
ATOM     68  F   UNL A   1      41.123  35.351  35.581  1.00  0.00    -0.203 F 
ATOM     69  C   UNL A   1      40.133  35.825  37.663  1.00  0.00     0.198 A 
ATOM     70  C   UNL A   1      38.641  34.238  38.673  1.00  0.00     0.198 A 
ATOM     71  F   UNL A   1      38.193  32.193  37.599  1.00  0.00    -0.203 F 
ATOM     72  F   UNL A   1      40.791  36.992  37.709  1.00  0.00    -0.200 F 
ATOM     73  C   UNL A   1      39.299  35.460  38.708  1.00  0.00     0.200 A 
ATOM     74  F   UNL A   1      37.829  33.887  39.679  1.00  0.00    -0.200 F 
ATOM     75  F   UNL A   1      39.136  36.280  39.756  1.00  0.00    -0.200 F 
ENDBRANCH  51  65
BRANCH  52  76
ATOM     76  C   UNL A   1      40.732  28.037  28.388  1.00  0.00     0.064 A 
ATOM     77  C   UNL A   1      40.100  26.790  28.285  1.00  0.00     0.173 A 
ATOM     78  C   UNL A   1      41.520  28.462  27.309  1.00  0.00     0.173 A 
ATOM     79  F   UNL A   1      39.351  26.334  29.300  1.00  0.00    -0.203 F 
ATOM     80  C   UNL A   1      40.264  25.991  27.156  1.00  0.00     0.198 A 
ATOM     81  C   UNL A   1      41.665  27.672  26.171  1.00  0.00     0.198 A 
ATOM     82  F   UNL A   1      42.138  29.651  27.358  1.00  0.00    -0.203 F 
ATOM     83  F   UNL A   1      39.678  24.787  27.099  1.00  0.00    -0.200 F 
ATOM     84  C   UNL A   1      41.043  26.435  26.097  1.00  0.00     0.200 A 
ATOM     85  F   UNL A   1      42.409  28.109  25.146  1.00  0.00    -0.200 F 
ATOM     86  F   UNL A   1      41.198  25.668  25.010  1.00  0.00    -0.200 F 
ENDBRANCH  52  76
BRANCH  64  87
ATOM     87  C   UNL A   1      43.826  28.158  34.622  1.00  0.00     0.064 A 
ATOM     88  C   UNL A   1      43.529  26.968  35.300  1.00  0.00     0.173 A 
ATOM     89  C   UNL A   1      45.172  28.527  34.490  1.00  0.00     0.173 A 
ATOM     90  F   UNL A   1      42.254  26.583  35.464  1.00  0.00    -0.203 F 
ATOM     91  C   UNL A   1      44.544  26.187  35.848  1.00  0.00     0.198 A 
ATOM     92  C   UNL A   1      46.185  27.732  35.018  1.00  0.00     0.198 A 
ATOM     93  F   UNL A   1      45.505  29.655  33.846  1.00  0.00    -0.203 F 
ATOM     94  F   UNL A   1      44.236  25.074  36.529  1.00  0.00    -0.200 F 
ATOM     95  C   UNL A   1      45.870  26.567  35.701  1.00  0.00     0.200 A 
ATOM     96  F   UNL A   1      47.467  28.095  34.869  1.00  0.00    -0.200 F 
ATOM     97  F   UNL A   1      46.845  25.812  36.226  1.00  0.00    -0.200 F 
ENDBRANCH  64  87
ENDBRANCH  38  39
ENDBRANCH  30  33
ENDBRANCH  28  29
ENDBRANCH  27  28
ENDBRANCH   1  27
TORSDOF 15
ENDMDL
MODEL 2
REMARK VINA RESULT:     -12.6      0.618      7.337
REMARK SMILES CC1(C)CCC[C@H]1NS(=O)(=O)c1ccc(O)c(C(=O)NCCCCNC(=O)c2ccc(-c3c4nc(c(-c5c(F)c(F)c(F)c(F)c5F)c5ccc([nH]5)c(-c5c(F)c(F)c(F)c(F)c5F)c5nc(c(-c6c(F)c(F)c(F)c(F)c6F)c6ccc3[nH]6)C=C5)C=C4)cc2)c1
REMARK SMILES IDX 22 1 21 2 20 3 18 4 19 5 17 7 12 8 13 9 91 10 14 11 15 12
REMARK SMILES IDX 9 13 10 14 11 15 8 16 7 18 1 19 2 20 3 21 4 22 5 23 6 24
REMARK SMILES IDX 16 25 23 27 24 28 25 29 26 30 27 32 28 33 29 34 90 35 30 36
REMARK SMILES IDX 89 37 31 38 32 39 33 40 83 41 34 42 88 43 82 44 84 45 35 46
REMARK SMILES IDX 87 47 81 48 80 49 36 51 68 52 48 53 67 54 49 55 52 56 66 57
REMARK SMILES IDX 85 58 50 59 51 60 65 62 86 63 53 64 37 65 38 66 46 67 39 68
REMARK SMILES IDX 40 69 44 70 47 71 41 72 42 73 45 74 43 75 69 76 70 77 78 78
REMARK SMILES IDX 71 79 72 80 76 81 79 82 73 83 74 84 77 85 75 86 54 87 55 88
REMARK SMILES IDX 63 89 56 90 57 91 61 92 64 93 58 94 59 95 62 96 60 97
REMARK H PARENT 20 6 8 17 16 26 25 31 84 50 52 61
REMARK Flexibility Score: inf
ROOT
ATOM      1  C   UNL A   1      31.810  30.463  26.592  1.00  0.00     0.023 C 
ENDROOT
BRANCH   1   2
ATOM      2  C   UNL A   1      31.482  29.858  25.222  1.00  0.00     0.116 C 
BRANCH   2   3
ATOM      3  N   UNL A   1      32.708  29.569  24.516  1.00  0.00    -0.352 N 
ATOM      4  C   UNL A   1      33.181  28.423  23.935  1.00  0.00     0.255 C 
ATOM      5  O   UNL A   1      34.351  28.470  23.540  1.00  0.00    -0.269 OA
ATOM      6  H   UNL A   1      33.317  30.338  24.437  1.00  0.00     0.163 HD
BRANCH   4   7
ATOM      7  C   UNL A   1      32.381  27.184  23.656  1.00  0.00     0.082 A 
ATOM      8  C   UNL A   1      31.774  24.994  24.570  1.00  0.00     0.083 A 
ATOM      9  C   UNL A   1      31.126  24.654  23.392  1.00  0.00     0.025 A 
ATOM     10  C   UNL A   1      32.449  26.217  24.678  1.00  0.00     0.039 A 
ATOM     11  C   UNL A   1      30.981  25.620  22.407  1.00  0.00     0.048 A 
ATOM     12  C   UNL A   1      31.542  26.895  22.573  1.00  0.00     0.128 A 
BRANCH   8  13
ATOM     13  S   UNL A   1      31.639  24.024  26.045  1.00  0.00     0.240 S 
ATOM     14  O   UNL A   1      30.528  23.116  25.849  1.00  0.00    -0.207 OA
ATOM     15  O   UNL A   1      31.692  24.940  27.156  1.00  0.00    -0.207 OA
BRANCH  13  16
ATOM     16  N   UNL A   1      33.046  23.119  26.165  1.00  0.00    -0.208 NA
ATOM     17  H   UNL A   1      33.753  23.749  26.543  1.00  0.00     0.141 HD
BRANCH  16  18
ATOM     18  C   UNL A   1      33.677  22.446  25.017  1.00  0.00     0.075 C 
ATOM     19  C   UNL A   1      35.480  24.299  25.496  1.00  0.00     0.013 C 
ATOM     20  C   UNL A   1      35.133  22.972  24.799  1.00  0.00    -0.019 C 
ATOM     21  C   UNL A   1      35.394  23.171  23.290  1.00  0.00     0.013 C 
ATOM     22  C   UNL A   1      36.005  21.833  25.354  1.00  0.00     0.008 C 
ATOM     23  C   UNL A   1      35.255  20.572  24.963  1.00  0.00     0.002 C 
ATOM     24  C   UNL A   1      33.799  20.928  25.225  1.00  0.00     0.020 C 
ENDBRANCH  16  18
ENDBRANCH  13  16
ENDBRANCH   8  13
BRANCH  12  25
ATOM     25  O   UNL A   1      31.147  27.837  21.671  1.00  0.00    -0.507 OA
ATOM     26  H   UNL A   1      30.646  28.576  21.955  1.00  0.00     0.293 HD
ENDBRANCH  12  25
ENDBRANCH   4   7
ENDBRANCH   2   3
ENDBRANCH   1   2
BRANCH   1  27
ATOM     27  C   UNL A   1      31.572  31.969  26.693  1.00  0.00     0.023 C 
BRANCH  27  28
ATOM     28  C   UNL A   1      32.713  32.732  27.351  1.00  0.00     0.116 C 
BRANCH  28  29
ATOM     29  N   UNL A   1      32.382  34.114  27.662  1.00  0.00    -0.352 N 
ATOM     30  C   UNL A   1      32.982  34.951  28.568  1.00  0.00     0.251 C 
ATOM     31  H   UNL A   1      31.629  34.499  27.156  1.00  0.00     0.163 HD
ATOM     32  O   UNL A   1      32.535  36.075  28.774  1.00  0.00    -0.269 OA
BRANCH  30  33
ATOM     33  C   UNL A   1      34.139  34.458  29.339  1.00  0.00     0.039 A 
ATOM     34  C   UNL A   1      33.901  33.817  30.557  1.00  0.00     0.014 A 
ATOM     35  C   UNL A   1      35.438  34.579  28.839  1.00  0.00     0.014 A 
ATOM     36  C   UNL A   1      34.966  33.236  31.244  1.00  0.00     0.010 A 
ATOM     37  C   UNL A   1      36.486  33.939  29.487  1.00  0.00     0.010 A 
ATOM     38  C   UNL A   1      36.258  33.263  30.695  1.00  0.00    -0.014 A 
BRANCH  38  39
ATOM     39  C   UNL A   1      37.384  32.586  31.378  1.00  0.00     0.031 A 
ATOM     40  C   UNL A   1      38.096  31.449  30.708  1.00  0.00     0.074 A 
ATOM     41  C   UNL A   1      37.721  32.964  32.626  1.00  0.00     0.049 A 
ATOM     42  N   UNL A   1      39.091  30.723  31.149  1.00  0.00    -0.248 NA
ATOM     43  C   UNL A   1      37.608  31.055  29.378  1.00  0.00     0.031 C 
ATOM     44  C   UNL A   1      37.051  34.008  33.405  1.00  0.00     0.029 A 
ATOM     45  N   UNL A   1      38.710  32.509  33.460  1.00  0.00    -0.354 N 
ATOM     46  C   UNL A   1      39.335  29.781  30.161  1.00  0.00     0.074 A 
ATOM     47  C   UNL A   1      38.354  29.992  29.119  1.00  0.00     0.031 C 
ATOM     48  C   UNL A   1      37.667  34.133  34.592  1.00  0.00     0.029 A 
ATOM     49  C   UNL A   1      38.759  33.168  34.664  1.00  0.00     0.049 A 
ATOM     50  H   UNL A   1      39.325  31.780  33.219  1.00  0.00     0.167 HD
ATOM     51  C   UNL A   1      40.308  28.841  30.115  1.00  0.00     0.037 A 
ATOM     52  C   UNL A   1      39.601  33.014  35.702  1.00  0.00     0.037 A 
ATOM     53  C   UNL A   1      41.304  28.659  31.136  1.00  0.00     0.049 A 
ATOM     54  C   UNL A   1      40.705  31.998  35.604  1.00  0.00     0.074 A 
ATOM     55  C   UNL A   1      42.375  27.782  31.155  1.00  0.00     0.029 A 
ATOM     56  N   UNL A   1      41.352  29.377  32.322  1.00  0.00    -0.354 N 
ATOM     57  N   UNL A   1      40.978  31.166  34.629  1.00  0.00    -0.248 NA
ATOM     58  C   UNL A   1      41.625  31.909  36.745  1.00  0.00     0.031 C 
ATOM     59  C   UNL A   1      43.055  27.950  32.366  1.00  0.00     0.029 A 
ATOM     60  C   UNL A   1      42.428  28.955  33.087  1.00  0.00     0.049 A 
ATOM     61  H   UNL A   1      40.715  30.080  32.583  1.00  0.00     0.167 HD
ATOM     62  C   UNL A   1      42.112  30.473  35.025  1.00  0.00     0.074 A 
ATOM     63  C   UNL A   1      42.486  30.992  36.325  1.00  0.00     0.031 C 
ATOM     64  C   UNL A   1      42.785  29.493  34.373  1.00  0.00     0.037 A 
BRANCH  51  65
ATOM     65  C   UNL A   1      40.347  27.948  28.911  1.00  0.00     0.064 A 
ATOM     66  C   UNL A   1      41.076  28.299  27.763  1.00  0.00     0.173 A 
ATOM     67  C   UNL A   1      39.668  26.722  28.910  1.00  0.00     0.173 A 
ATOM     68  F   UNL A   1      41.728  29.469  27.710  1.00  0.00    -0.203 F 
ATOM     69  C   UNL A   1      41.099  27.466  26.649  1.00  0.00     0.198 A 
ATOM     70  C   UNL A   1      39.715  25.879  27.802  1.00  0.00     0.198 A 
ATOM     71  F   UNL A   1      38.958  26.340  29.982  1.00  0.00    -0.203 F 
ATOM     72  F   UNL A   1      41.762  27.843  25.547  1.00  0.00    -0.200 F 
ATOM     73  C   UNL A   1      40.425  26.255  26.670  1.00  0.00     0.200 A 
ATOM     74  F   UNL A   1      39.069  24.705  27.827  1.00  0.00    -0.200 F 
ATOM     75  F   UNL A   1      40.450  25.452  25.597  1.00  0.00    -0.200 F 
ENDBRANCH  51  65
BRANCH  52  76
ATOM     76  C   UNL A   1      39.467  33.883  36.897  1.00  0.00     0.064 A 
ATOM     77  C   UNL A   1      40.071  35.147  36.933  1.00  0.00     0.173 A 
ATOM     78  C   UNL A   1      38.729  33.476  38.018  1.00  0.00     0.173 A 
ATOM     79  F   UNL A   1      40.800  35.570  35.890  1.00  0.00    -0.203 F 
ATOM     80  C   UNL A   1      39.958  35.966  38.054  1.00  0.00     0.198 A 
ATOM     81  C   UNL A   1      38.599  34.306  39.130  1.00  0.00     0.198 A 
ATOM     82  F   UNL A   1      38.127  32.279  38.027  1.00  0.00    -0.203 F 
ATOM     83  F   UNL A   1      40.576  37.155  38.077  1.00  0.00    -0.200 F 
ATOM     84  C   UNL A   1      39.218  35.547  39.150  1.00  0.00     0.200 A 
ATOM     85  F   UNL A   1      37.874  33.902  40.182  1.00  0.00    -0.200 F 
ATOM     86  F   UNL A   1      39.107  36.335  40.227  1.00  0.00    -0.200 F 
ENDBRANCH  52  76
BRANCH  64  87
ATOM     87  C   UNL A   1      44.005  28.941  35.045  1.00  0.00     0.064 A 
ATOM     88  C   UNL A   1      45.270  29.512  34.850  1.00  0.00     0.173 A 
ATOM     89  C   UNL A   1      43.898  27.851  35.921  1.00  0.00     0.173 A 
ATOM     90  F   UNL A   1      45.421  30.547  34.009  1.00  0.00    -0.203 F 
ATOM     91  C   UNL A   1      46.392  28.996  35.492  1.00  0.00     0.198 A 
ATOM     92  C   UNL A   1      45.019  27.353  36.579  1.00  0.00     0.198 A 
ATOM     93  F   UNL A   1      42.709  27.274  36.142  1.00  0.00    -0.203 F 
ATOM     94  F   UNL A   1      47.599  29.531  35.260  1.00  0.00    -0.200 F 
ATOM     95  C   UNL A   1      46.264  27.921  36.360  1.00  0.00     0.200 A 
ATOM     96  F   UNL A   1      44.894  26.319  37.424  1.00  0.00    -0.200 F 
ATOM     97  F   UNL A   1      47.346  27.428  36.979  1.00  0.00    -0.200 F 
ENDBRANCH  64  87
ENDBRANCH  38  39
ENDBRANCH  30  33
ENDBRANCH  28  29
ENDBRANCH  27  28
ENDBRANCH   1  27
TORSDOF 15
ENDMDL
MODEL 3
REMARK VINA RESULT:     -12.6      0.902      1.978
REMARK SMILES CC1(C)CCC[C@H]1NS(=O)(=O)c1ccc(O)c(C(=O)NCCCCNC(=O)c2ccc(-c3c4nc(c(-c5c(F)c(F)c(F)c(F)c5F)c5ccc([nH]5)c(-c5c(F)c(F)c(F)c(F)c5F)c5nc(c(-c6c(F)c(F)c(F)c(F)c6F)c6ccc3[nH]6)C=C5)C=C4)cc2)c1
REMARK SMILES IDX 22 1 21 2 20 3 18 4 19 5 17 7 12 8 13 9 91 10 14 11 15 12
REMARK SMILES IDX 9 13 10 14 11 15 8 16 7 18 1 19 2 20 3 21 4 22 5 23 6 24
REMARK SMILES IDX 16 25 23 27 24 28 25 29 26 30 27 32 28 33 29 34 90 35 30 36
REMARK SMILES IDX 89 37 31 38 32 39 33 40 83 41 34 42 88 43 82 44 84 45 35 46
REMARK SMILES IDX 87 47 81 48 80 49 36 51 68 52 48 53 67 54 49 55 52 56 66 57
REMARK SMILES IDX 85 58 50 59 51 60 65 62 86 63 53 64 37 65 38 66 46 67 39 68
REMARK SMILES IDX 40 69 44 70 47 71 41 72 42 73 45 74 43 75 69 76 70 77 78 78
REMARK SMILES IDX 71 79 72 80 76 81 79 82 73 83 74 84 77 85 75 86 54 87 55 88
REMARK SMILES IDX 63 89 56 90 57 91 61 92 64 93 58 94 59 95 62 96 60 97
REMARK H PARENT 20 6 8 17 16 26 25 31 84 50 52 61
REMARK Flexibility Score: inf
ROOT
ATOM      1  C   UNL A   1      31.594  30.905  25.948  1.00  0.00     0.023 C 
ENDROOT
BRANCH   1   2
ATOM      2  C   UNL A   1      32.903  30.116  26.048  1.00  0.00     0.116 C 
BRANCH   2   3
ATOM      3  N   UNL A   1      33.369  29.781  24.722  1.00  0.00    -0.352 N 
ATOM      4  C   UNL A   1      32.908  28.894  23.787  1.00  0.00     0.255 C 
ATOM      5  O   UNL A   1      33.633  28.737  22.799  1.00  0.00    -0.269 OA
ATOM      6  H   UNL A   1      34.164  30.285  24.438  1.00  0.00     0.163 HD
BRANCH   4   7
ATOM      7  C   UNL A   1      31.581  28.195  23.818  1.00  0.00     0.082 A 
ATOM      8  C   UNL A   1      30.406  26.255  24.744  1.00  0.00     0.083 A 
ATOM      9  C   UNL A   1      29.285  26.534  23.976  1.00  0.00     0.025 A 
ATOM     10  C   UNL A   1      31.562  27.036  24.618  1.00  0.00     0.039 A 
ATOM     11  C   UNL A   1      29.255  27.713  23.244  1.00  0.00     0.048 A 
ATOM     12  C   UNL A   1      30.367  28.568  23.226  1.00  0.00     0.128 A 
BRANCH   8  13
ATOM     13  S   UNL A   1      30.396  25.046  26.037  1.00  0.00     0.240 S 
ATOM     14  O   UNL A   1      29.047  25.006  26.563  1.00  0.00    -0.207 OA
ATOM     15  O   UNL A   1      31.536  25.320  26.876  1.00  0.00    -0.207 OA
BRANCH  13  16
ATOM     16  N   UNL A   1      30.729  23.565  25.326  1.00  0.00    -0.208 NA
ATOM     17  H   UNL A   1      30.886  22.914  26.095  1.00  0.00     0.141 HD
BRANCH  16  18
ATOM     18  C   UNL A   1      31.840  23.350  24.383  1.00  0.00     0.075 C 
ATOM     19  C   UNL A   1      32.690  21.908  26.411  1.00  0.00     0.013 C 
ATOM     20  C   UNL A   1      32.814  22.249  24.916  1.00  0.00    -0.019 C 
ATOM     21  C   UNL A   1      34.275  22.683  24.669  1.00  0.00     0.013 C 
ATOM     22  C   UNL A   1      32.460  21.023  24.057  1.00  0.00     0.008 C 
ATOM     23  C   UNL A   1      32.154  21.607  22.690  1.00  0.00     0.002 C 
ATOM     24  C   UNL A   1      31.354  22.861  23.010  1.00  0.00     0.020 C 
ENDBRANCH  16  18
ENDBRANCH  13  16
ENDBRANCH   8  13
BRANCH  12  25
ATOM     25  O   UNL A   1      30.158  29.799  22.681  1.00  0.00    -0.507 OA
ATOM     26  H   UNL A   1      29.541  30.385  23.072  1.00  0.00     0.293 HD
ENDBRANCH  12  25
ENDBRANCH   4   7
ENDBRANCH   2   3
ENDBRANCH   1   2
BRANCH   1  27
ATOM     27  C   UNL A   1      31.410  31.968  27.030  1.00  0.00     0.023 C 
BRANCH  27  28
ATOM     28  C   UNL A   1      32.647  32.820  27.275  1.00  0.00     0.116 C 
BRANCH  28  29
ATOM     29  N   UNL A   1      32.341  34.185  27.675  1.00  0.00    -0.352 N 
ATOM     30  C   UNL A   1      32.983  34.967  28.602  1.00  0.00     0.251 C 
ATOM     31  H   UNL A   1      31.573  34.602  27.221  1.00  0.00     0.163 HD
ATOM     32  O   UNL A   1      32.555  36.080  28.886  1.00  0.00    -0.269 OA
BRANCH  30  33
ATOM     33  C   UNL A   1      34.165  34.424  29.298  1.00  0.00     0.039 A 
ATOM     34  C   UNL A   1      33.965  33.670  30.457  1.00  0.00     0.014 A 
ATOM     35  C   UNL A   1      35.450  34.611  28.784  1.00  0.00     0.014 A 
ATOM     36  C   UNL A   1      35.053  33.045  31.064  1.00  0.00     0.010 A 
ATOM     37  C   UNL A   1      36.522  33.932  29.347  1.00  0.00     0.010 A 
ATOM     38  C   UNL A   1      36.332  33.144  30.492  1.00  0.00    -0.014 A 
BRANCH  38  39
ATOM     39  C   UNL A   1      37.482  32.426  31.085  1.00  0.00     0.031 A 
ATOM     40  C   UNL A   1      37.973  32.791  32.455  1.00  0.00     0.074 A 
ATOM     41  C   UNL A   1      38.116  31.484  30.361  1.00  0.00     0.049 A 
ATOM     42  N   UNL A   1      38.971  32.291  33.136  1.00  0.00    -0.248 NA
ATOM     43  C   UNL A   1      37.266  33.885  33.140  1.00  0.00     0.031 C 
ATOM     44  C   UNL A   1      37.774  31.097  28.990  1.00  0.00     0.029 A 
ATOM     45  N   UNL A   1      39.185  30.685  30.676  1.00  0.00    -0.354 N 
ATOM     46  C   UNL A   1      39.021  33.017  34.317  1.00  0.00     0.074 A 
ATOM     47  C   UNL A   1      37.988  34.025  34.242  1.00  0.00     0.031 C 
ATOM     48  C   UNL A   1      38.599  30.114  28.594  1.00  0.00     0.029 A 
ATOM     49  C   UNL A   1      39.537  29.817  29.671  1.00  0.00     0.049 A 
ATOM     50  H   UNL A   1      39.656  30.730  31.539  1.00  0.00     0.167 HD
ATOM     51  C   UNL A   1      39.840  32.838  35.380  1.00  0.00     0.037 A 
ATOM     52  C   UNL A   1      40.502  28.880  29.634  1.00  0.00     0.037 A 
ATOM     53  C   UNL A   1      40.842  31.810  35.466  1.00  0.00     0.049 A 
ATOM     54  C   UNL A   1      41.363  28.669  30.847  1.00  0.00     0.074 A 
ATOM     55  C   UNL A   1      41.676  31.501  36.525  1.00  0.00     0.029 A 
ATOM     56  N   UNL A   1      41.139  30.918  34.446  1.00  0.00    -0.354 N 
ATOM     57  N   UNL A   1      41.349  29.307  31.992  1.00  0.00    -0.248 NA
ATOM     58  C   UNL A   1      42.365  27.598  30.768  1.00  0.00     0.031 C 
ATOM     59  C   UNL A   1      42.499  30.438  36.136  1.00  0.00     0.029 A 
ATOM     60  C   UNL A   1      42.152  30.063  34.847  1.00  0.00     0.049 A 
ATOM     61  H   UNL A   1      40.696  30.896  33.567  1.00  0.00     0.167 HD
ATOM     62  C   UNL A   1      42.319  28.703  32.778  1.00  0.00     0.074 A 
ATOM     63  C   UNL A   1      42.894  27.636  31.984  1.00  0.00     0.031 C 
ATOM     64  C   UNL A   1      42.702  29.003  34.043  1.00  0.00     0.037 A 
BRANCH  51  65
ATOM     65  C   UNL A   1      39.672  33.772  36.542  1.00  0.00     0.064 A 
ATOM     66  C   UNL A   1      40.304  35.025  36.570  1.00  0.00     0.173 A 
ATOM     67  C   UNL A   1      38.858  33.421  37.628  1.00  0.00     0.173 A 
ATOM     68  F   UNL A   1      41.106  35.399  35.562  1.00  0.00    -0.203 F 
ATOM     69  C   UNL A   1      40.148  35.881  37.656  1.00  0.00     0.198 A 
ATOM     70  C   UNL A   1      38.683  34.291  38.701  1.00  0.00     0.198 A 
ATOM     71  F   UNL A   1      38.232  32.235  37.649  1.00  0.00    -0.203 F 
ATOM     72  F   UNL A   1      40.798  37.052  37.682  1.00  0.00    -0.200 F 
ATOM     73  C   UNL A   1      39.333  35.517  38.717  1.00  0.00     0.200 A 
ATOM     74  F   UNL A   1      37.890  33.942  39.723  1.00  0.00    -0.200 F 
ATOM     75  F   UNL A   1      39.182  36.343  39.762  1.00  0.00    -0.200 F 
ENDBRANCH  51  65
BRANCH  52  76
ATOM     76  C   UNL A   1      40.663  28.034  28.426  1.00  0.00     0.064 A 
ATOM     77  C   UNL A   1      41.460  28.461  27.355  1.00  0.00     0.173 A 
ATOM     78  C   UNL A   1      40.035  26.786  28.318  1.00  0.00     0.173 A 
ATOM     79  F   UNL A   1      42.066  29.657  27.408  1.00  0.00    -0.203 F 
ATOM     80  C   UNL A   1      41.609  27.679  26.213  1.00  0.00     0.198 A 
ATOM     81  C   UNL A   1      40.202  25.994  27.184  1.00  0.00     0.198 A 
ATOM     82  F   UNL A   1      39.268  26.331  29.319  1.00  0.00    -0.203 F 
ATOM     83  F   UNL A   1      42.348  28.127  25.188  1.00  0.00    -0.200 F 
ATOM     84  C   UNL A   1      40.984  26.443  26.130  1.00  0.00     0.200 A 
ATOM     85  F   UNL A   1      39.606  24.796  27.111  1.00  0.00    -0.200 F 
ATOM     86  F   UNL A   1      41.130  25.690  25.032  1.00  0.00    -0.200 F 
ENDBRANCH  52  76
BRANCH  64  87
ATOM     87  C   UNL A   1      43.773  28.150  34.652  1.00  0.00     0.064 A 
ATOM     88  C   UNL A   1      45.129  28.482  34.532  1.00  0.00     0.173 A 
ATOM     89  C   UNL A   1      43.434  27.009  35.393  1.00  0.00     0.173 A 
ATOM     90  F   UNL A   1      45.501  29.556  33.819  1.00  0.00    -0.203 F 
ATOM     91  C   UNL A   1      46.112  27.688  35.114  1.00  0.00     0.198 A 
ATOM     92  C   UNL A   1      44.418  26.230  35.994  1.00  0.00     0.198 A 
ATOM     93  F   UNL A   1      42.149  26.654  35.539  1.00  0.00    -0.203 F 
ATOM     94  F   UNL A   1      47.406  28.000  34.953  1.00  0.00    -0.200 F 
ATOM     95  C   UNL A   1      45.755  26.566  35.850  1.00  0.00     0.200 A 
ATOM     96  F   UNL A   1      44.072  25.151  36.712  1.00  0.00    -0.200 F 
ATOM     97  F   UNL A   1      46.704  25.804  36.413  1.00  0.00    -0.200 F 
ENDBRANCH  64  87
ENDBRANCH  38  39
ENDBRANCH  30  33
ENDBRANCH  28  29
ENDBRANCH  27  28
ENDBRANCH   1  27
TORSDOF 15
ENDMDL
