MODEL 1
REMARK VINA RESULT:     -13.0      0.000      0.000
REMARK SMILES COc1cc(CNc2ccc(N3CCOCC3)c(C(=O)NCCCCNC(=O)c3ccc(-c4c5nc(c(-c6c(F)c(F)c(F)c(F)c6F)c6ccc([nH]6)c(-c6c(F)c(F)c(F)c(F)c6F)c6nc(c(-c7c(F)c(F)c(F)c(F)c7F)c7ccc4[nH]7)C=C6)C=C5)cc3)c2)cc(Br)c1OC
REMARK SMILES IDX 22 1 21 2 19 3 20 4 18 6 8 7 9 8 92 9 10 10 11 11 7 12 6 14
REMARK SMILES IDX 5 15 3 16 4 17 96 18 94 19 93 20 95 21 2 22 1 23 97 24 98 25
REMARK SMILES IDX 12 26 13 27 17 28 14 29 16 30 15 31 23 32 24 33 25 34 26 35
REMARK SMILES IDX 27 36 28 38 29 39 30 40 91 41 31 42 90 43 32 44 33 45 34 46
REMARK SMILES IDX 84 47 35 48 89 49 83 50 85 51 36 52 88 53 82 54 81 55 37 57
REMARK SMILES IDX 69 58 49 59 68 60 50 61 53 62 67 63 86 64 51 65 52 66 66 68
REMARK SMILES IDX 87 69 54 70 38 71 39 72 47 73 40 74 41 75 45 76 48 77 42 78
REMARK SMILES IDX 43 79 46 80 44 81 70 82 71 83 79 84 72 85 73 86 77 87 80 88
REMARK SMILES IDX 74 89 75 90 78 91 76 92 55 93 56 94 64 95 57 96 58 97 62 98
REMARK SMILES IDX 65 99 59 100 60 101 63 102 61 103
REMARK H PARENT 21 5 7 13 26 37 85 56 53 67
REMARK Flexibility Score: inf
ROOT
ATOM      1  C   UNL A   1      32.413  29.854  25.668  1.00  0.00     0.116 C 
ENDROOT
BRANCH   1   2
ATOM      2  N   UNL A   1      32.751  29.530  24.288  1.00  0.00    -0.352 N 
ATOM      3  C   UNL A   1      32.048  28.842  23.308  1.00  0.00     0.253 C 
ATOM      4  O   UNL A   1      32.524  28.855  22.174  1.00  0.00    -0.269 OA
ATOM      5  H   UNL A   1      33.634  29.857  24.001  1.00  0.00     0.163 HD
BRANCH   3   6
ATOM      6  C   UNL A   1      30.789  28.097  23.632  1.00  0.00     0.065 A 
ATOM      7  C   UNL A   1      29.876  25.978  24.456  1.00  0.00     0.035 A 
ATOM      8  C   UNL A   1      28.628  26.377  23.988  1.00  0.00     0.028 A 
ATOM      9  C   UNL A   1      30.911  26.902  24.355  1.00  0.00     0.041 A 
ATOM     10  C   UNL A   1      28.437  27.655  23.452  1.00  0.00     0.029 A 
ATOM     11  C   UNL A   1      29.506  28.548  23.271  1.00  0.00     0.050 A 
BRANCH   7  12
ATOM     12  N   UNL A   1      30.034  24.725  24.998  1.00  0.00    -0.381 N 
ATOM     13  H   UNL A   1      29.528  23.992  24.580  1.00  0.00     0.160 HD
BRANCH  12  14
ATOM     14  C   UNL A   1      30.874  24.379  26.131  1.00  0.00     0.149 C 
BRANCH  14  15
ATOM     15  C   UNL A   1      32.052  23.581  25.639  1.00  0.00    -0.024 A 
ATOM     16  C   UNL A   1      32.936  21.527  24.691  1.00  0.00     0.162 A 
ATOM     17  C   UNL A   1      31.862  22.283  25.160  1.00  0.00     0.056 A 
ATOM     18  C   UNL A   1      34.259  22.024  24.767  1.00  0.00     0.174 A 
ATOM     19  C   UNL A   1      34.455  23.313  25.296  1.00  0.00     0.064 A 
ATOM     20  C   UNL A   1      33.353  24.082  25.714  1.00  0.00     0.025 A 
ATOM     21  Br  UNL A   1      36.128  24.174  25.587  1.00  0.00    -0.047 Br
BRANCH  16  22
ATOM     22  O   UNL A   1      32.761  20.262  24.175  1.00  0.00    -0.493 OA
ATOM     23  C   UNL A   1      32.519  19.234  25.133  1.00  0.00     0.278 C 
ENDBRANCH  16  22
BRANCH  18  24
ATOM     24  O   UNL A   1      35.183  21.115  24.327  1.00  0.00    -0.492 OA
ATOM     25  C   UNL A   1      36.184  20.605  25.182  1.00  0.00     0.278 C 
ENDBRANCH  18  24
ENDBRANCH  14  15
ENDBRANCH  12  14
ENDBRANCH   7  12
BRANCH  11  26
ATOM     26  N   UNL A   1      29.233  29.831  22.849  1.00  0.00    -0.366 N 
ATOM     27  C   UNL A   1      29.058  30.952  23.773  1.00  0.00     0.145 C 
ATOM     28  C   UNL A   1      29.425  30.185  21.439  1.00  0.00     0.145 C 
ATOM     29  C   UNL A   1      28.021  31.945  23.210  1.00  0.00     0.181 C 
ATOM     30  C   UNL A   1      28.316  31.156  21.011  1.00  0.00     0.181 C 
ATOM     31  O   UNL A   1      28.310  32.325  21.850  1.00  0.00    -0.378 OA
ENDBRANCH  11  26
ENDBRANCH   3   6
ENDBRANCH   1   2
BRANCH   1  32
ATOM     32  C   UNL A   1      31.528  31.076  25.867  1.00  0.00     0.023 C 
BRANCH  32  33
ATOM     33  C   UNL A   1      31.666  31.818  27.189  1.00  0.00     0.023 C 
BRANCH  33  34
ATOM     34  C   UNL A   1      32.839  32.782  27.302  1.00  0.00     0.116 C 
BRANCH  34  35
ATOM     35  N   UNL A   1      32.459  34.142  27.657  1.00  0.00    -0.352 N 
ATOM     36  C   UNL A   1      33.010  34.997  28.586  1.00  0.00     0.251 C 
ATOM     37  H   UNL A   1      31.692  34.505  27.158  1.00  0.00     0.163 HD
ATOM     38  O   UNL A   1      32.505  36.091  28.791  1.00  0.00    -0.269 OA
BRANCH  36  39
ATOM     39  C   UNL A   1      34.189  34.568  29.374  1.00  0.00     0.039 A 
ATOM     40  C   UNL A   1      33.982  33.991  30.631  1.00  0.00     0.014 A 
ATOM     41  C   UNL A   1      35.482  34.697  28.866  1.00  0.00     0.014 A 
ATOM     42  C   UNL A   1      35.064  33.455  31.332  1.00  0.00     0.010 A 
ATOM     43  C   UNL A   1      36.545  34.088  29.526  1.00  0.00     0.010 A 
ATOM     44  C   UNL A   1      36.347  33.453  30.761  1.00  0.00    -0.014 A 
BRANCH  44  45
ATOM     45  C   UNL A   1      37.493  32.785  31.431  1.00  0.00     0.031 A 
ATOM     46  C   UNL A   1      38.170  31.616  30.774  1.00  0.00     0.074 A 
ATOM     47  C   UNL A   1      37.866  33.175  32.666  1.00  0.00     0.049 A 
ATOM     48  N   UNL A   1      39.115  30.837  31.238  1.00  0.00    -0.248 NA
ATOM     49  C   UNL A   1      37.701  31.254  29.428  1.00  0.00     0.031 C 
ATOM     50  C   UNL A   1      37.254  34.262  33.433  1.00  0.00     0.029 A 
ATOM     51  N   UNL A   1      38.843  32.691  33.501  1.00  0.00    -0.354 N 
ATOM     52  C   UNL A   1      39.336  29.884  30.253  1.00  0.00     0.074 A 
ATOM     53  C   UNL A   1      38.394  30.151  29.188  1.00  0.00     0.031 C 
ATOM     54  C   UNL A   1      37.881  34.373  34.615  1.00  0.00     0.029 A 
ATOM     55  C   UNL A   1      38.913  33.345  34.707  1.00  0.00     0.049 A 
ATOM     56  H   UNL A   1      39.438  31.946  33.257  1.00  0.00     0.167 HD
ATOM     57  C   UNL A   1      40.257  28.892  30.228  1.00  0.00     0.037 A 
ATOM     58  C   UNL A   1      39.713  33.134  35.769  1.00  0.00     0.037 A 
ATOM     59  C   UNL A   1      41.216  28.651  31.273  1.00  0.00     0.049 A 
ATOM     60  C   UNL A   1      40.735  32.031  35.712  1.00  0.00     0.074 A 
ATOM     61  C   UNL A   1      42.232  27.712  31.313  1.00  0.00     0.029 A 
ATOM     62  N   UNL A   1      41.277  29.357  32.465  1.00  0.00    -0.354 N 
ATOM     63  N   UNL A   1      40.980  31.180  34.746  1.00  0.00    -0.248 NA
ATOM     64  C   UNL A   1      41.598  31.865  36.890  1.00  0.00     0.031 C 
ATOM     65  C   UNL A   1      42.884  27.825  32.545  1.00  0.00     0.029 A 
ATOM     66  C   UNL A   1      42.304  28.864  33.254  1.00  0.00     0.049 A 
ATOM     67  H   UNL A   1      40.679  30.099  32.714  1.00  0.00     0.167 HD
ATOM     68  C   UNL A   1      42.039  30.398  35.186  1.00  0.00     0.074 A 
ATOM     69  C   UNL A   1      42.400  30.883  36.501  1.00  0.00     0.031 C 
ATOM     70  C   UNL A   1      42.657  29.369  34.556  1.00  0.00     0.037 A 
BRANCH  57  71
ATOM     71  C   UNL A   1      40.276  27.996  29.024  1.00  0.00     0.064 A 
ATOM     72  C   UNL A   1      41.040  28.307  27.890  1.00  0.00     0.173 A 
ATOM     73  C   UNL A   1      39.549  26.796  29.017  1.00  0.00     0.173 A 
ATOM     74  F   UNL A   1      41.744  29.448  27.841  1.00  0.00    -0.203 F 
ATOM     75  C   UNL A   1      41.050  27.465  26.779  1.00  0.00     0.198 A 
ATOM     76  C   UNL A   1      39.585  25.943  27.918  1.00  0.00     0.198 A 
ATOM     77  F   UNL A   1      38.807  26.448  30.080  1.00  0.00    -0.203 F 
ATOM     78  F   UNL A   1      41.747  27.809  25.687  1.00  0.00    -0.200 F 
ATOM     79  C   UNL A   1      40.329  26.281  26.797  1.00  0.00     0.200 A 
ATOM     80  F   UNL A   1      38.897  24.792  27.940  1.00  0.00    -0.200 F 
ATOM     81  F   UNL A   1      40.345  25.470  25.730  1.00  0.00    -0.200 F 
ENDBRANCH  57  71
BRANCH  58  82
ATOM     82  C   UNL A   1      39.600  34.004  36.969  1.00  0.00     0.064 A 
ATOM     83  C   UNL A   1      38.822  33.612  38.068  1.00  0.00     0.173 A 
ATOM     84  C   UNL A   1      40.256  35.241  37.041  1.00  0.00     0.173 A 
ATOM     85  F   UNL A   1      38.158  32.447  38.037  1.00  0.00    -0.203 F 
ATOM     86  C   UNL A   1      38.689  34.434  39.186  1.00  0.00     0.198 A 
ATOM     87  C   UNL A   1      40.144  36.050  38.170  1.00  0.00     0.198 A 
ATOM     88  F   UNL A   1      41.016  35.659  36.018  1.00  0.00    -0.203 F 
ATOM     89  F   UNL A   1      37.904  34.055  40.203  1.00  0.00    -0.200 F 
ATOM     90  C   UNL A   1      39.354  35.650  39.237  1.00  0.00     0.200 A 
ATOM     91  F   UNL A   1      40.799  37.218  38.223  1.00  0.00    -0.200 F 
ATOM     92  F   UNL A   1      39.229  36.438  40.314  1.00  0.00    -0.200 F 
ENDBRANCH  58  82
BRANCH  70  93
ATOM     93  C   UNL A   1      43.813  28.724  35.262  1.00  0.00     0.064 A 
ATOM     94  C   UNL A   1      45.128  29.179  35.089  1.00  0.00     0.173 A 
ATOM     95  C   UNL A   1      43.594  27.667  36.159  1.00  0.00     0.173 A 
ATOM     96  F   UNL A   1      45.390  30.176  34.230  1.00  0.00    -0.203 F 
ATOM     97  C   UNL A   1      46.185  28.585  35.773  1.00  0.00     0.198 A 
ATOM     98  C   UNL A   1      44.650  27.095  36.862  1.00  0.00     0.198 A 
ATOM     99  F   UNL A   1      42.353  27.200  36.364  1.00  0.00    -0.203 F 
ATOM    100  F   UNL A   1      47.439  29.007  35.560  1.00  0.00    -0.200 F 
ATOM    101  C   UNL A   1      45.945  27.549  36.664  1.00  0.00     0.200 A 
ATOM    102  F   UNL A   1      44.414  26.103  37.731  1.00  0.00    -0.200 F 
ATOM    103  F   UNL A   1      46.962  26.985  37.327  1.00  0.00    -0.200 F 
ENDBRANCH  70  93
ENDBRANCH  44  45
ENDBRANCH  36  39
ENDBRANCH  34  35
ENDBRANCH  33  34
ENDBRANCH  32  33
ENDBRANCH   1  32
TORSDOF 17
ENDMDL
MODEL 2
REMARK VINA RESULT:     -12.8      0.936      2.269
REMARK SMILES COc1cc(CNc2ccc(N3CCOCC3)c(C(=O)NCCCCNC(=O)c3ccc(-c4c5nc(c(-c6c(F)c(F)c(F)c(F)c6F)c6ccc([nH]6)c(-c6c(F)c(F)c(F)c(F)c6F)c6nc(c(-c7c(F)c(F)c(F)c(F)c7F)c7ccc4[nH]7)C=C6)C=C5)cc3)c2)cc(Br)c1OC
REMARK SMILES IDX 22 1 21 2 19 3 20 4 18 6 8 7 9 8 92 9 10 10 11 11 7 12 6 14
REMARK SMILES IDX 5 15 3 16 4 17 96 18 94 19 93 20 95 21 2 22 1 23 97 24 98 25
REMARK SMILES IDX 12 26 13 27 17 28 14 29 16 30 15 31 23 32 24 33 25 34 26 35
REMARK SMILES IDX 27 36 28 38 29 39 30 40 91 41 31 42 90 43 32 44 33 45 34 46
REMARK SMILES IDX 84 47 35 48 89 49 83 50 85 51 36 52 88 53 82 54 81 55 37 57
REMARK SMILES IDX 69 58 49 59 68 60 50 61 53 62 67 63 86 64 51 65 52 66 66 68
REMARK SMILES IDX 87 69 54 70 38 71 39 72 47 73 40 74 41 75 45 76 48 77 42 78
REMARK SMILES IDX 43 79 46 80 44 81 70 82 71 83 79 84 72 85 73 86 77 87 80 88
REMARK SMILES IDX 74 89 75 90 78 91 76 92 55 93 56 94 64 95 57 96 58 97 62 98
REMARK SMILES IDX 65 99 59 100 60 101 63 102 61 103
REMARK H PARENT 21 5 7 13 26 37 85 56 53 67
REMARK Flexibility Score: inf
ROOT
ATOM      1  C   UNL A   1      32.210  29.822  25.309  1.00  0.00     0.116 C 
ENDROOT
BRANCH   1   2
ATOM      2  N   UNL A   1      32.256  29.736  23.855  1.00  0.00    -0.352 N 
ATOM      3  C   UNL A   1      31.358  29.205  22.938  1.00  0.00     0.253 C 
ATOM      4  O   UNL A   1      31.593  29.413  21.750  1.00  0.00    -0.269 OA
ATOM      5  H   UNL A   1      33.066  30.123  23.452  1.00  0.00     0.163 HD
BRANCH   3   6
ATOM      6  C   UNL A   1      30.181  28.393  23.384  1.00  0.00     0.065 A 
ATOM      7  C   UNL A   1      29.475  26.239  24.314  1.00  0.00     0.035 A 
ATOM      8  C   UNL A   1      28.168  26.555  23.956  1.00  0.00     0.028 A 
ATOM      9  C   UNL A   1      30.439  27.220  24.108  1.00  0.00     0.041 A 
ATOM     10  C   UNL A   1      27.853  27.809  23.423  1.00  0.00     0.029 A 
ATOM     11  C   UNL A   1      28.845  28.761  23.135  1.00  0.00     0.050 A 
BRANCH   7  12
ATOM     12  N   UNL A   1      29.757  25.007  24.856  1.00  0.00    -0.381 N 
ATOM     13  H   UNL A   1      29.202  24.252  24.555  1.00  0.00     0.160 HD
BRANCH  12  14
ATOM     14  C   UNL A   1      30.792  24.714  25.830  1.00  0.00     0.149 C 
BRANCH  14  15
ATOM     15  C   UNL A   1      32.029  24.254  25.104  1.00  0.00    -0.024 A 
ATOM     16  C   UNL A   1      33.422  24.294  23.115  1.00  0.00     0.162 A 
ATOM     17  C   UNL A   1      32.280  24.700  23.805  1.00  0.00     0.056 A 
ATOM     18  C   UNL A   1      34.314  23.352  23.683  1.00  0.00     0.174 A 
ATOM     19  C   UNL A   1      34.034  22.866  24.973  1.00  0.00     0.064 A 
ATOM     20  C   UNL A   1      32.904  23.328  25.674  1.00  0.00     0.025 A 
ATOM     21  Br  UNL A   1      35.017  21.539  25.919  1.00  0.00    -0.047 Br
BRANCH  16  22
ATOM     22  O   UNL A   1      33.708  24.757  21.850  1.00  0.00    -0.493 OA
ATOM     23  C   UNL A   1      32.699  25.564  21.247  1.00  0.00     0.278 C 
ENDBRANCH  16  22
BRANCH  18  24
ATOM     24  O   UNL A   1      35.335  23.023  22.832  1.00  0.00    -0.492 OA
ATOM     25  C   UNL A   1      36.672  22.943  23.277  1.00  0.00     0.278 C 
ENDBRANCH  18  24
ENDBRANCH  14  15
ENDBRANCH  12  14
ENDBRANCH   7  12
BRANCH  11  26
ATOM     26  N   UNL A   1      28.458  30.017  22.724  1.00  0.00    -0.366 N 
ATOM     27  C   UNL A   1      27.963  30.295  21.375  1.00  0.00     0.145 C 
ATOM     28  C   UNL A   1      28.227  31.066  23.722  1.00  0.00     0.145 C 
ATOM     29  C   UNL A   1      28.390  31.710  20.936  1.00  0.00     0.181 C 
ATOM     30  C   UNL A   1      28.716  32.408  23.161  1.00  0.00     0.181 C 
ATOM     31  O   UNL A   1      28.058  32.712  21.919  1.00  0.00    -0.378 OA
ENDBRANCH  11  26
ENDBRANCH   3   6
ENDBRANCH   1   2
BRANCH   1  32
ATOM     32  C   UNL A   1      31.372  30.955  25.883  1.00  0.00     0.023 C 
BRANCH  32  33
ATOM     33  C   UNL A   1      31.800  31.513  27.233  1.00  0.00     0.023 C 
BRANCH  33  34
ATOM     34  C   UNL A   1      32.922  32.542  27.212  1.00  0.00     0.116 C 
BRANCH  34  35
ATOM     35  N   UNL A   1      32.501  33.889  27.571  1.00  0.00    -0.352 N 
ATOM     36  C   UNL A   1      33.024  34.756  28.506  1.00  0.00     0.251 C 
ATOM     37  H   UNL A   1      31.726  34.231  27.071  1.00  0.00     0.163 HD
ATOM     38  O   UNL A   1      32.486  35.834  28.713  1.00  0.00    -0.269 OA
BRANCH  36  39
ATOM     39  C   UNL A   1      34.212  34.359  29.296  1.00  0.00     0.039 A 
ATOM     40  C   UNL A   1      34.018  33.741  30.535  1.00  0.00     0.014 A 
ATOM     41  C   UNL A   1      35.504  34.557  28.806  1.00  0.00     0.014 A 
ATOM     42  C   UNL A   1      35.115  33.234  31.235  1.00  0.00     0.010 A 
ATOM     43  C   UNL A   1      36.586  33.979  29.462  1.00  0.00     0.010 A 
ATOM     44  C   UNL A   1      36.403  33.304  30.679  1.00  0.00    -0.014 A 
BRANCH  44  45
ATOM     45  C   UNL A   1      37.570  32.669  31.344  1.00  0.00     0.031 A 
ATOM     46  C   UNL A   1      38.292  31.534  30.675  1.00  0.00     0.074 A 
ATOM     47  C   UNL A   1      37.925  33.057  32.586  1.00  0.00     0.049 A 
ATOM     48  N   UNL A   1      39.263  30.785  31.132  1.00  0.00    -0.248 NA
ATOM     49  C   UNL A   1      37.842  31.173  29.322  1.00  0.00     0.031 C 
ATOM     50  C   UNL A   1      37.270  34.110  33.364  1.00  0.00     0.029 A 
ATOM     51  N   UNL A   1      38.916  32.598  33.418  1.00  0.00    -0.354 N 
ATOM     52  C   UNL A   1      39.522  29.853  30.136  1.00  0.00     0.074 A 
ATOM     53  C   UNL A   1      38.575  30.099  29.071  1.00  0.00     0.031 C 
ATOM     54  C   UNL A   1      37.888  34.229  34.550  1.00  0.00     0.029 A 
ATOM     55  C   UNL A   1      38.957  33.237  34.633  1.00  0.00     0.049 A 
ATOM     56  H   UNL A   1      39.538  31.878  33.167  1.00  0.00     0.167 HD
ATOM     57  C   UNL A   1      40.479  28.896  30.102  1.00  0.00     0.037 A 
ATOM     58  C   UNL A   1      39.761  33.042  35.696  1.00  0.00     0.037 A 
ATOM     59  C   UNL A   1      41.442  28.676  31.147  1.00  0.00     0.049 A 
ATOM     60  C   UNL A   1      40.823  31.979  35.628  1.00  0.00     0.074 A 
ATOM     61  C   UNL A   1      42.492  27.774  31.179  1.00  0.00     0.029 A 
ATOM     62  N   UNL A   1      41.474  29.368  32.349  1.00  0.00    -0.354 N 
ATOM     63  N   UNL A   1      41.101  31.149  34.652  1.00  0.00    -0.248 NA
ATOM     64  C   UNL A   1      41.686  31.828  36.807  1.00  0.00     0.031 C 
ATOM     65  C   UNL A   1      43.135  27.895  32.415  1.00  0.00     0.029 A 
ATOM     66  C   UNL A   1      42.515  28.903  33.135  1.00  0.00     0.049 A 
ATOM     67  H   UNL A   1      40.848  30.085  32.605  1.00  0.00     0.167 HD
ATOM     68  C   UNL A   1      42.187  30.401  35.086  1.00  0.00     0.074 A 
ATOM     69  C   UNL A   1      42.525  30.882  36.409  1.00  0.00     0.031 C 
ATOM     70  C   UNL A   1      42.845  29.404  34.445  1.00  0.00     0.037 A 
BRANCH  57  71
ATOM     71  C   UNL A   1      40.535  28.017  28.887  1.00  0.00     0.064 A 
ATOM     72  C   UNL A   1      39.791  26.830  28.805  1.00  0.00     0.173 A 
ATOM     73  C   UNL A   1      41.317  28.379  27.780  1.00  0.00     0.173 A 
ATOM     74  F   UNL A   1      39.038  26.432  29.841  1.00  0.00    -0.203 F 
ATOM     75  C   UNL A   1      39.852  26.023  27.671  1.00  0.00     0.198 A 
ATOM     76  C   UNL A   1      41.352  27.586  26.636  1.00  0.00     0.198 A 
ATOM     77  F   UNL A   1      42.043  29.508  27.804  1.00  0.00    -0.203 F 
ATOM     78  F   UNL A   1      39.172  24.869  27.636  1.00  0.00    -0.200 F 
ATOM     79  C   UNL A   1      40.625  26.405  26.585  1.00  0.00     0.200 A 
ATOM     80  F   UNL A   1      42.090  27.962  25.583  1.00  0.00    -0.200 F 
ATOM     81  F   UNL A   1      40.677  25.630  25.493  1.00  0.00    -0.200 F 
ENDBRANCH  57  71
BRANCH  58  82
ATOM     82  C   UNL A   1      39.612  33.891  36.906  1.00  0.00     0.064 A 
ATOM     83  C   UNL A   1      40.231  35.148  36.981  1.00  0.00     0.173 A 
ATOM     84  C   UNL A   1      38.860  33.468  38.010  1.00  0.00     0.173 A 
ATOM     85  F   UNL A   1      40.979  35.587  35.958  1.00  0.00    -0.203 F 
ATOM     86  C   UNL A   1      40.119  35.939  38.122  1.00  0.00     0.198 A 
ATOM     87  C   UNL A   1      38.726  34.271  39.141  1.00  0.00     0.198 A 
ATOM     88  F   UNL A   1      38.244  32.277  37.987  1.00  0.00    -0.203 F 
ATOM     89  F   UNL A   1      40.758  37.116  38.184  1.00  0.00    -0.200 F 
ATOM     90  C   UNL A   1      39.363  35.502  39.199  1.00  0.00     0.200 A 
ATOM     91  F   UNL A   1      37.984  33.853  40.175  1.00  0.00    -0.200 F 
ATOM     92  F   UNL A   1      39.253  36.265  40.296  1.00  0.00    -0.200 F 
ENDBRANCH  58  82
BRANCH  70  93
ATOM     93  C   UNL A   1      44.021  28.792  35.148  1.00  0.00     0.064 A 
ATOM     94  C   UNL A   1      43.876  27.692  36.005  1.00  0.00     0.173 A 
ATOM     95  C   UNL A   1      45.315  29.286  34.923  1.00  0.00     0.173 A 
ATOM     96  F   UNL A   1      42.657  27.194  36.264  1.00  0.00    -0.203 F 
ATOM     97  C   UNL A   1      44.982  27.122  36.628  1.00  0.00     0.198 A 
ATOM     98  C   UNL A   1      46.421  28.695  35.526  1.00  0.00     0.198 A 
ATOM     99  F   UNL A   1      45.507  30.334  34.107  1.00  0.00    -0.203 F 
ATOM    100  F   UNL A   1      44.816  26.098  37.477  1.00  0.00    -0.200 F 
ATOM    101  C   UNL A   1      46.254  27.618  36.383  1.00  0.00     0.200 A 
ATOM    102  F   UNL A   1      47.650  29.169  35.278  1.00  0.00    -0.200 F 
ATOM    103  F   UNL A   1      47.318  27.062  36.977  1.00  0.00    -0.200 F 
ENDBRANCH  70  93
ENDBRANCH  44  45
ENDBRANCH  36  39
ENDBRANCH  34  35
ENDBRANCH  33  34
ENDBRANCH  32  33
ENDBRANCH   1  32
TORSDOF 17
ENDMDL
MODEL 3
REMARK VINA RESULT:     -12.4      5.442     11.546
REMARK SMILES COc1cc(CNc2ccc(N3CCOCC3)c(C(=O)NCCCCNC(=O)c3ccc(-c4c5nc(c(-c6c(F)c(F)c(F)c(F)c6F)c6ccc([nH]6)c(-c6c(F)c(F)c(F)c(F)c6F)c6nc(c(-c7c(F)c(F)c(F)c(F)c7F)c7ccc4[nH]7)C=C6)C=C5)cc3)c2)cc(Br)c1OC
REMARK SMILES IDX 22 1 21 2 19 3 20 4 18 6 8 7 9 8 92 9 10 10 11 11 7 12 6 14
REMARK SMILES IDX 5 15 3 16 4 17 96 18 94 19 93 20 95 21 2 22 1 23 97 24 98 25
REMARK SMILES IDX 12 26 13 27 17 28 14 29 16 30 15 31 23 32 24 33 25 34 26 35
REMARK SMILES IDX 27 36 28 38 29 39 30 40 91 41 31 42 90 43 32 44 33 45 34 46
REMARK SMILES IDX 84 47 35 48 89 49 83 50 85 51 36 52 88 53 82 54 81 55 37 57
REMARK SMILES IDX 69 58 49 59 68 60 50 61 53 62 67 63 86 64 51 65 52 66 66 68
REMARK SMILES IDX 87 69 54 70 38 71 39 72 47 73 40 74 41 75 45 76 48 77 42 78
REMARK SMILES IDX 43 79 46 80 44 81 70 82 71 83 79 84 72 85 73 86 77 87 80 88
REMARK SMILES IDX 74 89 75 90 78 91 76 92 55 93 56 94 64 95 57 96 58 97 62 98
REMARK SMILES IDX 65 99 59 100 60 101 63 102 61 103
REMARK H PARENT 21 5 7 13 26 37 85 56 53 67
REMARK Flexibility Score: inf
ROOT
ATOM      1  C   UNL A   1      36.620  20.812  25.149  1.00  0.00     0.116 C 
ENDROOT
BRANCH   1   2
ATOM      2  N   UNL A   1      35.634  21.078  26.188  1.00  0.00    -0.352 N 
ATOM      3  C   UNL A   1      34.247  21.132  26.145  1.00  0.00     0.253 C 
ATOM      4  O   UNL A   1      33.664  21.227  27.223  1.00  0.00    -0.269 OA
ATOM      5  H   UNL A   1      36.019  21.250  27.077  1.00  0.00     0.163 HD
BRANCH   3   6
ATOM      6  C   UNL A   1      33.508  21.107  24.842  1.00  0.00     0.065 A 
ATOM      7  C   UNL A   1      32.433  22.486  23.127  1.00  0.00     0.035 A 
ATOM      8  C   UNL A   1      31.837  21.333  22.625  1.00  0.00     0.028 A 
ATOM      9  C   UNL A   1      33.341  22.325  24.167  1.00  0.00     0.041 A 
ATOM     10  C   UNL A   1      32.154  20.076  23.149  1.00  0.00     0.029 A 
ATOM     11  C   UNL A   1      33.003  19.930  24.259  1.00  0.00     0.050 A 
BRANCH   7  12
ATOM     12  N   UNL A   1      32.122  23.709  22.581  1.00  0.00    -0.381 N 
ATOM     13  H   UNL A   1      32.811  24.135  22.022  1.00  0.00     0.160 HD
BRANCH  12  14
ATOM     14  C   UNL A   1      30.875  24.433  22.751  1.00  0.00     0.149 C 
BRANCH  14  15
ATOM     15  C   UNL A   1      31.178  25.808  23.287  1.00  0.00    -0.024 A 
ATOM     16  C   UNL A   1      31.046  28.221  23.047  1.00  0.00     0.162 A 
ATOM     17  C   UNL A   1      30.785  26.938  22.567  1.00  0.00     0.056 A 
ATOM     18  C   UNL A   1      31.793  28.411  24.235  1.00  0.00     0.174 A 
ATOM     19  C   UNL A   1      32.232  27.271  24.934  1.00  0.00     0.064 A 
ATOM     20  C   UNL A   1      31.911  25.984  24.461  1.00  0.00     0.025 A 
ATOM     21  Br  UNL A   1      33.318  27.251  26.497  1.00  0.00    -0.047 Br
BRANCH  16  22
ATOM     22  O   UNL A   1      30.629  29.346  22.372  1.00  0.00    -0.493 OA
ATOM     23  C   UNL A   1      29.264  29.711  22.567  1.00  0.00     0.278 C 
ENDBRANCH  16  22
BRANCH  18  24
ATOM     24  O   UNL A   1      32.010  29.735  24.508  1.00  0.00    -0.492 OA
ATOM     25  C   UNL A   1      31.777  30.274  25.791  1.00  0.00     0.278 C 
ENDBRANCH  18  24
ENDBRANCH  14  15
ENDBRANCH  12  14
ENDBRANCH   7  12
BRANCH  11  26
ATOM     26  N   UNL A   1      33.368  18.660  24.652  1.00  0.00    -0.366 N 
ATOM     27  C   UNL A   1      34.628  18.035  24.250  1.00  0.00     0.145 C 
ATOM     28  C   UNL A   1      32.649  18.008  25.751  1.00  0.00     0.145 C 
ATOM     29  C   UNL A   1      34.435  16.515  24.083  1.00  0.00     0.181 C 
ATOM     30  C   UNL A   1      32.512  16.512  25.442  1.00  0.00     0.181 C 
ATOM     31  O   UNL A   1      33.803  15.914  25.231  1.00  0.00    -0.378 OA
ENDBRANCH  11  26
ENDBRANCH   3   6
ENDBRANCH   1   2
BRANCH   1  32
ATOM     32  C   UNL A   1      37.753  21.822  25.032  1.00  0.00     0.023 C 
BRANCH  32  33
ATOM     33  C   UNL A   1      39.151  21.331  25.376  1.00  0.00     0.023 C 
BRANCH  33  34
ATOM     34  C   UNL A   1      39.242  20.236  26.430  1.00  0.00     0.116 C 
BRANCH  34  35
ATOM     35  N   UNL A   1      40.222  19.202  26.132  1.00  0.00    -0.352 N 
ATOM     36  C   UNL A   1      41.597  19.276  26.094  1.00  0.00     0.251 C 
ATOM     37  H   UNL A   1      39.845  18.317  25.925  1.00  0.00     0.163 HD
ATOM     38  O   UNL A   1      42.256  18.304  25.753  1.00  0.00    -0.269 OA
BRANCH  36  39
ATOM     39  C   UNL A   1      42.276  20.551  26.419  1.00  0.00     0.039 A 
ATOM     40  C   UNL A   1      42.798  21.318  25.373  1.00  0.00     0.014 A 
ATOM     41  C   UNL A   1      42.364  21.007  27.735  1.00  0.00     0.014 A 
ATOM     42  C   UNL A   1      43.319  22.587  25.639  1.00  0.00     0.010 A 
ATOM     43  C   UNL A   1      42.806  22.302  27.987  1.00  0.00     0.010 A 
ATOM     44  C   UNL A   1      43.280  23.109  26.942  1.00  0.00    -0.014 A 
BRANCH  44  45
ATOM     45  C   UNL A   1      43.717  24.499  27.233  1.00  0.00     0.031 A 
ATOM     46  C   UNL A   1      42.724  25.513  27.726  1.00  0.00     0.074 A 
ATOM     47  C   UNL A   1      44.987  24.869  26.973  1.00  0.00     0.049 A 
ATOM     48  N   UNL A   1      42.883  26.795  27.939  1.00  0.00    -0.248 NA
ATOM     49  C   UNL A   1      41.359  25.027  27.983  1.00  0.00     0.031 C 
ATOM     50  C   UNL A   1      46.033  23.993  26.443  1.00  0.00     0.029 A 
ATOM     51  N   UNL A   1      45.610  26.086  27.105  1.00  0.00    -0.354 N 
ATOM     52  C   UNL A   1      41.639  27.269  28.332  1.00  0.00     0.074 A 
ATOM     53  C   UNL A   1      40.724  26.150  28.280  1.00  0.00     0.031 C 
ATOM     54  C   UNL A   1      47.171  24.695  26.314  1.00  0.00     0.029 A 
ATOM     55  C   UNL A   1      46.927  26.077  26.715  1.00  0.00     0.049 A 
ATOM     56  H   UNL A   1      45.155  26.889  27.448  1.00  0.00     0.167 HD
ATOM     57  C   UNL A   1      41.297  28.519  28.724  1.00  0.00     0.037 A 
ATOM     58  C   UNL A   1      47.833  27.073  26.677  1.00  0.00     0.037 A 
ATOM     59  C   UNL A   1      42.217  29.622  28.808  1.00  0.00     0.049 A 
ATOM     60  C   UNL A   1      47.429  28.451  27.128  1.00  0.00     0.074 A 
ATOM     61  C   UNL A   1      41.982  30.911  29.255  1.00  0.00     0.029 A 
ATOM     62  N   UNL A   1      43.552  29.566  28.436  1.00  0.00    -0.354 N 
ATOM     63  N   UNL A   1      46.266  28.871  27.563  1.00  0.00    -0.248 NA
ATOM     64  C   UNL A   1      48.466  29.491  27.090  1.00  0.00     0.031 C 
ATOM     65  C   UNL A   1      43.165  31.644  29.118  1.00  0.00     0.029 A 
ATOM     66  C   UNL A   1      44.149  30.800  28.629  1.00  0.00     0.049 A 
ATOM     67  H   UNL A   1      44.008  28.765  28.086  1.00  0.00     0.167 HD
ATOM     68  C   UNL A   1      46.439  30.212  27.876  1.00  0.00     0.074 A 
ATOM     69  C   UNL A   1      47.822  30.535  27.593  1.00  0.00     0.031 C 
ATOM     70  C   UNL A   1      45.531  31.098  28.354  1.00  0.00     0.037 A 
BRANCH  57  71
ATOM     71  C   UNL A   1      39.864  28.759  29.101  1.00  0.00     0.064 A 
ATOM     72  C   UNL A   1      39.417  28.602  30.421  1.00  0.00     0.173 A 
ATOM     73  C   UNL A   1      38.934  29.180  28.139  1.00  0.00     0.173 A 
ATOM     74  F   UNL A   1      40.263  28.188  31.377  1.00  0.00    -0.203 F 
ATOM     75  C   UNL A   1      38.084  28.828  30.758  1.00  0.00     0.198 A 
ATOM     76  C   UNL A   1      37.611  29.435  28.484  1.00  0.00     0.198 A 
ATOM     77  F   UNL A   1      39.312  29.352  26.863  1.00  0.00    -0.203 F 
ATOM     78  F   UNL A   1      37.669  28.622  32.016  1.00  0.00    -0.200 F 
ATOM     79  C   UNL A   1      37.184  29.251  29.792  1.00  0.00     0.200 A 
ATOM     80  F   UNL A   1      36.744  29.855  27.552  1.00  0.00    -0.200 F 
ATOM     81  F   UNL A   1      35.904  29.475  30.119  1.00  0.00    -0.200 F 
ENDBRANCH  57  71
BRANCH  58  82
ATOM     82  C   UNL A   1      49.220  26.798  26.222  1.00  0.00     0.064 A 
ATOM     83  C   UNL A   1      50.197  26.355  27.125  1.00  0.00     0.173 A 
ATOM     84  C   UNL A   1      49.602  26.978  24.885  1.00  0.00     0.173 A 
ATOM     85  F   UNL A   1      49.885  26.189  28.419  1.00  0.00    -0.203 F 
ATOM     86  C   UNL A   1      51.507  26.121  26.713  1.00  0.00     0.198 A 
ATOM     87  C   UNL A   1      50.906  26.718  24.468  1.00  0.00     0.198 A 
ATOM     88  F   UNL A   1      48.704  27.396  23.981  1.00  0.00    -0.203 F 
ATOM     89  F   UNL A   1      52.431  25.741  27.606  1.00  0.00    -0.200 F 
ATOM     90  C   UNL A   1      51.859  26.298  25.383  1.00  0.00     0.200 A 
ATOM     91  F   UNL A   1      51.240  26.878  23.180  1.00  0.00    -0.200 F 
ATOM     92  F   UNL A   1      53.119  26.070  24.986  1.00  0.00    -0.200 F 
ENDBRANCH  58  82
BRANCH  70  93
ATOM     93  C   UNL A   1      46.014  32.490  28.641  1.00  0.00     0.064 A 
ATOM     94  C   UNL A   1      46.569  32.836  29.882  1.00  0.00     0.173 A 
ATOM     95  C   UNL A   1      45.960  33.477  27.645  1.00  0.00     0.173 A 
ATOM     96  F   UNL A   1      46.626  31.932  30.871  1.00  0.00    -0.203 F 
ATOM     97  C   UNL A   1      47.034  34.126  30.121  1.00  0.00     0.198 A 
ATOM     98  C   UNL A   1      46.453  34.757  27.879  1.00  0.00     0.198 A 
ATOM     99  F   UNL A   1      45.444  33.194  26.439  1.00  0.00    -0.203 F 
ATOM    100  F   UNL A   1      47.522  34.446  31.328  1.00  0.00    -0.200 F 
ATOM    101  C   UNL A   1      46.983  35.083  29.118  1.00  0.00     0.200 A 
ATOM    102  F   UNL A   1      46.414  35.677  26.905  1.00  0.00    -0.200 F 
ATOM    103  F   UNL A   1      47.440  36.321  29.348  1.00  0.00    -0.200 F 
ENDBRANCH  70  93
ENDBRANCH  44  45
ENDBRANCH  36  39
ENDBRANCH  34  35
ENDBRANCH  33  34
ENDBRANCH  32  33
ENDBRANCH   1  32
TORSDOF 17
ENDMDL
