MODEL 1
REMARK VINA RESULT:     -14.7      0.000      0.000
REMARK SMILES Cc1ccccc1NC(=S)NN1C(=O)CS[C@H]1c1ccccc1C(=O)NCCCCNC(=O)c1ccc(-c2c3nc(c(-c4c(F)c(F)c(F)c(F)c4F)c4ccc([nH]4)c(-c4c(F)c(F)c(F)c(F)c4F)c4nc(c(-c5c(F)c(F)c(F)c(F)c5F)c5ccc2[nH]5)C=C4)C=C3)cc1
REMARK SMILES IDX 27 1 26 2 24 3 25 4 23 6 18 7 19 8 20 9 22 10 21 11 17 12
REMARK SMILES IDX 12 13 13 14 14 15 15 16 16 17 11 18 9 20 10 21 8 22 7 24
REMARK SMILES IDX 1 25 2 26 3 27 4 28 6 29 5 30 28 31 29 32 30 33 31 34 32 35
REMARK SMILES IDX 33 37 34 38 35 39 96 40 36 41 95 42 37 43 38 44 39 45 89 46
REMARK SMILES IDX 40 47 94 48 88 49 90 50 41 51 93 52 87 53 86 54 42 56 74 57
REMARK SMILES IDX 54 58 73 59 55 60 58 61 72 62 91 63 56 64 57 65 71 67 92 68
REMARK SMILES IDX 59 69 43 70 44 71 52 72 45 73 46 74 50 75 53 76 47 77 48 78
REMARK SMILES IDX 51 79 49 80 75 81 76 82 84 83 77 84 78 85 82 86 85 87 79 88
REMARK SMILES IDX 80 89 83 90 81 91 60 92 61 93 69 94 62 95 63 96 67 97 70 98
REMARK SMILES IDX 64 99 65 100 68 101 66 102
REMARK H PARENT 26 5 11 19 8 23 31 36 90 55 58 66
REMARK Flexibility Score: inf
ROOT
ATOM      1  C   UNL A   1      33.911  27.316  23.601  1.00  0.00     0.116 C 
ENDROOT
BRANCH   1   2
ATOM      2  N   UNL A   1      33.673  26.776  22.090  1.00  0.00    -0.352 N 
ATOM      3  C   UNL A   1      32.818  25.831  21.612  1.00  0.00     0.251 C 
ATOM      4  O   UNL A   1      32.876  25.412  20.464  1.00  0.00    -0.269 OA
ATOM      5  H   UNL A   1      34.241  27.202  21.407  1.00  0.00     0.163 HD
BRANCH   3   6
ATOM      6  C   UNL A   1      31.772  25.415  22.539  1.00  0.00     0.046 A 
ATOM      7  C   UNL A   1      31.979  24.327  23.404  1.00  0.00    -0.001 A 
ATOM      8  C   UNL A   1      31.226  24.366  24.602  1.00  0.00     0.007 A 
ATOM      9  C   UNL A   1      30.278  25.383  24.849  1.00  0.00     0.000 A 
ATOM     10  C   UNL A   1      30.742  26.359  22.717  1.00  0.00     0.014 A 
ATOM     11  C   UNL A   1      29.993  26.342  23.881  1.00  0.00     0.001 A 
BRANCH   7  12
ATOM     12  C   UNL A   1      33.094  23.216  23.141  1.00  0.00     0.197 C 
ATOM     13  N   UNL A   1      34.133  22.558  24.569  1.00  0.00    -0.236 N 
ATOM     14  C   UNL A   1      33.695  21.030  25.317  1.00  0.00     0.252 C 
ATOM     15  O   UNL A   1      34.035  20.917  26.475  1.00  0.00    -0.272 OA
ATOM     16  C   UNL A   1      32.357  19.952  24.158  1.00  0.00     0.174 C 
ATOM     17  S   UNL A   1      31.777  21.417  22.349  1.00  0.00    -0.120 SA
BRANCH  13  18
ATOM     18  N   UNL A   1      35.320  23.180  25.179  1.00  0.00    -0.270 N 
ATOM     19  H   UNL A   1      35.185  23.612  26.053  1.00  0.00     0.191 HD
BRANCH  18  20
ATOM     20  C   UNL A   1      36.636  23.225  24.648  1.00  0.00     0.189 C 
ATOM     21  S   UNL A   1      36.757  22.953  22.969  1.00  0.00    -0.039 S 
BRANCH  20  22
ATOM     22  N   UNL A   1      37.854  23.481  25.328  1.00  0.00    -0.331 N 
ATOM     23  H   UNL A   1      38.160  24.414  25.264  1.00  0.00     0.169 HD
BRANCH  22  24
ATOM     24  C   UNL A   1      38.761  22.596  26.124  1.00  0.00     0.043 A 
ATOM     25  C   UNL A   1      38.916  24.552  28.010  1.00  0.00     0.046 C 
ATOM     26  C   UNL A   1      39.736  23.526  27.256  1.00  0.00    -0.028 A 
ATOM     27  C   UNL A   1      41.316  22.909  27.838  1.00  0.00     0.005 A 
ATOM     28  C   UNL A   1      41.891  21.253  27.417  1.00  0.00     0.000 A 
ATOM     29  C   UNL A   1      39.282  20.862  25.751  1.00  0.00     0.026 A 
ATOM     30  C   UNL A   1      40.901  20.226  26.308  1.00  0.00     0.002 A 
ENDBRANCH  22  24
ENDBRANCH  20  22
ENDBRANCH  18  20
ENDBRANCH  13  18
ENDBRANCH   7  12
ENDBRANCH   3   6
ENDBRANCH   1   2
BRANCH   1  31
ATOM     31  C   UNL A   1      32.766  28.896  24.666  1.00  0.00     0.023 C 
BRANCH  31  32
ATOM     32  C   UNL A   1      32.866  29.876  26.400  1.00  0.00     0.023 C 
BRANCH  32  33
ATOM     33  C   UNL A   1      33.637  31.559  27.625  1.00  0.00     0.116 C 
BRANCH  33  34
ATOM     34  N   UNL A   1      35.197  31.931  28.174  1.00  0.00    -0.352 N 
ATOM     35  C   UNL A   1      35.706  31.463  29.389  1.00  0.00     0.251 C 
ATOM     36  H   UNL A   1      35.769  32.501  27.613  1.00  0.00     0.163 HD
ATOM     37  O   UNL A   1      35.493  31.917  30.498  1.00  0.00    -0.269 OA
BRANCH  35  38
ATOM     38  C   UNL A   1      36.534  30.244  29.166  1.00  0.00     0.039 A 
ATOM     39  C   UNL A   1      36.696  29.389  30.264  1.00  0.00     0.014 A 
ATOM     40  C   UNL A   1      37.606  30.556  28.333  1.00  0.00     0.014 A 
ATOM     41  C   UNL A   1      37.984  29.081  30.687  1.00  0.00     0.010 A 
ATOM     42  C   UNL A   1      38.862  30.451  28.880  1.00  0.00     0.010 A 
ATOM     43  C   UNL A   1      39.048  29.727  30.066  1.00  0.00    -0.014 A 
BRANCH  43  44
ATOM     44  C   UNL A   1      40.442  29.562  30.425  1.00  0.00     0.031 A 
ATOM     45  C   UNL A   1      41.062  28.313  29.929  1.00  0.00     0.074 A 
ATOM     46  C   UNL A   1      41.146  30.535  31.047  1.00  0.00     0.049 A 
ATOM     47  N   UNL A   1      42.194  27.866  30.329  1.00  0.00    -0.248 NA
ATOM     48  C   UNL A   1      40.407  27.417  28.966  1.00  0.00     0.031 C 
ATOM     49  C   UNL A   1      42.598  30.614  31.203  1.00  0.00     0.029 A 
ATOM     50  N   UNL A   1      40.659  31.573  31.867  1.00  0.00    -0.354 N 
ATOM     51  C   UNL A   1      42.546  26.840  29.487  1.00  0.00     0.074 A 
ATOM     52  C   UNL A   1      41.365  26.517  28.742  1.00  0.00     0.031 C 
ATOM     53  C   UNL A   1      42.881  31.371  32.277  1.00  0.00     0.029 A 
ATOM     54  C   UNL A   1      41.615  31.685  32.914  1.00  0.00     0.049 A 
ATOM     55  H   UNL A   1      39.839  32.103  31.742  1.00  0.00     0.167 HD
ATOM     56  C   UNL A   1      43.853  26.488  29.436  1.00  0.00     0.037 A 
ATOM     57  C   UNL A   1      41.291  31.357  34.199  1.00  0.00     0.037 A 
ATOM     58  C   UNL A   1      44.545  27.011  30.612  1.00  0.00     0.049 A 
ATOM     59  C   UNL A   1      42.091  30.191  34.734  1.00  0.00     0.074 A 
ATOM     60  C   UNL A   1      45.400  28.078  30.821  1.00  0.00     0.029 A 
ATOM     61  N   UNL A   1      44.075  26.627  31.868  1.00  0.00    -0.354 N 
ATOM     62  N   UNL A   1      42.720  29.333  33.976  1.00  0.00    -0.248 NA
ATOM     63  C   UNL A   1      42.256  29.904  36.156  1.00  0.00     0.031 C 
ATOM     64  C   UNL A   1      45.324  28.418  32.204  1.00  0.00     0.029 A 
ATOM     65  C   UNL A   1      44.478  27.522  32.840  1.00  0.00     0.049 A 
ATOM     66  H   UNL A   1      43.530  25.826  32.039  1.00  0.00     0.167 HD
ATOM     67  C   UNL A   1      43.345  28.397  34.758  1.00  0.00     0.074 A 
ATOM     68  C   UNL A   1      43.036  28.811  36.116  1.00  0.00     0.031 C 
ATOM     69  C   UNL A   1      44.052  27.354  34.227  1.00  0.00     0.037 A 
BRANCH  56  70
ATOM     70  C   UNL A   1      44.522  25.843  28.249  1.00  0.00     0.064 A 
ATOM     71  C   UNL A   1      44.828  26.620  27.114  1.00  0.00     0.173 A 
ATOM     72  C   UNL A   1      44.755  24.456  28.097  1.00  0.00     0.173 A 
ATOM     73  F   UNL A   1      44.625  27.945  27.112  1.00  0.00    -0.203 F 
ATOM     74  C   UNL A   1      45.323  26.056  25.932  1.00  0.00     0.198 A 
ATOM     75  C   UNL A   1      45.303  23.903  26.936  1.00  0.00     0.198 A 
ATOM     76  F   UNL A   1      44.404  23.562  29.027  1.00  0.00    -0.203 F 
ATOM     77  F   UNL A   1      45.541  26.836  24.865  1.00  0.00    -0.200 F 
ATOM     78  C   UNL A   1      45.575  24.701  25.849  1.00  0.00     0.200 A 
ATOM     79  F   UNL A   1      45.530  22.582  26.876  1.00  0.00    -0.200 F 
ATOM     80  F   UNL A   1      46.054  24.162  24.720  1.00  0.00    -0.200 F 
ENDBRANCH  56  70
BRANCH  57  81
ATOM     81  C   UNL A   1      39.874  31.695  34.514  1.00  0.00     0.064 A 
ATOM     82  C   UNL A   1      39.594  33.052  34.777  1.00  0.00     0.173 A 
ATOM     83  C   UNL A   1      38.817  30.893  34.067  1.00  0.00     0.173 A 
ATOM     84  F   UNL A   1      40.570  33.863  35.219  1.00  0.00    -0.203 F 
ATOM     85  C   UNL A   1      38.375  33.622  34.417  1.00  0.00     0.198 A 
ATOM     86  C   UNL A   1      37.582  31.464  33.740  1.00  0.00     0.198 A 
ATOM     87  F   UNL A   1      39.016  29.595  33.799  1.00  0.00    -0.203 F 
ATOM     88  F   UNL A   1      38.209  34.950  34.501  1.00  0.00    -0.200 F 
ATOM     89  C   UNL A   1      37.384  32.833  33.860  1.00  0.00     0.200 A 
ATOM     90  F   UNL A   1      36.618  30.706  33.199  1.00  0.00    -0.200 F 
ATOM     91  F   UNL A   1      36.266  33.399  33.385  1.00  0.00    -0.200 F 
ENDBRANCH  57  81
BRANCH  69  92
ATOM     92  C   UNL A   1      44.472  26.105  34.979  1.00  0.00     0.064 A 
ATOM     93  C   UNL A   1      43.819  24.864  34.875  1.00  0.00     0.173 A 
ATOM     94  C   UNL A   1      45.676  26.088  35.727  1.00  0.00     0.173 A 
ATOM     95  F   UNL A   1      42.752  24.696  34.084  1.00  0.00    -0.203 F 
ATOM     96  C   UNL A   1      44.284  23.722  35.533  1.00  0.00     0.198 A 
ATOM     97  C   UNL A   1      46.178  24.929  36.318  1.00  0.00     0.198 A 
ATOM     98  F   UNL A   1      46.424  27.190  35.883  1.00  0.00    -0.203 F 
ATOM     99  F   UNL A   1      43.588  22.579  35.447  1.00  0.00    -0.200 F 
ATOM    100  C   UNL A   1      45.469  23.750  36.242  1.00  0.00     0.200 A 
ATOM    101  F   UNL A   1      47.364  24.960  36.941  1.00  0.00    -0.200 F 
ATOM    102  F   UNL A   1      45.938  22.640  36.828  1.00  0.00    -0.200 F 
ENDBRANCH  69  92
ENDBRANCH  43  44
ENDBRANCH  35  38
ENDBRANCH  33  34
ENDBRANCH  32  33
ENDBRANCH  31  32
ENDBRANCH   1  31
TORSDOF 16
ENDMDL
MODEL 2
REMARK VINA RESULT:     -14.0      3.289      9.453
REMARK SMILES Cc1ccccc1NC(=S)NN1C(=O)CS[C@H]1c1ccccc1C(=O)NCCCCNC(=O)c1ccc(-c2c3nc(c(-c4c(F)c(F)c(F)c(F)c4F)c4ccc([nH]4)c(-c4c(F)c(F)c(F)c(F)c4F)c4nc(c(-c5c(F)c(F)c(F)c(F)c5F)c5ccc2[nH]5)C=C4)C=C3)cc1
REMARK SMILES IDX 27 1 26 2 24 3 25 4 23 6 18 7 19 8 20 9 22 10 21 11 17 12
REMARK SMILES IDX 12 13 13 14 14 15 15 16 16 17 11 18 9 20 10 21 8 22 7 24
REMARK SMILES IDX 1 25 2 26 3 27 4 28 6 29 5 30 28 31 29 32 30 33 31 34 32 35
REMARK SMILES IDX 33 37 34 38 35 39 96 40 36 41 95 42 37 43 38 44 39 45 89 46
REMARK SMILES IDX 40 47 94 48 88 49 90 50 41 51 93 52 87 53 86 54 42 56 74 57
REMARK SMILES IDX 54 58 73 59 55 60 58 61 72 62 91 63 56 64 57 65 71 67 92 68
REMARK SMILES IDX 59 69 43 70 44 71 52 72 45 73 46 74 50 75 53 76 47 77 48 78
REMARK SMILES IDX 51 79 49 80 75 81 76 82 84 83 77 84 78 85 82 86 85 87 79 88
REMARK SMILES IDX 80 89 83 90 81 91 60 92 61 93 69 94 62 95 63 96 67 97 70 98
REMARK SMILES IDX 64 99 65 100 68 101 66 102
REMARK H PARENT 26 5 11 19 8 23 31 36 90 55 58 66
REMARK Flexibility Score: inf
ROOT
ATOM      1  C   UNL A   1      33.866  23.865  22.012  1.00  0.00     0.116 C 
ENDROOT
BRANCH   1   2
ATOM      2  N   UNL A   1      32.308  23.777  22.456  1.00  0.00    -0.352 N 
ATOM      3  C   UNL A   1      31.706  23.044  23.433  1.00  0.00     0.251 C 
ATOM      4  O   UNL A   1      30.491  22.957  23.535  1.00  0.00    -0.269 OA
ATOM      5  H   UNL A   1      31.699  24.347  21.934  1.00  0.00     0.163 HD
BRANCH   3   6
ATOM      6  C   UNL A   1      32.613  22.439  24.402  1.00  0.00     0.046 A 
ATOM      7  C   UNL A   1      32.742  22.983  25.691  1.00  0.00    -0.001 A 
ATOM      8  C   UNL A   1      33.134  22.061  26.691  1.00  0.00     0.007 A 
ATOM      9  C   UNL A   1      33.452  20.721  26.380  1.00  0.00     0.000 A 
ATOM     10  C   UNL A   1      33.049  21.144  24.062  1.00  0.00     0.014 A 
ATOM     11  C   UNL A   1      33.469  20.280  25.060  1.00  0.00     0.001 A 
BRANCH   7  12
ATOM     12  C   UNL A   1      32.325  24.483  26.040  1.00  0.00     0.197 C 
ATOM     13  N   UNL A   1      32.472  25.836  24.736  1.00  0.00    -0.236 N 
ATOM     14  C   UNL A   1      31.041  26.322  23.838  1.00  0.00     0.252 C 
ATOM     15  O   UNL A   1      31.265  26.774  22.736  1.00  0.00    -0.272 OA
ATOM     16  C   UNL A   1      29.298  25.638  24.725  1.00  0.00     0.174 C 
ATOM     17  S   UNL A   1      30.023  24.224  26.521  1.00  0.00    -0.120 SA
BRANCH  13  18
ATOM     18  N   UNL A   1      33.680  26.578  24.341  1.00  0.00    -0.270 N 
ATOM     19  H   UNL A   1      34.313  26.103  23.757  1.00  0.00     0.191 HD
BRANCH  18  20
ATOM     20  C   UNL A   1      34.035  27.903  24.711  1.00  0.00     0.189 C 
ATOM     21  S   UNL A   1      34.029  29.044  23.444  1.00  0.00    -0.039 S 
BRANCH  20  22
ATOM     22  N   UNL A   1      34.377  28.399  25.995  1.00  0.00    -0.331 N 
ATOM     23  H   UNL A   1      35.059  27.865  26.462  1.00  0.00     0.169 HD
BRANCH  22  24
ATOM     24  C   UNL A   1      33.895  29.584  26.773  1.00  0.00     0.043 A 
ATOM     25  C   UNL A   1      31.401  28.496  26.771  1.00  0.00     0.046 C 
ATOM     26  C   UNL A   1      32.157  29.798  26.608  1.00  0.00    -0.028 A 
ATOM     27  C   UNL A   1      31.400  31.409  26.827  1.00  0.00     0.005 A 
ATOM     28  C   UNL A   1      32.361  32.832  27.378  1.00  0.00     0.000 A 
ATOM     29  C   UNL A   1      34.887  31.000  27.426  1.00  0.00     0.026 A 
ATOM     30  C   UNL A   1      34.143  32.656  27.626  1.00  0.00     0.002 A 
ENDBRANCH  22  24
ENDBRANCH  20  22
ENDBRANCH  18  20
ENDBRANCH  13  18
ENDBRANCH   7  12
ENDBRANCH   3   6
ENDBRANCH   1   2
BRANCH   1  31
ATOM     31  C   UNL A   1      35.656  23.652  23.315  1.00  0.00     0.023 C 
BRANCH  31  32
ATOM     32  C   UNL A   1      36.647  22.186  24.232  1.00  0.00     0.023 C 
BRANCH  32  33
ATOM     33  C   UNL A   1      38.183  21.507  25.684  1.00  0.00     0.116 C 
BRANCH  33  34
ATOM     34  N   UNL A   1      39.052  22.340  26.876  1.00  0.00    -0.352 N 
ATOM     35  C   UNL A   1      40.095  23.222  26.579  1.00  0.00     0.251 C 
ATOM     36  H   UNL A   1      38.812  22.197  27.820  1.00  0.00     0.163 HD
ATOM     37  O   UNL A   1      41.247  22.935  26.314  1.00  0.00    -0.269 OA
BRANCH  35  38
ATOM     38  C   UNL A   1      39.594  24.626  26.563  1.00  0.00     0.039 A 
ATOM     39  C   UNL A   1      40.441  25.585  25.992  1.00  0.00     0.014 A 
ATOM     40  C   UNL A   1      38.905  24.888  27.746  1.00  0.00     0.014 A 
ATOM     41  C   UNL A   1      40.813  26.687  26.755  1.00  0.00     0.010 A 
ATOM     42  C   UNL A   1      39.449  25.835  28.578  1.00  0.00     0.010 A 
ATOM     43  C   UNL A   1      40.414  26.725  28.088  1.00  0.00    -0.014 A 
BRANCH  43  44
ATOM     44  C   UNL A   1      40.765  27.769  29.028  1.00  0.00     0.031 A 
ATOM     45  C   UNL A   1      39.865  28.943  29.009  1.00  0.00     0.074 A 
ATOM     46  C   UNL A   1      41.755  27.617  29.937  1.00  0.00     0.049 A 
ATOM     47  N   UNL A   1      40.129  30.060  29.580  1.00  0.00    -0.248 NA
ATOM     48  C   UNL A   1      38.593  28.971  28.273  1.00  0.00     0.031 C 
ATOM     49  C   UNL A   1      42.017  28.453  31.109  1.00  0.00     0.029 A 
ATOM     50  N   UNL A   1      42.880  26.772  29.866  1.00  0.00    -0.354 N 
ATOM     51  C   UNL A   1      38.980  30.810  29.555  1.00  0.00     0.074 A 
ATOM     52  C   UNL A   1      38.098  30.154  28.636  1.00  0.00     0.031 C 
ATOM     53  C   UNL A   1      43.314  28.344  31.441  1.00  0.00     0.029 A 
ATOM     54  C   UNL A   1      43.945  27.540  30.411  1.00  0.00     0.049 A 
ATOM     55  H   UNL A   1      42.920  25.852  29.515  1.00  0.00     0.167 HD
ATOM     56  C   UNL A   1      38.876  31.831  30.441  1.00  0.00     0.037 A 
ATOM     57  C   UNL A   1      44.983  27.958  29.628  1.00  0.00     0.037 A 
ATOM     58  C   UNL A   1      40.202  32.168  30.954  1.00  0.00     0.049 A 
ATOM     59  C   UNL A   1      45.075  29.463  29.518  1.00  0.00     0.074 A 
ATOM     60  C   UNL A   1      40.856  31.918  32.145  1.00  0.00     0.029 A 
ATOM     61  N   UNL A   1      41.182  32.535  30.031  1.00  0.00    -0.354 N 
ATOM     62  N   UNL A   1      44.084  30.273  29.782  1.00  0.00    -0.248 NA
ATOM     63  C   UNL A   1      46.284  30.175  29.114  1.00  0.00     0.031 C 
ATOM     64  C   UNL A   1      42.257  32.002  31.886  1.00  0.00     0.029 A 
ATOM     65  C   UNL A   1      42.446  32.363  30.561  1.00  0.00     0.049 A 
ATOM     66  H   UNL A   1      40.999  32.871  29.125  1.00  0.00     0.167 HD
ATOM     67  C   UNL A   1      44.482  31.569  29.584  1.00  0.00     0.074 A 
ATOM     68  C   UNL A   1      45.873  31.453  29.182  1.00  0.00     0.031 C 
ATOM     69  C   UNL A   1      43.634  32.628  29.752  1.00  0.00     0.037 A 
BRANCH  56  70
ATOM     70  C   UNL A   1      37.574  32.382  30.965  1.00  0.00     0.064 A 
ATOM     71  C   UNL A   1      36.791  33.219  30.146  1.00  0.00     0.173 A 
ATOM     72  C   UNL A   1      37.109  32.253  32.294  1.00  0.00     0.173 A 
ATOM     73  F   UNL A   1      37.136  33.451  28.871  1.00  0.00    -0.203 F 
ATOM     74  C   UNL A   1      35.644  33.868  30.617  1.00  0.00     0.198 A 
ATOM     75  C   UNL A   1      35.934  32.856  32.748  1.00  0.00     0.198 A 
ATOM     76  F   UNL A   1      37.798  31.599  33.236  1.00  0.00    -0.203 F 
ATOM     77  F   UNL A   1      34.971  34.698  29.810  1.00  0.00    -0.200 F 
ATOM     78  C   UNL A   1      35.207  33.675  31.913  1.00  0.00     0.200 A 
ATOM     79  F   UNL A   1      35.535  32.662  34.014  1.00  0.00    -0.200 F 
ATOM     80  F   UNL A   1      34.107  34.293  32.364  1.00  0.00    -0.200 F 
ENDBRANCH  56  70
BRANCH  57  81
ATOM     81  C   UNL A   1      45.318  26.957  28.576  1.00  0.00     0.064 A 
ATOM     82  C   UNL A   1      44.936  27.277  27.257  1.00  0.00     0.173 A 
ATOM     83  C   UNL A   1      46.377  26.055  28.741  1.00  0.00     0.173 A 
ATOM     84  F   UNL A   1      43.918  28.127  27.044  1.00  0.00    -0.203 F 
ATOM     85  C   UNL A   1      45.702  26.876  26.165  1.00  0.00     0.198 A 
ATOM     86  C   UNL A   1      47.122  25.627  27.636  1.00  0.00     0.198 A 
ATOM     87  F   UNL A   1      46.790  25.709  29.968  1.00  0.00    -0.203 F 
ATOM     88  F   UNL A   1      45.423  27.355  24.943  1.00  0.00    -0.200 F 
ATOM     89  C   UNL A   1      46.819  26.085  26.361  1.00  0.00     0.200 A 
ATOM     90  F   UNL A   1      48.207  24.861  27.819  1.00  0.00    -0.200 F 
ATOM     91  F   UNL A   1      47.636  25.814  25.333  1.00  0.00    -0.200 F 
ENDBRANCH  57  81
BRANCH  69  92
ATOM     92  C   UNL A   1      43.870  34.033  29.232  1.00  0.00     0.064 A 
ATOM     93  C   UNL A   1      43.928  34.372  27.869  1.00  0.00     0.173 A 
ATOM     94  C   UNL A   1      43.890  35.135  30.125  1.00  0.00     0.173 A 
ATOM     95  F   UNL A   1      43.774  33.451  26.910  1.00  0.00    -0.203 F 
ATOM     96  C   UNL A   1      44.078  35.693  27.437  1.00  0.00     0.198 A 
ATOM     97  C   UNL A   1      43.962  36.457  29.686  1.00  0.00     0.198 A 
ATOM     98  F   UNL A   1      43.807  34.968  31.453  1.00  0.00    -0.203 F 
ATOM     99  F   UNL A   1      44.188  35.951  26.126  1.00  0.00    -0.200 F 
ATOM    100  C   UNL A   1      44.082  36.735  28.342  1.00  0.00     0.200 A 
ATOM    101  F   UNL A   1      43.892  37.458  30.576  1.00  0.00    -0.200 F 
ATOM    102  F   UNL A   1      44.173  38.003  27.920  1.00  0.00    -0.200 F 
ENDBRANCH  69  92
ENDBRANCH  43  44
ENDBRANCH  35  38
ENDBRANCH  33  34
ENDBRANCH  32  33
ENDBRANCH  31  32
ENDBRANCH   1  31
TORSDOF 16
ENDMDL
MODEL 3
REMARK VINA RESULT:     -13.9      5.196     12.649
REMARK SMILES Cc1ccccc1NC(=S)NN1C(=O)CS[C@H]1c1ccccc1C(=O)NCCCCNC(=O)c1ccc(-c2c3nc(c(-c4c(F)c(F)c(F)c(F)c4F)c4ccc([nH]4)c(-c4c(F)c(F)c(F)c(F)c4F)c4nc(c(-c5c(F)c(F)c(F)c(F)c5F)c5ccc2[nH]5)C=C4)C=C3)cc1
REMARK SMILES IDX 27 1 26 2 24 3 25 4 23 6 18 7 19 8 20 9 22 10 21 11 17 12
REMARK SMILES IDX 12 13 13 14 14 15 15 16 16 17 11 18 9 20 10 21 8 22 7 24
REMARK SMILES IDX 1 25 2 26 3 27 4 28 6 29 5 30 28 31 29 32 30 33 31 34 32 35
REMARK SMILES IDX 33 37 34 38 35 39 96 40 36 41 95 42 37 43 38 44 39 45 89 46
REMARK SMILES IDX 40 47 94 48 88 49 90 50 41 51 93 52 87 53 86 54 42 56 74 57
REMARK SMILES IDX 54 58 73 59 55 60 58 61 72 62 91 63 56 64 57 65 71 67 92 68
REMARK SMILES IDX 59 69 43 70 44 71 52 72 45 73 46 74 50 75 53 76 47 77 48 78
REMARK SMILES IDX 51 79 49 80 75 81 76 82 84 83 77 84 78 85 82 86 85 87 79 88
REMARK SMILES IDX 80 89 83 90 81 91 60 92 61 93 69 94 62 95 63 96 67 97 70 98
REMARK SMILES IDX 64 99 65 100 68 101 66 102
REMARK H PARENT 26 5 11 19 8 23 31 36 90 55 58 66
REMARK Flexibility Score: inf
ROOT
ATOM      1  C   UNL A   1      43.922  22.778  33.297  1.00  0.00     0.116 C 
ENDROOT
BRANCH   1   2
ATOM      2  N   UNL A   1      42.857  23.297  34.405  1.00  0.00    -0.352 N 
ATOM      3  C   UNL A   1      42.977  24.249  35.371  1.00  0.00     0.251 C 
ATOM      4  O   UNL A   1      42.137  24.410  36.244  1.00  0.00    -0.269 OA
ATOM      5  H   UNL A   1      41.980  22.850  34.374  1.00  0.00     0.163 HD
BRANCH   3   6
ATOM      6  C   UNL A   1      44.138  25.123  35.239  1.00  0.00     0.046 A 
ATOM      7  C   UNL A   1      45.281  24.912  36.028  1.00  0.00    -0.001 A 
ATOM      8  C   UNL A   1      46.492  25.371  35.458  1.00  0.00     0.007 A 
ATOM      9  C   UNL A   1      46.517  26.068  34.230  1.00  0.00     0.000 A 
ATOM     10  C   UNL A   1      44.135  25.925  34.082  1.00  0.00     0.014 A 
ATOM     11  C   UNL A   1      45.334  26.397  33.575  1.00  0.00     0.001 A 
BRANCH   7  12
ATOM     12  C   UNL A   1      45.249  24.073  37.386  1.00  0.00     0.197 C 
ATOM     13  N   UNL A   1      46.719  22.998  37.872  1.00  0.00    -0.236 N 
ATOM     14  C   UNL A   1      47.889  23.617  39.027  1.00  0.00     0.252 C 
ATOM     15  O   UNL A   1      49.004  23.154  38.915  1.00  0.00    -0.272 OA
ATOM     16  C   UNL A   1      47.177  25.276  40.043  1.00  0.00     0.174 C 
ATOM     17  S   UNL A   1      45.086  25.801  38.994  1.00  0.00    -0.120 SA
BRANCH  13  18
ATOM     18  N   UNL A   1      47.042  21.645  37.391  1.00  0.00    -0.270 N 
ATOM     19  H   UNL A   1      46.620  20.898  37.872  1.00  0.00     0.191 HD
BRANCH  18  20
ATOM     20  C   UNL A   1      47.895  21.298  36.309  1.00  0.00     0.189 C 
ATOM     21  S   UNL A   1      47.105  20.763  34.896  1.00  0.00    -0.039 S 
BRANCH  20  22
ATOM     22  N   UNL A   1      49.311  21.353  36.250  1.00  0.00    -0.331 N 
ATOM     23  H   UNL A   1      49.720  21.917  36.945  1.00  0.00     0.169 HD
BRANCH  22  24
ATOM     24  C   UNL A   1      50.301  20.712  35.328  1.00  0.00     0.043 A 
ATOM     25  C   UNL A   1      50.970  18.998  37.333  1.00  0.00     0.046 C 
ATOM     26  C   UNL A   1      51.547  19.849  36.221  1.00  0.00    -0.028 A 
ATOM     27  C   UNL A   1      53.167  19.567  35.506  1.00  0.00     0.005 A 
ATOM     28  C   UNL A   1      53.531  20.012  33.796  1.00  0.00     0.000 A 
ATOM     29  C   UNL A   1      50.615  21.094  33.547  1.00  0.00     0.026 A 
ATOM     30  C   UNL A   1      52.267  20.844  32.809  1.00  0.00     0.002 A 
ENDBRANCH  22  24
ENDBRANCH  20  22
ENDBRANCH  18  20
ENDBRANCH  13  18
ENDBRANCH   7  12
ENDBRANCH   3   6
ENDBRANCH   1   2
BRANCH   1  31
ATOM     31  C   UNL A   1      44.126  23.466  31.193  1.00  0.00     0.023 C 
BRANCH  31  32
ATOM     32  C   UNL A   1      43.161  23.235  29.464  1.00  0.00     0.023 C 
BRANCH  32  33
ATOM     33  C   UNL A   1      43.057  23.489  27.261  1.00  0.00     0.116 C 
BRANCH  33  34
ATOM     34  N   UNL A   1      41.760  23.385  26.175  1.00  0.00    -0.352 N 
ATOM     35  C   UNL A   1      40.432  23.243  26.588  1.00  0.00     0.251 C 
ATOM     36  H   UNL A   1      41.951  23.427  25.211  1.00  0.00     0.163 HD
ATOM     37  O   UNL A   1      39.878  22.218  26.937  1.00  0.00    -0.269 OA
BRANCH  35  38
ATOM     38  C   UNL A   1      39.755  24.570  26.612  1.00  0.00     0.039 A 
ATOM     39  C   UNL A   1      40.446  25.636  26.021  1.00  0.00     0.014 A 
ATOM     40  C   UNL A   1      39.087  24.730  27.825  1.00  0.00     0.014 A 
ATOM     41  C   UNL A   1      40.705  26.769  26.784  1.00  0.00     0.010 A 
ATOM     42  C   UNL A   1      39.539  25.733  28.648  1.00  0.00     0.010 A 
ATOM     43  C   UNL A   1      40.360  26.744  28.132  1.00  0.00    -0.014 A 
BRANCH  43  44
ATOM     44  C   UNL A   1      40.612  27.816  29.072  1.00  0.00     0.031 A 
ATOM     45  C   UNL A   1      39.713  28.983  28.932  1.00  0.00     0.074 A 
ATOM     46  C   UNL A   1      41.509  27.696  30.078  1.00  0.00     0.049 A 
ATOM     47  N   UNL A   1      39.915  30.117  29.494  1.00  0.00    -0.248 NA
ATOM     48  C   UNL A   1      38.520  28.981  28.074  1.00  0.00     0.031 C 
ATOM     49  C   UNL A   1      41.651  28.567  31.245  1.00  0.00     0.029 A 
ATOM     50  N   UNL A   1      42.639  26.857  30.141  1.00  0.00    -0.354 N 
ATOM     51  C   UNL A   1      38.770  30.858  29.335  1.00  0.00     0.074 A 
ATOM     52  C   UNL A   1      37.987  30.170  28.353  1.00  0.00     0.031 C 
ATOM     53  C   UNL A   1      42.910  28.476  31.706  1.00  0.00     0.029 A 
ATOM     54  C   UNL A   1      43.642  27.649  30.766  1.00  0.00     0.049 A 
ATOM     55  H   UNL A   1      42.718  25.929  29.823  1.00  0.00     0.167 HD
ATOM     56  C   UNL A   1      38.576  31.902  30.177  1.00  0.00     0.037 A 
ATOM     57  C   UNL A   1      44.750  28.052  30.077  1.00  0.00     0.037 A 
ATOM     58  C   UNL A   1      39.843  32.263  30.808  1.00  0.00     0.049 A 
ATOM     59  C   UNL A   1      44.846  29.554  29.933  1.00  0.00     0.074 A 
ATOM     60  C   UNL A   1      40.379  32.051  32.064  1.00  0.00     0.029 A 
ATOM     61  N   UNL A   1      40.908  32.611  29.976  1.00  0.00    -0.354 N 
ATOM     62  N   UNL A   1      43.831  30.364  30.076  1.00  0.00    -0.248 NA
ATOM     63  C   UNL A   1      46.086  30.263  29.630  1.00  0.00     0.031 C 
ATOM     64  C   UNL A   1      41.797  32.137  31.941  1.00  0.00     0.029 A 
ATOM     65  C   UNL A   1      42.115  32.463  30.632  1.00  0.00     0.049 A 
ATOM     66  H   UNL A   1      40.813  32.921  29.046  1.00  0.00     0.167 HD
ATOM     67  C   UNL A   1      44.240  31.656  29.881  1.00  0.00     0.074 A 
ATOM     68  C   UNL A   1      45.664  31.539  29.621  1.00  0.00     0.031 C 
ATOM     69  C   UNL A   1      43.375  32.713  29.935  1.00  0.00     0.037 A 
BRANCH  56  70
ATOM     70  C   UNL A   1      37.227  32.458  30.555  1.00  0.00     0.064 A 
ATOM     71  C   UNL A   1      36.570  33.348  29.683  1.00  0.00     0.173 A 
ATOM     72  C   UNL A   1      36.592  32.280  31.807  1.00  0.00     0.173 A 
ATOM     73  F   UNL A   1      37.080  33.631  28.476  1.00  0.00    -0.203 F 
ATOM     74  C   UNL A   1      35.383  34.001  30.034  1.00  0.00     0.198 A 
ATOM     75  C   UNL A   1      35.377  32.889  32.134  1.00  0.00     0.198 A 
ATOM     76  F   UNL A   1      37.142  31.569  32.797  1.00  0.00    -0.203 F 
ATOM     77  F   UNL A   1      34.834  34.882  29.187  1.00  0.00    -0.200 F 
ATOM     78  C   UNL A   1      34.779  33.760  31.253  1.00  0.00     0.200 A 
ATOM     79  F   UNL A   1      34.815  32.646  33.327  1.00  0.00    -0.200 F 
ATOM     80  F   UNL A   1      33.640  34.382  31.587  1.00  0.00    -0.200 F 
ENDBRANCH  56  70
BRANCH  57  81
ATOM     81  C   UNL A   1      45.191  27.024  29.092  1.00  0.00     0.064 A 
ATOM     82  C   UNL A   1      44.856  27.260  27.742  1.00  0.00     0.173 A 
ATOM     83  C   UNL A   1      46.289  26.194  29.349  1.00  0.00     0.173 A 
ATOM     84  F   UNL A   1      43.804  28.040  27.441  1.00  0.00    -0.203 F 
ATOM     85  C   UNL A   1      45.695  26.854  26.707  1.00  0.00     0.198 A 
ATOM     86  C   UNL A   1      47.110  25.759  28.301  1.00  0.00     0.198 A 
ATOM     87  F   UNL A   1      46.661  25.930  30.609  1.00  0.00    -0.203 F 
ATOM     88  F   UNL A   1      45.450  27.260  25.452  1.00  0.00    -0.200 F 
ATOM     89  C   UNL A   1      46.844  26.139  26.993  1.00  0.00     0.200 A 
ATOM     90  F   UNL A   1      48.226  25.067  28.571  1.00  0.00    -0.200 F 
ATOM     91  F   UNL A   1      47.724  25.869  26.018  1.00  0.00    -0.200 F 
ENDBRANCH  57  81
BRANCH  69  92
ATOM     92  C   UNL A   1      43.654  34.106  29.402  1.00  0.00     0.064 A 
ATOM     93  C   UNL A   1      43.843  34.407  28.042  1.00  0.00     0.173 A 
ATOM     94  C   UNL A   1      43.583  35.232  30.261  1.00  0.00     0.173 A 
ATOM     95  F   UNL A   1      43.788  33.459  27.098  1.00  0.00    -0.203 F 
ATOM     96  C   UNL A   1      44.030  35.716  27.589  1.00  0.00     0.198 A 
ATOM     97  C   UNL A   1      43.692  36.542  29.794  1.00  0.00     0.198 A 
ATOM     98  F   UNL A   1      43.372  35.101  31.578  1.00  0.00    -0.203 F 
ATOM     99  F   UNL A   1      44.265  35.939  26.288  1.00  0.00    -0.200 F 
ATOM    100  C   UNL A   1      43.941  36.783  28.461  1.00  0.00     0.200 A 
ATOM    101  F   UNL A   1      43.532  37.566  30.644  1.00  0.00    -0.200 F 
ATOM    102  F   UNL A   1      44.068  38.040  28.014  1.00  0.00    -0.200 F 
ENDBRANCH  69  92
ENDBRANCH  43  44
ENDBRANCH  35  38
ENDBRANCH  33  34
ENDBRANCH  32  33
ENDBRANCH  31  32
ENDBRANCH   1  31
TORSDOF 16
ENDMDL
