MODEL 1
REMARK VINA RESULT:     -13.7      0.000      0.000
REMARK SMILES O=C(NCCCCNC(=O)[C@H](c1c[nH]c2cc(F)ccc12)[NH+]1CCN(c2ccccc2)CC1)c1ccc(-c2c3nc(c(-c4c(F)c(F)c(F)c(F)c4F)c4ccc([nH]4)c(-c4c(F)c(F)c(F)c(F)c4F)c4nc(c(-c5c(F)c(F)c(F)c(F)c5F)c5ccc2[nH]5)C=C4)C=C3)cc1
REMARK SMILES IDX 5 1 4 2 3 3 1 4 2 5 34 7 35 8 96 9 36 10 95 11 37 12 38 13
REMARK SMILES IDX 39 14 89 15 40 16 94 17 88 18 90 19 41 20 93 21 87 22 86 23
REMARK SMILES IDX 42 25 74 26 54 27 73 28 55 29 58 30 72 31 91 32 56 33 57 34
REMARK SMILES IDX 71 36 92 37 59 38 43 39 44 40 52 41 45 42 46 43 50 44 53 45
REMARK SMILES IDX 47 46 48 47 51 48 49 49 75 50 76 51 84 52 77 53 78 54 82 55
REMARK SMILES IDX 85 56 79 57 80 58 83 59 81 60 60 61 61 62 69 63 62 64 63 65
REMARK SMILES IDX 67 66 70 67 64 68 65 69 68 70 66 71 6 72 7 73 8 74 9 75
REMARK SMILES IDX 10 77 11 78 22 79 23 80 33 81 24 83 32 84 25 85 26 86 27 87
REMARK SMILES IDX 31 88 28 89 30 90 29 91 12 92 13 93 21 94 14 95 15 96 20 97
REMARK SMILES IDX 16 99 19 100 17 101 18 102
REMARK H PARENT 3 6 90 24 58 35 8 76 22 82 14 98
REMARK Flexibility Score: inf
ROOT
ATOM      1  C   UNL A   1      32.515  28.305  25.802  1.00  0.00     0.023 C 
ENDROOT
BRANCH   1   2
ATOM      2  C   UNL A   1      33.343  29.495  25.377  1.00  0.00     0.116 C 
BRANCH   2   3
ATOM      3  N   UNL A   1      32.817  30.753  25.899  1.00  0.00    -0.352 N 
ATOM      4  O   UNL A   1      32.530  32.432  27.381  1.00  0.00    -0.269 OA
ATOM      5  C   UNL A   1      33.228  31.508  26.972  1.00  0.00     0.251 C 
ATOM      6  H   UNL A   1      32.048  31.118  25.405  1.00  0.00     0.163 HD
BRANCH   5   7
ATOM      7  C   UNL A   1      34.503  31.188  27.648  1.00  0.00     0.039 A 
ATOM      8  C   UNL A   1      34.685  29.933  28.221  1.00  0.00     0.014 A 
ATOM      9  C   UNL A   1      35.521  32.143  27.731  1.00  0.00     0.014 A 
ATOM     10  C   UNL A   1      35.743  29.719  29.083  1.00  0.00     0.010 A 
ATOM     11  C   UNL A   1      36.685  31.851  28.449  1.00  0.00     0.010 A 
ATOM     12  C   UNL A   1      36.790  30.647  29.163  1.00  0.00    -0.014 A 
BRANCH  12  13
ATOM     13  C   UNL A   1      38.007  30.259  29.922  1.00  0.00     0.031 A 
ATOM     14  C   UNL A   1      38.221  30.689  31.344  1.00  0.00     0.074 A 
ATOM     15  C   UNL A   1      38.894  29.448  29.311  1.00  0.00     0.049 A 
ATOM     16  N   UNL A   1      39.219  30.409  32.143  1.00  0.00    -0.248 NA
ATOM     17  C   UNL A   1      37.197  31.555  31.946  1.00  0.00     0.031 C 
ATOM     18  C   UNL A   1      38.786  28.971  27.927  1.00  0.00     0.029 A 
ATOM     19  N   UNL A   1      40.033  28.843  29.773  1.00  0.00    -0.354 N 
ATOM     20  C   UNL A   1      38.963  31.086  33.328  1.00  0.00     0.074 A 
ATOM     21  C   UNL A   1      37.725  31.812  33.136  1.00  0.00     0.031 C 
ATOM     22  C   UNL A   1      39.753  28.080  27.686  1.00  0.00     0.029 A 
ATOM     23  C   UNL A   1      40.620  28.008  28.852  1.00  0.00     0.049 A 
ATOM     24  H   UNL A   1      40.395  28.991  30.676  1.00  0.00     0.167 HD
ATOM     25  C   UNL A   1      39.698  31.097  34.466  1.00  0.00     0.037 A 
ATOM     26  C   UNL A   1      41.750  27.286  28.922  1.00  0.00     0.037 A 
ATOM     27  C   UNL A   1      40.922  30.354  34.643  1.00  0.00     0.049 A 
ATOM     28  C   UNL A   1      42.558  27.350  30.183  1.00  0.00     0.074 A 
ATOM     29  C   UNL A   1      41.729  30.273  35.764  1.00  0.00     0.029 A 
ATOM     30  N   UNL A   1      41.518  29.566  33.668  1.00  0.00    -0.354 N 
ATOM     31  N   UNL A   1      42.298  27.984  31.300  1.00  0.00    -0.248 NA
ATOM     32  C   UNL A   1      43.825  26.610  30.187  1.00  0.00     0.031 C 
ATOM     33  C   UNL A   1      42.842  29.487  35.448  1.00  0.00     0.029 A 
ATOM     34  C   UNL A   1      42.697  29.019  34.153  1.00  0.00     0.049 A 
ATOM     35  H   UNL A   1      41.156  29.416  32.764  1.00  0.00     0.167 HD
ATOM     36  C   UNL A   1      43.356  27.704  32.150  1.00  0.00     0.074 A 
ATOM     37  C   UNL A   1      44.249  26.821  31.424  1.00  0.00     0.031 C 
ATOM     38  C   UNL A   1      43.572  28.141  33.414  1.00  0.00     0.037 A 
BRANCH  25  39
ATOM     39  C   UNL A   1      39.223  31.968  35.597  1.00  0.00     0.064 A 
ATOM     40  C   UNL A   1      39.563  33.326  35.687  1.00  0.00     0.173 A 
ATOM     41  C   UNL A   1      38.389  31.438  36.596  1.00  0.00     0.173 A 
ATOM     42  F   UNL A   1      40.365  33.884  34.769  1.00  0.00    -0.203 F 
ATOM     43  C   UNL A   1      39.112  34.111  36.747  1.00  0.00     0.198 A 
ATOM     44  C   UNL A   1      37.913  32.233  37.635  1.00  0.00     0.198 A 
ATOM     45  F   UNL A   1      38.025  30.146  36.558  1.00  0.00    -0.203 F 
ATOM     46  F   UNL A   1      39.496  35.392  36.841  1.00  0.00    -0.200 F 
ATOM     47  C   UNL A   1      38.284  33.566  37.716  1.00  0.00     0.200 A 
ATOM     48  F   UNL A   1      37.100  31.707  38.561  1.00  0.00    -0.200 F 
ATOM     49  F   UNL A   1      37.848  34.324  38.732  1.00  0.00    -0.200 F 
ENDBRANCH  25  39
BRANCH  26  50
ATOM     50  C   UNL A   1      42.183  26.467  27.759  1.00  0.00     0.064 A 
ATOM     51  C   UNL A   1      43.098  26.969  26.826  1.00  0.00     0.173 A 
ATOM     52  C   UNL A   1      41.704  25.162  27.567  1.00  0.00     0.173 A 
ATOM     53  F   UNL A   1      43.575  28.216  26.959  1.00  0.00    -0.203 F 
ATOM     54  C   UNL A   1      43.503  26.205  25.734  1.00  0.00     0.198 A 
ATOM     55  C   UNL A   1      42.138  24.386  26.496  1.00  0.00     0.198 A 
ATOM     56  F   UNL A   1      40.833  24.629  28.436  1.00  0.00    -0.203 F 
ATOM     57  F   UNL A   1      44.344  26.726  24.830  1.00  0.00    -0.200 F 
ATOM     58  C   UNL A   1      43.029  24.911  25.574  1.00  0.00     0.200 A 
ATOM     59  F   UNL A   1      41.696  23.128  26.361  1.00  0.00    -0.200 F 
ATOM     60  F   UNL A   1      43.427  24.173  24.529  1.00  0.00    -0.200 F 
ENDBRANCH  26  50
BRANCH  38  61
ATOM     61  C   UNL A   1      44.804  27.629  34.104  1.00  0.00     0.064 A 
ATOM     62  C   UNL A   1      44.801  26.429  34.830  1.00  0.00     0.173 A 
ATOM     63  C   UNL A   1      46.005  28.352  34.031  1.00  0.00     0.173 A 
ATOM     64  F   UNL A   1      43.672  25.714  34.947  1.00  0.00    -0.203 F 
ATOM     65  C   UNL A   1      45.945  25.990  35.488  1.00  0.00     0.198 A 
ATOM     66  C   UNL A   1      47.157  27.890  34.660  1.00  0.00     0.198 A 
ATOM     67  F   UNL A   1      46.062  29.503  33.346  1.00  0.00    -0.203 F 
ATOM     68  F   UNL A   1      45.902  24.875  36.232  1.00  0.00    -0.200 F 
ATOM     69  C   UNL A   1      47.123  26.715  35.397  1.00  0.00     0.200 A 
ATOM     70  F   UNL A   1      48.298  28.584  34.557  1.00  0.00    -0.200 F 
ATOM     71  F   UNL A   1      48.225  26.289  36.029  1.00  0.00    -0.200 F 
ENDBRANCH  38  61
ENDBRANCH  12  13
ENDBRANCH   5   7
ENDBRANCH   2   3
ENDBRANCH   1   2
BRANCH   1  72
ATOM     72  C   UNL A   1      33.298  27.226  26.527  1.00  0.00     0.023 C 
BRANCH  72  73
ATOM     73  C   UNL A   1      32.665  25.838  26.528  1.00  0.00     0.116 C 
BRANCH  73  74
ATOM     74  N   UNL A   1      31.231  25.839  26.729  1.00  0.00    -0.351 N 
ATOM     75  C   UNL A   1      30.203  25.658  25.850  1.00  0.00     0.283 C 
ATOM     76  H   UNL A   1      30.949  25.996  27.658  1.00  0.00     0.163 HD
ATOM     77  O   UNL A   1      29.159  25.250  26.386  1.00  0.00    -0.268 OA
BRANCH  75  78
ATOM     78  C   UNL A   1      30.211  26.021  24.321  1.00  0.00     0.307 C 
BRANCH  78  79
ATOM     79  N   UNL A   1      30.646  24.894  23.440  1.00  0.00    -0.318 N 
ATOM     80  C   UNL A   1      31.688  25.149  22.443  1.00  0.00     0.284 C 
ATOM     81  C   UNL A   1      30.845  23.552  23.995  1.00  0.00     0.284 C 
ATOM     82  H   UNL A   1      29.740  24.874  22.972  1.00  0.00     0.349 HD
ATOM     83  C   UNL A   1      33.080  25.184  23.063  1.00  0.00     0.178 C 
ATOM     84  C   UNL A   1      32.305  23.087  24.313  1.00  0.00     0.178 C 
ATOM     85  N   UNL A   1      33.381  23.955  23.800  1.00  0.00    -0.360 N 
BRANCH  85  86
ATOM     86  C   UNL A   1      34.716  23.685  24.069  1.00  0.00     0.037 A 
ATOM     87  C   UNL A   1      35.495  22.930  23.178  1.00  0.00     0.026 A 
ATOM     88  C   UNL A   1      35.323  24.081  25.263  1.00  0.00     0.026 A 
ATOM     89  C   UNL A   1      36.809  22.556  23.467  1.00  0.00     0.002 A 
ATOM     90  C   UNL A   1      36.631  23.689  25.577  1.00  0.00     0.002 A 
ATOM     91  C   UNL A   1      37.373  22.923  24.680  1.00  0.00     0.000 A 
ENDBRANCH  85  86
ENDBRANCH  78  79
BRANCH  78  92
ATOM     92  C   UNL A   1      29.076  26.891  23.818  1.00  0.00     0.044 A 
ATOM     93  C   UNL A   1      27.709  26.722  23.957  1.00  0.00     0.094 A 
ATOM     94  C   UNL A   1      29.229  28.119  23.070  1.00  0.00     0.009 A 
ATOM     95  N   UNL A   1      27.054  27.792  23.421  1.00  0.00    -0.361 N 
ATOM     96  C   UNL A   1      27.956  28.657  22.863  1.00  0.00     0.049 A 
ATOM     97  C   UNL A   1      30.340  28.832  22.562  1.00  0.00     0.014 A 
ATOM     98  H   UNL A   1      26.078  27.922  23.434  1.00  0.00     0.166 HD
ATOM     99  C   UNL A   1      27.734  29.867  22.196  1.00  0.00     0.065 A 
ATOM    100  C   UNL A   1      30.134  30.033  21.870  1.00  0.00     0.040 A 
ATOM    101  C   UNL A   1      28.850  30.532  21.701  1.00  0.00     0.125 A 
ATOM    102  F   UNL A   1      28.678  31.685  21.040  1.00  0.00    -0.207 F 
ENDBRANCH  78  92
ENDBRANCH  75  78
ENDBRANCH  73  74
ENDBRANCH  72  73
ENDBRANCH   1  72
TORSDOF 14
ENDMDL
MODEL 2
REMARK VINA RESULT:     -13.5      2.170      4.171
REMARK SMILES O=C(NCCCCNC(=O)[C@H](c1c[nH]c2cc(F)ccc12)[NH+]1CCN(c2ccccc2)CC1)c1ccc(-c2c3nc(c(-c4c(F)c(F)c(F)c(F)c4F)c4ccc([nH]4)c(-c4c(F)c(F)c(F)c(F)c4F)c4nc(c(-c5c(F)c(F)c(F)c(F)c5F)c5ccc2[nH]5)C=C4)C=C3)cc1
REMARK SMILES IDX 5 1 4 2 3 3 1 4 2 5 34 7 35 8 96 9 36 10 95 11 37 12 38 13
REMARK SMILES IDX 39 14 89 15 40 16 94 17 88 18 90 19 41 20 93 21 87 22 86 23
REMARK SMILES IDX 42 25 74 26 54 27 73 28 55 29 58 30 72 31 91 32 56 33 57 34
REMARK SMILES IDX 71 36 92 37 59 38 43 39 44 40 52 41 45 42 46 43 50 44 53 45
REMARK SMILES IDX 47 46 48 47 51 48 49 49 75 50 76 51 84 52 77 53 78 54 82 55
REMARK SMILES IDX 85 56 79 57 80 58 83 59 81 60 60 61 61 62 69 63 62 64 63 65
REMARK SMILES IDX 67 66 70 67 64 68 65 69 68 70 66 71 6 72 7 73 8 74 9 75
REMARK SMILES IDX 10 77 11 78 22 79 23 80 33 81 24 83 32 84 25 85 26 86 27 87
REMARK SMILES IDX 31 88 28 89 30 90 29 91 12 92 13 93 21 94 14 95 15 96 20 97
REMARK SMILES IDX 16 99 19 100 17 101 18 102
REMARK H PARENT 3 6 90 24 58 35 8 76 22 82 14 98
REMARK Flexibility Score: inf
ROOT
ATOM      1  C   UNL A   1      32.648  28.099  24.634  1.00  0.00     0.023 C 
ENDROOT
BRANCH   1   2
ATOM      2  C   UNL A   1      33.612  28.946  25.432  1.00  0.00     0.116 C 
BRANCH   2   3
ATOM      3  N   UNL A   1      33.016  30.206  25.867  1.00  0.00    -0.352 N 
ATOM      4  O   UNL A   1      32.630  31.963  27.232  1.00  0.00    -0.269 OA
ATOM      5  C   UNL A   1      33.380  31.053  26.887  1.00  0.00     0.251 C 
ATOM      6  H   UNL A   1      32.230  30.494  25.348  1.00  0.00     0.163 HD
BRANCH   5   7
ATOM      7  C   UNL A   1      34.667  30.850  27.585  1.00  0.00     0.039 A 
ATOM      8  C   UNL A   1      35.004  29.585  28.058  1.00  0.00     0.014 A 
ATOM      9  C   UNL A   1      35.540  31.922  27.788  1.00  0.00     0.014 A 
ATOM     10  C   UNL A   1      36.056  29.440  28.941  1.00  0.00     0.010 A 
ATOM     11  C   UNL A   1      36.713  31.728  28.526  1.00  0.00     0.010 A 
ATOM     12  C   UNL A   1      36.962  30.491  29.140  1.00  0.00    -0.014 A 
BRANCH  12  13
ATOM     13  C   UNL A   1      38.198  30.206  29.912  1.00  0.00     0.031 A 
ATOM     14  C   UNL A   1      38.357  30.644  31.339  1.00  0.00     0.074 A 
ATOM     15  C   UNL A   1      39.160  29.478  29.308  1.00  0.00     0.049 A 
ATOM     16  N   UNL A   1      39.367  30.447  32.150  1.00  0.00    -0.248 NA
ATOM     17  C   UNL A   1      37.255  31.414  31.933  1.00  0.00     0.031 C 
ATOM     18  C   UNL A   1      39.110  29.002  27.921  1.00  0.00     0.029 A 
ATOM     19  N   UNL A   1      40.342  28.971  29.783  1.00  0.00    -0.354 N 
ATOM     20  C   UNL A   1      39.039  31.093  33.334  1.00  0.00     0.074 A 
ATOM     21  C   UNL A   1      37.745  31.709  33.130  1.00  0.00     0.031 C 
ATOM     22  C   UNL A   1      40.154  28.199  27.688  1.00  0.00     0.029 A 
ATOM     23  C   UNL A   1      41.010  28.196  28.865  1.00  0.00     0.049 A 
ATOM     24  H   UNL A   1      40.678  29.145  30.691  1.00  0.00     0.167 HD
ATOM     25  C   UNL A   1      39.756  31.161  34.481  1.00  0.00     0.037 A 
ATOM     26  C   UNL A   1      42.197  27.573  28.946  1.00  0.00     0.037 A 
ATOM     27  C   UNL A   1      41.037  30.525  34.670  1.00  0.00     0.049 A 
ATOM     28  C   UNL A   1      42.982  27.700  30.217  1.00  0.00     0.074 A 
ATOM     29  C   UNL A   1      41.835  30.508  35.801  1.00  0.00     0.029 A 
ATOM     30  N   UNL A   1      41.711  29.797  33.699  1.00  0.00    -0.354 N 
ATOM     31  N   UNL A   1      42.654  28.303  31.333  1.00  0.00    -0.248 NA
ATOM     32  C   UNL A   1      44.308  27.072  30.233  1.00  0.00     0.031 C 
ATOM     33  C   UNL A   1      43.015  29.823  35.495  1.00  0.00     0.029 A 
ATOM     34  C   UNL A   1      42.927  29.353  34.196  1.00  0.00     0.049 A 
ATOM     35  H   UNL A   1      41.375  29.622  32.790  1.00  0.00     0.167 HD
ATOM     36  C   UNL A   1      43.722  28.111  32.196  1.00  0.00     0.074 A 
ATOM     37  C   UNL A   1      44.697  27.313  31.476  1.00  0.00     0.031 C 
ATOM     38  C   UNL A   1      43.884  28.557  33.464  1.00  0.00     0.037 A 
BRANCH  25  39
ATOM     39  C   UNL A   1      39.194  31.980  35.611  1.00  0.00     0.064 A 
ATOM     40  C   UNL A   1      38.363  31.424  36.595  1.00  0.00     0.173 A 
ATOM     41  C   UNL A   1      39.516  33.343  35.725  1.00  0.00     0.173 A 
ATOM     42  F   UNL A   1      38.013  30.131  36.531  1.00  0.00    -0.203 F 
ATOM     43  C   UNL A   1      37.852  32.205  37.630  1.00  0.00     0.198 A 
ATOM     44  C   UNL A   1      39.032  34.113  36.778  1.00  0.00     0.198 A 
ATOM     45  F   UNL A   1      40.312  33.928  34.816  1.00  0.00    -0.203 F 
ATOM     46  F   UNL A   1      37.016  31.664  38.527  1.00  0.00    -0.200 F 
ATOM     47  C   UNL A   1      38.191  33.547  37.724  1.00  0.00     0.200 A 
ATOM     48  F   UNL A   1      39.373  35.405  36.876  1.00  0.00    -0.200 F 
ATOM     49  F   UNL A   1      37.702  34.295  38.723  1.00  0.00    -0.200 F 
ENDBRANCH  25  39
BRANCH  26  50
ATOM     50  C   UNL A   1      42.714  26.802  27.785  1.00  0.00     0.064 A 
ATOM     51  C   UNL A   1      42.505  25.421  27.687  1.00  0.00     0.173 A 
ATOM     52  C   UNL A   1      43.411  27.432  26.743  1.00  0.00     0.173 A 
ATOM     53  F   UNL A   1      41.855  24.770  28.664  1.00  0.00    -0.203 F 
ATOM     54  C   UNL A   1      42.990  24.696  26.600  1.00  0.00     0.198 A 
ATOM     55  C   UNL A   1      43.863  26.713  25.639  1.00  0.00     0.198 A 
ATOM     56  F   UNL A   1      43.630  28.755  26.782  1.00  0.00    -0.203 F 
ATOM     57  F   UNL A   1      42.817  23.368  26.554  1.00  0.00    -0.200 F 
ATOM     58  C   UNL A   1      43.662  25.344  25.574  1.00  0.00     0.200 A 
ATOM     59  F   UNL A   1      44.489  27.348  24.639  1.00  0.00    -0.200 F 
ATOM     60  F   UNL A   1      44.120  24.647  24.525  1.00  0.00    -0.200 F 
ENDBRANCH  26  50
BRANCH  38  61
ATOM     61  C   UNL A   1      45.147  28.150  34.167  1.00  0.00     0.064 A 
ATOM     62  C   UNL A   1      46.302  28.946  34.133  1.00  0.00     0.173 A 
ATOM     63  C   UNL A   1      45.196  26.949  34.890  1.00  0.00     0.173 A 
ATOM     64  F   UNL A   1      46.311  30.093  33.438  1.00  0.00    -0.203 F 
ATOM     65  C   UNL A   1      47.471  28.534  34.765  1.00  0.00     0.198 A 
ATOM     66  C   UNL A   1      46.356  26.559  35.552  1.00  0.00     0.198 A 
ATOM     67  F   UNL A   1      44.118  26.154  34.958  1.00  0.00    -0.203 F 
ATOM     68  F   UNL A   1      48.582  29.277  34.663  1.00  0.00    -0.200 F 
ATOM     69  C   UNL A   1      47.496  27.346  35.480  1.00  0.00     0.200 A 
ATOM     70  F   UNL A   1      46.373  25.419  36.255  1.00  0.00    -0.200 F 
ATOM     71  F   UNL A   1      48.622  26.953  36.091  1.00  0.00    -0.200 F 
ENDBRANCH  38  61
ENDBRANCH  12  13
ENDBRANCH   5   7
ENDBRANCH   2   3
ENDBRANCH   1   2
BRANCH   1  72
ATOM     72  C   UNL A   1      31.425  27.646  25.409  1.00  0.00     0.023 C 
BRANCH  72  73
ATOM     73  C   UNL A   1      30.768  26.361  24.915  1.00  0.00     0.116 C 
BRANCH  73  74
ATOM     74  N   UNL A   1      30.659  25.325  25.920  1.00  0.00    -0.351 N 
ATOM     75  C   UNL A   1      31.468  24.263  26.204  1.00  0.00     0.283 C 
ATOM     76  H   UNL A   1      29.866  25.398  26.498  1.00  0.00     0.163 HD
ATOM     77  O   UNL A   1      31.365  23.862  27.377  1.00  0.00    -0.268 OA
BRANCH  75  78
ATOM     78  C   UNL A   1      32.376  23.486  25.185  1.00  0.00     0.307 C 
BRANCH  78  79
ATOM     79  N   UNL A   1      33.428  24.338  24.548  1.00  0.00    -0.318 N 
ATOM     80  C   UNL A   1      34.277  25.160  25.412  1.00  0.00     0.284 C 
ATOM     81  C   UNL A   1      34.244  23.812  23.451  1.00  0.00     0.284 C 
ATOM     82  H   UNL A   1      32.723  24.933  24.115  1.00  0.00     0.349 HD
ATOM     83  C   UNL A   1      35.369  24.343  26.093  1.00  0.00     0.178 C 
ATOM     84  C   UNL A   1      35.688  23.301  23.774  1.00  0.00     0.178 C 
ATOM     85  N   UNL A   1      36.193  23.617  25.123  1.00  0.00    -0.360 N 
BRANCH  85  86
ATOM     86  C   UNL A   1      37.433  23.167  25.553  1.00  0.00     0.037 A 
ATOM     87  C   UNL A   1      37.862  21.858  25.281  1.00  0.00     0.026 A 
ATOM     88  C   UNL A   1      38.274  23.960  26.337  1.00  0.00     0.026 A 
ATOM     89  C   UNL A   1      39.058  21.344  25.787  1.00  0.00     0.002 A 
ATOM     90  C   UNL A   1      39.463  23.447  26.873  1.00  0.00     0.002 A 
ATOM     91  C   UNL A   1      39.853  22.137  26.601  1.00  0.00     0.000 A 
ENDBRANCH  85  86
ENDBRANCH  78  79
BRANCH  78  92
ATOM     92  C   UNL A   1      32.770  22.071  25.561  1.00  0.00     0.044 A 
ATOM     93  C   UNL A   1      33.282  21.586  26.752  1.00  0.00     0.094 A 
ATOM     94  C   UNL A   1      32.669  20.916  24.696  1.00  0.00     0.009 A 
ATOM     95  N   UNL A   1      33.414  20.230  26.681  1.00  0.00    -0.361 N 
ATOM     96  C   UNL A   1      33.056  19.793  25.433  1.00  0.00     0.049 A 
ATOM     97  C   UNL A   1      32.268  20.720  23.354  1.00  0.00     0.014 A 
ATOM     98  H   UNL A   1      33.719  19.652  27.417  1.00  0.00     0.166 HD
ATOM     99  C   UNL A   1      33.049  18.494  24.913  1.00  0.00     0.065 A 
ATOM    100  C   UNL A   1      32.278  19.430  22.809  1.00  0.00     0.040 A 
ATOM    101  C   UNL A   1      32.659  18.345  23.587  1.00  0.00     0.125 A 
ATOM    102  F   UNL A   1      32.656  17.119  23.046  1.00  0.00    -0.207 F 
ENDBRANCH  78  92
ENDBRANCH  75  78
ENDBRANCH  73  74
ENDBRANCH  72  73
ENDBRANCH   1  72
TORSDOF 14
ENDMDL
MODEL 3
REMARK VINA RESULT:     -13.5      0.595      7.086
REMARK SMILES O=C(NCCCCNC(=O)[C@H](c1c[nH]c2cc(F)ccc12)[NH+]1CCN(c2ccccc2)CC1)c1ccc(-c2c3nc(c(-c4c(F)c(F)c(F)c(F)c4F)c4ccc([nH]4)c(-c4c(F)c(F)c(F)c(F)c4F)c4nc(c(-c5c(F)c(F)c(F)c(F)c5F)c5ccc2[nH]5)C=C4)C=C3)cc1
REMARK SMILES IDX 5 1 4 2 3 3 1 4 2 5 34 7 35 8 96 9 36 10 95 11 37 12 38 13
REMARK SMILES IDX 39 14 89 15 40 16 94 17 88 18 90 19 41 20 93 21 87 22 86 23
REMARK SMILES IDX 42 25 74 26 54 27 73 28 55 29 58 30 72 31 91 32 56 33 57 34
REMARK SMILES IDX 71 36 92 37 59 38 43 39 44 40 52 41 45 42 46 43 50 44 53 45
REMARK SMILES IDX 47 46 48 47 51 48 49 49 75 50 76 51 84 52 77 53 78 54 82 55
REMARK SMILES IDX 85 56 79 57 80 58 83 59 81 60 60 61 61 62 69 63 62 64 63 65
REMARK SMILES IDX 67 66 70 67 64 68 65 69 68 70 66 71 6 72 7 73 8 74 9 75
REMARK SMILES IDX 10 77 11 78 22 79 23 80 33 81 24 83 32 84 25 85 26 86 27 87
REMARK SMILES IDX 31 88 28 89 30 90 29 91 12 92 13 93 21 94 14 95 15 96 20 97
REMARK SMILES IDX 16 99 19 100 17 101 18 102
REMARK H PARENT 3 6 90 24 58 35 8 76 22 82 14 98
REMARK Flexibility Score: inf
ROOT
ATOM      1  C   UNL A   1      32.831  28.029  25.636  1.00  0.00     0.023 C 
ENDROOT
BRANCH   1   2
ATOM      2  C   UNL A   1      33.446  29.302  25.101  1.00  0.00     0.116 C 
BRANCH   2   3
ATOM      3  N   UNL A   1      32.859  30.497  25.702  1.00  0.00    -0.352 N 
ATOM      4  O   UNL A   1      32.465  32.043  27.300  1.00  0.00    -0.269 OA
ATOM      5  C   UNL A   1      33.208  31.177  26.844  1.00  0.00     0.251 C 
ATOM      6  H   UNL A   1      32.093  30.874  25.211  1.00  0.00     0.163 HD
BRANCH   5   7
ATOM      7  C   UNL A   1      34.471  30.847  27.537  1.00  0.00     0.039 A 
ATOM      8  C   UNL A   1      34.641  29.586  28.100  1.00  0.00     0.014 A 
ATOM      9  C   UNL A   1      35.489  31.798  27.647  1.00  0.00     0.014 A 
ATOM     10  C   UNL A   1      35.684  29.359  28.976  1.00  0.00     0.010 A 
ATOM     11  C   UNL A   1      36.641  31.496  28.381  1.00  0.00     0.010 A 
ATOM     12  C   UNL A   1      36.731  30.284  29.083  1.00  0.00    -0.014 A 
BRANCH  12  13
ATOM     13  C   UNL A   1      37.935  29.885  29.857  1.00  0.00     0.031 A 
ATOM     14  C   UNL A   1      39.002  29.014  29.263  1.00  0.00     0.074 A 
ATOM     15  C   UNL A   1      38.074  30.386  31.102  1.00  0.00     0.049 A 
ATOM     16  N   UNL A   1      40.121  28.602  29.805  1.00  0.00    -0.248 NA
ATOM     17  C   UNL A   1      38.788  28.526  27.893  1.00  0.00     0.031 C 
ATOM     18  C   UNL A   1      37.094  31.243  31.780  1.00  0.00     0.029 A 
ATOM     19  N   UNL A   1      39.102  30.293  32.004  1.00  0.00    -0.354 N 
ATOM     20  C   UNL A   1      40.727  27.785  28.861  1.00  0.00     0.074 A 
ATOM     21  C   UNL A   1      39.840  27.738  27.717  1.00  0.00     0.031 C 
ATOM     22  C   UNL A   1      37.604  31.671  32.939  1.00  0.00     0.029 A 
ATOM     23  C   UNL A   1      38.894  31.030  33.145  1.00  0.00     0.049 A 
ATOM     24  H   UNL A   1      39.909  29.751  31.849  1.00  0.00     0.167 HD
ATOM     25  C   UNL A   1      41.913  27.136  28.947  1.00  0.00     0.037 A 
ATOM     26  C   UNL A   1      39.642  31.155  34.253  1.00  0.00     0.037 A 
ATOM     27  C   UNL A   1      42.791  27.208  30.089  1.00  0.00     0.049 A 
ATOM     28  C   UNL A   1      40.931  30.393  34.331  1.00  0.00     0.074 A 
ATOM     29  C   UNL A   1      44.027  26.613  30.268  1.00  0.00     0.029 A 
ATOM     30  N   UNL A   1      42.520  27.917  31.252  1.00  0.00    -0.354 N 
ATOM     31  N   UNL A   1      41.498  29.634  33.425  1.00  0.00    -0.248 NA
ATOM     32  C   UNL A   1      41.677  30.495  35.590  1.00  0.00     0.031 C 
ATOM     33  C   UNL A   1      44.476  26.912  31.559  1.00  0.00     0.029 A 
ATOM     34  C   UNL A   1      43.553  27.749  32.163  1.00  0.00     0.049 A 
ATOM     35  H   UNL A   1      41.713  28.460  31.407  1.00  0.00     0.167 HD
ATOM     36  C   UNL A   1      42.679  29.183  33.994  1.00  0.00     0.074 A 
ATOM     37  C   UNL A   1      42.755  29.776  35.316  1.00  0.00     0.031 C 
ATOM     38  C   UNL A   1      43.611  28.350  33.474  1.00  0.00     0.037 A 
BRANCH  25  39
ATOM     39  C   UNL A   1      42.317  26.260  27.792  1.00  0.00     0.064 A 
ATOM     40  C   UNL A   1      43.218  26.692  26.807  1.00  0.00     0.173 A 
ATOM     41  C   UNL A   1      41.815  24.952  27.687  1.00  0.00     0.173 A 
ATOM     42  F   UNL A   1      43.721  27.934  26.850  1.00  0.00    -0.203 F 
ATOM     43  C   UNL A   1      43.574  25.862  25.745  1.00  0.00     0.198 A 
ATOM     44  C   UNL A   1      42.198  24.114  26.644  1.00  0.00     0.198 A 
ATOM     45  F   UNL A   1      40.955  24.482  28.604  1.00  0.00    -0.203 F 
ATOM     46  F   UNL A   1      44.392  26.317  24.786  1.00  0.00    -0.200 F 
ATOM     47  C   UNL A   1      43.069  24.573  25.668  1.00  0.00     0.200 A 
ATOM     48  F   UNL A   1      41.721  22.863  26.580  1.00  0.00    -0.200 F 
ATOM     49  F   UNL A   1      43.417  23.775  24.648  1.00  0.00    -0.200 F 
ENDBRANCH  25  39
BRANCH  26  50
ATOM     50  C   UNL A   1      39.175  32.013  35.374  1.00  0.00     0.064 A 
ATOM     51  C   UNL A   1      38.414  31.479  36.421  1.00  0.00     0.173 A 
ATOM     52  C   UNL A   1      39.493  33.378  35.429  1.00  0.00     0.173 A 
ATOM     53  F   UNL A   1      38.071  30.182  36.407  1.00  0.00    -0.203 F 
ATOM     54  C   UNL A   1      37.972  32.282  37.470  1.00  0.00     0.198 A 
ATOM     55  C   UNL A   1      39.084  34.172  36.497  1.00  0.00     0.198 A 
ATOM     56  F   UNL A   1      40.229  33.938  34.457  1.00  0.00    -0.203 F 
ATOM     57  F   UNL A   1      37.206  31.757  38.436  1.00  0.00    -0.200 F 
ATOM     58  C   UNL A   1      38.314  33.626  37.511  1.00  0.00     0.200 A 
ATOM     59  F   UNL A   1      39.439  35.463  36.544  1.00  0.00    -0.200 F 
ATOM     60  F   UNL A   1      37.898  34.395  38.527  1.00  0.00    -0.200 F 
ENDBRANCH  26  50
BRANCH  38  61
ATOM     61  C   UNL A   1      44.817  28.071  34.324  1.00  0.00     0.064 A 
ATOM     62  C   UNL A   1      44.867  26.978  35.201  1.00  0.00     0.173 A 
ATOM     63  C   UNL A   1      45.941  28.909  34.251  1.00  0.00     0.173 A 
ATOM     64  F   UNL A   1      43.811  26.160  35.322  1.00  0.00    -0.203 F 
ATOM     65  C   UNL A   1      45.983  26.756  36.003  1.00  0.00     0.198 A 
ATOM     66  C   UNL A   1      47.069  28.662  35.028  1.00  0.00     0.198 A 
ATOM     67  F   UNL A   1      45.946  29.966  33.426  1.00  0.00    -0.203 F 
ATOM     68  F   UNL A   1      45.982  25.745  36.883  1.00  0.00    -0.200 F 
ATOM     69  C   UNL A   1      47.084  27.593  35.911  1.00  0.00     0.200 A 
ATOM     70  F   UNL A   1      48.138  29.463  34.926  1.00  0.00    -0.200 F 
ATOM     71  F   UNL A   1      48.159  27.376  36.682  1.00  0.00    -0.200 F 
ENDBRANCH  38  61
ENDBRANCH  12  13
ENDBRANCH   5   7
ENDBRANCH   2   3
ENDBRANCH   1   2
BRANCH   1  72
ATOM     72  C   UNL A   1      33.756  26.826  25.601  1.00  0.00     0.023 C 
BRANCH  72  73
ATOM     73  C   UNL A   1      33.174  25.529  26.155  1.00  0.00     0.116 C 
BRANCH  73  74
ATOM     74  N   UNL A   1      31.783  25.621  26.546  1.00  0.00    -0.351 N 
ATOM     75  C   UNL A   1      30.637  25.411  25.836  1.00  0.00     0.283 C 
ATOM     76  H   UNL A   1      31.639  25.879  27.485  1.00  0.00     0.163 HD
ATOM     77  O   UNL A   1      29.663  25.109  26.547  1.00  0.00    -0.268 OA
BRANCH  75  78
ATOM     78  C   UNL A   1      30.445  25.627  24.292  1.00  0.00     0.307 C 
BRANCH  78  79
ATOM     79  N   UNL A   1      30.646  24.385  23.483  1.00  0.00    -0.318 N 
ATOM     80  C   UNL A   1      31.629  24.411  22.398  1.00  0.00     0.284 C 
ATOM     81  C   UNL A   1      30.703  23.075  24.137  1.00  0.00     0.284 C 
ATOM     82  H   UNL A   1      29.712  24.461  23.083  1.00  0.00     0.349 HD
ATOM     83  C   UNL A   1      33.059  24.291  22.914  1.00  0.00     0.178 C 
ATOM     84  C   UNL A   1      32.105  22.429  24.392  1.00  0.00     0.178 C 
ATOM     85  N   UNL A   1      33.246  23.091  23.732  1.00  0.00    -0.360 N 
BRANCH  85  86
ATOM     86  C   UNL A   1      34.548  22.652  23.929  1.00  0.00     0.037 A 
ATOM     87  C   UNL A   1      34.818  21.511  24.700  1.00  0.00     0.026 A 
ATOM     88  C   UNL A   1      35.647  23.363  23.442  1.00  0.00     0.026 A 
ATOM     89  C   UNL A   1      36.119  21.103  25.001  1.00  0.00     0.002 A 
ATOM     90  C   UNL A   1      36.957  22.980  23.759  1.00  0.00     0.002 A 
ATOM     91  C   UNL A   1      37.193  21.852  24.542  1.00  0.00     0.000 A 
ENDBRANCH  85  86
ENDBRANCH  78  79
BRANCH  78  92
ATOM     92  C   UNL A   1      29.324  26.554  23.865  1.00  0.00     0.044 A 
ATOM     93  C   UNL A   1      27.957  26.424  24.045  1.00  0.00     0.094 A 
ATOM     94  C   UNL A   1      29.494  27.806  23.161  1.00  0.00     0.009 A 
ATOM     95  N   UNL A   1      27.321  27.536  23.575  1.00  0.00    -0.361 N 
ATOM     96  C   UNL A   1      28.234  28.394  23.021  1.00  0.00     0.049 A 
ATOM     97  C   UNL A   1      30.611  28.503  22.644  1.00  0.00     0.014 A 
ATOM     98  H   UNL A   1      26.351  27.698  23.628  1.00  0.00     0.166 HD
ATOM     99  C   UNL A   1      28.030  29.636  22.411  1.00  0.00     0.065 A 
ATOM    100  C   UNL A   1      30.423  29.737  22.008  1.00  0.00     0.040 A 
ATOM    101  C   UNL A   1      29.151  30.284  21.904  1.00  0.00     0.125 A 
ATOM    102  F   UNL A   1      28.996  31.468  21.296  1.00  0.00    -0.207 F 
ENDBRANCH  78  92
ENDBRANCH  75  78
ENDBRANCH  73  74
ENDBRANCH  72  73
ENDBRANCH   1  72
TORSDOF 14
ENDMDL
