MODEL 1
REMARK VINA RESULT:     -12.8      0.000      0.000
REMARK SMILES O=C(NCCCCNC(=O)[C@@H](F)[C@H]1CCCc2cccnc21)c1ccc(-c2c3nc(c(-c4c(F)c(F)c(F)c(F)c4F)c4ccc([nH]4)c(-c4c(F)c(F)c(F)c(F)c4F)c4nc(c(-c5c(F)c(F)c(F)c(F)c5F)c5ccc2[nH]5)C=C4)C=C3)cc1
REMARK SMILES IDX 5 1 4 2 3 3 1 4 2 5 23 7 24 8 85 9 25 10 84 11 26 12 27 13
REMARK SMILES IDX 28 14 78 15 29 16 83 17 77 18 79 19 30 20 82 21 76 22 75 23
REMARK SMILES IDX 31 25 63 26 43 27 62 28 44 29 47 30 61 31 80 32 45 33 46 34
REMARK SMILES IDX 60 36 81 37 48 38 32 39 33 40 41 41 34 42 35 43 39 44 42 45
REMARK SMILES IDX 36 46 37 47 40 48 38 49 64 50 65 51 73 52 66 53 67 54 71 55
REMARK SMILES IDX 74 56 68 57 69 58 72 59 70 60 49 61 50 62 58 63 51 64 52 65
REMARK SMILES IDX 56 66 59 67 53 68 54 69 57 70 55 71 6 72 7 73 8 74 9 75
REMARK SMILES IDX 10 77 11 78 12 79 13 80 14 81 22 82 15 83 17 84 21 85 16 86
REMARK SMILES IDX 18 87 20 88 19 89
REMARK H PARENT 3 6 79 24 47 35 8 76
REMARK Flexibility Score: inf
ROOT
ATOM      1  C   UNL A   1      31.844  31.629  26.892  1.00  0.00     0.023 C 
ENDROOT
BRANCH   1   2
ATOM      2  C   UNL A   1      32.948  32.585  27.326  1.00  0.00     0.116 C 
BRANCH   2   3
ATOM      3  N   UNL A   1      32.485  33.926  27.659  1.00  0.00    -0.352 N 
ATOM      4  O   UNL A   1      32.439  35.894  28.779  1.00  0.00    -0.269 OA
ATOM      5  C   UNL A   1      32.991  34.820  28.581  1.00  0.00     0.251 C 
ATOM      6  H   UNL A   1      31.700  34.239  27.155  1.00  0.00     0.163 HD
BRANCH   5   7
ATOM      7  C   UNL A   1      34.188  34.445  29.364  1.00  0.00     0.039 A 
ATOM      8  C   UNL A   1      35.461  34.634  28.828  1.00  0.00     0.014 A 
ATOM      9  C   UNL A   1      34.031  33.821  30.606  1.00  0.00     0.014 A 
ATOM     10  C   UNL A   1      36.548  34.009  29.422  1.00  0.00     0.010 A 
ATOM     11  C   UNL A   1      35.148  33.288  31.260  1.00  0.00     0.010 A 
ATOM     12  C   UNL A   1      36.408  33.326  30.644  1.00  0.00    -0.014 A 
BRANCH  12  13
ATOM     13  C   UNL A   1      37.613  32.691  31.242  1.00  0.00     0.031 A 
ATOM     14  C   UNL A   1      38.072  33.021  32.637  1.00  0.00     0.074 A 
ATOM     15  C   UNL A   1      38.240  31.728  30.539  1.00  0.00     0.049 A 
ATOM     16  N   UNL A   1      39.044  32.482  33.333  1.00  0.00    -0.248 NA
ATOM     17  C   UNL A   1      37.363  34.098  33.344  1.00  0.00     0.031 C 
ATOM     18  C   UNL A   1      37.899  31.336  29.169  1.00  0.00     0.029 A 
ATOM     19  N   UNL A   1      39.257  30.875  30.884  1.00  0.00    -0.354 N 
ATOM     20  C   UNL A   1      39.073  33.160  34.545  1.00  0.00     0.074 A 
ATOM     21  C   UNL A   1      38.038  34.170  34.484  1.00  0.00     0.031 C 
ATOM     22  C   UNL A   1      38.637  30.274  28.818  1.00  0.00     0.029 A 
ATOM     23  C   UNL A   1      39.548  29.952  29.910  1.00  0.00     0.049 A 
ATOM     24  H   UNL A   1      39.731  30.921  31.746  1.00  0.00     0.167 HD
ATOM     25  C   UNL A   1      39.884  32.952  35.611  1.00  0.00     0.037 A 
ATOM     26  C   UNL A   1      40.452  28.955  29.893  1.00  0.00     0.037 A 
ATOM     27  C   UNL A   1      40.901  31.933  35.677  1.00  0.00     0.049 A 
ATOM     28  C   UNL A   1      41.316  28.734  31.099  1.00  0.00     0.074 A 
ATOM     29  C   UNL A   1      41.768  31.641  36.716  1.00  0.00     0.029 A 
ATOM     30  N   UNL A   1      41.183  31.032  34.661  1.00  0.00    -0.354 N 
ATOM     31  N   UNL A   1      41.325  29.382  32.238  1.00  0.00    -0.248 NA
ATOM     32  C   UNL A   1      42.299  27.646  31.014  1.00  0.00     0.031 C 
ATOM     33  C   UNL A   1      42.594  30.585  36.318  1.00  0.00     0.029 A 
ATOM     34  C   UNL A   1      42.216  30.190  35.046  1.00  0.00     0.049 A 
ATOM     35  H   UNL A   1      40.718  30.994  33.794  1.00  0.00     0.167 HD
ATOM     36  C   UNL A   1      42.315  28.787  33.003  1.00  0.00     0.074 A 
ATOM     37  C   UNL A   1      42.856  27.698  32.215  1.00  0.00     0.031 C 
ATOM     38  C   UNL A   1      42.751  29.123  34.242  1.00  0.00     0.037 A 
BRANCH  25  39
ATOM     39  C   UNL A   1      39.714  33.847  36.806  1.00  0.00     0.064 A 
ATOM     40  C   UNL A   1      40.308  35.116  36.864  1.00  0.00     0.173 A 
ATOM     41  C   UNL A   1      38.888  33.459  37.873  1.00  0.00     0.173 A 
ATOM     42  F   UNL A   1      41.114  35.529  35.876  1.00  0.00    -0.203 F 
ATOM     43  C   UNL A   1      40.089  35.960  37.951  1.00  0.00     0.198 A 
ATOM     44  C   UNL A   1      38.653  34.315  38.947  1.00  0.00     0.198 A 
ATOM     45  F   UNL A   1      38.290  32.259  37.864  1.00  0.00    -0.203 F 
ATOM     46  F   UNL A   1      40.689  37.157  37.997  1.00  0.00    -0.200 F 
ATOM     47  C   UNL A   1      39.256  35.563  38.986  1.00  0.00     0.200 A 
ATOM     48  F   UNL A   1      37.838  33.935  39.940  1.00  0.00    -0.200 F 
ATOM     49  F   UNL A   1      39.036  36.383  40.024  1.00  0.00    -0.200 F 
ENDBRANCH  25  39
BRANCH  26  50
ATOM     50  C   UNL A   1      40.580  28.103  28.684  1.00  0.00     0.064 A 
ATOM     51  C   UNL A   1      39.889  26.889  28.575  1.00  0.00     0.173 A 
ATOM     52  C   UNL A   1      41.381  28.499  27.603  1.00  0.00     0.173 A 
ATOM     53  F   UNL A   1      39.123  26.460  29.589  1.00  0.00    -0.203 F 
ATOM     54  C   UNL A   1      40.005  26.097  27.434  1.00  0.00     0.198 A 
ATOM     55  C   UNL A   1      41.472  27.723  26.451  1.00  0.00     0.198 A 
ATOM     56  F   UNL A   1      42.057  29.657  27.657  1.00  0.00    -0.203 F 
ATOM     57  F   UNL A   1      39.364  24.922  27.369  1.00  0.00    -0.200 F 
ATOM     58  C   UNL A   1      40.790  26.519  26.371  1.00  0.00     0.200 A 
ATOM     59  F   UNL A   1      42.215  28.145  25.420  1.00  0.00    -0.200 F 
ATOM     60  F   UNL A   1      40.891  25.763  25.270  1.00  0.00    -0.200 F 
ENDBRANCH  26  50
BRANCH  38  61
ATOM     61  C   UNL A   1      43.869  28.301  34.808  1.00  0.00     0.064 A 
ATOM     62  C   UNL A   1      45.210  28.670  34.622  1.00  0.00     0.173 A 
ATOM     63  C   UNL A   1      43.602  27.134  35.538  1.00  0.00     0.173 A 
ATOM     64  F   UNL A   1      45.515  29.769  33.915  1.00  0.00    -0.203 F 
ATOM     65  C   UNL A   1      46.244  27.883  35.119  1.00  0.00     0.198 A 
ATOM     66  C   UNL A   1      44.638  26.362  36.055  1.00  0.00     0.198 A 
ATOM     67  F   UNL A   1      42.336  26.741  35.744  1.00  0.00    -0.203 F 
ATOM     68  F   UNL A   1      47.518  28.224  34.881  1.00  0.00    -0.200 F 
ATOM     69  C   UNL A   1      45.957  26.731  35.837  1.00  0.00     0.200 A 
ATOM     70  F   UNL A   1      44.360  25.253  36.755  1.00  0.00    -0.200 F 
ATOM     71  F   UNL A   1      46.954  25.969  36.308  1.00  0.00    -0.200 F 
ENDBRANCH  38  61
ENDBRANCH  12  13
ENDBRANCH   5   7
ENDBRANCH   2   3
ENDBRANCH   1   2
BRANCH   1  72
ATOM     72  C   UNL A   1      32.123  30.146  27.105  1.00  0.00     0.023 C 
BRANCH  72  73
ATOM     73  C   UNL A   1      31.737  29.239  25.947  1.00  0.00     0.116 C 
BRANCH  73  74
ATOM     74  N   UNL A   1      32.705  28.232  25.611  1.00  0.00    -0.354 N 
ATOM     75  C   UNL A   1      33.099  27.859  24.355  1.00  0.00     0.255 C 
ATOM     76  H   UNL A   1      33.130  27.760  26.365  1.00  0.00     0.163 HD
ATOM     77  O   UNL A   1      33.990  27.008  24.275  1.00  0.00    -0.272 OA
BRANCH  75  78
ATOM     78  C   UNL A   1      32.418  28.447  23.101  1.00  0.00     0.264 C 
ATOM     79  F   UNL A   1      33.335  28.738  22.123  1.00  0.00    -0.236 F 
BRANCH  78  80
ATOM     80  C   UNL A   1      31.211  27.706  22.472  1.00  0.00     0.082 C 
ATOM     81  C   UNL A   1      30.968  26.250  22.920  1.00  0.00     0.014 C 
ATOM     82  C   UNL A   1      29.957  28.532  22.425  1.00  0.00     0.050 A 
ATOM     83  C   UNL A   1      29.925  26.046  24.011  1.00  0.00     0.006 C 
ATOM     84  C   UNL A   1      28.792  28.158  23.093  1.00  0.00    -0.026 A 
ATOM     85  N   UNL A   1      30.038  29.656  21.672  1.00  0.00    -0.261 NA
ATOM     86  C   UNL A   1      28.643  26.847  23.811  1.00  0.00     0.037 C 
ATOM     87  C   UNL A   1      27.688  29.016  23.004  1.00  0.00     0.007 A 
ATOM     88  C   UNL A   1      28.953  30.453  21.600  1.00  0.00     0.111 A 
ATOM     89  C   UNL A   1      27.767  30.183  22.251  1.00  0.00     0.020 A 
ENDBRANCH  78  80
ENDBRANCH  75  78
ENDBRANCH  73  74
ENDBRANCH  72  73
ENDBRANCH   1  72
TORSDOF 12
ENDMDL
MODEL 2
REMARK VINA RESULT:     -12.7      0.604      7.588
REMARK SMILES O=C(NCCCCNC(=O)[C@@H](F)[C@H]1CCCc2cccnc21)c1ccc(-c2c3nc(c(-c4c(F)c(F)c(F)c(F)c4F)c4ccc([nH]4)c(-c4c(F)c(F)c(F)c(F)c4F)c4nc(c(-c5c(F)c(F)c(F)c(F)c5F)c5ccc2[nH]5)C=C4)C=C3)cc1
REMARK SMILES IDX 5 1 4 2 3 3 1 4 2 5 23 7 24 8 85 9 25 10 84 11 26 12 27 13
REMARK SMILES IDX 28 14 78 15 29 16 83 17 77 18 79 19 30 20 82 21 76 22 75 23
REMARK SMILES IDX 31 25 63 26 43 27 62 28 44 29 47 30 61 31 80 32 45 33 46 34
REMARK SMILES IDX 60 36 81 37 48 38 32 39 33 40 41 41 34 42 35 43 39 44 42 45
REMARK SMILES IDX 36 46 37 47 40 48 38 49 64 50 65 51 73 52 66 53 67 54 71 55
REMARK SMILES IDX 74 56 68 57 69 58 72 59 70 60 49 61 50 62 58 63 51 64 52 65
REMARK SMILES IDX 56 66 59 67 53 68 54 69 57 70 55 71 6 72 7 73 8 74 9 75
REMARK SMILES IDX 10 77 11 78 12 79 13 80 14 81 22 82 15 83 17 84 21 85 16 86
REMARK SMILES IDX 18 87 20 88 19 89
REMARK H PARENT 3 6 79 24 47 35 8 76
REMARK Flexibility Score: inf
ROOT
ATOM      1  C   UNL A   1      31.715  32.046  26.659  1.00  0.00     0.023 C 
ENDROOT
BRANCH   1   2
ATOM      2  C   UNL A   1      32.832  32.820  27.348  1.00  0.00     0.116 C 
BRANCH   2   3
ATOM      3  N   UNL A   1      32.508  34.210  27.642  1.00  0.00    -0.352 N 
ATOM      4  O   UNL A   1      32.609  36.182  28.752  1.00  0.00    -0.269 OA
ATOM      5  C   UNL A   1      33.043  35.048  28.599  1.00  0.00     0.251 C 
ATOM      6  H   UNL A   1      31.808  34.609  27.076  1.00  0.00     0.163 HD
BRANCH   5   7
ATOM      7  C   UNL A   1      34.121  34.541  29.476  1.00  0.00     0.039 A 
ATOM      8  C   UNL A   1      35.445  34.568  29.041  1.00  0.00     0.014 A 
ATOM      9  C   UNL A   1      33.794  33.959  30.705  1.00  0.00     0.014 A 
ATOM     10  C   UNL A   1      36.399  33.824  29.721  1.00  0.00     0.010 A 
ATOM     11  C   UNL A   1      34.784  33.304  31.447  1.00  0.00     0.010 A 
ATOM     12  C   UNL A   1      36.083  33.181  30.932  1.00  0.00    -0.014 A 
BRANCH  12  13
ATOM     13  C   UNL A   1      37.151  32.413  31.625  1.00  0.00     0.031 A 
ATOM     14  C   UNL A   1      37.905  31.306  30.936  1.00  0.00     0.074 A 
ATOM     15  C   UNL A   1      37.505  32.794  32.868  1.00  0.00     0.049 A 
ATOM     16  N   UNL A   1      38.927  30.611  31.373  1.00  0.00    -0.248 NA
ATOM     17  C   UNL A   1      37.456  30.919  29.590  1.00  0.00     0.031 C 
ATOM     18  C   UNL A   1      36.834  33.838  33.645  1.00  0.00     0.029 A 
ATOM     19  N   UNL A   1      38.535  32.388  33.677  1.00  0.00    -0.354 N 
ATOM     20  C   UNL A   1      39.230  29.700  30.369  1.00  0.00     0.074 A 
ATOM     21  C   UNL A   1      38.269  29.910  29.307  1.00  0.00     0.031 C 
ATOM     22  C   UNL A   1      37.511  34.045  34.783  1.00  0.00     0.029 A 
ATOM     23  C   UNL A   1      38.623  33.104  34.845  1.00  0.00     0.049 A 
ATOM     24  H   UNL A   1      39.150  31.656  33.443  1.00  0.00     0.167 HD
ATOM     25  C   UNL A   1      40.225  28.779  30.335  1.00  0.00     0.037 A 
ATOM     26  C   UNL A   1      39.502  33.013  35.862  1.00  0.00     0.037 A 
ATOM     27  C   UNL A   1      41.194  28.584  31.385  1.00  0.00     0.049 A 
ATOM     28  C   UNL A   1      40.606  32.002  35.782  1.00  0.00     0.074 A 
ATOM     29  C   UNL A   1      42.242  27.681  31.439  1.00  0.00     0.029 A 
ATOM     30  N   UNL A   1      41.236  29.312  32.565  1.00  0.00    -0.354 N 
ATOM     31  N   UNL A   1      40.880  31.153  34.823  1.00  0.00    -0.248 NA
ATOM     32  C   UNL A   1      41.520  31.933  36.930  1.00  0.00     0.031 C 
ATOM     33  C   UNL A   1      42.899  27.841  32.664  1.00  0.00     0.029 A 
ATOM     34  C   UNL A   1      42.287  28.872  33.356  1.00  0.00     0.049 A 
ATOM     35  H   UNL A   1      40.614  30.036  32.806  1.00  0.00     0.167 HD
ATOM     36  C   UNL A   1      41.992  30.445  35.250  1.00  0.00     0.074 A 
ATOM     37  C   UNL A   1      42.368  30.994  36.538  1.00  0.00     0.031 C 
ATOM     38  C   UNL A   1      42.636  29.419  34.641  1.00  0.00     0.037 A 
BRANCH  25  39
ATOM     39  C   UNL A   1      40.324  27.898  29.123  1.00  0.00     0.064 A 
ATOM     40  C   UNL A   1      39.622  26.687  29.035  1.00  0.00     0.173 A 
ATOM     41  C   UNL A   1      41.071  28.306  28.006  1.00  0.00     0.173 A 
ATOM     42  F   UNL A   1      38.903  26.247  30.077  1.00  0.00    -0.203 F 
ATOM     43  C   UNL A   1      39.673  25.912  27.878  1.00  0.00     0.198 A 
ATOM     44  C   UNL A   1      41.101  27.539  26.843  1.00  0.00     0.198 A 
ATOM     45  F   UNL A   1      41.756  29.459  28.035  1.00  0.00    -0.203 F 
ATOM     46  F   UNL A   1      39.016  24.745  27.827  1.00  0.00    -0.200 F 
ATOM     47  C   UNL A   1      40.404  26.342  26.781  1.00  0.00     0.200 A 
ATOM     48  F   UNL A   1      41.798  27.963  25.779  1.00  0.00    -0.200 F 
ATOM     49  F   UNL A   1      40.440  25.601  25.664  1.00  0.00    -0.200 F 
ENDBRANCH  25  39
BRANCH  26  50
ATOM     50  C   UNL A   1      39.355  33.907  37.038  1.00  0.00     0.064 A 
ATOM     51  C   UNL A   1      38.652  33.497  38.178  1.00  0.00     0.173 A 
ATOM     52  C   UNL A   1      39.937  35.184  37.051  1.00  0.00     0.173 A 
ATOM     53  F   UNL A   1      38.064  32.292  38.206  1.00  0.00    -0.203 F 
ATOM     54  C   UNL A   1      38.524  34.337  39.283  1.00  0.00     0.198 A 
ATOM     55  C   UNL A   1      39.837  36.009  38.168  1.00  0.00     0.198 A 
ATOM     56  F   UNL A   1      40.628  35.618  35.987  1.00  0.00    -0.203 F 
ATOM     57  F   UNL A   1      37.814  33.937  40.346  1.00  0.00    -0.200 F 
ATOM     58  C   UNL A   1      39.124  35.588  39.280  1.00  0.00     0.200 A 
ATOM     59  F   UNL A   1      40.435  37.207  38.167  1.00  0.00    -0.200 F 
ATOM     60  F   UNL A   1      39.011  36.389  40.347  1.00  0.00    -0.200 F 
ENDBRANCH  26  50
BRANCH  38  61
ATOM     61  C   UNL A   1      43.805  28.831  35.370  1.00  0.00     0.064 A 
ATOM     62  C   UNL A   1      43.632  27.818  36.325  1.00  0.00     0.173 A 
ATOM     63  C   UNL A   1      45.108  29.281  35.115  1.00  0.00     0.173 A 
ATOM     64  F   UNL A   1      42.402  27.367  36.615  1.00  0.00    -0.203 F 
ATOM     65  C   UNL A   1      44.718  27.302  37.024  1.00  0.00     0.198 A 
ATOM     66  C   UNL A   1      46.196  28.745  35.798  1.00  0.00     0.198 A 
ATOM     67  F   UNL A   1      45.325  30.246  34.208  1.00  0.00    -0.203 F 
ATOM     68  F   UNL A   1      44.524  26.375  37.973  1.00  0.00    -0.200 F 
ATOM     69  C   UNL A   1      45.999  27.763  36.758  1.00  0.00     0.200 A 
ATOM     70  F   UNL A   1      47.434  29.186  35.536  1.00  0.00    -0.200 F 
ATOM     71  F   UNL A   1      47.044  27.271  37.438  1.00  0.00    -0.200 F 
ENDBRANCH  38  61
ENDBRANCH  12  13
ENDBRANCH   5   7
ENDBRANCH   2   3
ENDBRANCH   1   2
BRANCH   1  72
ATOM     72  C   UNL A   1      31.772  30.529  26.796  1.00  0.00     0.023 C 
BRANCH  72  73
ATOM     73  C   UNL A   1      31.757  29.758  25.484  1.00  0.00     0.116 C 
BRANCH  73  74
ATOM     74  N   UNL A   1      32.646  28.631  25.429  1.00  0.00    -0.354 N 
ATOM     75  C   UNL A   1      33.082  27.985  24.304  1.00  0.00     0.255 C 
ATOM     76  H   UNL A   1      32.976  28.287  26.291  1.00  0.00     0.163 HD
ATOM     77  O   UNL A   1      33.893  27.068  24.462  1.00  0.00    -0.272 OA
BRANCH  75  78
ATOM     78  C   UNL A   1      32.540  28.362  22.910  1.00  0.00     0.264 C 
ATOM     79  F   UNL A   1      33.529  28.325  21.961  1.00  0.00    -0.236 F 
BRANCH  78  80
ATOM     80  C   UNL A   1      31.275  27.650  22.366  1.00  0.00     0.082 C 
ATOM     81  C   UNL A   1      31.026  26.202  22.837  1.00  0.00     0.014 C 
ATOM     82  C   UNL A   1      30.042  28.507  22.396  1.00  0.00     0.050 A 
ATOM     83  C   UNL A   1      30.053  26.029  23.995  1.00  0.00     0.006 C 
ATOM     84  C   UNL A   1      28.914  28.165  23.141  1.00  0.00    -0.026 A 
ATOM     85  N   UNL A   1      30.102  29.626  21.633  1.00  0.00    -0.261 NA
ATOM     86  C   UNL A   1      28.780  26.862  23.875  1.00  0.00     0.037 C 
ATOM     87  C   UNL A   1      27.829  29.051  23.120  1.00  0.00     0.007 A 
ATOM     88  C   UNL A   1      29.035  30.450  21.628  1.00  0.00     0.111 A 
ATOM     89  C   UNL A   1      27.888  30.212  22.357  1.00  0.00     0.020 A 
ENDBRANCH  78  80
ENDBRANCH  75  78
ENDBRANCH  73  74
ENDBRANCH  72  73
ENDBRANCH   1  72
TORSDOF 12
ENDMDL
MODEL 3
REMARK VINA RESULT:     -12.7      0.490      7.582
REMARK SMILES O=C(NCCCCNC(=O)[C@@H](F)[C@H]1CCCc2cccnc21)c1ccc(-c2c3nc(c(-c4c(F)c(F)c(F)c(F)c4F)c4ccc([nH]4)c(-c4c(F)c(F)c(F)c(F)c4F)c4nc(c(-c5c(F)c(F)c(F)c(F)c5F)c5ccc2[nH]5)C=C4)C=C3)cc1
REMARK SMILES IDX 5 1 4 2 3 3 1 4 2 5 23 7 24 8 85 9 25 10 84 11 26 12 27 13
REMARK SMILES IDX 28 14 78 15 29 16 83 17 77 18 79 19 30 20 82 21 76 22 75 23
REMARK SMILES IDX 31 25 63 26 43 27 62 28 44 29 47 30 61 31 80 32 45 33 46 34
REMARK SMILES IDX 60 36 81 37 48 38 32 39 33 40 41 41 34 42 35 43 39 44 42 45
REMARK SMILES IDX 36 46 37 47 40 48 38 49 64 50 65 51 73 52 66 53 67 54 71 55
REMARK SMILES IDX 74 56 68 57 69 58 72 59 70 60 49 61 50 62 58 63 51 64 52 65
REMARK SMILES IDX 56 66 59 67 53 68 54 69 57 70 55 71 6 72 7 73 8 74 9 75
REMARK SMILES IDX 10 77 11 78 12 79 13 80 14 81 22 82 15 83 17 84 21 85 16 86
REMARK SMILES IDX 18 87 20 88 19 89
REMARK H PARENT 3 6 79 24 47 35 8 76
REMARK Flexibility Score: inf
ROOT
ATOM      1  C   UNL A   1      31.600  32.013  26.804  1.00  0.00     0.023 C 
ENDROOT
BRANCH   1   2
ATOM      2  C   UNL A   1      32.776  32.848  27.294  1.00  0.00     0.116 C 
BRANCH   2   3
ATOM      3  N   UNL A   1      32.437  34.227  27.626  1.00  0.00    -0.352 N 
ATOM      4  O   UNL A   1      32.528  36.171  28.784  1.00  0.00    -0.269 OA
ATOM      5  C   UNL A   1      32.974  35.047  28.598  1.00  0.00     0.251 C 
ATOM      6  H   UNL A   1      31.725  34.630  27.079  1.00  0.00     0.163 HD
BRANCH   5   7
ATOM      7  C   UNL A   1      34.070  34.532  29.449  1.00  0.00     0.039 A 
ATOM      8  C   UNL A   1      35.386  34.576  28.993  1.00  0.00     0.014 A 
ATOM      9  C   UNL A   1      33.765  33.927  30.672  1.00  0.00     0.014 A 
ATOM     10  C   UNL A   1      36.355  33.827  29.646  1.00  0.00     0.010 A 
ATOM     11  C   UNL A   1      34.772  33.265  31.387  1.00  0.00     0.010 A 
ATOM     12  C   UNL A   1      36.063  33.160  30.849  1.00  0.00    -0.014 A 
BRANCH  12  13
ATOM     13  C   UNL A   1      37.147  32.388  31.512  1.00  0.00     0.031 A 
ATOM     14  C   UNL A   1      37.897  31.298  30.792  1.00  0.00     0.074 A 
ATOM     15  C   UNL A   1      37.520  32.751  32.755  1.00  0.00     0.049 A 
ATOM     16  N   UNL A   1      38.930  30.602  31.201  1.00  0.00    -0.248 NA
ATOM     17  C   UNL A   1      37.427  30.930  29.448  1.00  0.00     0.031 C 
ATOM     18  C   UNL A   1      36.855  33.778  33.560  1.00  0.00     0.029 A 
ATOM     19  N   UNL A   1      38.565  32.339  33.540  1.00  0.00    -0.354 N 
ATOM     20  C   UNL A   1      39.222  29.709  30.177  1.00  0.00     0.074 A 
ATOM     21  C   UNL A   1      38.242  29.931  29.135  1.00  0.00     0.031 C 
ATOM     22  C   UNL A   1      37.550  33.971  34.689  1.00  0.00     0.029 A 
ATOM     23  C   UNL A   1      38.669  33.036  34.718  1.00  0.00     0.049 A 
ATOM     24  H   UNL A   1      39.181  31.614  33.284  1.00  0.00     0.167 HD
ATOM     25  C   UNL A   1      40.221  28.795  30.112  1.00  0.00     0.037 A 
ATOM     26  C   UNL A   1      39.565  32.934  35.718  1.00  0.00     0.037 A 
ATOM     27  C   UNL A   1      41.208  28.589  31.142  1.00  0.00     0.049 A 
ATOM     28  C   UNL A   1      40.673  31.931  35.604  1.00  0.00     0.074 A 
ATOM     29  C   UNL A   1      42.262  27.692  31.164  1.00  0.00     0.029 A 
ATOM     30  N   UNL A   1      41.266  29.298  32.333  1.00  0.00    -0.354 N 
ATOM     31  N   UNL A   1      40.937  31.100  34.626  1.00  0.00    -0.248 NA
ATOM     32  C   UNL A   1      41.607  31.850  36.735  1.00  0.00     0.031 C 
ATOM     33  C   UNL A   1      42.939  27.836  32.380  1.00  0.00     0.029 A 
ATOM     34  C   UNL A   1      42.333  28.852  33.099  1.00  0.00     0.049 A 
ATOM     35  H   UNL A   1      40.643  30.014  32.596  1.00  0.00     0.167 HD
ATOM     36  C   UNL A   1      42.060  30.392  35.024  1.00  0.00     0.074 A 
ATOM     37  C   UNL A   1      42.454  30.922  36.314  1.00  0.00     0.031 C 
ATOM     38  C   UNL A   1      42.699  29.380  34.387  1.00  0.00     0.037 A 
BRANCH  25  39
ATOM     39  C   UNL A   1      40.305  27.935  28.883  1.00  0.00     0.064 A 
ATOM     40  C   UNL A   1      41.087  28.305  27.779  1.00  0.00     0.173 A 
ATOM     41  C   UNL A   1      39.657  26.690  28.840  1.00  0.00     0.173 A 
ATOM     42  F   UNL A   1      41.718  29.488  27.766  1.00  0.00    -0.203 F 
ATOM     43  C   UNL A   1      41.207  27.466  26.673  1.00  0.00     0.198 A 
ATOM     44  C   UNL A   1      39.798  25.845  27.742  1.00  0.00     0.198 A 
ATOM     45  F   UNL A   1      38.903  26.285  29.873  1.00  0.00    -0.203 F 
ATOM     46  F   UNL A   1      41.937  27.854  25.618  1.00  0.00    -0.200 F 
ATOM     47  C   UNL A   1      40.570  26.235  26.659  1.00  0.00     0.200 A 
ATOM     48  F   UNL A   1      39.192  24.649  27.736  1.00  0.00    -0.200 F 
ATOM     49  F   UNL A   1      40.699  25.423  25.599  1.00  0.00    -0.200 F 
ENDBRANCH  25  39
BRANCH  26  50
ATOM     50  C   UNL A   1      39.432  33.808  36.912  1.00  0.00     0.064 A 
ATOM     51  C   UNL A   1      40.027  35.074  36.953  1.00  0.00     0.173 A 
ATOM     52  C   UNL A   1      38.687  33.397  38.027  1.00  0.00     0.173 A 
ATOM     53  F   UNL A   1      40.764  35.504  35.917  1.00  0.00    -0.203 F 
ATOM     54  C   UNL A   1      39.893  35.894  38.073  1.00  0.00     0.198 A 
ATOM     55  C   UNL A   1      38.526  34.229  39.132  1.00  0.00     0.198 A 
ATOM     56  F   UNL A   1      38.090  32.196  38.032  1.00  0.00    -0.203 F 
ATOM     57  F   UNL A   1      40.504  37.087  38.104  1.00  0.00    -0.200 F 
ATOM     58  C   UNL A   1      39.136  35.474  39.156  1.00  0.00     0.200 A 
ATOM     59  F   UNL A   1      37.777  33.827  40.166  1.00  0.00    -0.200 F 
ATOM     60  F   UNL A   1      38.997  36.268  40.226  1.00  0.00    -0.200 F 
ENDBRANCH  26  50
BRANCH  38  61
ATOM     61  C   UNL A   1      43.885  28.787  35.087  1.00  0.00     0.064 A 
ATOM     62  C   UNL A   1      43.744  27.695  35.955  1.00  0.00     0.173 A 
ATOM     63  C   UNL A   1      45.169  29.314  34.891  1.00  0.00     0.173 A 
ATOM     64  F   UNL A   1      42.532  27.168  36.187  1.00  0.00    -0.203 F 
ATOM     65  C   UNL A   1      44.843  27.172  36.629  1.00  0.00     0.198 A 
ATOM     66  C   UNL A   1      46.271  28.773  35.548  1.00  0.00     0.198 A 
ATOM     67  F   UNL A   1      45.354  30.357  34.068  1.00  0.00    -0.203 F 
ATOM     68  F   UNL A   1      44.678  26.165  37.498  1.00  0.00    -0.200 F 
ATOM     69  C   UNL A   1      46.106  27.710  36.423  1.00  0.00     0.200 A 
ATOM     70  F   UNL A   1      47.491  29.288  35.342  1.00  0.00    -0.200 F 
ATOM     71  F   UNL A   1      47.162  27.211  37.079  1.00  0.00    -0.200 F 
ENDBRANCH  38  61
ENDBRANCH  12  13
ENDBRANCH   5   7
ENDBRANCH   2   3
ENDBRANCH   1   2
BRANCH   1  72
ATOM     72  C   UNL A   1      31.778  30.501  26.877  1.00  0.00     0.023 C 
BRANCH  72  73
ATOM     73  C   UNL A   1      31.755  29.779  25.539  1.00  0.00     0.116 C 
BRANCH  73  74
ATOM     74  N   UNL A   1      32.662  28.670  25.428  1.00  0.00    -0.354 N 
ATOM     75  C   UNL A   1      33.077  28.062  24.275  1.00  0.00     0.255 C 
ATOM     76  H   UNL A   1      33.024  28.310  26.272  1.00  0.00     0.163 HD
ATOM     77  O   UNL A   1      33.908  27.156  24.385  1.00  0.00    -0.272 OA
BRANCH  75  78
ATOM     78  C   UNL A   1      32.488  28.465  22.907  1.00  0.00     0.264 C 
ATOM     79  F   UNL A   1      33.456  28.504  21.936  1.00  0.00    -0.236 F 
BRANCH  78  80
ATOM     80  C   UNL A   1      31.242  27.718  22.364  1.00  0.00     0.082 C 
ATOM     81  C   UNL A   1      31.033  26.264  22.838  1.00  0.00     0.014 C 
ATOM     82  C   UNL A   1      29.986  28.541  22.394  1.00  0.00     0.050 A 
ATOM     83  C   UNL A   1      30.065  26.067  23.996  1.00  0.00     0.006 C 
ATOM     84  C   UNL A   1      28.869  28.170  23.140  1.00  0.00    -0.026 A 
ATOM     85  N   UNL A   1      30.015  29.660  21.630  1.00  0.00    -0.261 NA
ATOM     86  C   UNL A   1      28.770  26.865  23.876  1.00  0.00     0.037 C 
ATOM     87  C   UNL A   1      27.760  29.026  23.118  1.00  0.00     0.007 A 
ATOM     88  C   UNL A   1      28.927  30.455  21.625  1.00  0.00     0.111 A 
ATOM     89  C   UNL A   1      27.787  30.187  22.354  1.00  0.00     0.020 A 
ENDBRANCH  78  80
ENDBRANCH  75  78
ENDBRANCH  73  74
ENDBRANCH  72  73
ENDBRANCH   1  72
TORSDOF 12
ENDMDL
