MODEL 1
REMARK VINA RESULT:     -13.6      0.000      0.000
REMARK SMILES C[C@@H](C(=O)NCCCCNC(=O)c1ccc(-c2c3nc(c(-c4c(F)c(F)c(F)c(F)c4F)c4ccc([nH]4)c(-c4c(F)c(F)c(F)c(F)c4F)c4nc(c(-c5c(F)c(F)c(F)c(F)c5F)c5ccc2[nH]5)C=C4)C=C3)cc1)c1ccc(-c2cccc(OC(=O)NC3CC3)c2)c(F)c1
REMARK SMILES IDX 6 1 5 2 3 3 4 4 2 6 1 7 76 8 77 9 95 10 78 11 93 12 79 13
REMARK SMILES IDX 94 14 80 15 81 16 92 17 82 18 84 19 83 20 85 21 86 22 87 23
REMARK SMILES IDX 88 24 89 26 90 27 91 28 7 29 8 30 9 31 10 32 11 33 12 35
REMARK SMILES IDX 13 36 14 37 75 38 15 39 74 40 16 41 17 42 18 43 68 44 19 45
REMARK SMILES IDX 73 46 67 47 69 48 20 49 72 50 66 51 65 52 21 54 53 55 33 56
REMARK SMILES IDX 52 57 34 58 37 59 51 60 70 61 35 62 36 63 50 65 71 66 38 67
REMARK SMILES IDX 22 68 23 69 31 70 24 71 25 72 29 73 32 74 26 75 27 76 30 77
REMARK SMILES IDX 28 78 54 79 55 80 63 81 56 82 57 83 61 84 64 85 58 86 59 87
REMARK SMILES IDX 62 88 60 89 39 90 40 91 48 92 41 93 42 94 46 95 49 96 43 97
REMARK SMILES IDX 44 98 47 99 45 100
REMARK H PARENT 5 5 88 25 10 34 69 53 37 64
REMARK Flexibility Score: inf
ROOT
ATOM      1  C   UNL A   1      32.378  29.990  25.746  1.00  0.00     0.116 C 
ENDROOT
BRANCH   1   2
ATOM      2  N   UNL A   1      31.536  29.067  25.018  1.00  0.00    -0.356 N 
ATOM      3  C   UNL A   1      31.863  28.182  24.033  1.00  0.00     0.227 C 
ATOM      4  O   UNL A   1      30.924  27.604  23.481  1.00  0.00    -0.274 OA
ATOM      5  H   UNL A   1      30.585  29.079  25.270  1.00  0.00     0.163 HD
BRANCH   3   6
ATOM      6  C   UNL A   1      33.340  27.916  23.701  1.00  0.00     0.105 C 
ATOM      7  C   UNL A   1      33.711  28.281  22.258  1.00  0.00     0.023 C 
BRANCH   6   8
ATOM      8  C   UNL A   1      33.725  26.467  23.963  1.00  0.00    -0.033 A 
ATOM      9  C   UNL A   1      34.142  26.056  25.237  1.00  0.00     0.005 A 
ATOM     10  C   UNL A   1      33.693  25.524  22.927  1.00  0.00     0.044 A 
ATOM     11  C   UNL A   1      34.572  24.744  25.454  1.00  0.00     0.012 A 
ATOM     12  C   UNL A   1      34.123  24.224  23.149  1.00  0.00     0.131 A 
ATOM     13  C   UNL A   1      34.596  23.815  24.402  1.00  0.00     0.018 A 
ATOM     14  F   UNL A   1      34.111  23.369  22.114  1.00  0.00    -0.206 F 
BRANCH  13  15
ATOM     15  C   UNL A   1      35.203  22.494  24.577  1.00  0.00    -0.012 A 
ATOM     16  C   UNL A   1      36.588  22.294  24.536  1.00  0.00     0.009 A 
ATOM     17  C   UNL A   1      34.363  21.385  24.774  1.00  0.00     0.056 A 
ATOM     18  C   UNL A   1      37.123  21.013  24.700  1.00  0.00     0.004 A 
ATOM     19  C   UNL A   1      34.893  20.113  24.934  1.00  0.00     0.133 A 
ATOM     20  C   UNL A   1      36.275  19.921  24.898  1.00  0.00     0.047 A 
BRANCH  19  21
ATOM     21  O   UNL A   1      34.114  18.948  25.135  1.00  0.00    -0.410 OA
BRANCH  21  22
ATOM     22  C   UNL A   1      32.736  18.839  24.963  1.00  0.00     0.412 C 
ATOM     23  O   UNL A   1      31.913  19.744  25.067  1.00  0.00    -0.224 OA
ATOM     24  N   UNL A   1      32.312  17.572  24.660  1.00  0.00    -0.318 N 
ATOM     25  H   UNL A   1      31.337  17.465  24.582  1.00  0.00     0.167 HD
BRANCH  24  26
ATOM     26  C   UNL A   1      33.070  16.386  24.443  1.00  0.00     0.085 C 
ATOM     27  C   UNL A   1      34.072  15.771  25.377  1.00  0.00     0.027 C 
ATOM     28  C   UNL A   1      32.714  15.155  25.237  1.00  0.00     0.027 C 
ENDBRANCH  24  26
ENDBRANCH  21  22
ENDBRANCH  19  21
ENDBRANCH  13  15
ENDBRANCH   6   8
ENDBRANCH   3   6
ENDBRANCH   1   2
BRANCH   1  29
ATOM     29  C   UNL A   1      31.560  30.763  26.781  1.00  0.00     0.023 C 
BRANCH  29  30
ATOM     30  C   UNL A   1      31.660  32.284  26.651  1.00  0.00     0.023 C 
BRANCH  30  31
ATOM     31  C   UNL A   1      32.762  32.927  27.484  1.00  0.00     0.116 C 
BRANCH  31  32
ATOM     32  N   UNL A   1      32.498  34.328  27.778  1.00  0.00    -0.352 N 
ATOM     33  C   UNL A   1      33.081  35.134  28.725  1.00  0.00     0.251 C 
ATOM     34  H   UNL A   1      31.809  34.757  27.221  1.00  0.00     0.163 HD
ATOM     35  O   UNL A   1      32.642  36.256  28.946  1.00  0.00    -0.269 OA
BRANCH  33  36
ATOM     36  C   UNL A   1      34.220  34.613  29.507  1.00  0.00     0.039 A 
ATOM     37  C   UNL A   1      33.985  34.107  30.786  1.00  0.00     0.014 A 
ATOM     38  C   UNL A   1      35.500  34.571  28.949  1.00  0.00     0.014 A 
ATOM     39  C   UNL A   1      35.020  33.471  31.473  1.00  0.00     0.010 A 
ATOM     40  C   UNL A   1      36.511  33.876  29.605  1.00  0.00     0.010 A 
ATOM     41  C   UNL A   1      36.275  33.303  30.865  1.00  0.00    -0.014 A 
BRANCH  41  42
ATOM     42  C   UNL A   1      37.341  32.487  31.500  1.00  0.00     0.031 A 
ATOM     43  C   UNL A   1      37.870  32.858  32.856  1.00  0.00     0.074 A 
ATOM     44  C   UNL A   1      37.898  31.472  30.808  1.00  0.00     0.049 A 
ATOM     45  N   UNL A   1      38.878  32.349  33.517  1.00  0.00    -0.248 NA
ATOM     46  C   UNL A   1      37.195  33.967  33.550  1.00  0.00     0.031 C 
ATOM     47  C   UNL A   1      37.498  31.045  29.466  1.00  0.00     0.029 A 
ATOM     48  N   UNL A   1      38.937  30.632  31.126  1.00  0.00    -0.354 N 
ATOM     49  C   UNL A   1      38.971  33.085  34.690  1.00  0.00     0.074 A 
ATOM     50  C   UNL A   1      37.941  34.099  34.638  1.00  0.00     0.031 C 
ATOM     51  C   UNL A   1      38.279  30.025  29.077  1.00  0.00     0.029 A 
ATOM     52  C   UNL A   1      39.268  29.759  30.118  1.00  0.00     0.049 A 
ATOM     53  H   UNL A   1      39.402  30.654  31.994  1.00  0.00     0.167 HD
ATOM     54  C   UNL A   1      39.834  32.918  35.720  1.00  0.00     0.037 A 
ATOM     55  C   UNL A   1      40.273  28.867  30.026  1.00  0.00     0.037 A 
ATOM     56  C   UNL A   1      40.836  31.887  35.777  1.00  0.00     0.049 A 
ATOM     57  C   UNL A   1      41.230  28.722  31.181  1.00  0.00     0.074 A 
ATOM     58  C   UNL A   1      41.689  31.576  36.821  1.00  0.00     0.029 A 
ATOM     59  N   UNL A   1      41.130  31.009  34.744  1.00  0.00    -0.354 N 
ATOM     60  N   UNL A   1      41.245  29.357  32.328  1.00  0.00    -0.248 NA
ATOM     61  C   UNL A   1      42.311  27.737  31.030  1.00  0.00     0.031 C 
ATOM     62  C   UNL A   1      42.548  30.559  36.395  1.00  0.00     0.029 A 
ATOM     63  C   UNL A   1      42.185  30.190  35.110  1.00  0.00     0.049 A 
ATOM     64  H   UNL A   1      40.658  30.974  33.881  1.00  0.00     0.167 HD
ATOM     65  C   UNL A   1      42.317  28.834  33.040  1.00  0.00     0.074 A 
ATOM     66  C   UNL A   1      42.915  27.814  32.207  1.00  0.00     0.031 C 
ATOM     67  C   UNL A   1      42.768  29.173  34.272  1.00  0.00     0.037 A 
BRANCH  54  68
ATOM     68  C   UNL A   1      39.752  33.873  36.875  1.00  0.00     0.064 A 
ATOM     69  C   UNL A   1      40.393  35.119  36.852  1.00  0.00     0.173 A 
ATOM     70  C   UNL A   1      38.946  33.569  37.984  1.00  0.00     0.173 A 
ATOM     71  F   UNL A   1      41.182  35.455  35.819  1.00  0.00    -0.203 F 
ATOM     72  C   UNL A   1      40.243  36.021  37.902  1.00  0.00     0.198 A 
ATOM     73  C   UNL A   1      38.775  34.484  39.018  1.00  0.00     0.198 A 
ATOM     74  F   UNL A   1      38.306  32.393  38.052  1.00  0.00    -0.203 F 
ATOM     75  F   UNL A   1      40.891  37.194  37.874  1.00  0.00    -0.200 F 
ATOM     76  C   UNL A   1      39.426  35.708  38.978  1.00  0.00     0.200 A 
ATOM     77  F   UNL A   1      37.971  34.186  40.048  1.00  0.00    -0.200 F 
ATOM     78  F   UNL A   1      39.265  36.586  39.977  1.00  0.00    -0.200 F 
ENDBRANCH  54  68
BRANCH  55  79
ATOM     79  C   UNL A   1      40.452  28.059  28.790  1.00  0.00     0.064 A 
ATOM     80  C   UNL A   1      41.223  28.532  27.719  1.00  0.00     0.173 A 
ATOM     81  C   UNL A   1      39.822  26.815  28.636  1.00  0.00     0.173 A 
ATOM     82  F   UNL A   1      41.828  29.726  27.806  1.00  0.00    -0.203 F 
ATOM     83  C   UNL A   1      41.329  27.810  26.531  1.00  0.00     0.198 A 
ATOM     84  C   UNL A   1      39.958  26.076  27.462  1.00  0.00     0.198 A 
ATOM     85  F   UNL A   1      39.075  26.311  29.630  1.00  0.00    -0.203 F 
ATOM     86  F   UNL A   1      42.018  28.319  25.500  1.00  0.00    -0.200 F 
ATOM     87  C   UNL A   1      40.700  26.581  26.405  1.00  0.00     0.200 A 
ATOM     88  F   UNL A   1      39.363  24.880  27.352  1.00  0.00    -0.200 F 
ATOM     89  F   UNL A   1      40.799  25.889  25.262  1.00  0.00    -0.200 F 
ENDBRANCH  55  79
BRANCH  67  90
ATOM     90  C   UNL A   1      43.953  28.424  34.808  1.00  0.00     0.064 A 
ATOM     91  C   UNL A   1      45.263  28.882  34.610  1.00  0.00     0.173 A 
ATOM     92  C   UNL A   1      43.771  27.266  35.581  1.00  0.00     0.173 A 
ATOM     93  F   UNL A   1      45.492  29.974  33.865  1.00  0.00    -0.203 F 
ATOM     94  C   UNL A   1      46.349  28.200  35.153  1.00  0.00     0.198 A 
ATOM     95  C   UNL A   1      44.856  26.606  36.150  1.00  0.00     0.198 A 
ATOM     96  F   UNL A   1      42.537  26.789  35.805  1.00  0.00    -0.203 F 
ATOM     97  F   UNL A   1      47.595  28.633  34.916  1.00  0.00    -0.200 F 
ATOM     98  C   UNL A   1      46.144  27.070  35.931  1.00  0.00     0.200 A 
ATOM     99  F   UNL A   1      44.654  25.525  36.915  1.00  0.00    -0.200 F 
ATOM    100  F   UNL A   1      47.189  26.425  36.466  1.00  0.00    -0.200 F 
ENDBRANCH  67  90
ENDBRANCH  41  42
ENDBRANCH  33  36
ENDBRANCH  31  32
ENDBRANCH  30  31
ENDBRANCH  29  30
ENDBRANCH   1  29
TORSDOF 16
ENDMDL
MODEL 2
REMARK VINA RESULT:     -13.4      0.767      7.112
REMARK SMILES C[C@@H](C(=O)NCCCCNC(=O)c1ccc(-c2c3nc(c(-c4c(F)c(F)c(F)c(F)c4F)c4ccc([nH]4)c(-c4c(F)c(F)c(F)c(F)c4F)c4nc(c(-c5c(F)c(F)c(F)c(F)c5F)c5ccc2[nH]5)C=C4)C=C3)cc1)c1ccc(-c2cccc(OC(=O)NC3CC3)c2)c(F)c1
REMARK SMILES IDX 6 1 5 2 3 3 4 4 2 6 1 7 76 8 77 9 95 10 78 11 93 12 79 13
REMARK SMILES IDX 94 14 80 15 81 16 92 17 82 18 84 19 83 20 85 21 86 22 87 23
REMARK SMILES IDX 88 24 89 26 90 27 91 28 7 29 8 30 9 31 10 32 11 33 12 35
REMARK SMILES IDX 13 36 14 37 75 38 15 39 74 40 16 41 17 42 18 43 68 44 19 45
REMARK SMILES IDX 73 46 67 47 69 48 20 49 72 50 66 51 65 52 21 54 53 55 33 56
REMARK SMILES IDX 52 57 34 58 37 59 51 60 70 61 35 62 36 63 50 65 71 66 38 67
REMARK SMILES IDX 22 68 23 69 31 70 24 71 25 72 29 73 32 74 26 75 27 76 30 77
REMARK SMILES IDX 28 78 54 79 55 80 63 81 56 82 57 83 61 84 64 85 58 86 59 87
REMARK SMILES IDX 62 88 60 89 39 90 40 91 48 92 41 93 42 94 46 95 49 96 43 97
REMARK SMILES IDX 44 98 47 99 45 100
REMARK H PARENT 5 5 88 25 10 34 69 53 37 64
REMARK Flexibility Score: inf
ROOT
ATOM      1  C   UNL A   1      34.330  29.768  26.930  1.00  0.00     0.116 C 
ENDROOT
BRANCH   1   2
ATOM      2  N   UNL A   1      32.968  29.485  26.537  1.00  0.00    -0.356 N 
ATOM      3  C   UNL A   1      32.484  28.998  25.359  1.00  0.00     0.227 C 
ATOM      4  O   UNL A   1      31.258  28.977  25.235  1.00  0.00    -0.274 OA
ATOM      5  H   UNL A   1      32.287  29.672  27.223  1.00  0.00     0.163 HD
BRANCH   3   6
ATOM      6  C   UNL A   1      33.457  28.467  24.293  1.00  0.00     0.105 C 
ATOM      7  C   UNL A   1      33.010  28.778  22.859  1.00  0.00     0.023 C 
BRANCH   6   8
ATOM      8  C   UNL A   1      33.681  26.968  24.431  1.00  0.00    -0.033 A 
ATOM      9  C   UNL A   1      33.930  26.394  25.686  1.00  0.00     0.005 A 
ATOM     10  C   UNL A   1      33.670  26.140  23.301  1.00  0.00     0.044 A 
ATOM     11  C   UNL A   1      34.216  25.031  25.798  1.00  0.00     0.012 A 
ATOM     12  C   UNL A   1      33.956  24.788  23.419  1.00  0.00     0.131 A 
ATOM     13  C   UNL A   1      34.262  24.213  24.659  1.00  0.00     0.018 A 
ATOM     14  F   UNL A   1      33.973  24.045  22.302  1.00  0.00    -0.206 F 
BRANCH  13  15
ATOM     15  C   UNL A   1      34.727  22.826  24.744  1.00  0.00    -0.012 A 
ATOM     16  C   UNL A   1      36.084  22.485  24.677  1.00  0.00     0.009 A 
ATOM     17  C   UNL A   1      33.776  21.802  24.881  1.00  0.00     0.056 A 
ATOM     18  C   UNL A   1      36.481  21.148  24.755  1.00  0.00     0.004 A 
ATOM     19  C   UNL A   1      34.171  20.473  24.955  1.00  0.00     0.133 A 
ATOM     20  C   UNL A   1      35.524  20.141  24.893  1.00  0.00     0.047 A 
BRANCH  19  21
ATOM     21  O   UNL A   1      33.273  19.386  25.091  1.00  0.00    -0.410 OA
BRANCH  21  22
ATOM     22  C   UNL A   1      32.563  18.771  24.063  1.00  0.00     0.412 C 
ATOM     23  O   UNL A   1      32.203  19.291  23.011  1.00  0.00    -0.224 OA
ATOM     24  N   UNL A   1      32.251  17.460  24.309  1.00  0.00    -0.318 N 
ATOM     25  H   UNL A   1      31.708  17.022  23.616  1.00  0.00     0.167 HD
BRANCH  24  26
ATOM     26  C   UNL A   1      32.595  16.635  25.418  1.00  0.00     0.085 C 
ATOM     27  C   UNL A   1      32.663  15.135  25.441  1.00  0.00     0.027 C 
ATOM     28  C   UNL A   1      33.930  15.933  25.399  1.00  0.00     0.027 C 
ENDBRANCH  24  26
ENDBRANCH  21  22
ENDBRANCH  19  21
ENDBRANCH  13  15
ENDBRANCH   6   8
ENDBRANCH   3   6
ENDBRANCH   1   2
BRANCH   1  29
ATOM     29  C   UNL A   1      34.366  30.853  28.007  1.00  0.00     0.023 C 
BRANCH  29  30
ATOM     30  C   UNL A   1      33.174  31.812  27.971  1.00  0.00     0.023 C 
BRANCH  30  31
ATOM     31  C   UNL A   1      33.366  33.038  27.088  1.00  0.00     0.116 C 
BRANCH  31  32
ATOM     32  N   UNL A   1      32.741  34.231  27.642  1.00  0.00    -0.352 N 
ATOM     33  C   UNL A   1      33.081  34.937  28.770  1.00  0.00     0.251 C 
ATOM     34  H   UNL A   1      31.971  34.580  27.138  1.00  0.00     0.163 HD
ATOM     35  O   UNL A   1      32.360  35.838  29.184  1.00  0.00    -0.269 OA
BRANCH  33  36
ATOM     36  C   UNL A   1      34.306  34.567  29.505  1.00  0.00     0.039 A 
ATOM     37  C   UNL A   1      34.187  34.020  30.783  1.00  0.00     0.014 A 
ATOM     38  C   UNL A   1      35.560  34.705  28.904  1.00  0.00     0.014 A 
ATOM     39  C   UNL A   1      35.322  33.523  31.426  1.00  0.00     0.010 A 
ATOM     40  C   UNL A   1      36.678  34.146  29.515  1.00  0.00     0.010 A 
ATOM     41  C   UNL A   1      36.566  33.534  30.773  1.00  0.00    -0.014 A 
BRANCH  41  42
ATOM     42  C   UNL A   1      37.754  32.862  31.361  1.00  0.00     0.031 A 
ATOM     43  C   UNL A   1      38.355  31.663  30.685  1.00  0.00     0.074 A 
ATOM     44  C   UNL A   1      38.224  33.276  32.556  1.00  0.00     0.049 A 
ATOM     45  N   UNL A   1      39.308  30.870  31.104  1.00  0.00    -0.248 NA
ATOM     46  C   UNL A   1      37.795  31.290  29.377  1.00  0.00     0.031 C 
ATOM     47  C   UNL A   1      37.694  34.401  33.329  1.00  0.00     0.029 A 
ATOM     48  N   UNL A   1      39.236  32.782  33.342  1.00  0.00    -0.354 N 
ATOM     49  C   UNL A   1      39.446  29.895  30.126  1.00  0.00     0.074 A 
ATOM     50  C   UNL A   1      38.457  30.173  29.107  1.00  0.00     0.031 C 
ATOM     51  C   UNL A   1      38.384  34.512  34.475  1.00  0.00     0.029 A 
ATOM     52  C   UNL A   1      39.370  33.437  34.543  1.00  0.00     0.049 A 
ATOM     53  H   UNL A   1      39.810  32.029  33.072  1.00  0.00     0.167 HD
ATOM     54  C   UNL A   1      40.327  28.869  30.082  1.00  0.00     0.037 A 
ATOM     55  C   UNL A   1      40.172  33.182  35.594  1.00  0.00     0.037 A 
ATOM     56  C   UNL A   1      41.328  28.617  31.086  1.00  0.00     0.049 A 
ATOM     57  C   UNL A   1      41.126  32.018  35.523  1.00  0.00     0.074 A 
ATOM     58  C   UNL A   1      42.329  27.663  31.079  1.00  0.00     0.029 A 
ATOM     59  N   UNL A   1      41.445  29.313  32.280  1.00  0.00    -0.354 N 
ATOM     60  N   UNL A   1      41.315  31.164  34.547  1.00  0.00    -0.248 NA
ATOM     61  C   UNL A   1      41.977  31.782  36.698  1.00  0.00     0.031 C 
ATOM     62  C   UNL A   1      43.006  27.733  32.299  1.00  0.00     0.029 A 
ATOM     63  C   UNL A   1      42.472  28.775  33.038  1.00  0.00     0.049 A 
ATOM     64  H   UNL A   1      40.883  30.076  32.547  1.00  0.00     0.167 HD
ATOM     65  C   UNL A   1      42.318  30.306  34.980  1.00  0.00     0.074 A 
ATOM     66  C   UNL A   1      42.714  30.757  36.297  1.00  0.00     0.031 C 
ATOM     67  C   UNL A   1      42.859  29.238  34.346  1.00  0.00     0.037 A 
BRANCH  54  68
ATOM     68  C   UNL A   1      40.256  27.923  28.919  1.00  0.00     0.064 A 
ATOM     69  C   UNL A   1      40.959  28.158  27.730  1.00  0.00     0.173 A 
ATOM     70  C   UNL A   1      39.541  26.720  29.033  1.00  0.00     0.173 A 
ATOM     71  F   UNL A   1      41.651  29.296  27.567  1.00  0.00    -0.203 F 
ATOM     72  C   UNL A   1      40.939  27.231  26.691  1.00  0.00     0.198 A 
ATOM     73  C   UNL A   1      39.547  25.782  28.005  1.00  0.00     0.198 A 
ATOM     74  F   UNL A   1      38.856  26.443  30.152  1.00  0.00    -0.203 F 
ATOM     75  F   UNL A   1      41.593  27.490  25.550  1.00  0.00    -0.200 F 
ATOM     76  C   UNL A   1      40.244  26.040  26.833  1.00  0.00     0.200 A 
ATOM     77  F   UNL A   1      38.888  24.625  28.152  1.00  0.00    -0.200 F 
ATOM     78  F   UNL A   1      40.243  25.139  25.841  1.00  0.00    -0.200 F 
ENDBRANCH  54  68
BRANCH  55  79
ATOM     79  C   UNL A   1      40.095  34.023  36.820  1.00  0.00     0.064 A 
ATOM     80  C   UNL A   1      39.250  33.678  37.884  1.00  0.00     0.173 A 
ATOM     81  C   UNL A   1      40.833  35.210  36.937  1.00  0.00     0.173 A 
ATOM     82  F   UNL A   1      38.505  32.564  37.814  1.00  0.00    -0.203 F 
ATOM     83  C   UNL A   1      39.120  34.503  39.000  1.00  0.00     0.198 A 
ATOM     84  C   UNL A   1      40.731  36.016  38.068  1.00  0.00     0.198 A 
ATOM     85  F   UNL A   1      41.661  35.587  35.951  1.00  0.00    -0.203 F 
ATOM     86  F   UNL A   1      38.254  34.181  39.971  1.00  0.00    -0.200 F 
ATOM     87  C   UNL A   1      39.863  35.670  39.093  1.00  0.00     0.200 A 
ATOM     88  F   UNL A   1      41.465  37.134  38.161  1.00  0.00    -0.200 F 
ATOM     89  F   UNL A   1      39.735  36.465  40.164  1.00  0.00    -0.200 F 
ENDBRANCH  55  79
BRANCH  67  90
ATOM     90  C   UNL A   1      43.953  28.492  35.053  1.00  0.00     0.064 A 
ATOM     91  C   UNL A   1      45.296  28.878  34.942  1.00  0.00     0.173 A 
ATOM     92  C   UNL A   1      43.647  27.415  35.900  1.00  0.00     0.173 A 
ATOM     93  F   UNL A   1      45.643  29.889  34.133  1.00  0.00    -0.203 F 
ATOM     94  C   UNL A   1      46.295  28.204  35.641  1.00  0.00     0.198 A 
ATOM     95  C   UNL A   1      44.643  26.765  36.623  1.00  0.00     0.198 A 
ATOM     96  F   UNL A   1      42.376  27.009  36.046  1.00  0.00    -0.203 F 
ATOM     97  F   UNL A   1      47.576  28.564  35.487  1.00  0.00    -0.200 F 
ATOM     98  C   UNL A   1      45.966  27.156  36.489  1.00  0.00     0.200 A 
ATOM     99  F   UNL A   1      44.321  25.765  37.454  1.00  0.00    -0.200 F 
ATOM    100  F   UNL A   1      46.926  26.520  37.172  1.00  0.00    -0.200 F 
ENDBRANCH  67  90
ENDBRANCH  41  42
ENDBRANCH  33  36
ENDBRANCH  31  32
ENDBRANCH  30  31
ENDBRANCH  29  30
ENDBRANCH   1  29
TORSDOF 16
ENDMDL
MODEL 3
REMARK VINA RESULT:     -12.9      4.750     11.071
REMARK SMILES C[C@@H](C(=O)NCCCCNC(=O)c1ccc(-c2c3nc(c(-c4c(F)c(F)c(F)c(F)c4F)c4ccc([nH]4)c(-c4c(F)c(F)c(F)c(F)c4F)c4nc(c(-c5c(F)c(F)c(F)c(F)c5F)c5ccc2[nH]5)C=C4)C=C3)cc1)c1ccc(-c2cccc(OC(=O)NC3CC3)c2)c(F)c1
REMARK SMILES IDX 6 1 5 2 3 3 4 4 2 6 1 7 76 8 77 9 95 10 78 11 93 12 79 13
REMARK SMILES IDX 94 14 80 15 81 16 92 17 82 18 84 19 83 20 85 21 86 22 87 23
REMARK SMILES IDX 88 24 89 26 90 27 91 28 7 29 8 30 9 31 10 32 11 33 12 35
REMARK SMILES IDX 13 36 14 37 75 38 15 39 74 40 16 41 17 42 18 43 68 44 19 45
REMARK SMILES IDX 73 46 67 47 69 48 20 49 72 50 66 51 65 52 21 54 53 55 33 56
REMARK SMILES IDX 52 57 34 58 37 59 51 60 70 61 35 62 36 63 50 65 71 66 38 67
REMARK SMILES IDX 22 68 23 69 31 70 24 71 25 72 29 73 32 74 26 75 27 76 30 77
REMARK SMILES IDX 28 78 54 79 55 80 63 81 56 82 57 83 61 84 64 85 58 86 59 87
REMARK SMILES IDX 62 88 60 89 39 90 40 91 48 92 41 93 42 94 46 95 49 96 43 97
REMARK SMILES IDX 44 98 47 99 45 100
REMARK H PARENT 5 5 88 25 10 34 69 53 37 64
REMARK Flexibility Score: inf
ROOT
ATOM      1  C   UNL A   1      33.828  34.449  30.422  1.00  0.00     0.116 C 
ENDROOT
BRANCH   1   2
ATOM      2  N   UNL A   1      34.367  35.235  31.508  1.00  0.00    -0.356 N 
ATOM      3  C   UNL A   1      35.377  34.944  32.377  1.00  0.00     0.227 C 
ATOM      4  O   UNL A   1      35.551  35.737  33.304  1.00  0.00    -0.274 OA
ATOM      5  H   UNL A   1      33.941  36.113  31.642  1.00  0.00     0.163 HD
BRANCH   3   6
ATOM      6  C   UNL A   1      36.258  33.707  32.138  1.00  0.00     0.105 C 
ATOM      7  C   UNL A   1      36.598  32.949  33.428  1.00  0.00     0.023 C 
BRANCH   6   8
ATOM      8  C   UNL A   1      37.550  34.065  31.416  1.00  0.00    -0.033 A 
ATOM      9  C   UNL A   1      37.621  34.025  30.017  1.00  0.00     0.005 A 
ATOM     10  C   UNL A   1      38.696  34.415  32.141  1.00  0.00     0.044 A 
ATOM     11  C   UNL A   1      38.831  34.275  29.361  1.00  0.00     0.012 A 
ATOM     12  C   UNL A   1      39.893  34.660  31.485  1.00  0.00     0.131 A 
ATOM     13  C   UNL A   1      39.993  34.568  30.091  1.00  0.00     0.018 A 
ATOM     14  F   UNL A   1      40.974  34.952  32.226  1.00  0.00    -0.206 F 
BRANCH  13  15
ATOM     15  C   UNL A   1      41.296  34.662  29.427  1.00  0.00    -0.012 A 
ATOM     16  C   UNL A   1      41.646  35.746  28.613  1.00  0.00     0.009 A 
ATOM     17  C   UNL A   1      42.220  33.618  29.602  1.00  0.00     0.056 A 
ATOM     18  C   UNL A   1      42.898  35.789  27.993  1.00  0.00     0.004 A 
ATOM     19  C   UNL A   1      43.462  33.660  28.985  1.00  0.00     0.133 A 
ATOM     20  C   UNL A   1      43.806  34.745  28.178  1.00  0.00     0.047 A 
BRANCH  19  21
ATOM     21  O   UNL A   1      44.444  32.648  29.110  1.00  0.00    -0.410 OA
BRANCH  21  22
ATOM     22  C   UNL A   1      44.387  31.543  29.956  1.00  0.00     0.412 C 
ATOM     23  O   UNL A   1      44.442  31.559  31.182  1.00  0.00    -0.224 OA
ATOM     24  N   UNL A   1      44.267  30.346  29.301  1.00  0.00    -0.318 N 
ATOM     25  H   UNL A   1      44.273  29.551  29.880  1.00  0.00     0.167 HD
BRANCH  24  26
ATOM     26  C   UNL A   1      44.137  30.079  27.909  1.00  0.00     0.085 C 
ATOM     27  C   UNL A   1      43.924  28.740  27.261  1.00  0.00     0.027 C 
ATOM     28  C   UNL A   1      42.778  29.697  27.378  1.00  0.00     0.027 C 
ENDBRANCH  24  26
ENDBRANCH  21  22
ENDBRANCH  19  21
ENDBRANCH  13  15
ENDBRANCH   6   8
ENDBRANCH   3   6
ENDBRANCH   1   2
BRANCH   1  29
ATOM     29  C   UNL A   1      33.907  35.224  29.105  1.00  0.00     0.023 C 
BRANCH  29  30
ATOM     30  C   UNL A   1      34.605  34.467  27.973  1.00  0.00     0.023 C 
BRANCH  30  31
ATOM     31  C   UNL A   1      35.023  33.044  28.318  1.00  0.00     0.116 C 
BRANCH  31  32
ATOM     32  N   UNL A   1      34.099  32.046  27.799  1.00  0.00    -0.352 N 
ATOM     33  C   UNL A   1      34.305  30.703  27.597  1.00  0.00     0.251 C 
ATOM     34  H   UNL A   1      33.204  32.379  27.561  1.00  0.00     0.163 HD
ATOM     35  O   UNL A   1      33.470  30.024  27.011  1.00  0.00    -0.269 OA
BRANCH  33  36
ATOM     36  C   UNL A   1      35.568  30.094  28.058  1.00  0.00     0.039 A 
ATOM     37  C   UNL A   1      36.659  30.062  27.187  1.00  0.00     0.014 A 
ATOM     38  C   UNL A   1      35.687  29.617  29.366  1.00  0.00     0.014 A 
ATOM     39  C   UNL A   1      37.901  29.633  27.659  1.00  0.00     0.010 A 
ATOM     40  C   UNL A   1      36.940  29.257  29.852  1.00  0.00     0.010 A 
ATOM     41  C   UNL A   1      38.062  29.279  29.009  1.00  0.00    -0.014 A 
BRANCH  41  42
ATOM     42  C   UNL A   1      39.401  28.982  29.576  1.00  0.00     0.031 A 
ATOM     43  C   UNL A   1      40.200  27.819  29.061  1.00  0.00     0.074 A 
ATOM     44  C   UNL A   1      39.850  29.702  30.625  1.00  0.00     0.049 A 
ATOM     45  N   UNL A   1      41.325  27.326  29.510  1.00  0.00    -0.248 NA
ATOM     46  C   UNL A   1      39.647  27.097  27.904  1.00  0.00     0.031 C 
ATOM     47  C   UNL A   1      39.144  30.827  31.242  1.00  0.00     0.029 A 
ATOM     48  N   UNL A   1      40.994  29.580  31.376  1.00  0.00    -0.354 N 
ATOM     49  C   UNL A   1      41.604  26.228  28.708  1.00  0.00     0.074 A 
ATOM     50  C   UNL A   1      40.514  26.104  27.765  1.00  0.00     0.031 C 
ATOM     51  C   UNL A   1      39.867  31.291  32.272  1.00  0.00     0.029 A 
ATOM     52  C   UNL A   1      41.063  30.466  32.423  1.00  0.00     0.049 A 
ATOM     53  H   UNL A   1      41.696  28.918  31.183  1.00  0.00     0.167 HD
ATOM     54  C   UNL A   1      42.679  25.408  28.752  1.00  0.00     0.037 A 
ATOM     55  C   UNL A   1      41.969  30.582  33.413  1.00  0.00     0.037 A 
ATOM     56  C   UNL A   1      43.775  25.557  29.673  1.00  0.00     0.049 A 
ATOM     57  C   UNL A   1      43.143  29.639  33.446  1.00  0.00     0.074 A 
ATOM     58  C   UNL A   1      44.954  24.836  29.729  1.00  0.00     0.029 A 
ATOM     59  N   UNL A   1      43.818  26.479  30.709  1.00  0.00    -0.354 N 
ATOM     60  N   UNL A   1      43.446  28.667  32.620  1.00  0.00    -0.248 NA
ATOM     61  C   UNL A   1      44.101  29.806  34.549  1.00  0.00     0.031 C 
ATOM     62  C   UNL A   1      45.680  25.272  30.840  1.00  0.00     0.029 A 
ATOM     63  C   UNL A   1      44.984  26.311  31.438  1.00  0.00     0.049 A 
ATOM     64  H   UNL A   1      43.125  27.152  30.896  1.00  0.00     0.167 HD
ATOM     65  C   UNL A   1      44.636  28.125  33.089  1.00  0.00     0.074 A 
ATOM     66  C   UNL A   1      45.012  28.889  34.258  1.00  0.00     0.031 C 
ATOM     67  C   UNL A   1      45.350  27.083  32.598  1.00  0.00     0.037 A 
BRANCH  54  68
ATOM     68  C   UNL A   1      42.736  24.261  27.785  1.00  0.00     0.064 A 
ATOM     69  C   UNL A   1      43.198  24.422  26.471  1.00  0.00     0.173 A 
ATOM     70  C   UNL A   1      42.403  22.965  28.211  1.00  0.00     0.173 A 
ATOM     71  F   UNL A   1      43.521  25.641  26.013  1.00  0.00    -0.203 F 
ATOM     72  C   UNL A   1      43.313  23.330  25.614  1.00  0.00     0.198 A 
ATOM     73  C   UNL A   1      42.547  21.872  27.360  1.00  0.00     0.198 A 
ATOM     74  F   UNL A   1      41.961  22.755  29.459  1.00  0.00    -0.203 F 
ATOM     75  F   UNL A   1      43.727  23.512  24.353  1.00  0.00    -0.200 F 
ATOM     76  C   UNL A   1      42.999  22.056  26.062  1.00  0.00     0.200 A 
ATOM     77  F   UNL A   1      42.258  20.640  27.801  1.00  0.00    -0.200 F 
ATOM     78  F   UNL A   1      43.130  21.004  25.243  1.00  0.00    -0.200 F 
ENDBRANCH  54  68
BRANCH  55  79
ATOM     79  C   UNL A   1      41.795  31.611  34.475  1.00  0.00     0.064 A 
ATOM     80  C   UNL A   1      41.005  31.359  35.606  1.00  0.00     0.173 A 
ATOM     81  C   UNL A   1      42.380  32.880  34.363  1.00  0.00     0.173 A 
ATOM     82  F   UNL A   1      40.403  30.168  35.751  1.00  0.00    -0.203 F 
ATOM     83  C   UNL A   1      40.779  32.346  36.563  1.00  0.00     0.198 A 
ATOM     84  C   UNL A   1      42.185  33.855  35.338  1.00  0.00     0.198 A 
ATOM     85  F   UNL A   1      43.150  33.175  33.304  1.00  0.00    -0.203 F 
ATOM     86  F   UNL A   1      39.966  32.099  37.599  1.00  0.00    -0.200 F 
ATOM     87  C   UNL A   1      41.373  33.593  36.431  1.00  0.00     0.200 A 
ATOM     88  F   UNL A   1      42.776  35.052  35.214  1.00  0.00    -0.200 F 
ATOM     89  F   UNL A   1      41.153  34.543  37.350  1.00  0.00    -0.200 F 
ENDBRANCH  55  79
BRANCH  67  90
ATOM     90  C   UNL A   1      46.622  26.718  33.305  1.00  0.00     0.064 A 
ATOM     91  C   UNL A   1      46.652  25.734  34.303  1.00  0.00     0.173 A 
ATOM     92  C   UNL A   1      47.837  27.318  32.937  1.00  0.00     0.173 A 
ATOM     93  F   UNL A   1      45.516  25.143  34.702  1.00  0.00    -0.203 F 
ATOM     94  C   UNL A   1      47.848  25.374  34.918  1.00  0.00     0.198 A 
ATOM     95  C   UNL A   1      49.036  26.932  33.530  1.00  0.00     0.198 A 
ATOM     96  F   UNL A   1      47.864  28.261  31.984  1.00  0.00    -0.203 F 
ATOM     97  F   UNL A   1      47.846  24.460  35.898  1.00  0.00    -0.200 F 
ATOM     98  C   UNL A   1      49.040  25.965  34.523  1.00  0.00     0.200 A 
ATOM     99  F   UNL A   1      50.187  27.491  33.135  1.00  0.00    -0.200 F 
ATOM    100  F   UNL A   1      50.192  25.605  35.105  1.00  0.00    -0.200 F 
ENDBRANCH  67  90
ENDBRANCH  41  42
ENDBRANCH  33  36
ENDBRANCH  31  32
ENDBRANCH  30  31
ENDBRANCH  29  30
ENDBRANCH   1  29
TORSDOF 16
ENDMDL
