MODEL 1
REMARK VINA RESULT:     -12.0      0.000      0.000
REMARK SMILES [NH3+][C@@H](CCCCC(=O)NCCCCNC(=O)c1ccc(-c2c3nc(c(-c4c(F)c(F)c(F)c(F)c4F)c4ccc([nH]4)c(-c4c(F)c(F)c(F)c(F)c4F)c4nc(c(-c5c(F)c(F)c(F)c(F)c5F)c5ccc2[nH]5)C=C4)C=C3)cc1)c1ccc(-c2ccccc2)cc1
REMARK SMILES IDX 7 1 8 2 9 3 6 5 5 6 4 7 3 8 2 9 1 10 80 14 81 15 91 16 82 17
REMARK SMILES IDX 90 18 83 19 84 20 85 21 89 22 86 23 88 24 87 25 10 26 11 27
REMARK SMILES IDX 12 28 13 29 14 30 15 31 16 33 17 34 18 35 79 36 19 37 78 38
REMARK SMILES IDX 20 39 21 40 22 41 72 42 23 43 77 44 71 45 73 46 24 47 76 48
REMARK SMILES IDX 70 49 69 50 25 52 57 53 37 54 56 55 38 56 41 57 55 58 74 59
REMARK SMILES IDX 39 60 40 61 54 63 75 64 42 65 26 66 27 67 35 68 28 69 29 70
REMARK SMILES IDX 33 71 36 72 30 73 31 74 34 75 32 76 58 77 59 78 67 79 60 80
REMARK SMILES IDX 61 81 65 82 68 83 62 84 63 85 66 86 64 87 43 88 44 89 52 90
REMARK SMILES IDX 45 91 46 92 50 93 53 94 47 95 48 96 51 97 49 98
REMARK H PARENT 9 4 1 11 1 12 1 13 14 32 73 51 41 62
REMARK Flexibility Score: inf
ROOT
ATOM      1  C   UNL A   1      34.741  24.385  23.879  1.00  0.00     0.219 C 
ATOM      2  O   UNL A   1      34.400  24.655  22.727  1.00  0.00    -0.275 OA
ATOM      3  N   UNL A   1      35.442  23.237  24.099  1.00  0.00    -0.356 N 
ATOM      4  H   UNL A   1      35.697  22.729  23.296  1.00  0.00     0.163 HD
ENDROOT
BRANCH   1   5
ATOM      5  C   UNL A   1      34.415  25.307  25.042  1.00  0.00     0.100 C 
BRANCH   5   6
ATOM      6  C   UNL A   1      33.747  26.620  24.627  1.00  0.00     0.010 C 
BRANCH   6   7
ATOM      7  C   UNL A   1      32.216  26.787  24.752  1.00  0.00     0.007 C 
BRANCH   7   8
ATOM      8  C   UNL A   1      31.450  26.094  25.893  1.00  0.00     0.070 C 
BRANCH   8   9
ATOM      9  C   UNL A   1      30.486  24.943  25.522  1.00  0.00     0.211 C 
BRANCH   9  10
ATOM     10  N   UNL A   1      29.476  24.701  26.551  1.00  0.00    -0.351 N 
ATOM     11  H   UNL A   1      29.691  23.833  27.042  1.00  0.00     0.345 HD
ATOM     12  H   UNL A   1      28.556  24.627  26.115  1.00  0.00     0.345 HD
ATOM     13  H   UNL A   1      29.475  25.475  27.214  1.00  0.00     0.345 HD
ENDBRANCH   9  10
BRANCH   9  14
ATOM     14  C   UNL A   1      31.222  23.686  25.116  1.00  0.00     0.009 A 
ATOM     15  C   UNL A   1      31.763  22.840  26.089  1.00  0.00     0.010 A 
ATOM     16  C   UNL A   1      31.330  23.295  23.779  1.00  0.00     0.010 A 
ATOM     17  C   UNL A   1      32.338  21.611  25.734  1.00  0.00     0.009 A 
ATOM     18  C   UNL A   1      31.854  22.047  23.434  1.00  0.00     0.009 A 
ATOM     19  C   UNL A   1      32.361  21.167  24.402  1.00  0.00    -0.018 A 
BRANCH  19  20
ATOM     20  C   UNL A   1      32.869  19.826  24.022  1.00  0.00    -0.018 A 
ATOM     21  C   UNL A   1      34.018  19.277  24.618  1.00  0.00     0.009 A 
ATOM     22  C   UNL A   1      32.197  19.028  23.076  1.00  0.00     0.009 A 
ATOM     23  C   UNL A   1      34.471  17.993  24.290  1.00  0.00     0.001 A 
ATOM     24  C   UNL A   1      32.634  17.740  22.758  1.00  0.00     0.001 A 
ATOM     25  C   UNL A   1      33.774  17.222  23.365  1.00  0.00     0.000 A 
ENDBRANCH  19  20
ENDBRANCH   9  14
ENDBRANCH   8   9
ENDBRANCH   7   8
ENDBRANCH   6   7
ENDBRANCH   5   6
ENDBRANCH   1   5
BRANCH   3  26
ATOM     26  C   UNL A   1      35.860  22.673  25.361  1.00  0.00     0.116 C 
BRANCH  26  27
ATOM     27  C   UNL A   1      37.382  22.660  25.473  1.00  0.00     0.023 C 
BRANCH  27  28
ATOM     28  C   UNL A   1      38.026  21.287  25.384  1.00  0.00     0.023 C 
BRANCH  28  29
ATOM     29  C   UNL A   1      39.346  21.162  26.125  1.00  0.00     0.116 C 
BRANCH  29  30
ATOM     30  N   UNL A   1      39.993  19.861  25.978  1.00  0.00    -0.352 N 
ATOM     31  C   UNL A   1      41.332  19.566  26.103  1.00  0.00     0.251 C 
ATOM     32  H   UNL A   1      39.401  19.104  25.763  1.00  0.00     0.163 HD
ATOM     33  O   UNL A   1      41.761  18.437  25.897  1.00  0.00    -0.269 OA
BRANCH  31  34
ATOM     34  C   UNL A   1      42.248  20.672  26.434  1.00  0.00     0.039 A 
ATOM     35  C   UNL A   1      42.771  21.445  25.396  1.00  0.00     0.014 A 
ATOM     36  C   UNL A   1      42.416  21.047  27.769  1.00  0.00     0.014 A 
ATOM     37  C   UNL A   1      43.365  22.670  25.695  1.00  0.00     0.010 A 
ATOM     38  C   UNL A   1      42.928  22.304  28.056  1.00  0.00     0.010 A 
ATOM     39  C   UNL A   1      43.381  23.139  27.020  1.00  0.00    -0.014 A 
BRANCH  39  40
ATOM     40  C   UNL A   1      43.812  24.519  27.352  1.00  0.00     0.031 A 
ATOM     41  C   UNL A   1      42.795  25.525  27.809  1.00  0.00     0.074 A 
ATOM     42  C   UNL A   1      45.086  24.894  27.120  1.00  0.00     0.049 A 
ATOM     43  N   UNL A   1      42.933  26.812  27.993  1.00  0.00    -0.248 NA
ATOM     44  C   UNL A   1      41.432  25.025  28.047  1.00  0.00     0.031 C 
ATOM     45  C   UNL A   1      46.148  24.027  26.604  1.00  0.00     0.029 A 
ATOM     46  N   UNL A   1      45.699  26.115  27.264  1.00  0.00    -0.354 N 
ATOM     47  C   UNL A   1      41.671  27.278  28.332  1.00  0.00     0.074 A 
ATOM     48  C   UNL A   1      40.771  26.146  28.293  1.00  0.00     0.031 C 
ATOM     49  C   UNL A   1      47.281  24.739  26.486  1.00  0.00     0.029 A 
ATOM     50  C   UNL A   1      47.018  26.119  26.882  1.00  0.00     0.049 A 
ATOM     51  H   UNL A   1      45.235  26.913  27.608  1.00  0.00     0.167 HD
ATOM     52  C   UNL A   1      41.302  28.537  28.665  1.00  0.00     0.037 A 
ATOM     53  C   UNL A   1      47.910  27.127  26.839  1.00  0.00     0.037 A 
ATOM     54  C   UNL A   1      42.211  29.644  28.773  1.00  0.00     0.049 A 
ATOM     55  C   UNL A   1      47.481  28.505  27.259  1.00  0.00     0.074 A 
ATOM     56  C   UNL A   1      41.958  30.925  29.229  1.00  0.00     0.029 A 
ATOM     57  N   UNL A   1      43.552  29.599  28.422  1.00  0.00    -0.354 N 
ATOM     58  N   UNL A   1      46.304  28.914  27.664  1.00  0.00    -0.248 NA
ATOM     59  C   UNL A   1      48.502  29.562  27.215  1.00  0.00     0.031 C 
ATOM     60  C   UNL A   1      43.140  31.665  29.127  1.00  0.00     0.029 A 
ATOM     61  C   UNL A   1      44.134  30.838  28.631  1.00  0.00     0.049 A 
ATOM     62  H   UNL A   1      44.020  28.804  28.077  1.00  0.00     0.167 HD
ATOM     63  C   UNL A   1      46.445  30.268  27.933  1.00  0.00     0.074 A 
ATOM     64  C   UNL A   1      47.825  30.609  27.665  1.00  0.00     0.031 C 
ATOM     65  C   UNL A   1      45.511  31.153  28.358  1.00  0.00     0.037 A 
BRANCH  52  66
ATOM     66  C   UNL A   1      39.855  28.782  28.962  1.00  0.00     0.064 A 
ATOM     67  C   UNL A   1      39.340  28.649  30.258  1.00  0.00     0.173 A 
ATOM     68  C   UNL A   1      38.986  29.206  27.945  1.00  0.00     0.173 A 
ATOM     69  F   UNL A   1      40.130  28.232  31.259  1.00  0.00    -0.203 F 
ATOM     70  C   UNL A   1      38.000  28.916  30.525  1.00  0.00     0.198 A 
ATOM     71  C   UNL A   1      37.653  29.493  28.220  1.00  0.00     0.198 A 
ATOM     72  F   UNL A   1      39.432  29.348  26.688  1.00  0.00    -0.203 F 
ATOM     73  F   UNL A   1      37.519  28.749  31.765  1.00  0.00    -0.200 F 
ATOM     74  C   UNL A   1      37.160  29.345  29.509  1.00  0.00     0.200 A 
ATOM     75  F   UNL A   1      36.843  29.915  27.239  1.00  0.00    -0.200 F 
ATOM     76  F   UNL A   1      35.872  29.610  29.769  1.00  0.00    -0.200 F 
ENDBRANCH  52  66
BRANCH  53  77
ATOM     77  C   UNL A   1      49.302  26.875  26.384  1.00  0.00     0.064 A 
ATOM     78  C   UNL A   1      49.641  26.967  25.027  1.00  0.00     0.173 A 
ATOM     79  C   UNL A   1      50.313  26.517  27.287  1.00  0.00     0.173 A 
ATOM     80  F   UNL A   1      48.701  27.285  24.124  1.00  0.00    -0.203 F 
ATOM     81  C   UNL A   1      50.932  26.688  24.587  1.00  0.00     0.198 A 
ATOM     82  C   UNL A   1      51.610  26.261  26.849  1.00  0.00     0.198 A 
ATOM     83  F   UNL A   1      50.040  26.419  28.596  1.00  0.00    -0.203 F 
ATOM     84  F   UNL A   1      51.218  26.739  23.279  1.00  0.00    -0.200 F 
ATOM     85  C   UNL A   1      51.917  26.339  25.498  1.00  0.00     0.200 A 
ATOM     86  F   UNL A   1      52.562  25.933  27.733  1.00  0.00    -0.200 F 
ATOM     87  F   UNL A   1      53.160  26.067  25.074  1.00  0.00    -0.200 F 
ENDBRANCH  53  77
BRANCH  65  88
ATOM     88  C   UNL A   1      45.954  32.568  28.568  1.00  0.00     0.064 A 
ATOM     89  C   UNL A   1      45.841  33.523  27.547  1.00  0.00     0.173 A 
ATOM     90  C   UNL A   1      46.447  32.984  29.812  1.00  0.00     0.173 A 
ATOM     91  F   UNL A   1      45.389  33.165  26.336  1.00  0.00    -0.203 F 
ATOM     92  C   UNL A   1      46.218  34.845  27.763  1.00  0.00     0.198 A 
ATOM     93  C   UNL A   1      46.804  34.311  30.031  1.00  0.00     0.198 A 
ATOM     94  F   UNL A   1      46.570  32.106  30.819  1.00  0.00    -0.203 F 
ATOM     95  F   UNL A   1      46.132  35.735  26.765  1.00  0.00    -0.200 F 
ATOM     96  C   UNL A   1      46.692  35.239  29.005  1.00  0.00     0.200 A 
ATOM     97  F   UNL A   1      47.252  34.693  31.234  1.00  0.00    -0.200 F 
ATOM     98  F   UNL A   1      47.047  36.515  29.214  1.00  0.00    -0.200 F 
ENDBRANCH  65  88
ENDBRANCH  39  40
ENDBRANCH  31  34
ENDBRANCH  29  30
ENDBRANCH  28  29
ENDBRANCH  27  28
ENDBRANCH  26  27
ENDBRANCH   3  26
TORSDOF 18
ENDMDL
MODEL 2
REMARK VINA RESULT:     -11.8      5.085     10.498
REMARK SMILES [NH3+][C@@H](CCCCC(=O)NCCCCNC(=O)c1ccc(-c2c3nc(c(-c4c(F)c(F)c(F)c(F)c4F)c4ccc([nH]4)c(-c4c(F)c(F)c(F)c(F)c4F)c4nc(c(-c5c(F)c(F)c(F)c(F)c5F)c5ccc2[nH]5)C=C4)C=C3)cc1)c1ccc(-c2ccccc2)cc1
REMARK SMILES IDX 7 1 8 2 9 3 6 5 5 6 4 7 3 8 2 9 1 10 80 14 81 15 91 16 82 17
REMARK SMILES IDX 90 18 83 19 84 20 85 21 89 22 86 23 88 24 87 25 10 26 11 27
REMARK SMILES IDX 12 28 13 29 14 30 15 31 16 33 17 34 18 35 79 36 19 37 78 38
REMARK SMILES IDX 20 39 21 40 22 41 72 42 23 43 77 44 71 45 73 46 24 47 76 48
REMARK SMILES IDX 70 49 69 50 25 52 57 53 37 54 56 55 38 56 41 57 55 58 74 59
REMARK SMILES IDX 39 60 40 61 54 63 75 64 42 65 26 66 27 67 35 68 28 69 29 70
REMARK SMILES IDX 33 71 36 72 30 73 31 74 34 75 32 76 58 77 59 78 67 79 60 80
REMARK SMILES IDX 61 81 65 82 68 83 62 84 63 85 66 86 64 87 43 88 44 89 52 90
REMARK SMILES IDX 45 91 46 92 50 93 53 94 47 95 48 96 51 97 49 98
REMARK H PARENT 9 4 1 11 1 12 1 13 14 32 73 51 41 62
REMARK Flexibility Score: inf
ROOT
ATOM      1  C   UNL A   1      32.847  24.357  26.326  1.00  0.00     0.219 C 
ATOM      2  O   UNL A   1      32.278  23.289  26.548  1.00  0.00    -0.275 OA
ATOM      3  N   UNL A   1      32.197  25.517  26.628  1.00  0.00    -0.356 N 
ATOM      4  H   UNL A   1      31.329  25.417  27.081  1.00  0.00     0.163 HD
ENDROOT
BRANCH   1   5
ATOM      5  C   UNL A   1      34.250  24.406  25.746  1.00  0.00     0.100 C 
BRANCH   5   6
ATOM      6  C   UNL A   1      34.328  25.039  24.356  1.00  0.00     0.010 C 
BRANCH   6   7
ATOM      7  C   UNL A   1      33.915  24.228  23.107  1.00  0.00     0.007 C 
BRANCH   7   8
ATOM      8  C   UNL A   1      32.562  24.492  22.421  1.00  0.00     0.070 C 
BRANCH   8   9
ATOM      9  C   UNL A   1      31.324  24.705  23.323  1.00  0.00     0.211 C 
BRANCH   9  10
ATOM     10  N   UNL A   1      30.278  23.711  23.087  1.00  0.00    -0.351 N 
ATOM     11  H   UNL A   1      29.866  23.432  23.978  1.00  0.00     0.345 HD
ATOM     12  H   UNL A   1      30.681  22.894  22.628  1.00  0.00     0.345 HD
ATOM     13  H   UNL A   1      29.556  24.114  22.490  1.00  0.00     0.345 HD
ENDBRANCH   9  10
BRANCH   9  14
ATOM     14  C   UNL A   1      30.807  26.125  23.263  1.00  0.00     0.009 A 
ATOM     15  C   UNL A   1      31.594  27.139  22.707  1.00  0.00     0.010 A 
ATOM     16  C   UNL A   1      29.521  26.460  23.693  1.00  0.00     0.010 A 
ATOM     17  C   UNL A   1      31.081  28.432  22.530  1.00  0.00     0.009 A 
ATOM     18  C   UNL A   1      28.995  27.734  23.467  1.00  0.00     0.009 A 
ATOM     19  C   UNL A   1      29.756  28.750  22.870  1.00  0.00    -0.018 A 
BRANCH  19  20
ATOM     20  C   UNL A   1      29.165  30.083  22.594  1.00  0.00    -0.018 A 
ATOM     21  C   UNL A   1      29.192  31.115  23.549  1.00  0.00     0.009 A 
ATOM     22  C   UNL A   1      28.587  30.384  21.345  1.00  0.00     0.009 A 
ATOM     23  C   UNL A   1      28.674  32.384  23.271  1.00  0.00     0.001 A 
ATOM     24  C   UNL A   1      28.084  31.656  21.057  1.00  0.00     0.001 A 
ATOM     25  C   UNL A   1      28.126  32.656  22.021  1.00  0.00     0.000 A 
ENDBRANCH  19  20
ENDBRANCH   9  14
ENDBRANCH   8   9
ENDBRANCH   7   8
ENDBRANCH   6   7
ENDBRANCH   5   6
ENDBRANCH   1   5
BRANCH   3  26
ATOM     26  C   UNL A   1      32.621  26.873  26.369  1.00  0.00     0.116 C 
BRANCH  26  27
ATOM     27  C   UNL A   1      31.510  27.863  26.712  1.00  0.00     0.023 C 
BRANCH  27  28
ATOM     28  C   UNL A   1      31.612  29.213  26.023  1.00  0.00     0.023 C 
BRANCH  28  29
ATOM     29  C   UNL A   1      32.858  30.007  26.376  1.00  0.00     0.116 C 
BRANCH  29  30
ATOM     30  N   UNL A   1      32.590  31.363  26.846  1.00  0.00    -0.352 N 
ATOM     31  C   UNL A   1      33.446  32.208  27.517  1.00  0.00     0.251 C 
ATOM     32  H   UNL A   1      31.689  31.715  26.663  1.00  0.00     0.163 HD
ATOM     33  O   UNL A   1      33.079  33.308  27.913  1.00  0.00    -0.269 OA
BRANCH  31  34
ATOM     34  C   UNL A   1      34.807  31.719  27.800  1.00  0.00     0.039 A 
ATOM     35  C   UNL A   1      35.844  32.647  27.909  1.00  0.00     0.014 A 
ATOM     36  C   UNL A   1      34.996  30.379  28.146  1.00  0.00     0.014 A 
ATOM     37  C   UNL A   1      37.050  32.250  28.485  1.00  0.00     0.010 A 
ATOM     38  C   UNL A   1      36.164  30.011  28.797  1.00  0.00     0.010 A 
ATOM     39  C   UNL A   1      37.191  30.950  28.998  1.00  0.00    -0.014 A 
BRANCH  39  40
ATOM     40  C   UNL A   1      38.374  30.553  29.800  1.00  0.00     0.031 A 
ATOM     41  C   UNL A   1      39.339  29.543  29.251  1.00  0.00     0.074 A 
ATOM     42  C   UNL A   1      38.504  31.004  31.064  1.00  0.00     0.049 A 
ATOM     43  N   UNL A   1      40.338  28.946  29.847  1.00  0.00    -0.248 NA
ATOM     44  C   UNL A   1      39.127  29.116  27.859  1.00  0.00     0.031 C 
ATOM     45  C   UNL A   1      37.588  31.928  31.737  1.00  0.00     0.029 A 
ATOM     46  N   UNL A   1      39.448  30.721  32.021  1.00  0.00    -0.354 N 
ATOM     47  C   UNL A   1      40.846  28.050  28.919  1.00  0.00     0.074 A 
ATOM     48  C   UNL A   1      40.028  28.153  27.731  1.00  0.00     0.031 C 
ATOM     49  C   UNL A   1      38.022  32.145  32.990  1.00  0.00     0.029 A 
ATOM     50  C   UNL A   1      39.222  31.348  33.222  1.00  0.00     0.049 A 
ATOM     51  H   UNL A   1      40.215  30.125  31.861  1.00  0.00     0.167 HD
ATOM     52  C   UNL A   1      41.915  27.229  29.041  1.00  0.00     0.037 A 
ATOM     53  C   UNL A   1      39.897  31.275  34.385  1.00  0.00     0.037 A 
ATOM     54  C   UNL A   1      42.770  27.182  30.196  1.00  0.00     0.049 A 
ATOM     55  C   UNL A   1      41.108  30.388  34.476  1.00  0.00     0.074 A 
ATOM     56  C   UNL A   1      43.951  26.482  30.365  1.00  0.00     0.029 A 
ATOM     57  N   UNL A   1      42.535  27.868  31.378  1.00  0.00    -0.354 N 
ATOM     58  N   UNL A   1      41.632  29.612  33.559  1.00  0.00    -0.248 NA
ATOM     59  C   UNL A   1      41.820  30.365  35.761  1.00  0.00     0.031 C 
ATOM     60  C   UNL A   1      44.416  26.719  31.662  1.00  0.00     0.029 A 
ATOM     61  C   UNL A   1      43.539  27.588  32.290  1.00  0.00     0.049 A 
ATOM     62  H   UNL A   1      41.769  28.465  31.543  1.00  0.00     0.167 HD
ATOM     63  C   UNL A   1      42.738  29.019  34.151  1.00  0.00     0.074 A 
ATOM     64  C   UNL A   1      42.823  29.538  35.499  1.00  0.00     0.031 C 
ATOM     65  C   UNL A   1      43.603  28.118  33.626  1.00  0.00     0.037 A 
BRANCH  52  66
ATOM     66  C   UNL A   1      42.238  26.330  27.889  1.00  0.00     0.064 A 
ATOM     67  C   UNL A   1      41.582  25.105  27.709  1.00  0.00     0.173 A 
ATOM     68  C   UNL A   1      43.178  26.724  26.925  1.00  0.00     0.173 A 
ATOM     69  F   UNL A   1      40.686  24.680  28.613  1.00  0.00    -0.203 F 
ATOM     70  C   UNL A   1      41.866  24.296  26.613  1.00  0.00     0.198 A 
ATOM     71  C   UNL A   1      43.444  25.924  25.818  1.00  0.00     0.198 A 
ATOM     72  F   UNL A   1      43.832  27.888  27.053  1.00  0.00    -0.203 F 
ATOM     73  F   UNL A   1      41.253  23.112  26.477  1.00  0.00    -0.200 F 
ATOM     74  C   UNL A   1      42.791  24.709  25.664  1.00  0.00     0.200 A 
ATOM     75  F   UNL A   1      44.332  26.327  24.898  1.00  0.00    -0.200 F 
ATOM     76  F   UNL A   1      43.057  23.934  24.604  1.00  0.00    -0.200 F 
ENDBRANCH  52  66
BRANCH  53  77
ATOM     77  C   UNL A   1      39.450  32.064  35.562  1.00  0.00     0.064 A 
ATOM     78  C   UNL A   1      38.556  31.519  36.493  1.00  0.00     0.173 A 
ATOM     79  C   UNL A   1      39.886  33.381  35.767  1.00  0.00     0.173 A 
ATOM     80  F   UNL A   1      38.094  30.271  36.325  1.00  0.00    -0.203 F 
ATOM     81  C   UNL A   1      38.096  32.269  37.573  1.00  0.00     0.198 A 
ATOM     82  C   UNL A   1      39.444  34.122  36.861  1.00  0.00     0.198 A 
ATOM     83  F   UNL A   1      40.745  33.947  34.906  1.00  0.00    -0.203 F 
ATOM     84  F   UNL A   1      37.206  31.739  38.423  1.00  0.00    -0.200 F 
ATOM     85  C   UNL A   1      38.543  33.568  37.759  1.00  0.00     0.200 A 
ATOM     86  F   UNL A   1      39.885  35.374  37.042  1.00  0.00    -0.200 F 
ATOM     87  F   UNL A   1      38.098  34.291  38.797  1.00  0.00    -0.200 F 
ENDBRANCH  53  77
BRANCH  65  88
ATOM     88  C   UNL A   1      44.719  27.646  34.507  1.00  0.00     0.064 A 
ATOM     89  C   UNL A   1      44.586  26.491  35.289  1.00  0.00     0.173 A 
ATOM     90  C   UNL A   1      45.945  28.325  34.531  1.00  0.00     0.173 A 
ATOM     91  F   UNL A   1      43.425  25.819  35.309  1.00  0.00    -0.203 F 
ATOM     92  C   UNL A   1      45.641  26.037  36.075  1.00  0.00     0.198 A 
ATOM     93  C   UNL A   1      47.005  27.857  35.301  1.00  0.00     0.198 A 
ATOM     94  F   UNL A   1      46.118  29.434  33.796  1.00  0.00    -0.203 F 
ATOM     95  F   UNL A   1      45.484  24.948  36.840  1.00  0.00    -0.200 F 
ATOM     96  C   UNL A   1      46.850  26.716  36.075  1.00  0.00     0.200 A 
ATOM     97  F   UNL A   1      48.175  28.508  35.293  1.00  0.00    -0.200 F 
ATOM     98  F   UNL A   1      47.869  26.273  36.826  1.00  0.00    -0.200 F 
ENDBRANCH  65  88
ENDBRANCH  39  40
ENDBRANCH  31  34
ENDBRANCH  29  30
ENDBRANCH  28  29
ENDBRANCH  27  28
ENDBRANCH  26  27
ENDBRANCH   3  26
TORSDOF 18
ENDMDL
MODEL 3
REMARK VINA RESULT:     -11.6      5.892     11.244
REMARK SMILES [NH3+][C@@H](CCCCC(=O)NCCCCNC(=O)c1ccc(-c2c3nc(c(-c4c(F)c(F)c(F)c(F)c4F)c4ccc([nH]4)c(-c4c(F)c(F)c(F)c(F)c4F)c4nc(c(-c5c(F)c(F)c(F)c(F)c5F)c5ccc2[nH]5)C=C4)C=C3)cc1)c1ccc(-c2ccccc2)cc1
REMARK SMILES IDX 7 1 8 2 9 3 6 5 5 6 4 7 3 8 2 9 1 10 80 14 81 15 91 16 82 17
REMARK SMILES IDX 90 18 83 19 84 20 85 21 89 22 86 23 88 24 87 25 10 26 11 27
REMARK SMILES IDX 12 28 13 29 14 30 15 31 16 33 17 34 18 35 79 36 19 37 78 38
REMARK SMILES IDX 20 39 21 40 22 41 72 42 23 43 77 44 71 45 73 46 24 47 76 48
REMARK SMILES IDX 70 49 69 50 25 52 57 53 37 54 56 55 38 56 41 57 55 58 74 59
REMARK SMILES IDX 39 60 40 61 54 63 75 64 42 65 26 66 27 67 35 68 28 69 29 70
REMARK SMILES IDX 33 71 36 72 30 73 31 74 34 75 32 76 58 77 59 78 67 79 60 80
REMARK SMILES IDX 61 81 65 82 68 83 62 84 63 85 66 86 64 87 43 88 44 89 52 90
REMARK SMILES IDX 45 91 46 92 50 93 53 94 47 95 48 96 51 97 49 98
REMARK H PARENT 9 4 1 11 1 12 1 13 14 32 73 51 41 62
REMARK Flexibility Score: inf
ROOT
ATOM      1  C   UNL A   1      33.505  28.032  24.840  1.00  0.00     0.219 C 
ATOM      2  O   UNL A   1      34.395  28.033  23.990  1.00  0.00    -0.275 OA
ATOM      3  N   UNL A   1      32.742  29.152  24.986  1.00  0.00    -0.356 N 
ATOM      4  H   UNL A   1      32.911  29.874  24.338  1.00  0.00     0.163 HD
ENDROOT
BRANCH   1   5
ATOM      5  C   UNL A   1      33.232  26.813  25.705  1.00  0.00     0.100 C 
BRANCH   5   6
ATOM      6  C   UNL A   1      34.009  25.564  25.284  1.00  0.00     0.010 C 
BRANCH   6   7
ATOM      7  C   UNL A   1      33.259  24.249  24.976  1.00  0.00     0.007 C 
BRANCH   7   8
ATOM      8  C   UNL A   1      31.720  24.219  24.955  1.00  0.00     0.070 C 
BRANCH   8   9
ATOM      9  C   UNL A   1      31.010  24.482  23.607  1.00  0.00     0.211 C 
BRANCH   9  10
ATOM     10  N   UNL A   1      31.773  23.987  22.462  1.00  0.00    -0.351 N 
ATOM     11  H   UNL A   1      31.390  24.378  21.602  1.00  0.00     0.345 HD
ATOM     12  H   UNL A   1      31.715  22.969  22.429  1.00  0.00     0.345 HD
ATOM     13  H   UNL A   1      32.749  24.267  22.559  1.00  0.00     0.345 HD
ENDBRANCH   9  10
BRANCH   9  14
ATOM     14  C   UNL A   1      30.591  25.927  23.451  1.00  0.00     0.009 A 
ATOM     15  C   UNL A   1      31.255  26.760  22.544  1.00  0.00     0.010 A 
ATOM     16  C   UNL A   1      29.503  26.458  24.146  1.00  0.00     0.010 A 
ATOM     17  C   UNL A   1      30.800  28.062  22.297  1.00  0.00     0.009 A 
ATOM     18  C   UNL A   1      29.019  27.737  23.860  1.00  0.00     0.009 A 
ATOM     19  C   UNL A   1      29.647  28.569  22.920  1.00  0.00    -0.018 A 
BRANCH  19  20
ATOM     20  C   UNL A   1      29.091  29.905  22.593  1.00  0.00    -0.018 A 
ATOM     21  C   UNL A   1      29.103  30.957  23.526  1.00  0.00     0.009 A 
ATOM     22  C   UNL A   1      28.563  30.188  21.318  1.00  0.00     0.009 A 
ATOM     23  C   UNL A   1      28.618  32.229  23.201  1.00  0.00     0.001 A 
ATOM     24  C   UNL A   1      28.094  31.461  20.983  1.00  0.00     0.001 A 
ATOM     25  C   UNL A   1      28.121  32.482  21.927  1.00  0.00     0.000 A 
ENDBRANCH  19  20
ENDBRANCH   9  14
ENDBRANCH   8   9
ENDBRANCH   7   8
ENDBRANCH   6   7
ENDBRANCH   5   6
ENDBRANCH   1   5
BRANCH   3  26
ATOM     26  C   UNL A   1      31.717  29.415  25.969  1.00  0.00     0.116 C 
BRANCH  26  27
ATOM     27  C   UNL A   1      31.820  30.846  26.491  1.00  0.00     0.023 C 
BRANCH  27  28
ATOM     28  C   UNL A   1      32.864  31.065  27.573  1.00  0.00     0.023 C 
BRANCH  28  29
ATOM     29  C   UNL A   1      33.677  32.338  27.414  1.00  0.00     0.116 C 
BRANCH  29  30
ATOM     30  N   UNL A   1      32.914  33.565  27.624  1.00  0.00    -0.352 N 
ATOM     31  C   UNL A   1      33.159  34.566  28.537  1.00  0.00     0.251 C 
ATOM     32  H   UNL A   1      32.129  33.692  27.042  1.00  0.00     0.163 HD
ATOM     33  O   UNL A   1      32.405  35.524  28.654  1.00  0.00    -0.269 OA
BRANCH  31  34
ATOM     34  C   UNL A   1      34.332  34.416  29.417  1.00  0.00     0.039 A 
ATOM     35  C   UNL A   1      34.162  33.810  30.663  1.00  0.00     0.014 A 
ATOM     36  C   UNL A   1      35.605  34.697  28.917  1.00  0.00     0.014 A 
ATOM     37  C   UNL A   1      35.286  33.371  31.362  1.00  0.00     0.010 A 
ATOM     38  C   UNL A   1      36.714  34.182  29.573  1.00  0.00     0.010 A 
ATOM     39  C   UNL A   1      36.563  33.489  30.786  1.00  0.00    -0.014 A 
BRANCH  39  40
ATOM     40  C   UNL A   1      37.754  32.852  31.397  1.00  0.00     0.031 A 
ATOM     41  C   UNL A   1      38.392  31.671  30.726  1.00  0.00     0.074 A 
ATOM     42  C   UNL A   1      38.177  33.256  32.613  1.00  0.00     0.049 A 
ATOM     43  N   UNL A   1      39.332  30.877  31.169  1.00  0.00    -0.248 NA
ATOM     44  C   UNL A   1      37.874  31.308  29.397  1.00  0.00     0.031 C 
ATOM     45  C   UNL A   1      37.590  34.342  33.400  1.00  0.00     0.029 A 
ATOM     46  N   UNL A   1      39.187  32.778  33.412  1.00  0.00    -0.354 N 
ATOM     47  C   UNL A   1      39.489  29.903  30.194  1.00  0.00     0.074 A 
ATOM     48  C   UNL A   1      38.527  30.181  29.151  1.00  0.00     0.031 C 
ATOM     49  C   UNL A   1      38.257  34.455  34.562  1.00  0.00     0.029 A 
ATOM     50  C   UNL A   1      39.291  33.428  34.617  1.00  0.00     0.049 A 
ATOM     51  H   UNL A   1      39.781  32.039  33.146  1.00  0.00     0.167 HD
ATOM     52  C   UNL A   1      40.375  28.880  30.163  1.00  0.00     0.037 A 
ATOM     53  C   UNL A   1      40.117  33.208  35.658  1.00  0.00     0.037 A 
ATOM     54  C   UNL A   1      41.378  28.649  31.166  1.00  0.00     0.049 A 
ATOM     55  C   UNL A   1      41.121  32.092  35.575  1.00  0.00     0.074 A 
ATOM     56  C   UNL A   1      42.403  27.721  31.161  1.00  0.00     0.029 A 
ATOM     57  N   UNL A   1      41.483  29.358  32.353  1.00  0.00    -0.354 N 
ATOM     58  N   UNL A   1      41.319  31.232  34.606  1.00  0.00    -0.248 NA
ATOM     59  C   UNL A   1      42.013  31.912  36.730  1.00  0.00     0.031 C 
ATOM     60  C   UNL A   1      43.111  27.847  32.359  1.00  0.00     0.029 A 
ATOM     61  C   UNL A   1      42.543  28.872  33.098  1.00  0.00     0.049 A 
ATOM     62  H   UNL A   1      40.891  30.098  32.624  1.00  0.00     0.167 HD
ATOM     63  C   UNL A   1      42.363  30.420  35.027  1.00  0.00     0.074 A 
ATOM     64  C   UNL A   1      42.770  30.900  36.330  1.00  0.00     0.031 C 
ATOM     65  C   UNL A   1      42.930  29.366  34.393  1.00  0.00     0.037 A 
BRANCH  52  66
ATOM     66  C   UNL A   1      40.316  27.944  28.997  1.00  0.00     0.064 A 
ATOM     67  C   UNL A   1      41.041  28.188  27.823  1.00  0.00     0.173 A 
ATOM     68  C   UNL A   1      39.565  26.761  29.075  1.00  0.00     0.173 A 
ATOM     69  F   UNL A   1      41.761  29.314  27.697  1.00  0.00    -0.203 F 
ATOM     70  C   UNL A   1      41.006  27.290  26.760  1.00  0.00     0.198 A 
ATOM     71  C   UNL A   1      39.550  25.854  28.020  1.00  0.00     0.198 A 
ATOM     72  F   UNL A   1      38.855  26.482  30.178  1.00  0.00    -0.203 F 
ATOM     73  F   UNL A   1      41.679  27.560  25.633  1.00  0.00    -0.200 F 
ATOM     74  C   UNL A   1      40.267  26.121  26.862  1.00  0.00     0.200 A 
ATOM     75  F   UNL A   1      38.841  24.721  28.122  1.00  0.00    -0.200 F 
ATOM     76  F   UNL A   1      40.241  25.252  25.842  1.00  0.00    -0.200 F 
ENDBRANCH  52  66
BRANCH  53  77
ATOM     77  C   UNL A   1      40.037  34.063  36.871  1.00  0.00     0.064 A 
ATOM     78  C   UNL A   1      39.150  33.751  37.911  1.00  0.00     0.173 A 
ATOM     79  C   UNL A   1      40.824  35.215  37.006  1.00  0.00     0.173 A 
ATOM     80  F   UNL A   1      38.361  32.670  37.814  1.00  0.00    -0.203 F 
ATOM     81  C   UNL A   1      39.036  34.572  39.030  1.00  0.00     0.198 A 
ATOM     82  C   UNL A   1      40.726  36.023  38.137  1.00  0.00     0.198 A 
ATOM     83  F   UNL A   1      41.691  35.555  36.041  1.00  0.00    -0.203 F 
ATOM     84  F   UNL A   1      38.147  34.276  39.988  1.00  0.00    -0.200 F 
ATOM     85  C   UNL A   1      39.826  35.706  39.144  1.00  0.00     0.200 A 
ATOM     86  F   UNL A   1      41.498  37.113  38.249  1.00  0.00    -0.200 F 
ATOM     87  F   UNL A   1      39.714  36.498  40.220  1.00  0.00    -0.200 F 
ENDBRANCH  53  77
BRANCH  65  88
ATOM     88  C   UNL A   1      44.054  28.669  35.095  1.00  0.00     0.064 A 
ATOM     89  C   UNL A   1      43.811  27.607  35.977  1.00  0.00     0.173 A 
ATOM     90  C   UNL A   1      45.385  29.031  34.845  1.00  0.00     0.173 A 
ATOM     91  F   UNL A   1      42.552  27.237  36.258  1.00  0.00    -0.203 F 
ATOM     92  C   UNL A   1      44.864  26.938  36.595  1.00  0.00     0.198 A 
ATOM     93  C   UNL A   1      46.436  28.347  35.448  1.00  0.00     0.198 A 
ATOM     94  F   UNL A   1      45.665  30.039  34.006  1.00  0.00    -0.203 F 
ATOM     95  F   UNL A   1      44.609  25.946  37.459  1.00  0.00    -0.200 F 
ATOM     96  C   UNL A   1      46.174  27.304  36.325  1.00  0.00     0.200 A 
ATOM     97  F   UNL A   1      47.701  28.694  35.179  1.00  0.00    -0.200 F 
ATOM     98  F   UNL A   1      47.187  26.653  36.914  1.00  0.00    -0.200 F 
ENDBRANCH  65  88
ENDBRANCH  39  40
ENDBRANCH  31  34
ENDBRANCH  29  30
ENDBRANCH  28  29
ENDBRANCH  27  28
ENDBRANCH  26  27
ENDBRANCH   3  26
TORSDOF 18
ENDMDL
