MODEL 1
REMARK VINA RESULT:     -13.1      0.000      0.000
REMARK SMILES CCC1(C(=O)NCCCCNC(=O)c2ccc(-c3c4nc(c(-c5c(F)c(F)c(F)c(F)c5F)c5ccc([nH]5)c(-c5c(F)c(F)c(F)c(F)c5F)c5nc(c(-c6c(F)c(F)c(F)c(F)c6F)c6ccc3[nH]6)C=C5)C=C4)cc2)CCN(c2ncnc3c2CCCC3)CC1
REMARK SMILES IDX 9 1 8 2 7 3 6 4 4 5 5 6 3 8 77 9 91 10 78 11 90 12 79 13
REMARK SMILES IDX 2 14 1 15 80 16 81 17 85 18 82 19 84 20 86 21 83 22 89 23
REMARK SMILES IDX 87 24 88 25 10 26 11 27 12 28 13 30 14 31 15 32 76 33 16 34
REMARK SMILES IDX 75 35 17 36 18 37 19 38 69 39 20 40 74 41 68 42 70 43 21 44
REMARK SMILES IDX 73 45 67 46 66 47 22 49 54 50 34 51 53 52 35 53 38 54 52 55
REMARK SMILES IDX 71 56 36 57 37 58 51 60 72 61 39 62 23 63 24 64 32 65 25 66
REMARK SMILES IDX 26 67 30 68 33 69 27 70 28 71 31 72 29 73 55 74 56 75 64 76
REMARK SMILES IDX 57 77 58 78 62 79 65 80 59 81 60 82 63 83 61 84 40 85 41 86
REMARK SMILES IDX 49 87 42 88 43 89 47 90 50 91 44 92 45 93 48 94 46 95
REMARK H PARENT 6 7 11 29 70 48 38 59
REMARK Flexibility Score: inf
ROOT
ATOM      1  C   UNL A   1      32.192  31.676  27.030  1.00  0.00     0.023 C 
ENDROOT
BRANCH   1   2
ATOM      2  C   UNL A   1      32.795  30.308  26.748  1.00  0.00     0.023 C 
BRANCH   2   3
ATOM      3  C   UNL A   1      32.544  29.749  25.359  1.00  0.00     0.116 C 
BRANCH   3   4
ATOM      4  N   UNL A   1      33.665  29.087  24.737  1.00  0.00    -0.356 N 
ATOM      5  C   UNL A   1      33.592  28.306  23.616  1.00  0.00     0.226 C 
ATOM      6  O   UNL A   1      34.396  28.589  22.720  1.00  0.00    -0.274 OA
ATOM      7  H   UNL A   1      34.550  29.208  25.150  1.00  0.00     0.163 HD
BRANCH   5   8
ATOM      8  C   UNL A   1      32.749  26.999  23.536  1.00  0.00     0.052 C 
ATOM      9  C   UNL A   1      32.445  26.512  24.993  1.00  0.00     0.038 C 
ATOM     10  C   UNL A   1      33.274  25.822  22.688  1.00  0.00     0.038 C 
ATOM     11  C   UNL A   1      33.556  25.644  25.600  1.00  0.00     0.119 C 
ATOM     12  C   UNL A   1      34.280  24.913  23.384  1.00  0.00     0.119 C 
ATOM     13  N   UNL A   1      33.776  24.528  24.692  1.00  0.00    -0.356 N 
BRANCH   8  14
ATOM     14  C   UNL A   1      31.375  27.454  22.920  1.00  0.00     0.013 C 
ATOM     15  C   UNL A   1      30.157  27.271  23.823  1.00  0.00     0.005 C 
ENDBRANCH   8  14
BRANCH  13  16
ATOM     16  C   UNL A   1      34.536  23.441  25.148  1.00  0.00     0.135 A 
ATOM     17  N   UNL A   1      35.784  23.666  25.592  1.00  0.00    -0.219 NA
ATOM     18  C   UNL A   1      34.052  22.160  24.885  1.00  0.00     0.016 A 
ATOM     19  C   UNL A   1      36.557  22.583  25.745  1.00  0.00     0.224 A 
ATOM     20  C   UNL A   1      34.937  21.114  25.094  1.00  0.00     0.049 A 
ATOM     21  C   UNL A   1      32.631  21.942  24.439  1.00  0.00     0.041 C 
ATOM     22  N   UNL A   1      36.206  21.311  25.507  1.00  0.00    -0.241 NA
ATOM     23  C   UNL A   1      34.549  19.698  24.761  1.00  0.00     0.057 C 
ATOM     24  C   UNL A   1      32.369  20.546  23.884  1.00  0.00     0.005 C 
ATOM     25  C   UNL A   1      33.036  19.489  24.752  1.00  0.00     0.007 C 
ENDBRANCH  13  16
ENDBRANCH   5   8
ENDBRANCH   3   4
ENDBRANCH   2   3
ENDBRANCH   1   2
BRANCH   1  26
ATOM     26  C   UNL A   1      33.150  32.744  27.539  1.00  0.00     0.116 C 
BRANCH  26  27
ATOM     27  N   UNL A   1      32.563  34.059  27.777  1.00  0.00    -0.352 N 
ATOM     28  C   UNL A   1      33.029  35.045  28.629  1.00  0.00     0.251 C 
ATOM     29  H   UNL A   1      31.743  34.269  27.274  1.00  0.00     0.163 HD
ATOM     30  O   UNL A   1      32.464  36.116  28.740  1.00  0.00    -0.269 OA
BRANCH  28  31
ATOM     31  C   UNL A   1      34.204  34.719  29.464  1.00  0.00     0.039 A 
ATOM     32  C   UNL A   1      33.988  34.166  30.727  1.00  0.00     0.014 A 
ATOM     33  C   UNL A   1      35.482  34.764  28.905  1.00  0.00     0.014 A 
ATOM     34  C   UNL A   1      35.046  33.540  31.385  1.00  0.00     0.010 A 
ATOM     35  C   UNL A   1      36.507  34.058  29.518  1.00  0.00     0.010 A 
ATOM     36  C   UNL A   1      36.295  33.421  30.753  1.00  0.00    -0.014 A 
BRANCH  36  37
ATOM     37  C   UNL A   1      37.391  32.616  31.348  1.00  0.00     0.031 A 
ATOM     38  C   UNL A   1      37.892  32.944  32.725  1.00  0.00     0.074 A 
ATOM     39  C   UNL A   1      37.998  31.659  30.618  1.00  0.00     0.049 A 
ATOM     40  N   UNL A   1      38.907  32.444  33.379  1.00  0.00    -0.248 NA
ATOM     41  C   UNL A   1      37.178  34.010  33.444  1.00  0.00     0.031 C 
ATOM     42  C   UNL A   1      37.651  31.286  29.244  1.00  0.00     0.029 A 
ATOM     43  N   UNL A   1      39.048  30.828  30.929  1.00  0.00    -0.354 N 
ATOM     44  C   UNL A   1      38.970  33.153  34.570  1.00  0.00     0.074 A 
ATOM     45  C   UNL A   1      37.931  34.159  34.522  1.00  0.00     0.031 C 
ATOM     46  C   UNL A   1      38.447  30.280  28.845  1.00  0.00     0.029 A 
ATOM     47  C   UNL A   1      39.384  29.961  29.918  1.00  0.00     0.049 A 
ATOM     48  H   UNL A   1      39.515  30.853  31.794  1.00  0.00     0.167 HD
ATOM     49  C   UNL A   1      39.799  32.965  35.624  1.00  0.00     0.037 A 
ATOM     50  C   UNL A   1      40.340  29.014  29.866  1.00  0.00     0.037 A 
ATOM     51  C   UNL A   1      40.799  31.936  35.689  1.00  0.00     0.049 A 
ATOM     52  C   UNL A   1      41.233  28.805  31.058  1.00  0.00     0.074 A 
ATOM     53  C   UNL A   1      41.642  31.615  36.738  1.00  0.00     0.029 A 
ATOM     54  N   UNL A   1      41.085  31.051  34.659  1.00  0.00    -0.354 N 
ATOM     55  N   UNL A   1      41.241  29.439  32.206  1.00  0.00    -0.248 NA
ATOM     56  C   UNL A   1      42.247  27.747  30.951  1.00  0.00     0.031 C 
ATOM     57  C   UNL A   1      42.459  30.554  36.332  1.00  0.00     0.029 A 
ATOM     58  C   UNL A   1      42.100  30.191  35.043  1.00  0.00     0.049 A 
ATOM     59  H   UNL A   1      40.634  31.037  33.785  1.00  0.00     0.167 HD
ATOM     60  C   UNL A   1      42.236  28.841  32.965  1.00  0.00     0.074 A 
ATOM     61  C   UNL A   1      42.806  27.786  32.152  1.00  0.00     0.031 C 
ATOM     62  C   UNL A   1      42.642  29.138  34.224  1.00  0.00     0.037 A 
BRANCH  49  63
ATOM     63  C   UNL A   1      39.637  33.890  36.793  1.00  0.00     0.064 A 
ATOM     64  C   UNL A   1      40.284  35.135  36.838  1.00  0.00     0.173 A 
ATOM     65  C   UNL A   1      38.832  33.529  37.883  1.00  0.00     0.173 A 
ATOM     66  F   UNL A   1      41.078  35.520  35.828  1.00  0.00    -0.203 F 
ATOM     67  C   UNL A   1      40.164  35.966  37.949  1.00  0.00     0.198 A 
ATOM     68  C   UNL A   1      38.689  34.376  38.978  1.00  0.00     0.198 A 
ATOM     69  F   UNL A   1      38.190  32.351  37.890  1.00  0.00    -0.203 F 
ATOM     70  F   UNL A   1      40.843  37.120  37.996  1.00  0.00    -0.200 F 
ATOM     71  C   UNL A   1      39.363  35.588  39.015  1.00  0.00     0.200 A 
ATOM     72  F   UNL A   1      37.908  34.015  40.006  1.00  0.00    -0.200 F 
ATOM     73  F   UNL A   1      39.252  36.386  40.086  1.00  0.00    -0.200 F 
ENDBRANCH  49  63
BRANCH  50  74
ATOM     74  C   UNL A   1      40.473  28.156  28.659  1.00  0.00     0.064 A 
ATOM     75  C   UNL A   1      39.805  26.924  28.585  1.00  0.00     0.173 A 
ATOM     76  C   UNL A   1      41.259  28.539  27.564  1.00  0.00     0.173 A 
ATOM     77  F   UNL A   1      39.058  26.506  29.617  1.00  0.00    -0.203 F 
ATOM     78  C   UNL A   1      39.933  26.102  27.468  1.00  0.00     0.198 A 
ATOM     79  C   UNL A   1      41.367  27.726  26.438  1.00  0.00     0.198 A 
ATOM     80  F   UNL A   1      41.914  29.709  27.585  1.00  0.00    -0.203 F 
ATOM     81  F   UNL A   1      39.314  24.913  27.439  1.00  0.00    -0.200 F 
ATOM     82  C   UNL A   1      40.709  26.506  26.392  1.00  0.00     0.200 A 
ATOM     83  F   UNL A   1      42.110  28.123  25.395  1.00  0.00    -0.200 F 
ATOM     84  F   UNL A   1      40.828  25.717  25.316  1.00  0.00    -0.200 F 
ENDBRANCH  50  74
BRANCH  62  85
ATOM     85  C   UNL A   1      43.728  28.289  34.814  1.00  0.00     0.064 A 
ATOM     86  C   UNL A   1      45.078  28.654  34.716  1.00  0.00     0.173 A 
ATOM     87  C   UNL A   1      43.407  27.127  35.530  1.00  0.00     0.173 A 
ATOM     88  F   UNL A   1      45.434  29.748  34.027  1.00  0.00    -0.203 F 
ATOM     89  C   UNL A   1      46.071  27.872  35.300  1.00  0.00     0.198 A 
ATOM     90  C   UNL A   1      44.400  26.362  36.134  1.00  0.00     0.198 A 
ATOM     91  F   UNL A   1      42.129  26.741  35.655  1.00  0.00    -0.203 F 
ATOM     92  F   UNL A   1      47.359  28.217  35.164  1.00  0.00    -0.200 F 
ATOM     93  C   UNL A   1      45.732  26.733  36.015  1.00  0.00     0.200 A 
ATOM     94  F   UNL A   1      44.070  25.267  36.834  1.00  0.00    -0.200 F 
ATOM     95  F   UNL A   1      46.689  25.988  36.585  1.00  0.00    -0.200 F 
ENDBRANCH  62  85
ENDBRANCH  36  37
ENDBRANCH  28  31
ENDBRANCH  26  27
ENDBRANCH   1  26
TORSDOF 13
ENDMDL
MODEL 2
REMARK VINA RESULT:     -13.1      0.131      1.122
REMARK SMILES CCC1(C(=O)NCCCCNC(=O)c2ccc(-c3c4nc(c(-c5c(F)c(F)c(F)c(F)c5F)c5ccc([nH]5)c(-c5c(F)c(F)c(F)c(F)c5F)c5nc(c(-c6c(F)c(F)c(F)c(F)c6F)c6ccc3[nH]6)C=C5)C=C4)cc2)CCN(c2ncnc3c2CCCC3)CC1
REMARK SMILES IDX 9 1 8 2 7 3 6 4 4 5 5 6 3 8 77 9 91 10 78 11 90 12 79 13
REMARK SMILES IDX 2 14 1 15 80 16 81 17 85 18 82 19 84 20 86 21 83 22 89 23
REMARK SMILES IDX 87 24 88 25 10 26 11 27 12 28 13 30 14 31 15 32 76 33 16 34
REMARK SMILES IDX 75 35 17 36 18 37 19 38 69 39 20 40 74 41 68 42 70 43 21 44
REMARK SMILES IDX 73 45 67 46 66 47 22 49 54 50 34 51 53 52 35 53 38 54 52 55
REMARK SMILES IDX 71 56 36 57 37 58 51 60 72 61 39 62 23 63 24 64 32 65 25 66
REMARK SMILES IDX 26 67 30 68 33 69 27 70 28 71 31 72 29 73 55 74 56 75 64 76
REMARK SMILES IDX 57 77 58 78 62 79 65 80 59 81 60 82 63 83 61 84 40 85 41 86
REMARK SMILES IDX 49 87 42 88 43 89 47 90 50 91 44 92 45 93 48 94 46 95
REMARK H PARENT 6 7 11 29 70 48 38 59
REMARK Flexibility Score: inf
ROOT
ATOM      1  C   UNL A   1      32.160  31.585  27.003  1.00  0.00     0.023 C 
ENDROOT
BRANCH   1   2
ATOM      2  C   UNL A   1      32.757  30.221  26.690  1.00  0.00     0.023 C 
BRANCH   2   3
ATOM      3  C   UNL A   1      32.532  29.710  25.278  1.00  0.00     0.116 C 
BRANCH   3   4
ATOM      4  N   UNL A   1      33.657  29.050  24.663  1.00  0.00    -0.356 N 
ATOM      5  C   UNL A   1      33.595  28.279  23.534  1.00  0.00     0.226 C 
ATOM      6  O   UNL A   1      34.409  28.567  22.650  1.00  0.00    -0.274 OA
ATOM      7  H   UNL A   1      34.539  29.163  25.087  1.00  0.00     0.163 HD
BRANCH   5   8
ATOM      8  C   UNL A   1      32.748  26.977  23.432  1.00  0.00     0.052 C 
ATOM      9  C   UNL A   1      32.395  26.496  24.881  1.00  0.00     0.038 C 
ATOM     10  C   UNL A   1      33.293  25.793  22.606  1.00  0.00     0.038 C 
ATOM     11  C   UNL A   1      33.481  25.626  25.526  1.00  0.00     0.119 C 
ATOM     12  C   UNL A   1      34.271  24.881  23.338  1.00  0.00     0.119 C 
ATOM     13  N   UNL A   1      33.724  24.505  24.630  1.00  0.00    -0.356 N 
BRANCH   8  14
ATOM     14  C   UNL A   1      31.396  27.436  22.771  1.00  0.00     0.013 C 
ATOM     15  C   UNL A   1      30.152  27.279  23.642  1.00  0.00     0.005 C 
ENDBRANCH   8  14
BRANCH  13  16
ATOM     16  C   UNL A   1      34.463  23.416  25.114  1.00  0.00     0.135 A 
ATOM     17  N   UNL A   1      35.695  23.637  25.606  1.00  0.00    -0.219 NA
ATOM     18  C   UNL A   1      33.988  22.136  24.833  1.00  0.00     0.016 A 
ATOM     19  C   UNL A   1      36.459  22.552  25.788  1.00  0.00     0.224 A 
ATOM     20  C   UNL A   1      34.861  21.088  25.075  1.00  0.00     0.049 A 
ATOM     21  C   UNL A   1      32.584  21.922  24.332  1.00  0.00     0.041 C 
ATOM     22  N   UNL A   1      36.113  21.282  25.536  1.00  0.00    -0.241 NA
ATOM     23  C   UNL A   1      34.482  19.673  24.727  1.00  0.00     0.057 C 
ATOM     24  C   UNL A   1      32.340  20.527  23.767  1.00  0.00     0.005 C 
ATOM     25  C   UNL A   1      32.971  19.467  24.660  1.00  0.00     0.007 C 
ENDBRANCH  13  16
ENDBRANCH   5   8
ENDBRANCH   3   4
ENDBRANCH   2   3
ENDBRANCH   1   2
BRANCH   1  26
ATOM     26  C   UNL A   1      33.116  32.628  27.563  1.00  0.00     0.116 C 
BRANCH  26  27
ATOM     27  N   UNL A   1      32.546  33.952  27.791  1.00  0.00    -0.352 N 
ATOM     28  C   UNL A   1      33.033  34.946  28.621  1.00  0.00     0.251 C 
ATOM     29  H   UNL A   1      31.721  34.163  27.296  1.00  0.00     0.163 HD
ATOM     30  O   UNL A   1      32.480  36.024  28.725  1.00  0.00    -0.269 OA
BRANCH  28  31
ATOM     31  C   UNL A   1      34.217  34.620  29.444  1.00  0.00     0.039 A 
ATOM     32  C   UNL A   1      34.013  34.067  30.710  1.00  0.00     0.014 A 
ATOM     33  C   UNL A   1      35.489  34.666  28.873  1.00  0.00     0.014 A 
ATOM     34  C   UNL A   1      35.079  33.442  31.357  1.00  0.00     0.010 A 
ATOM     35  C   UNL A   1      36.521  33.960  29.476  1.00  0.00     0.010 A 
ATOM     36  C   UNL A   1      36.321  33.323  30.712  1.00  0.00    -0.014 A 
BRANCH  36  37
ATOM     37  C   UNL A   1      37.424  32.518  31.296  1.00  0.00     0.031 A 
ATOM     38  C   UNL A   1      37.933  32.842  32.671  1.00  0.00     0.074 A 
ATOM     39  C   UNL A   1      38.028  31.566  30.558  1.00  0.00     0.049 A 
ATOM     40  N   UNL A   1      38.954  32.342  33.317  1.00  0.00    -0.248 NA
ATOM     41  C   UNL A   1      37.221  33.903  33.400  1.00  0.00     0.031 C 
ATOM     42  C   UNL A   1      37.673  31.199  29.185  1.00  0.00     0.029 A 
ATOM     43  N   UNL A   1      39.082  30.737  30.858  1.00  0.00    -0.354 N 
ATOM     44  C   UNL A   1      39.023  33.046  34.510  1.00  0.00     0.074 A 
ATOM     45  C   UNL A   1      37.981  34.049  34.474  1.00  0.00     0.031 C 
ATOM     46  C   UNL A   1      38.468  30.196  28.777  1.00  0.00     0.029 A 
ATOM     47  C   UNL A   1      39.413  29.875  29.841  1.00  0.00     0.049 A 
ATOM     48  H   UNL A   1      39.555  30.759  31.720  1.00  0.00     0.167 HD
ATOM     49  C   UNL A   1      39.859  32.855  35.557  1.00  0.00     0.037 A 
ATOM     50  C   UNL A   1      40.372  28.931  29.778  1.00  0.00     0.037 A 
ATOM     51  C   UNL A   1      40.863  31.829  35.612  1.00  0.00     0.049 A 
ATOM     52  C   UNL A   1      41.273  28.719  30.964  1.00  0.00     0.074 A 
ATOM     53  C   UNL A   1      41.714  31.506  36.653  1.00  0.00     0.029 A 
ATOM     54  N   UNL A   1      41.144  30.950  34.575  1.00  0.00    -0.354 N 
ATOM     55  N   UNL A   1      41.287  29.349  32.114  1.00  0.00    -0.248 NA
ATOM     56  C   UNL A   1      42.290  27.665  30.845  1.00  0.00     0.031 C 
ATOM     57  C   UNL A   1      42.531  30.449  36.237  1.00  0.00     0.029 A 
ATOM     58  C   UNL A   1      42.163  30.090  34.949  1.00  0.00     0.049 A 
ATOM     59  H   UNL A   1      40.687  30.938  33.704  1.00  0.00     0.167 HD
ATOM     60  C   UNL A   1      42.289  28.749  32.864  1.00  0.00     0.074 A 
ATOM     61  C   UNL A   1      42.856  27.700  32.043  1.00  0.00     0.031 C 
ATOM     62  C   UNL A   1      42.703  29.042  34.121  1.00  0.00     0.037 A 
BRANCH  49  63
ATOM     63  C   UNL A   1      39.703  33.775  36.732  1.00  0.00     0.064 A 
ATOM     64  C   UNL A   1      38.890  33.435  37.825  1.00  0.00     0.173 A 
ATOM     65  C   UNL A   1      40.366  35.009  36.766  1.00  0.00     0.173 A 
ATOM     66  F   UNL A   1      38.221  32.272  37.834  1.00  0.00    -0.203 F 
ATOM     67  C   UNL A   1      38.715  34.316  38.889  1.00  0.00     0.198 A 
ATOM     68  C   UNL A   1      40.213  35.874  37.846  1.00  0.00     0.198 A 
ATOM     69  F   UNL A   1      41.156  35.381  35.748  1.00  0.00    -0.203 F 
ATOM     70  F   UNL A   1      37.882  33.997  39.890  1.00  0.00    -0.200 F 
ATOM     71  C   UNL A   1      39.380  35.532  38.901  1.00  0.00     0.200 A 
ATOM     72  F   UNL A   1      40.864  37.046  37.862  1.00  0.00    -0.200 F 
ATOM     73  F   UNL A   1      39.207  36.381  39.924  1.00  0.00    -0.200 F 
ENDBRANCH  49  63
BRANCH  50  74
ATOM     74  C   UNL A   1      40.499  28.078  28.567  1.00  0.00     0.064 A 
ATOM     75  C   UNL A   1      39.851  26.836  28.501  1.00  0.00     0.173 A 
ATOM     76  C   UNL A   1      41.259  28.478  27.460  1.00  0.00     0.173 A 
ATOM     77  F   UNL A   1      39.129  26.401  29.544  1.00  0.00    -0.203 F 
ATOM     78  C   UNL A   1      39.974  26.018  27.379  1.00  0.00     0.198 A 
ATOM     79  C   UNL A   1      41.362  27.670  26.329  1.00  0.00     0.198 A 
ATOM     80  F   UNL A   1      41.894  29.659  27.473  1.00  0.00    -0.203 F 
ATOM     81  F   UNL A   1      39.375  24.820  27.358  1.00  0.00    -0.200 F 
ATOM     82  C   UNL A   1      40.724  26.439  26.292  1.00  0.00     0.200 A 
ATOM     83  F   UNL A   1      42.080  28.083  25.276  1.00  0.00    -0.200 F 
ATOM     84  F   UNL A   1      40.839  25.655  25.211  1.00  0.00    -0.200 F 
ENDBRANCH  50  74
BRANCH  62  85
ATOM     85  C   UNL A   1      43.795  28.194  34.700  1.00  0.00     0.064 A 
ATOM     86  C   UNL A   1      45.142  28.572  34.611  1.00  0.00     0.173 A 
ATOM     87  C   UNL A   1      43.483  27.017  35.397  1.00  0.00     0.173 A 
ATOM     88  F   UNL A   1      45.489  29.680  33.941  1.00  0.00    -0.203 F 
ATOM     89  C   UNL A   1      46.141  27.790  35.186  1.00  0.00     0.198 A 
ATOM     90  C   UNL A   1      44.482  26.252  35.991  1.00  0.00     0.198 A 
ATOM     91  F   UNL A   1      42.208  26.618  35.513  1.00  0.00    -0.203 F 
ATOM     92  F   UNL A   1      47.426  28.148  35.058  1.00  0.00    -0.200 F 
ATOM     93  C   UNL A   1      45.811  26.636  35.881  1.00  0.00     0.200 A 
ATOM     94  F   UNL A   1      44.160  25.143  36.672  1.00  0.00    -0.200 F 
ATOM     95  F   UNL A   1      46.773  25.891  36.441  1.00  0.00    -0.200 F 
ENDBRANCH  62  85
ENDBRANCH  36  37
ENDBRANCH  28  31
ENDBRANCH  26  27
ENDBRANCH   1  26
TORSDOF 13
ENDMDL
MODEL 3
REMARK VINA RESULT:     -13.1      0.981      7.394
REMARK SMILES CCC1(C(=O)NCCCCNC(=O)c2ccc(-c3c4nc(c(-c5c(F)c(F)c(F)c(F)c5F)c5ccc([nH]5)c(-c5c(F)c(F)c(F)c(F)c5F)c5nc(c(-c6c(F)c(F)c(F)c(F)c6F)c6ccc3[nH]6)C=C5)C=C4)cc2)CCN(c2ncnc3c2CCCC3)CC1
REMARK SMILES IDX 9 1 8 2 7 3 6 4 4 5 5 6 3 8 77 9 91 10 78 11 90 12 79 13
REMARK SMILES IDX 2 14 1 15 80 16 81 17 85 18 82 19 84 20 86 21 83 22 89 23
REMARK SMILES IDX 87 24 88 25 10 26 11 27 12 28 13 30 14 31 15 32 76 33 16 34
REMARK SMILES IDX 75 35 17 36 18 37 19 38 69 39 20 40 74 41 68 42 70 43 21 44
REMARK SMILES IDX 73 45 67 46 66 47 22 49 54 50 34 51 53 52 35 53 38 54 52 55
REMARK SMILES IDX 71 56 36 57 37 58 51 60 72 61 39 62 23 63 24 64 32 65 25 66
REMARK SMILES IDX 26 67 30 68 33 69 27 70 28 71 31 72 29 73 55 74 56 75 64 76
REMARK SMILES IDX 57 77 58 78 62 79 65 80 59 81 60 82 63 83 61 84 40 85 41 86
REMARK SMILES IDX 49 87 42 88 43 89 47 90 50 91 44 92 45 93 48 94 46 95
REMARK H PARENT 6 7 11 29 70 48 38 59
REMARK Flexibility Score: inf
ROOT
ATOM      1  C   UNL A   1      32.661  30.932  26.890  1.00  0.00     0.023 C 
ENDROOT
BRANCH   1   2
ATOM      2  C   UNL A   1      32.877  29.508  27.378  1.00  0.00     0.023 C 
BRANCH   2   3
ATOM      3  C   UNL A   1      31.819  28.500  26.965  1.00  0.00     0.116 C 
BRANCH   3   4
ATOM      4  N   UNL A   1      31.448  28.516  25.572  1.00  0.00    -0.356 N 
ATOM      5  C   UNL A   1      31.692  27.504  24.682  1.00  0.00     0.226 C 
ATOM      6  O   UNL A   1      30.713  27.127  24.027  1.00  0.00    -0.274 OA
ATOM      7  H   UNL A   1      30.982  29.315  25.233  1.00  0.00     0.163 HD
BRANCH   5   8
ATOM      8  C   UNL A   1      33.123  27.011  24.318  1.00  0.00     0.052 C 
ATOM      9  C   UNL A   1      33.050  26.230  22.962  1.00  0.00     0.038 C 
ATOM     10  C   UNL A   1      33.916  26.188  25.355  1.00  0.00     0.038 C 
ATOM     11  C   UNL A   1      32.682  24.749  23.119  1.00  0.00     0.119 C 
ATOM     12  C   UNL A   1      33.606  24.696  25.380  1.00  0.00     0.119 C 
ATOM     13  N   UNL A   1      33.651  24.158  24.031  1.00  0.00    -0.356 N 
BRANCH   8  14
ATOM     14  C   UNL A   1      33.934  28.328  24.034  1.00  0.00     0.013 C 
ATOM     15  C   UNL A   1      34.140  28.668  22.559  1.00  0.00     0.005 C 
ENDBRANCH   8  14
BRANCH  13  16
ATOM     16  C   UNL A   1      33.711  22.760  24.122  1.00  0.00     0.135 A 
ATOM     17  N   UNL A   1      32.561  22.067  24.191  1.00  0.00    -0.219 NA
ATOM     18  C   UNL A   1      34.952  22.182  24.387  1.00  0.00     0.016 A 
ATOM     19  C   UNL A   1      32.670  20.783  24.558  1.00  0.00     0.224 A 
ATOM     20  C   UNL A   1      34.943  20.843  24.743  1.00  0.00     0.049 A 
ATOM     21  C   UNL A   1      36.223  22.976  24.248  1.00  0.00     0.041 C 
ATOM     22  N   UNL A   1      33.803  20.131  24.853  1.00  0.00    -0.241 NA
ATOM     23  C   UNL A   1      36.217  20.142  25.133  1.00  0.00     0.057 C 
ATOM     24  C   UNL A   1      37.437  22.308  24.886  1.00  0.00     0.005 C 
ATOM     25  C   UNL A   1      37.461  20.820  24.564  1.00  0.00     0.007 C 
ENDBRANCH  13  16
ENDBRANCH   5   8
ENDBRANCH   3   4
ENDBRANCH   2   3
ENDBRANCH   1   2
BRANCH   1  26
ATOM     26  C   UNL A   1      33.400  32.026  27.648  1.00  0.00     0.116 C 
BRANCH  26  27
ATOM     27  N   UNL A   1      32.727  33.320  27.708  1.00  0.00    -0.352 N 
ATOM     28  C   UNL A   1      33.093  34.423  28.458  1.00  0.00     0.251 C 
ATOM     29  H   UNL A   1      31.923  33.420  27.149  1.00  0.00     0.163 HD
ATOM     30  O   UNL A   1      32.463  35.463  28.420  1.00  0.00    -0.269 OA
BRANCH  28  31
ATOM     31  C   UNL A   1      34.243  34.268  29.374  1.00  0.00     0.039 A 
ATOM     32  C   UNL A   1      34.020  33.695  30.627  1.00  0.00     0.014 A 
ATOM     33  C   UNL A   1      35.537  34.489  28.902  1.00  0.00     0.014 A 
ATOM     34  C   UNL A   1      35.108  33.226  31.363  1.00  0.00     0.010 A 
ATOM     35  C   UNL A   1      36.606  33.936  29.592  1.00  0.00     0.010 A 
ATOM     36  C   UNL A   1      36.401  33.281  30.818  1.00  0.00    -0.014 A 
BRANCH  36  37
ATOM     37  C   UNL A   1      37.556  32.639  31.496  1.00  0.00     0.031 A 
ATOM     38  C   UNL A   1      38.261  31.490  30.835  1.00  0.00     0.074 A 
ATOM     39  C   UNL A   1      37.906  33.022  32.739  1.00  0.00     0.049 A 
ATOM     40  N   UNL A   1      39.211  30.721  31.300  1.00  0.00    -0.248 NA
ATOM     41  C   UNL A   1      37.805  31.132  29.482  1.00  0.00     0.031 C 
ATOM     42  C   UNL A   1      37.259  34.081  33.518  1.00  0.00     0.029 A 
ATOM     43  N   UNL A   1      38.891  32.555  33.575  1.00  0.00    -0.354 N 
ATOM     44  C   UNL A   1      39.443  29.775  30.313  1.00  0.00     0.074 A 
ATOM     45  C   UNL A   1      38.495  30.027  29.250  1.00  0.00     0.031 C 
ATOM     46  C   UNL A   1      37.886  34.206  34.699  1.00  0.00     0.029 A 
ATOM     47  C   UNL A   1      38.953  33.214  34.779  1.00  0.00     0.049 A 
ATOM     48  H   UNL A   1      39.495  31.817  33.334  1.00  0.00     0.167 HD
ATOM     49  C   UNL A   1      40.384  28.801  30.280  1.00  0.00     0.037 A 
ATOM     50  C   UNL A   1      39.782  33.036  35.826  1.00  0.00     0.037 A 
ATOM     51  C   UNL A   1      41.355  28.582  31.315  1.00  0.00     0.049 A 
ATOM     52  C   UNL A   1      40.835  31.965  35.756  1.00  0.00     0.074 A 
ATOM     53  C   UNL A   1      42.394  27.670  31.346  1.00  0.00     0.029 A 
ATOM     54  N   UNL A   1      41.410  29.295  32.504  1.00  0.00    -0.354 N 
ATOM     55  N   UNL A   1      41.089  31.117  34.789  1.00  0.00    -0.248 NA
ATOM     56  C   UNL A   1      41.721  31.828  36.921  1.00  0.00     0.031 C 
ATOM     57  C   UNL A   1      43.061  27.810  32.568  1.00  0.00     0.029 A 
ATOM     58  C   UNL A   1      42.460  28.836  33.282  1.00  0.00     0.049 A 
ATOM     59  H   UNL A   1      40.795  30.020  32.757  1.00  0.00     0.167 HD
ATOM     60  C   UNL A   1      42.176  30.368  35.214  1.00  0.00     0.074 A 
ATOM     61  C   UNL A   1      42.542  30.866  36.524  1.00  0.00     0.031 C 
ATOM     62  C   UNL A   1      42.815  29.356  34.577  1.00  0.00     0.037 A 
BRANCH  49  63
ATOM     63  C   UNL A   1      40.405  27.915  29.069  1.00  0.00     0.064 A 
ATOM     64  C   UNL A   1      41.162  28.244  27.934  1.00  0.00     0.173 A 
ATOM     65  C   UNL A   1      39.660  26.728  29.040  1.00  0.00     0.173 A 
ATOM     66  F   UNL A   1      41.879  29.377  27.905  1.00  0.00    -0.203 F 
ATOM     67  C   UNL A   1      41.139  27.438  26.799  1.00  0.00     0.198 A 
ATOM     68  C   UNL A   1      39.664  25.908  27.915  1.00  0.00     0.198 A 
ATOM     69  F   UNL A   1      38.921  26.366  30.101  1.00  0.00    -0.203 F 
ATOM     70  F   UNL A   1      41.817  27.807  25.703  1.00  0.00    -0.200 F 
ATOM     71  C   UNL A   1      40.394  26.269  26.792  1.00  0.00     0.200 A 
ATOM     72  F   UNL A   1      38.951  24.773  27.912  1.00  0.00    -0.200 F 
ATOM     73  F   UNL A   1      40.368  25.496  25.697  1.00  0.00    -0.200 F 
ENDBRANCH  49  63
BRANCH  50  74
ATOM     74  C   UNL A   1      39.681  33.925  37.013  1.00  0.00     0.064 A 
ATOM     75  C   UNL A   1      38.929  33.536  38.131  1.00  0.00     0.173 A 
ATOM     76  C   UNL A   1      40.326  35.169  37.060  1.00  0.00     0.173 A 
ATOM     77  F   UNL A   1      38.277  32.364  38.124  1.00  0.00    -0.203 F 
ATOM     78  C   UNL A   1      38.812  34.366  39.245  1.00  0.00     0.198 A 
ATOM     79  C   UNL A   1      40.227  35.987  38.184  1.00  0.00     0.198 A 
ATOM     80  F   UNL A   1      41.061  35.584  36.018  1.00  0.00    -0.203 F 
ATOM     81  F   UNL A   1      38.057  33.986  40.284  1.00  0.00    -0.200 F 
ATOM     82  C   UNL A   1      39.467  35.588  39.272  1.00  0.00     0.200 A 
ATOM     83  F   UNL A   1      40.869  37.163  38.212  1.00  0.00    -0.200 F 
ATOM     84  F   UNL A   1      39.358  36.384  40.345  1.00  0.00    -0.200 F 
ENDBRANCH  50  74
BRANCH  62  85
ATOM     85  C   UNL A   1      43.998  28.747  35.268  1.00  0.00     0.064 A 
ATOM     86  C   UNL A   1      43.863  27.631  36.106  1.00  0.00     0.173 A 
ATOM     87  C   UNL A   1      45.286  29.256  35.046  1.00  0.00     0.173 A 
ATOM     88  F   UNL A   1      42.649  27.120  36.359  1.00  0.00    -0.203 F 
ATOM     89  C   UNL A   1      44.977  27.056  36.711  1.00  0.00     0.198 A 
ATOM     90  C   UNL A   1      46.400  28.663  35.634  1.00  0.00     0.198 A 
ATOM     91  F   UNL A   1      45.466  30.319  34.249  1.00  0.00    -0.203 F 
ATOM     92  F   UNL A   1      44.823  26.012  37.539  1.00  0.00    -0.200 F 
ATOM     93  C   UNL A   1      46.244  27.566  36.470  1.00  0.00     0.200 A 
ATOM     94  F   UNL A   1      47.625  29.150  35.391  1.00  0.00    -0.200 F 
ATOM     95  F   UNL A   1      47.315  27.004  37.047  1.00  0.00    -0.200 F 
ENDBRANCH  62  85
ENDBRANCH  36  37
ENDBRANCH  28  31
ENDBRANCH  26  27
ENDBRANCH   1  26
TORSDOF 13
ENDMDL
