MODEL 1
REMARK VINA RESULT:     -11.7      0.000      0.000
REMARK SMILES CCc1cccc(CC)c1N1/C(=[NH+]/C(=O)CCC(=O)NCCCCNC(=O)c2ccc(-c3c4nc(c(-c5c(F)c(F)c(F)c(F)c5F)c5ccc([nH]5)c(-c5c(F)c(F)c(F)c(F)c5F)c5nc(c(-c6c(F)c(F)c(F)c(F)c6F)c6ccc3[nH]6)C=C5)C=C4)cc2)S[C@@H]2CS(=O)(=O)C[C@H]21
REMARK SMILES IDX 21 1 20 2 18 3 19 4 17 6 16 7 14 8 11 9 12 10 98 11 13 12
REMARK SMILES IDX 91 13 92 14 97 15 93 17 94 18 15 19 95 20 96 21 10 22 3 23
REMARK SMILES IDX 4 24 5 25 7 26 6 27 2 28 1 29 8 30 9 31 22 32 23 33 24 34
REMARK SMILES IDX 25 35 26 36 27 38 28 39 29 40 90 41 30 42 89 43 31 44 32 45
REMARK SMILES IDX 33 46 83 47 34 48 88 49 82 50 84 51 35 52 87 53 81 54 80 55
REMARK SMILES IDX 36 57 68 58 48 59 67 60 49 61 52 62 66 63 85 64 50 65 51 66
REMARK SMILES IDX 65 68 86 69 53 70 37 71 38 72 46 73 39 74 40 75 44 76 47 77
REMARK SMILES IDX 41 78 42 79 45 80 43 81 69 82 70 83 78 84 71 85 72 86 76 87
REMARK SMILES IDX 79 88 73 89 74 90 77 91 75 92 54 93 55 94 63 95 56 96 57 97
REMARK SMILES IDX 61 98 64 99 58 100 59 101 62 102 60 103
REMARK H PARENT 20 5 13 16 25 37 84 56 52 67
REMARK Flexibility Score: inf
ROOT
ATOM      1  C   UNL A   1      31.329  29.032  23.413  1.00  0.00     0.116 C 
ENDROOT
BRANCH   1   2
ATOM      2  N   UNL A   1      32.611  29.026  22.715  1.00  0.00    -0.356 N 
ATOM      3  C   UNL A   1      33.422  28.017  22.307  1.00  0.00     0.220 C 
ATOM      4  O   UNL A   1      34.430  28.311  21.661  1.00  0.00    -0.275 OA
ATOM      5  H   UNL A   1      32.953  29.923  22.499  1.00  0.00     0.163 HD
BRANCH   3   6
ATOM      6  C   UNL A   1      33.092  26.580  22.614  1.00  0.00     0.112 C 
BRANCH   6   7
ATOM      7  C   UNL A   1      32.874  25.798  21.320  1.00  0.00     0.138 C 
BRANCH   7   8
ATOM      8  C   UNL A   1      33.044  24.305  21.507  1.00  0.00     0.308 C 
ATOM      9  N   UNL A   1      34.200  22.100  24.270  1.00  0.00    -0.216 N 
ATOM     10  C   UNL A   1      33.546  22.738  23.176  1.00  0.00     0.319 C 
ATOM     11  C   UNL A   1      33.515  20.808  24.652  1.00  0.00     0.212 C 
ATOM     12  N   UNL A   1      33.746  23.902  22.637  1.00  0.00    -0.204 N 
ATOM     13  S   UNL A   1      32.209  21.647  22.584  1.00  0.00    -0.029 SA
ATOM     14  C   UNL A   1      32.956  20.235  23.340  1.00  0.00     0.120 C 
ATOM     15  C   UNL A   1      34.174  19.595  25.303  1.00  0.00     0.188 C 
ATOM     16  H   UNL A   1      34.407  24.511  23.038  1.00  0.00     0.316 HD
ATOM     17  C   UNL A   1      32.057  19.083  23.707  1.00  0.00     0.156 C 
ATOM     18  S   UNL A   1      33.160  18.177  24.772  1.00  0.00     0.155 S 
ATOM     19  O   UNL A   1      32.618  23.574  20.612  1.00  0.00    -0.247 OA
ATOM     20  O   UNL A   1      33.979  17.329  23.933  1.00  0.00    -0.229 OA
ATOM     21  O   UNL A   1      32.413  17.632  25.883  1.00  0.00    -0.229 OA
BRANCH   9  22
ATOM     22  C   UNL A   1      35.314  22.594  25.012  1.00  0.00     0.134 A 
ATOM     23  C   UNL A   1      36.664  22.107  24.952  1.00  0.00    -0.001 A 
ATOM     24  C   UNL A   1      37.711  22.721  25.693  1.00  0.00     0.008 A 
ATOM     25  C   UNL A   1      37.500  23.845  26.453  1.00  0.00     0.001 A 
ATOM     26  C   UNL A   1      35.121  23.687  25.905  1.00  0.00    -0.001 A 
ATOM     27  C   UNL A   1      36.213  24.329  26.546  1.00  0.00     0.008 A 
BRANCH  23  28
ATOM     28  C   UNL A   1      37.217  21.003  24.094  1.00  0.00     0.036 C 
ATOM     29  C   UNL A   1      37.826  19.821  24.831  1.00  0.00     0.009 C 
ENDBRANCH  23  28
BRANCH  26  30
ATOM     30  C   UNL A   1      33.758  24.195  26.324  1.00  0.00     0.036 C 
ATOM     31  C   UNL A   1      33.529  25.644  25.932  1.00  0.00     0.009 C 
ENDBRANCH  26  30
ENDBRANCH   9  22
ENDBRANCH   7   8
ENDBRANCH   6   7
ENDBRANCH   3   6
ENDBRANCH   1   2
BRANCH   1  32
ATOM     32  C   UNL A   1      31.431  29.022  24.943  1.00  0.00     0.023 C 
BRANCH  32  33
ATOM     33  C   UNL A   1      32.711  29.664  25.451  1.00  0.00     0.023 C 
BRANCH  33  34
ATOM     34  C   UNL A   1      33.338  29.342  26.801  1.00  0.00     0.116 C 
BRANCH  34  35
ATOM     35  N   UNL A   1      33.491  30.469  27.693  1.00  0.00    -0.352 N 
ATOM     36  C   UNL A   1      34.560  31.001  28.384  1.00  0.00     0.251 C 
ATOM     37  H   UNL A   1      32.653  30.965  27.840  1.00  0.00     0.163 HD
ATOM     38  O   UNL A   1      34.320  32.038  29.004  1.00  0.00    -0.269 OA
BRANCH  36  39
ATOM     39  C   UNL A   1      35.926  30.384  28.521  1.00  0.00     0.039 A 
ATOM     40  C   UNL A   1      36.203  29.717  29.733  1.00  0.00     0.014 A 
ATOM     41  C   UNL A   1      36.956  30.432  27.583  1.00  0.00     0.014 A 
ATOM     42  C   UNL A   1      37.415  29.046  29.969  1.00  0.00     0.010 A 
ATOM     43  C   UNL A   1      38.174  29.761  27.805  1.00  0.00     0.010 A 
ATOM     44  C   UNL A   1      38.420  29.071  29.003  1.00  0.00    -0.014 A 
BRANCH  44  45
ATOM     45  C   UNL A   1      39.803  28.625  29.330  1.00  0.00     0.031 A 
ATOM     46  C   UNL A   1      40.647  29.535  30.183  1.00  0.00     0.074 A 
ATOM     47  C   UNL A   1      40.316  27.461  28.891  1.00  0.00     0.049 A 
ATOM     48  N   UNL A   1      41.917  29.459  30.490  1.00  0.00    -0.248 NA
ATOM     49  C   UNL A   1      39.958  30.701  30.757  1.00  0.00     0.031 C 
ATOM     50  C   UNL A   1      39.597  26.452  28.119  1.00  0.00     0.029 A 
ATOM     51  N   UNL A   1      41.582  26.939  29.028  1.00  0.00    -0.354 N 
ATOM     52  C   UNL A   1      42.179  30.576  31.274  1.00  0.00     0.074 A 
ATOM     53  C   UNL A   1      40.948  31.327  31.370  1.00  0.00     0.031 C 
ATOM     54  C   UNL A   1      40.437  25.438  27.836  1.00  0.00     0.029 A 
ATOM     55  C   UNL A   1      41.765  25.747  28.369  1.00  0.00     0.049 A 
ATOM     56  H   UNL A   1      42.293  27.379  29.550  1.00  0.00     0.167 HD
ATOM     57  C   UNL A   1      43.341  30.941  31.867  1.00  0.00     0.037 A 
ATOM     58  C   UNL A   1      42.882  25.010  28.191  1.00  0.00     0.037 A 
ATOM     59  C   UNL A   1      44.566  30.192  31.778  1.00  0.00     0.049 A 
ATOM     60  C   UNL A   1      44.190  25.483  28.786  1.00  0.00     0.074 A 
ATOM     61  C   UNL A   1      45.796  30.483  32.341  1.00  0.00     0.029 A 
ATOM     62  N   UNL A   1      44.715  29.005  31.077  1.00  0.00    -0.354 N 
ATOM     63  N   UNL A   1      44.435  26.543  29.520  1.00  0.00    -0.248 NA
ATOM     64  C   UNL A   1      45.380  24.659  28.522  1.00  0.00     0.031 C 
ATOM     65  C   UNL A   1      46.704  29.500  31.932  1.00  0.00     0.029 A 
ATOM     66  C   UNL A   1      46.023  28.563  31.172  1.00  0.00     0.049 A 
ATOM     67  H   UNL A   1      43.997  28.546  30.584  1.00  0.00     0.167 HD
ATOM     68  C   UNL A   1      45.788  26.488  29.838  1.00  0.00     0.074 A 
ATOM     69  C   UNL A   1      46.313  25.289  29.222  1.00  0.00     0.031 C 
ATOM     70  C   UNL A   1      46.529  27.353  30.575  1.00  0.00     0.037 A 
BRANCH  57  71
ATOM     71  C   UNL A   1      43.345  32.232  32.633  1.00  0.00     0.064 A 
ATOM     72  C   UNL A   1      43.631  33.459  32.017  1.00  0.00     0.173 A 
ATOM     73  C   UNL A   1      43.051  32.240  34.005  1.00  0.00     0.173 A 
ATOM     74  F   UNL A   1      43.938  33.503  30.711  1.00  0.00    -0.203 F 
ATOM     75  C   UNL A   1      43.657  34.641  32.752  1.00  0.00     0.198 A 
ATOM     76  C   UNL A   1      43.043  33.428  34.730  1.00  0.00     0.198 A 
ATOM     77  F   UNL A   1      42.771  31.094  34.644  1.00  0.00    -0.203 F 
ATOM     78  F   UNL A   1      43.994  35.793  32.156  1.00  0.00    -0.200 F 
ATOM     79  C   UNL A   1      43.356  34.626  34.106  1.00  0.00     0.200 A 
ATOM     80  F   UNL A   1      42.741  33.412  36.036  1.00  0.00    -0.200 F 
ATOM     81  F   UNL A   1      43.379  35.764  34.812  1.00  0.00    -0.200 F 
ENDBRANCH  57  71
BRANCH  58  82
ATOM     82  C   UNL A   1      42.839  23.751  27.393  1.00  0.00     0.064 A 
ATOM     83  C   UNL A   1      42.404  22.545  27.962  1.00  0.00     0.173 A 
ATOM     84  C   UNL A   1      43.284  23.715  26.063  1.00  0.00     0.173 A 
ATOM     85  F   UNL A   1      42.001  22.516  29.242  1.00  0.00    -0.203 F 
ATOM     86  C   UNL A   1      42.437  21.352  27.243  1.00  0.00     0.198 A 
ATOM     87  C   UNL A   1      43.284  22.527  25.333  1.00  0.00     0.198 A 
ATOM     88  F   UNL A   1      43.720  24.836  25.468  1.00  0.00    -0.203 F 
ATOM     89  F   UNL A   1      42.074  20.205  27.833  1.00  0.00    -0.200 F 
ATOM     90  C   UNL A   1      42.873  21.344  25.926  1.00  0.00     0.200 A 
ATOM     91  F   UNL A   1      43.697  22.528  24.058  1.00  0.00    -0.200 F 
ATOM     92  F   UNL A   1      42.906  20.197  25.235  1.00  0.00    -0.200 F 
ENDBRANCH  58  82
BRANCH  70  93
ATOM     93  C   UNL A   1      47.973  27.011  30.817  1.00  0.00     0.064 A 
ATOM     94  C   UNL A   1      49.003  27.516  30.010  1.00  0.00     0.173 A 
ATOM     95  C   UNL A   1      48.335  26.216  31.917  1.00  0.00     0.173 A 
ATOM     96  F   UNL A   1      48.714  28.272  28.940  1.00  0.00    -0.203 F 
ATOM     97  C   UNL A   1      50.336  27.218  30.280  1.00  0.00     0.198 A 
ATOM     98  C   UNL A   1      49.670  25.950  32.204  1.00  0.00     0.198 A 
ATOM     99  F   UNL A   1      47.390  25.716  32.730  1.00  0.00    -0.203 F 
ATOM    100  F   UNL A   1      51.301  27.675  29.469  1.00  0.00    -0.200 F 
ATOM    101  C   UNL A   1      50.670  26.444  31.381  1.00  0.00     0.200 A 
ATOM    102  F   UNL A   1      49.989  25.216  33.281  1.00  0.00    -0.200 F 
ATOM    103  F   UNL A   1      51.954  26.172  31.648  1.00  0.00    -0.200 F 
ENDBRANCH  70  93
ENDBRANCH  44  45
ENDBRANCH  36  39
ENDBRANCH  34  35
ENDBRANCH  33  34
ENDBRANCH  32  33
ENDBRANCH   1  32
TORSDOF 16
ENDMDL
MODEL 2
REMARK VINA RESULT:     -11.6      2.620      7.455
REMARK SMILES CCc1cccc(CC)c1N1/C(=[NH+]/C(=O)CCC(=O)NCCCCNC(=O)c2ccc(-c3c4nc(c(-c5c(F)c(F)c(F)c(F)c5F)c5ccc([nH]5)c(-c5c(F)c(F)c(F)c(F)c5F)c5nc(c(-c6c(F)c(F)c(F)c(F)c6F)c6ccc3[nH]6)C=C5)C=C4)cc2)S[C@@H]2CS(=O)(=O)C[C@H]21
REMARK SMILES IDX 21 1 20 2 18 3 19 4 17 6 16 7 14 8 11 9 12 10 98 11 13 12
REMARK SMILES IDX 91 13 92 14 97 15 93 17 94 18 15 19 95 20 96 21 10 22 3 23
REMARK SMILES IDX 4 24 5 25 7 26 6 27 2 28 1 29 8 30 9 31 22 32 23 33 24 34
REMARK SMILES IDX 25 35 26 36 27 38 28 39 29 40 90 41 30 42 89 43 31 44 32 45
REMARK SMILES IDX 33 46 83 47 34 48 88 49 82 50 84 51 35 52 87 53 81 54 80 55
REMARK SMILES IDX 36 57 68 58 48 59 67 60 49 61 52 62 66 63 85 64 50 65 51 66
REMARK SMILES IDX 65 68 86 69 53 70 37 71 38 72 46 73 39 74 40 75 44 76 47 77
REMARK SMILES IDX 41 78 42 79 45 80 43 81 69 82 70 83 78 84 71 85 72 86 76 87
REMARK SMILES IDX 79 88 73 89 74 90 77 91 75 92 54 93 55 94 63 95 56 96 57 97
REMARK SMILES IDX 61 98 64 99 58 100 59 101 62 102 60 103
REMARK H PARENT 20 5 13 16 25 37 84 56 52 67
REMARK Flexibility Score: inf
ROOT
ATOM      1  C   UNL A   1      31.048  28.726  22.900  1.00  0.00     0.116 C 
ENDROOT
BRANCH   1   2
ATOM      2  N   UNL A   1      32.405  28.888  22.385  1.00  0.00    -0.356 N 
ATOM      3  C   UNL A   1      33.404  27.998  22.151  1.00  0.00     0.220 C 
ATOM      4  O   UNL A   1      34.441  28.418  21.633  1.00  0.00    -0.275 OA
ATOM      5  H   UNL A   1      32.641  29.818  22.166  1.00  0.00     0.163 HD
BRANCH   3   6
ATOM      6  C   UNL A   1      33.243  26.541  22.494  1.00  0.00     0.112 C 
BRANCH   6   7
ATOM      7  C   UNL A   1      32.947  25.730  21.234  1.00  0.00     0.138 C 
BRANCH   7   8
ATOM      8  C   UNL A   1      33.099  24.240  21.452  1.00  0.00     0.308 C 
ATOM      9  N   UNL A   1      34.246  22.079  24.254  1.00  0.00    -0.216 N 
ATOM     10  C   UNL A   1      33.592  22.703  23.150  1.00  0.00     0.319 C 
ATOM     11  C   UNL A   1      33.547  20.805  24.668  1.00  0.00     0.212 C 
ATOM     12  N   UNL A   1      33.803  23.851  22.586  1.00  0.00    -0.204 N 
ATOM     13  S   UNL A   1      32.238  21.616  22.591  1.00  0.00    -0.029 SA
ATOM     14  C   UNL A   1      32.972  20.211  23.373  1.00  0.00     0.120 C 
ATOM     15  C   UNL A   1      34.195  19.598  25.341  1.00  0.00     0.188 C 
ATOM     16  H   UNL A   1      34.475  24.460  22.969  1.00  0.00     0.316 HD
ATOM     17  C   UNL A   1      32.061  19.078  23.769  1.00  0.00     0.156 C 
ATOM     18  S   UNL A   1      33.160  18.181  24.847  1.00  0.00     0.155 S 
ATOM     19  O   UNL A   1      32.658  23.495  20.575  1.00  0.00    -0.247 OA
ATOM     20  O   UNL A   1      33.963  17.305  24.021  1.00  0.00    -0.229 OA
ATOM     21  O   UNL A   1      32.413  17.670  25.974  1.00  0.00    -0.229 OA
BRANCH   9  22
ATOM     22  C   UNL A   1      35.370  22.575  24.978  1.00  0.00     0.134 A 
ATOM     23  C   UNL A   1      36.706  22.046  24.949  1.00  0.00    -0.001 A 
ATOM     24  C   UNL A   1      37.768  22.664  25.666  1.00  0.00     0.008 A 
ATOM     25  C   UNL A   1      37.587  23.828  26.371  1.00  0.00     0.001 A 
ATOM     26  C   UNL A   1      35.206  23.715  25.818  1.00  0.00    -0.001 A 
ATOM     27  C   UNL A   1      36.314  24.354  26.434  1.00  0.00     0.008 A 
BRANCH  23  28
ATOM     28  C   UNL A   1      37.229  20.888  24.147  1.00  0.00     0.036 C 
ATOM     29  C   UNL A   1      37.947  19.799  24.929  1.00  0.00     0.009 C 
ENDBRANCH  23  28
BRANCH  26  30
ATOM     30  C   UNL A   1      33.857  24.282  26.205  1.00  0.00     0.036 C 
ATOM     31  C   UNL A   1      33.690  25.730  25.782  1.00  0.00     0.009 C 
ENDBRANCH  26  30
ENDBRANCH   9  22
ENDBRANCH   7   8
ENDBRANCH   6   7
ENDBRANCH   3   6
ENDBRANCH   1   2
BRANCH   1  32
ATOM     32  C   UNL A   1      30.862  29.148  24.362  1.00  0.00     0.023 C 
BRANCH  32  33
ATOM     33  C   UNL A   1      32.157  29.106  25.156  1.00  0.00     0.023 C 
BRANCH  33  34
ATOM     34  C   UNL A   1      32.274  29.559  26.605  1.00  0.00     0.116 C 
BRANCH  34  35
ATOM     35  N   UNL A   1      32.226  30.989  26.810  1.00  0.00    -0.352 N 
ATOM     36  C   UNL A   1      33.133  31.917  27.276  1.00  0.00     0.251 C 
ATOM     37  H   UNL A   1      31.360  31.387  26.564  1.00  0.00     0.163 HD
ATOM     38  O   UNL A   1      32.752  33.088  27.240  1.00  0.00    -0.269 OA
BRANCH  36  39
ATOM     39  C   UNL A   1      34.471  31.618  27.900  1.00  0.00     0.039 A 
ATOM     40  C   UNL A   1      34.673  30.305  28.373  1.00  0.00     0.014 A 
ATOM     41  C   UNL A   1      35.519  32.519  28.084  1.00  0.00     0.014 A 
ATOM     42  C   UNL A   1      35.893  29.875  28.921  1.00  0.00     0.010 A 
ATOM     43  C   UNL A   1      36.748  32.101  28.630  1.00  0.00     0.010 A 
ATOM     44  C   UNL A   1      36.945  30.779  29.062  1.00  0.00    -0.014 A 
BRANCH  44  45
ATOM     45  C   UNL A   1      38.134  30.441  29.891  1.00  0.00     0.031 A 
ATOM     46  C   UNL A   1      39.130  29.467  29.320  1.00  0.00     0.074 A 
ATOM     47  C   UNL A   1      38.343  30.965  31.114  1.00  0.00     0.049 A 
ATOM     48  N   UNL A   1      40.164  28.895  29.883  1.00  0.00    -0.248 NA
ATOM     49  C   UNL A   1      38.915  29.074  27.918  1.00  0.00     0.031 C 
ATOM     50  C   UNL A   1      37.506  31.969  31.764  1.00  0.00     0.029 A 
ATOM     51  N   UNL A   1      39.332  30.704  32.036  1.00  0.00    -0.354 N 
ATOM     52  C   UNL A   1      40.707  28.063  28.911  1.00  0.00     0.074 A 
ATOM     53  C   UNL A   1      39.874  28.181  27.736  1.00  0.00     0.031 C 
ATOM     54  C   UNL A   1      38.007  32.229  32.986  1.00  0.00     0.029 A 
ATOM     55  C   UNL A   1      39.174  31.378  33.223  1.00  0.00     0.049 A 
ATOM     56  H   UNL A   1      40.083  30.091  31.861  1.00  0.00     0.167 HD
ATOM     57  C   UNL A   1      41.806  27.276  28.987  1.00  0.00     0.037 A 
ATOM     58  C   UNL A   1      39.872  31.291  34.375  1.00  0.00     0.037 A 
ATOM     59  C   UNL A   1      42.641  27.161  30.153  1.00  0.00     0.049 A 
ATOM     60  C   UNL A   1      41.042  30.337  34.468  1.00  0.00     0.074 A 
ATOM     61  C   UNL A   1      43.774  26.387  30.329  1.00  0.00     0.029 A 
ATOM     62  N   UNL A   1      42.429  27.839  31.344  1.00  0.00    -0.354 N 
ATOM     63  N   UNL A   1      41.547  29.549  33.550  1.00  0.00    -0.248 NA
ATOM     64  C   UNL A   1      41.737  30.258  35.763  1.00  0.00     0.031 C 
ATOM     65  C   UNL A   1      44.215  26.553  31.646  1.00  0.00     0.029 A 
ATOM     66  C   UNL A   1      43.397  27.482  32.268  1.00  0.00     0.049 A 
ATOM     67  H   UNL A   1      41.699  28.479  31.508  1.00  0.00     0.167 HD
ATOM     68  C   UNL A   1      42.637  28.916  34.140  1.00  0.00     0.074 A 
ATOM     69  C   UNL A   1      42.725  29.415  35.495  1.00  0.00     0.031 C 
ATOM     70  C   UNL A   1      43.488  28.005  33.607  1.00  0.00     0.037 A 
BRANCH  57  71
ATOM     71  C   UNL A   1      42.142  26.446  27.782  1.00  0.00     0.064 A 
ATOM     72  C   UNL A   1      41.511  25.220  27.526  1.00  0.00     0.173 A 
ATOM     73  C   UNL A   1      43.106  26.891  26.865  1.00  0.00     0.173 A 
ATOM     74  F   UNL A   1      40.596  24.740  28.383  1.00  0.00    -0.203 F 
ATOM     75  C   UNL A   1      41.858  24.453  26.417  1.00  0.00     0.198 A 
ATOM     76  C   UNL A   1      43.425  26.139  25.738  1.00  0.00     0.198 A 
ATOM     77  F   UNL A   1      43.740  28.057  27.061  1.00  0.00    -0.203 F 
ATOM     78  F   UNL A   1      41.288  23.256  26.227  1.00  0.00    -0.200 F 
ATOM     79  C   UNL A   1      42.809  24.916  25.520  1.00  0.00     0.200 A 
ATOM     80  F   UNL A   1      44.336  26.595  24.867  1.00  0.00    -0.200 F 
ATOM     81  F   UNL A   1      43.140  24.179  24.452  1.00  0.00    -0.200 F 
ENDBRANCH  57  71
BRANCH  58  82
ATOM     82  C   UNL A   1      39.482  32.109  35.559  1.00  0.00     0.064 A 
ATOM     83  C   UNL A   1      38.551  31.635  36.495  1.00  0.00     0.173 A 
ATOM     84  C   UNL A   1      39.987  33.405  35.750  1.00  0.00     0.173 A 
ATOM     85  F   UNL A   1      38.010  30.417  36.342  1.00  0.00    -0.203 F 
ATOM     86  C   UNL A   1      38.125  32.428  37.560  1.00  0.00     0.198 A 
ATOM     87  C   UNL A   1      39.586  34.185  36.834  1.00  0.00     0.198 A 
ATOM     88  F   UNL A   1      40.873  33.916  34.882  1.00  0.00    -0.203 F 
ATOM     89  F   UNL A   1      37.190  31.970  38.403  1.00  0.00    -0.200 F 
ATOM     90  C   UNL A   1      38.647  33.701  37.731  1.00  0.00     0.200 A 
ATOM     91  F   UNL A   1      40.101  35.410  37.000  1.00  0.00    -0.200 F 
ATOM     92  F   UNL A   1      38.237  34.464  38.753  1.00  0.00    -0.200 F 
ENDBRANCH  58  82
BRANCH  70  93
ATOM     93  C   UNL A   1      44.632  27.530  34.460  1.00  0.00     0.064 A 
ATOM     94  C   UNL A   1      44.542  26.374  35.248  1.00  0.00     0.173 A 
ATOM     95  C   UNL A   1      45.861  28.210  34.434  1.00  0.00     0.173 A 
ATOM     96  F   UNL A   1      43.389  25.691  35.318  1.00  0.00    -0.203 F 
ATOM     97  C   UNL A   1      45.630  25.931  35.997  1.00  0.00     0.198 A 
ATOM     98  C   UNL A   1      46.956  27.745  35.157  1.00  0.00     0.198 A 
ATOM     99  F   UNL A   1      46.006  29.316  33.688  1.00  0.00    -0.203 F 
ATOM    100  F   UNL A   1      45.507  24.849  36.779  1.00  0.00    -0.200 F 
ATOM    101  C   UNL A   1      46.838  26.611  35.944  1.00  0.00     0.200 A 
ATOM    102  F   UNL A   1      48.127  28.394  35.088  1.00  0.00    -0.200 F 
ATOM    103  F   UNL A   1      47.888  26.174  36.653  1.00  0.00    -0.200 F 
ENDBRANCH  70  93
ENDBRANCH  44  45
ENDBRANCH  36  39
ENDBRANCH  34  35
ENDBRANCH  33  34
ENDBRANCH  32  33
ENDBRANCH   1  32
TORSDOF 16
ENDMDL
MODEL 3
REMARK VINA RESULT:     -11.2      2.456      3.388
REMARK SMILES CCc1cccc(CC)c1N1/C(=[NH+]/C(=O)CCC(=O)NCCCCNC(=O)c2ccc(-c3c4nc(c(-c5c(F)c(F)c(F)c(F)c5F)c5ccc([nH]5)c(-c5c(F)c(F)c(F)c(F)c5F)c5nc(c(-c6c(F)c(F)c(F)c(F)c6F)c6ccc3[nH]6)C=C5)C=C4)cc2)S[C@@H]2CS(=O)(=O)C[C@H]21
REMARK SMILES IDX 21 1 20 2 18 3 19 4 17 6 16 7 14 8 11 9 12 10 98 11 13 12
REMARK SMILES IDX 91 13 92 14 97 15 93 17 94 18 15 19 95 20 96 21 10 22 3 23
REMARK SMILES IDX 4 24 5 25 7 26 6 27 2 28 1 29 8 30 9 31 22 32 23 33 24 34
REMARK SMILES IDX 25 35 26 36 27 38 28 39 29 40 90 41 30 42 89 43 31 44 32 45
REMARK SMILES IDX 33 46 83 47 34 48 88 49 82 50 84 51 35 52 87 53 81 54 80 55
REMARK SMILES IDX 36 57 68 58 48 59 67 60 49 61 52 62 66 63 85 64 50 65 51 66
REMARK SMILES IDX 65 68 86 69 53 70 37 71 38 72 46 73 39 74 40 75 44 76 47 77
REMARK SMILES IDX 41 78 42 79 45 80 43 81 69 82 70 83 78 84 71 85 72 86 76 87
REMARK SMILES IDX 79 88 73 89 74 90 77 91 75 92 54 93 55 94 63 95 56 96 57 97
REMARK SMILES IDX 61 98 64 99 58 100 59 101 62 102 60 103
REMARK H PARENT 20 5 13 16 25 37 84 56 52 67
REMARK Flexibility Score: inf
ROOT
ATOM      1  C   UNL A   1      31.409  27.916  25.269  1.00  0.00     0.116 C 
ENDROOT
BRANCH   1   2
ATOM      2  N   UNL A   1      32.315  28.444  24.253  1.00  0.00    -0.356 N 
ATOM      3  C   UNL A   1      32.692  27.976  23.035  1.00  0.00     0.220 C 
ATOM      4  O   UNL A   1      33.431  28.684  22.348  1.00  0.00    -0.275 OA
ATOM      5  H   UNL A   1      32.733  29.301  24.496  1.00  0.00     0.163 HD
BRANCH   3   6
ATOM      6  C   UNL A   1      32.205  26.643  22.529  1.00  0.00     0.112 C 
BRANCH   6   7
ATOM      7  C   UNL A   1      33.231  26.032  21.577  1.00  0.00     0.138 C 
BRANCH   7   8
ATOM      8  C   UNL A   1      33.316  24.525  21.702  1.00  0.00     0.308 C 
ATOM      9  N   UNL A   1      34.445  22.147  24.329  1.00  0.00    -0.216 N 
ATOM     10  C   UNL A   1      33.787  22.867  23.288  1.00  0.00     0.319 C 
ATOM     11  C   UNL A   1      33.697  20.885  24.692  1.00  0.00     0.212 C 
ATOM     12  N   UNL A   1      34.036  24.036  22.784  1.00  0.00    -0.204 N 
ATOM     13  S   UNL A   1      32.362  21.882  22.715  1.00  0.00    -0.029 SA
ATOM     14  C   UNL A   1      33.050  20.399  23.386  1.00  0.00     0.120 C 
ATOM     15  C   UNL A   1      34.306  19.611  25.269  1.00  0.00     0.188 C 
ATOM     16  H   UNL A   1      34.751  24.588  23.178  1.00  0.00     0.316 HD
ATOM     17  C   UNL A   1      32.097  19.290  23.749  1.00  0.00     0.156 C 
ATOM     18  S   UNL A   1      33.184  18.278  24.731  1.00  0.00     0.155 S 
ATOM     19  O   UNL A   1      32.809  23.858  20.799  1.00  0.00    -0.247 OA
ATOM     20  O   UNL A   1      33.914  17.415  23.826  1.00  0.00    -0.229 OA
ATOM     21  O   UNL A   1      32.451  17.736  25.853  1.00  0.00    -0.229 OA
BRANCH   9  22
ATOM     22  C   UNL A   1      35.617  22.544  25.039  1.00  0.00     0.134 A 
ATOM     23  C   UNL A   1      36.901  21.902  24.993  1.00  0.00    -0.001 A 
ATOM     24  C   UNL A   1      38.021  22.426  25.697  1.00  0.00     0.008 A 
ATOM     25  C   UNL A   1      37.949  23.600  26.405  1.00  0.00     0.001 A 
ATOM     26  C   UNL A   1      35.561  23.691  25.881  1.00  0.00    -0.001 A 
ATOM     27  C   UNL A   1      36.727  24.232  26.485  1.00  0.00     0.008 A 
BRANCH  23  28
ATOM     28  C   UNL A   1      37.314  20.705  24.183  1.00  0.00     0.036 C 
ATOM     29  C   UNL A   1      37.980  19.573  24.950  1.00  0.00     0.009 C 
ENDBRANCH  23  28
BRANCH  26  30
ATOM     30  C   UNL A   1      34.270  24.371  26.286  1.00  0.00     0.036 C 
ATOM     31  C   UNL A   1      34.133  25.762  25.693  1.00  0.00     0.009 C 
ENDBRANCH  26  30
ENDBRANCH   9  22
ENDBRANCH   7   8
ENDBRANCH   6   7
ENDBRANCH   3   6
ENDBRANCH   1   2
BRANCH   1  32
ATOM     32  C   UNL A   1      31.758  28.312  26.708  1.00  0.00     0.023 C 
BRANCH  32  33
ATOM     33  C   UNL A   1      31.614  29.803  26.960  1.00  0.00     0.023 C 
BRANCH  33  34
ATOM     34  C   UNL A   1      32.460  30.862  26.265  1.00  0.00     0.116 C 
BRANCH  34  35
ATOM     35  N   UNL A   1      32.517  32.142  26.935  1.00  0.00    -0.352 N 
ATOM     36  C   UNL A   1      33.476  32.779  27.693  1.00  0.00     0.251 C 
ATOM     37  H   UNL A   1      31.695  32.673  26.828  1.00  0.00     0.163 HD
ATOM     38  O   UNL A   1      33.190  33.924  28.047  1.00  0.00    -0.269 OA
BRANCH  36  39
ATOM     39  C   UNL A   1      34.761  32.175  28.194  1.00  0.00     0.039 A 
ATOM     40  C   UNL A   1      34.726  30.811  28.550  1.00  0.00     0.014 A 
ATOM     41  C   UNL A   1      35.975  32.838  28.369  1.00  0.00     0.014 A 
ATOM     42  C   UNL A   1      35.866  30.109  28.974  1.00  0.00     0.010 A 
ATOM     43  C   UNL A   1      37.127  32.145  28.790  1.00  0.00     0.010 A 
ATOM     44  C   UNL A   1      37.082  30.777  29.107  1.00  0.00    -0.014 A 
BRANCH  44  45
ATOM     45  C   UNL A   1      38.227  30.145  29.819  1.00  0.00     0.031 A 
ATOM     46  C   UNL A   1      38.525  30.616  31.218  1.00  0.00     0.074 A 
ATOM     47  C   UNL A   1      38.993  29.189  29.262  1.00  0.00     0.049 A 
ATOM     48  N   UNL A   1      39.539  30.341  31.998  1.00  0.00    -0.248 NA
ATOM     49  C   UNL A   1      37.542  31.537  31.810  1.00  0.00     0.031 C 
ATOM     50  C   UNL A   1      38.782  28.587  27.948  1.00  0.00     0.029 A 
ATOM     51  N   UNL A   1      40.123  28.564  29.740  1.00  0.00    -0.354 N 
ATOM     52  C   UNL A   1      39.325  31.071  33.161  1.00  0.00     0.074 A 
ATOM     53  C   UNL A   1      38.104  31.821  32.973  1.00  0.00     0.031 C 
ATOM     54  C   UNL A   1      39.760  27.690  27.717  1.00  0.00     0.029 A 
ATOM     55  C   UNL A   1      40.691  27.686  28.847  1.00  0.00     0.049 A 
ATOM     56  H   UNL A   1      40.491  28.730  30.639  1.00  0.00     0.167 HD
ATOM     57  C   UNL A   1      40.074  31.110  34.288  1.00  0.00     0.037 A 
ATOM     58  C   UNL A   1      41.843  26.988  28.924  1.00  0.00     0.037 A 
ATOM     59  C   UNL A   1      41.287  30.360  34.480  1.00  0.00     0.049 A 
ATOM     60  C   UNL A   1      42.713  27.115  30.155  1.00  0.00     0.074 A 
ATOM     61  C   UNL A   1      42.119  30.335  35.585  1.00  0.00     0.029 A 
ATOM     62  N   UNL A   1      41.842  29.505  33.540  1.00  0.00    -0.354 N 
ATOM     63  N   UNL A   1      42.509  27.811  31.248  1.00  0.00    -0.248 NA
ATOM     64  C   UNL A   1      43.977  26.362  30.160  1.00  0.00     0.031 C 
ATOM     65  C   UNL A   1      43.208  29.508  35.292  1.00  0.00     0.029 A 
ATOM     66  C   UNL A   1      43.019  28.966  34.031  1.00  0.00     0.049 A 
ATOM     67  H   UNL A   1      41.456  29.311  32.655  1.00  0.00     0.167 HD
ATOM     68  C   UNL A   1      43.592  27.547  32.081  1.00  0.00     0.074 A 
ATOM     69  C   UNL A   1      44.448  26.623  31.371  1.00  0.00     0.031 C 
ATOM     70  C   UNL A   1      43.852  28.026  33.323  1.00  0.00     0.037 A 
BRANCH  57  71
ATOM     71  C   UNL A   1      39.618  32.026  35.386  1.00  0.00     0.064 A 
ATOM     72  C   UNL A   1      40.042  33.361  35.462  1.00  0.00     0.173 A 
ATOM     73  C   UNL A   1      38.737  31.561  36.374  1.00  0.00     0.173 A 
ATOM     74  F   UNL A   1      40.901  33.850  34.553  1.00  0.00    -0.203 F 
ATOM     75  C   UNL A   1      39.629  34.186  36.505  1.00  0.00     0.198 A 
ATOM     76  C   UNL A   1      38.298  32.399  37.395  1.00  0.00     0.198 A 
ATOM     77  F   UNL A   1      38.300  30.293  36.349  1.00  0.00    -0.203 F 
ATOM     78  F   UNL A   1      40.097  35.439  36.592  1.00  0.00    -0.200 F 
ATOM     79  C   UNL A   1      38.752  33.707  37.466  1.00  0.00     0.200 A 
ATOM     80  F   UNL A   1      37.441  31.936  38.316  1.00  0.00    -0.200 F 
ATOM     81  F   UNL A   1      38.353  34.502  38.467  1.00  0.00    -0.200 F 
ENDBRANCH  57  71
BRANCH  58  82
ATOM     82  C   UNL A   1      42.275  26.116  27.794  1.00  0.00     0.064 A 
ATOM     83  C   UNL A   1      43.237  26.547  26.869  1.00  0.00     0.173 A 
ATOM     84  C   UNL A   1      41.694  24.856  27.582  1.00  0.00     0.173 A 
ATOM     85  F   UNL A   1      43.800  27.757  27.004  1.00  0.00    -0.203 F 
ATOM     86  C   UNL A   1      43.585  25.766  25.768  1.00  0.00     0.198 A 
ATOM     87  C   UNL A   1      42.067  24.061  26.499  1.00  0.00     0.198 A 
ATOM     88  F   UNL A   1      40.761  24.394  28.428  1.00  0.00    -0.203 F 
ATOM     89  F   UNL A   1      44.463  26.231  24.869  1.00  0.00    -0.200 F 
ATOM     90  C   UNL A   1      43.003  24.521  25.587  1.00  0.00     0.200 A 
ATOM     91  F   UNL A   1      41.508  22.854  26.334  1.00  0.00    -0.200 F 
ATOM     92  F   UNL A   1      43.336  23.770  24.527  1.00  0.00    -0.200 F 
ENDBRANCH  58  82
BRANCH  70  93
ATOM     93  C   UNL A   1      45.077  27.517  34.030  1.00  0.00     0.064 A 
ATOM     94  C   UNL A   1      46.309  28.184  33.959  1.00  0.00     0.173 A 
ATOM     95  C   UNL A   1      44.997  26.376  34.846  1.00  0.00     0.173 A 
ATOM     96  F   UNL A   1      46.444  29.273  33.187  1.00  0.00    -0.203 F 
ATOM     97  C   UNL A   1      47.419  27.714  34.657  1.00  0.00     0.198 A 
ATOM     98  C   UNL A   1      46.100  25.930  35.569  1.00  0.00     0.198 A 
ATOM     99  F   UNL A   1      43.840  25.705  34.960  1.00  0.00    -0.203 F 
ATOM    100  F   UNL A   1      48.597  28.343  34.539  1.00  0.00    -0.200 F 
ATOM    101  C   UNL A   1      47.312  26.595  35.469  1.00  0.00     0.200 A 
ATOM    102  F   UNL A   1      45.987  24.858  36.367  1.00  0.00    -0.200 F 
ATOM    103  F   UNL A   1      48.378  26.155  36.151  1.00  0.00    -0.200 F 
ENDBRANCH  70  93
ENDBRANCH  44  45
ENDBRANCH  36  39
ENDBRANCH  34  35
ENDBRANCH  33  34
ENDBRANCH  32  33
ENDBRANCH   1  32
TORSDOF 16
ENDMDL
