MODEL 1
REMARK VINA RESULT:     -12.2      0.000      0.000
REMARK SMILES CC[C@](C)(NC(=O)N(C)Cc1cccc(C)c1)C(=O)NCCCCNC(=O)c1ccc(-c2c3nc(c(-c4c(F)c(F)c(F)c(F)c4F)c4ccc([nH]4)c(-c4c(F)c(F)c(F)c(F)c4F)c4nc(c(-c5c(F)c(F)c(F)c(F)c5F)c5ccc2[nH]5)C=C4)C=C3)cc1
REMARK SMILES IDX 21 1 20 2 18 3 19 4 3 6 4 7 2 8 1 9 5 10 6 11 7 13 8 14 9 15
REMARK SMILES IDX 10 16 11 17 12 18 17 19 13 20 15 21 14 22 16 23 22 24 23 25
REMARK SMILES IDX 24 26 25 27 26 28 27 30 28 31 29 32 90 33 30 34 89 35 31 36
REMARK SMILES IDX 32 37 33 38 83 39 34 40 88 41 82 42 84 43 35 44 87 45 81 46
REMARK SMILES IDX 80 47 36 49 68 50 48 51 67 52 49 53 52 54 66 55 85 56 50 57
REMARK SMILES IDX 51 58 65 60 86 61 53 62 37 63 38 64 46 65 39 66 40 67 44 68
REMARK SMILES IDX 47 69 41 70 42 71 45 72 43 73 69 74 70 75 78 76 71 77 72 78
REMARK SMILES IDX 76 79 79 80 73 81 74 82 77 83 75 84 54 85 55 86 63 87 56 88
REMARK SMILES IDX 57 89 61 90 64 91 58 92 59 93 62 94 60 95
REMARK H PARENT 20 5 5 12 25 29 84 48 52 59
REMARK Flexibility Score: inf
ROOT
ATOM      1  C   UNL A   1      36.677  22.931  24.313  1.00  0.00     0.116 C 
ENDROOT
BRANCH   1   2
ATOM      2  N   UNL A   1      35.345  22.815  23.747  1.00  0.00    -0.354 N 
ATOM      3  C   UNL A   1      34.089  22.941  24.251  1.00  0.00     0.245 C 
ATOM      4  O   UNL A   1      33.181  22.733  23.433  1.00  0.00    -0.272 OA
ATOM      5  H   UNL A   1      35.353  22.599  22.787  1.00  0.00     0.163 HD
BRANCH   3   6
ATOM      6  C   UNL A   1      33.755  23.434  25.693  1.00  0.00     0.117 C 
ATOM      7  C   UNL A   1      34.151  24.919  25.836  1.00  0.00     0.045 C 
BRANCH   6   8
ATOM      8  C   UNL A   1      34.630  22.611  26.703  1.00  0.00     0.035 C 
ATOM      9  C   UNL A   1      33.914  21.580  27.565  1.00  0.00     0.007 C 
ENDBRANCH   6   8
BRANCH   6  10
ATOM     10  N   UNL A   1      32.359  23.286  26.186  1.00  0.00    -0.324 N 
ATOM     11  C   UNL A   1      31.196  23.948  26.217  1.00  0.00     0.318 C 
ATOM     12  H   UNL A   1      32.257  22.416  26.636  1.00  0.00     0.166 HD
ATOM     13  O   UNL A   1      30.518  23.685  27.218  1.00  0.00    -0.249 OA
BRANCH  11  14
ATOM     14  N   UNL A   1      30.708  24.723  25.211  1.00  0.00    -0.324 N 
ATOM     15  C   UNL A   1      30.608  24.366  23.810  1.00  0.00     0.149 C 
BRANCH  14  16
ATOM     16  C   UNL A   1      30.271  26.088  25.573  1.00  0.00     0.156 C 
BRANCH  16  17
ATOM     17  C   UNL A   1      31.392  27.120  25.644  1.00  0.00    -0.028 A 
ATOM     18  C   UNL A   1      31.755  27.705  26.867  1.00  0.00     0.005 A 
ATOM     19  C   UNL A   1      32.058  27.560  24.485  1.00  0.00     0.009 A 
ATOM     20  C   UNL A   1      32.734  28.705  26.916  1.00  0.00     0.001 A 
ATOM     21  C   UNL A   1      33.089  28.508  24.534  1.00  0.00    -0.051 A 
ATOM     22  C   UNL A   1      33.382  29.120  25.752  1.00  0.00     0.003 A 
ATOM     23  C   UNL A   1      33.877  28.839  23.300  1.00  0.00     0.044 C 
ENDBRANCH  16  17
ENDBRANCH  14  16
ENDBRANCH  11  14
ENDBRANCH   6  10
ENDBRANCH   3   6
ENDBRANCH   1   2
BRANCH   1  24
ATOM     24  C   UNL A   1      37.362  21.589  24.555  1.00  0.00     0.023 C 
BRANCH  24  25
ATOM     25  C   UNL A   1      38.491  21.631  25.586  1.00  0.00     0.023 C 
BRANCH  25  26
ATOM     26  C   UNL A   1      38.765  23.021  26.131  1.00  0.00     0.116 C 
BRANCH  26  27
ATOM     27  N   UNL A   1      40.003  23.109  26.899  1.00  0.00    -0.352 N 
ATOM     28  C   UNL A   1      40.569  24.185  27.565  1.00  0.00     0.251 C 
ATOM     29  H   UNL A   1      40.518  22.272  26.952  1.00  0.00     0.163 HD
ATOM     30  O   UNL A   1      41.617  24.093  28.181  1.00  0.00    -0.269 OA
BRANCH  28  31
ATOM     31  C   UNL A   1      39.779  25.430  27.626  1.00  0.00     0.039 A 
ATOM     32  C   UNL A   1      40.133  26.431  26.716  1.00  0.00     0.014 A 
ATOM     33  C   UNL A   1      39.117  25.723  28.811  1.00  0.00     0.014 A 
ATOM     34  C   UNL A   1      40.121  27.749  27.146  1.00  0.00     0.010 A 
ATOM     35  C   UNL A   1      39.227  27.015  29.282  1.00  0.00     0.010 A 
ATOM     36  C   UNL A   1      39.823  28.008  28.482  1.00  0.00    -0.014 A 
BRANCH  36  37
ATOM     37  C   UNL A   1      40.336  29.181  29.192  1.00  0.00     0.031 A 
ATOM     38  C   UNL A   1      39.445  30.319  29.514  1.00  0.00     0.074 A 
ATOM     39  C   UNL A   1      41.574  29.127  29.749  1.00  0.00     0.049 A 
ATOM     40  N   UNL A   1      39.862  31.431  30.019  1.00  0.00    -0.248 NA
ATOM     41  C   UNL A   1      38.004  30.328  29.250  1.00  0.00     0.031 C 
ATOM     42  C   UNL A   1      42.081  29.933  30.862  1.00  0.00     0.029 A 
ATOM     43  N   UNL A   1      42.717  28.453  29.273  1.00  0.00    -0.354 N 
ATOM     44  C   UNL A   1      38.761  32.104  30.477  1.00  0.00     0.074 A 
ATOM     45  C   UNL A   1      37.633  31.460  29.859  1.00  0.00     0.031 C 
ATOM     46  C   UNL A   1      43.420  29.956  30.813  1.00  0.00     0.029 A 
ATOM     47  C   UNL A   1      43.812  29.300  29.583  1.00  0.00     0.049 A 
ATOM     48  H   UNL A   1      42.748  27.578  28.821  1.00  0.00     0.167 HD
ATOM     49  C   UNL A   1      38.925  33.025  31.462  1.00  0.00     0.037 A 
ATOM     50  C   UNL A   1      44.578  29.875  28.611  1.00  0.00     0.037 A 
ATOM     51  C   UNL A   1      40.316  33.454  31.572  1.00  0.00     0.049 A 
ATOM     52  C   UNL A   1      44.611  31.389  28.631  1.00  0.00     0.074 A 
ATOM     53  C   UNL A   1      41.296  33.360  32.542  1.00  0.00     0.029 A 
ATOM     54  N   UNL A   1      40.945  33.931  30.424  1.00  0.00    -0.354 N 
ATOM     55  N   UNL A   1      43.822  32.130  29.359  1.00  0.00    -0.248 NA
ATOM     56  C   UNL A   1      45.491  32.186  27.778  1.00  0.00     0.031 C 
ATOM     57  C   UNL A   1      42.543  33.678  31.927  1.00  0.00     0.029 A 
ATOM     58  C   UNL A   1      42.307  34.016  30.605  1.00  0.00     0.049 A 
ATOM     59  H   UNL A   1      40.476  34.176  29.593  1.00  0.00     0.167 HD
ATOM     60  C   UNL A   1      43.986  33.448  29.013  1.00  0.00     0.074 A 
ATOM     61  C   UNL A   1      45.082  33.435  28.065  1.00  0.00     0.031 C 
ATOM     62  C   UNL A   1      43.162  34.424  29.497  1.00  0.00     0.037 A 
BRANCH  49  63
ATOM     63  C   UNL A   1      37.840  33.413  32.435  1.00  0.00     0.064 A 
ATOM     64  C   UNL A   1      36.767  34.227  32.021  1.00  0.00     0.173 A 
ATOM     65  C   UNL A   1      37.877  33.132  33.819  1.00  0.00     0.173 A 
ATOM     66  F   UNL A   1      36.641  34.598  30.739  1.00  0.00    -0.203 F 
ATOM     67  C   UNL A   1      35.802  34.701  32.918  1.00  0.00     0.198 A 
ATOM     68  C   UNL A   1      36.882  33.555  34.702  1.00  0.00     0.198 A 
ATOM     69  F   UNL A   1      38.911  32.495  34.386  1.00  0.00    -0.203 F 
ATOM     70  F   UNL A   1      34.832  35.517  32.483  1.00  0.00    -0.200 F 
ATOM     71  C   UNL A   1      35.850  34.350  34.254  1.00  0.00     0.200 A 
ATOM     72  F   UNL A   1      36.955  33.212  35.996  1.00  0.00    -0.200 F 
ATOM     73  F   UNL A   1      34.921  34.794  35.111  1.00  0.00    -0.200 F 
ENDBRANCH  49  63
BRANCH  50  74
ATOM     74  C   UNL A   1      44.695  29.041  27.389  1.00  0.00     0.064 A 
ATOM     75  C   UNL A   1      45.666  28.024  27.368  1.00  0.00     0.173 A 
ATOM     76  C   UNL A   1      43.659  28.973  26.450  1.00  0.00     0.173 A 
ATOM     77  F   UNL A   1      46.675  28.043  28.254  1.00  0.00    -0.203 F 
ATOM     78  C   UNL A   1      45.544  26.925  26.520  1.00  0.00     0.198 A 
ATOM     79  C   UNL A   1      43.543  27.873  25.598  1.00  0.00     0.198 A 
ATOM     80  F   UNL A   1      42.690  29.900  26.443  1.00  0.00    -0.203 F 
ATOM     81  F   UNL A   1      46.426  25.919  26.600  1.00  0.00    -0.200 F 
ATOM     82  C   UNL A   1      44.465  26.837  25.657  1.00  0.00     0.200 A 
ATOM     83  F   UNL A   1      42.479  27.767  24.790  1.00  0.00    -0.200 F 
ATOM     84  F   UNL A   1      44.286  25.734  24.916  1.00  0.00    -0.200 F 
ENDBRANCH  50  74
BRANCH  62  85
ATOM     85  C   UNL A   1      43.077  35.848  28.990  1.00  0.00     0.064 A 
ATOM     86  C   UNL A   1      42.303  36.257  27.891  1.00  0.00     0.173 A 
ATOM     87  C   UNL A   1      43.684  36.898  29.723  1.00  0.00     0.173 A 
ATOM     88  F   UNL A   1      41.569  35.383  27.189  1.00  0.00    -0.203 F 
ATOM     89  C   UNL A   1      42.203  37.600  27.509  1.00  0.00     0.198 A 
ATOM     90  C   UNL A   1      43.533  38.242  29.376  1.00  0.00     0.198 A 
ATOM     91  F   UNL A   1      44.420  36.651  30.816  1.00  0.00    -0.203 F 
ATOM     92  F   UNL A   1      41.486  37.930  26.424  1.00  0.00    -0.200 F 
ATOM     93  C   UNL A   1      42.808  38.592  28.257  1.00  0.00     0.200 A 
ATOM     94  F   UNL A   1      44.078  39.195  30.146  1.00  0.00    -0.200 F 
ATOM     95  F   UNL A   1      42.670  39.880  27.915  1.00  0.00    -0.200 F 
ENDBRANCH  62  85
ENDBRANCH  36  37
ENDBRANCH  28  31
ENDBRANCH  26  27
ENDBRANCH  25  26
ENDBRANCH  24  25
ENDBRANCH   1  24
TORSDOF 16
ENDMDL
MODEL 2
REMARK VINA RESULT:     -12.0      3.978     10.042
REMARK SMILES CC[C@](C)(NC(=O)N(C)Cc1cccc(C)c1)C(=O)NCCCCNC(=O)c1ccc(-c2c3nc(c(-c4c(F)c(F)c(F)c(F)c4F)c4ccc([nH]4)c(-c4c(F)c(F)c(F)c(F)c4F)c4nc(c(-c5c(F)c(F)c(F)c(F)c5F)c5ccc2[nH]5)C=C4)C=C3)cc1
REMARK SMILES IDX 21 1 20 2 18 3 19 4 3 6 4 7 2 8 1 9 5 10 6 11 7 13 8 14 9 15
REMARK SMILES IDX 10 16 11 17 12 18 17 19 13 20 15 21 14 22 16 23 22 24 23 25
REMARK SMILES IDX 24 26 25 27 26 28 27 30 28 31 29 32 90 33 30 34 89 35 31 36
REMARK SMILES IDX 32 37 33 38 83 39 34 40 88 41 82 42 84 43 35 44 87 45 81 46
REMARK SMILES IDX 80 47 36 49 68 50 48 51 67 52 49 53 52 54 66 55 85 56 50 57
REMARK SMILES IDX 51 58 65 60 86 61 53 62 37 63 38 64 46 65 39 66 40 67 44 68
REMARK SMILES IDX 47 69 41 70 42 71 45 72 43 73 69 74 70 75 78 76 71 77 72 78
REMARK SMILES IDX 76 79 79 80 73 81 74 82 77 83 75 84 54 85 55 86 63 87 56 88
REMARK SMILES IDX 57 89 61 90 64 91 58 92 59 93 62 94 60 95
REMARK H PARENT 20 5 5 12 25 29 84 48 52 59
REMARK Flexibility Score: inf
ROOT
ATOM      1  C   UNL A   1      33.217  29.129  25.702  1.00  0.00     0.116 C 
ENDROOT
BRANCH   1   2
ATOM      2  N   UNL A   1      31.973  28.880  24.996  1.00  0.00    -0.354 N 
ATOM      3  C   UNL A   1      31.340  27.758  24.561  1.00  0.00     0.245 C 
ATOM      4  O   UNL A   1      30.279  27.966  23.956  1.00  0.00    -0.272 OA
ATOM      5  H   UNL A   1      31.478  29.705  24.786  1.00  0.00     0.163 HD
BRANCH   3   6
ATOM      6  C   UNL A   1      31.794  26.301  24.885  1.00  0.00     0.117 C 
ATOM      7  C   UNL A   1      31.799  26.088  26.413  1.00  0.00     0.045 C 
BRANCH   6   8
ATOM      8  C   UNL A   1      33.268  26.127  24.377  1.00  0.00     0.035 C 
ATOM      9  C   UNL A   1      33.472  25.934  22.880  1.00  0.00     0.007 C 
ENDBRANCH   6   8
BRANCH   6  10
ATOM     10  N   UNL A   1      31.041  25.174  24.271  1.00  0.00    -0.324 N 
ATOM     11  C   UNL A   1      30.978  23.837  24.294  1.00  0.00     0.318 C 
ATOM     12  H   UNL A   1      30.370  25.527  23.642  1.00  0.00     0.166 HD
ATOM     13  O   UNL A   1      30.619  23.352  23.213  1.00  0.00    -0.249 OA
BRANCH  11  14
ATOM     14  N   UNL A   1      31.138  23.063  25.401  1.00  0.00    -0.324 N 
ATOM     15  C   UNL A   1      30.400  23.162  26.644  1.00  0.00     0.149 C 
BRANCH  14  16
ATOM     16  C   UNL A   1      32.205  22.041  25.351  1.00  0.00     0.156 C 
BRANCH  16  17
ATOM     17  C   UNL A   1      33.625  22.598  25.352  1.00  0.00    -0.028 A 
ATOM     18  C   UNL A   1      34.160  23.203  26.500  1.00  0.00     0.005 A 
ATOM     19  C   UNL A   1      34.420  22.578  24.192  1.00  0.00     0.009 A 
ATOM     20  C   UNL A   1      35.436  23.779  26.473  1.00  0.00     0.001 A 
ATOM     21  C   UNL A   1      35.727  23.087  24.176  1.00  0.00    -0.051 A 
ATOM     22  C   UNL A   1      36.207  23.740  25.311  1.00  0.00     0.003 A 
ATOM     23  C   UNL A   1      36.598  22.910  22.967  1.00  0.00     0.044 C 
ENDBRANCH  16  17
ENDBRANCH  14  16
ENDBRANCH  11  14
ENDBRANCH   6  10
ENDBRANCH   3   6
ENDBRANCH   1   2
BRANCH   1  24
ATOM     24  C   UNL A   1      33.086  30.129  26.847  1.00  0.00     0.023 C 
BRANCH  24  25
ATOM     25  C   UNL A   1      34.379  30.868  27.194  1.00  0.00     0.023 C 
BRANCH  25  26
ATOM     26  C   UNL A   1      34.501  31.220  28.666  1.00  0.00     0.116 C 
BRANCH  26  27
ATOM     27  N   UNL A   1      35.683  32.020  28.975  1.00  0.00    -0.352 N 
ATOM     28  C   UNL A   1      37.001  31.635  29.161  1.00  0.00     0.251 C 
ATOM     29  H   UNL A   1      35.516  32.985  29.068  1.00  0.00     0.163 HD
ATOM     30  O   UNL A   1      37.886  32.438  29.404  1.00  0.00    -0.269 OA
BRANCH  28  31
ATOM     31  C   UNL A   1      37.331  30.219  28.909  1.00  0.00     0.039 A 
ATOM     32  C   UNL A   1      37.393  29.391  30.033  1.00  0.00     0.014 A 
ATOM     33  C   UNL A   1      38.005  29.906  27.735  1.00  0.00     0.014 A 
ATOM     34  C   UNL A   1      38.390  28.429  30.091  1.00  0.00     0.010 A 
ATOM     35  C   UNL A   1      39.074  29.042  27.843  1.00  0.00     0.010 A 
ATOM     36  C   UNL A   1      39.324  28.378  29.058  1.00  0.00    -0.014 A 
BRANCH  36  37
ATOM     37  C   UNL A   1      40.689  27.886  29.252  1.00  0.00     0.031 A 
ATOM     38  C   UNL A   1      41.045  26.490  28.911  1.00  0.00     0.074 A 
ATOM     39  C   UNL A   1      41.678  28.775  29.533  1.00  0.00     0.049 A 
ATOM     40  N   UNL A   1      42.190  25.960  29.179  1.00  0.00    -0.248 NA
ATOM     41  C   UNL A   1      40.121  25.543  28.282  1.00  0.00     0.031 C 
ATOM     42  C   UNL A   1      43.113  28.608  29.295  1.00  0.00     0.029 A 
ATOM     43  N   UNL A   1      41.598  29.957  30.298  1.00  0.00    -0.354 N 
ATOM     44  C   UNL A   1      42.280  24.804  28.451  1.00  0.00     0.074 A 
ATOM     45  C   UNL A   1      40.936  24.513  28.027  1.00  0.00     0.031 C 
ATOM     46  C   UNL A   1      43.792  29.430  30.108  1.00  0.00     0.029 A 
ATOM     47  C   UNL A   1      42.826  30.034  31.003  1.00  0.00     0.049 A 
ATOM     48  H   UNL A   1      40.847  30.594  30.335  1.00  0.00     0.167 HD
ATOM     49  C   UNL A   1      43.512  24.318  28.150  1.00  0.00     0.037 A 
ATOM     50  C   UNL A   1      42.884  29.961  32.364  1.00  0.00     0.037 A 
ATOM     51  C   UNL A   1      44.539  24.879  29.023  1.00  0.00     0.049 A 
ATOM     52  C   UNL A   1      43.720  28.824  32.912  1.00  0.00     0.074 A 
ATOM     53  C   UNL A   1      45.647  25.684  28.838  1.00  0.00     0.029 A 
ATOM     54  N   UNL A   1      44.356  24.774  30.400  1.00  0.00    -0.354 N 
ATOM     55  N   UNL A   1      44.188  27.844  32.190  1.00  0.00    -0.248 NA
ATOM     56  C   UNL A   1      44.034  28.667  34.331  1.00  0.00     0.031 C 
ATOM     57  C   UNL A   1      46.057  26.155  30.121  1.00  0.00     0.029 A 
ATOM     58  C   UNL A   1      45.232  25.590  31.079  1.00  0.00     0.049 A 
ATOM     59  H   UNL A   1      43.688  24.192  30.830  1.00  0.00     0.167 HD
ATOM     60  C   UNL A   1      44.744  26.896  33.011  1.00  0.00     0.074 A 
ATOM     61  C   UNL A   1      44.677  27.485  34.334  1.00  0.00     0.031 C 
ATOM     62  C   UNL A   1      45.156  25.685  32.532  1.00  0.00     0.037 A 
BRANCH  49  63
ATOM     63  C   UNL A   1      43.801  23.451  26.951  1.00  0.00     0.064 A 
ATOM     64  C   UNL A   1      43.365  22.111  26.916  1.00  0.00     0.173 A 
ATOM     65  C   UNL A   1      44.624  23.840  25.870  1.00  0.00     0.173 A 
ATOM     66  F   UNL A   1      42.611  21.608  27.903  1.00  0.00    -0.203 F 
ATOM     67  C   UNL A   1      43.710  21.243  25.873  1.00  0.00     0.198 A 
ATOM     68  C   UNL A   1      44.916  22.991  24.801  1.00  0.00     0.198 A 
ATOM     69  F   UNL A   1      45.234  25.033  25.837  1.00  0.00    -0.203 F 
ATOM     70  F   UNL A   1      43.315  19.963  25.914  1.00  0.00    -0.200 F 
ATOM     71  C   UNL A   1      44.469  21.688  24.807  1.00  0.00     0.200 A 
ATOM     72  F   UNL A   1      45.665  23.441  23.784  1.00  0.00    -0.200 F 
ATOM     73  F   UNL A   1      44.790  20.861  23.804  1.00  0.00    -0.200 F 
ENDBRANCH  49  63
BRANCH  50  74
ATOM     74  C   UNL A   1      41.686  30.530  33.031  1.00  0.00     0.064 A 
ATOM     75  C   UNL A   1      41.603  31.928  33.171  1.00  0.00     0.173 A 
ATOM     76  C   UNL A   1      40.507  29.790  33.168  1.00  0.00     0.173 A 
ATOM     77  F   UNL A   1      42.707  32.681  33.042  1.00  0.00    -0.203 F 
ATOM     78  C   UNL A   1      40.374  32.566  33.327  1.00  0.00     0.198 A 
ATOM     79  C   UNL A   1      39.278  30.434  33.330  1.00  0.00     0.198 A 
ATOM     80  F   UNL A   1      40.522  28.458  33.015  1.00  0.00    -0.203 F 
ATOM     81  F   UNL A   1      40.316  33.905  33.347  1.00  0.00    -0.200 F 
ATOM     82  C   UNL A   1      39.210  31.819  33.376  1.00  0.00     0.200 A 
ATOM     83  F   UNL A   1      38.146  29.715  33.337  1.00  0.00    -0.200 F 
ATOM     84  F   UNL A   1      38.019  32.434  33.418  1.00  0.00    -0.200 F 
ENDBRANCH  50  74
BRANCH  62  85
ATOM     85  C   UNL A   1      45.532  24.480  33.367  1.00  0.00     0.064 A 
ATOM     86  C   UNL A   1      44.690  23.379  33.601  1.00  0.00     0.173 A 
ATOM     87  C   UNL A   1      46.857  24.335  33.848  1.00  0.00     0.173 A 
ATOM     88  F   UNL A   1      43.453  23.325  33.089  1.00  0.00    -0.203 F 
ATOM     89  C   UNL A   1      45.114  22.256  34.321  1.00  0.00     0.198 A 
ATOM     90  C   UNL A   1      47.296  23.189  34.512  1.00  0.00     0.198 A 
ATOM     91  F   UNL A   1      47.775  25.295  33.660  1.00  0.00    -0.203 F 
ATOM     92  F   UNL A   1      44.254  21.253  34.553  1.00  0.00    -0.200 F 
ATOM     93  C   UNL A   1      46.418  22.156  34.767  1.00  0.00     0.200 A 
ATOM     94  F   UNL A   1      48.579  23.083  34.886  1.00  0.00    -0.200 F 
ATOM     95  F   UNL A   1      46.832  21.059  35.414  1.00  0.00    -0.200 F 
ENDBRANCH  62  85
ENDBRANCH  36  37
ENDBRANCH  28  31
ENDBRANCH  26  27
ENDBRANCH  25  26
ENDBRANCH  24  25
ENDBRANCH   1  24
TORSDOF 16
ENDMDL
MODEL 3
REMARK VINA RESULT:     -11.8      3.743      9.788
REMARK SMILES CC[C@](C)(NC(=O)N(C)Cc1cccc(C)c1)C(=O)NCCCCNC(=O)c1ccc(-c2c3nc(c(-c4c(F)c(F)c(F)c(F)c4F)c4ccc([nH]4)c(-c4c(F)c(F)c(F)c(F)c4F)c4nc(c(-c5c(F)c(F)c(F)c(F)c5F)c5ccc2[nH]5)C=C4)C=C3)cc1
REMARK SMILES IDX 21 1 20 2 18 3 19 4 3 6 4 7 2 8 1 9 5 10 6 11 7 13 8 14 9 15
REMARK SMILES IDX 10 16 11 17 12 18 17 19 13 20 15 21 14 22 16 23 22 24 23 25
REMARK SMILES IDX 24 26 25 27 26 28 27 30 28 31 29 32 90 33 30 34 89 35 31 36
REMARK SMILES IDX 32 37 33 38 83 39 34 40 88 41 82 42 84 43 35 44 87 45 81 46
REMARK SMILES IDX 80 47 36 49 68 50 48 51 67 52 49 53 52 54 66 55 85 56 50 57
REMARK SMILES IDX 51 58 65 60 86 61 53 62 37 63 38 64 46 65 39 66 40 67 44 68
REMARK SMILES IDX 47 69 41 70 42 71 45 72 43 73 69 74 70 75 78 76 71 77 72 78
REMARK SMILES IDX 76 79 79 80 73 81 74 82 77 83 75 84 54 85 55 86 63 87 56 88
REMARK SMILES IDX 57 89 61 90 64 91 58 92 59 93 62 94 60 95
REMARK H PARENT 20 5 5 12 25 29 84 48 52 59
REMARK Flexibility Score: inf
ROOT
ATOM      1  C   UNL A   1      31.800  29.694  25.019  1.00  0.00     0.116 C 
ENDROOT
BRANCH   1   2
ATOM      2  N   UNL A   1      32.365  29.343  23.728  1.00  0.00    -0.354 N 
ATOM      3  C   UNL A   1      32.738  28.173  23.146  1.00  0.00     0.245 C 
ATOM      4  O   UNL A   1      33.218  28.292  22.009  1.00  0.00    -0.272 OA
ATOM      5  H   UNL A   1      32.508  30.124  23.146  1.00  0.00     0.163 HD
BRANCH   3   6
ATOM      6  C   UNL A   1      32.485  26.758  23.753  1.00  0.00     0.117 C 
ATOM      7  C   UNL A   1      33.629  25.807  23.343  1.00  0.00     0.045 C 
BRANCH   6   8
ATOM      8  C   UNL A   1      31.157  26.195  23.135  1.00  0.00     0.035 C 
ATOM      9  C   UNL A   1      29.871  26.953  23.439  1.00  0.00     0.007 C 
ENDBRANCH   6   8
BRANCH   6  10
ATOM     10  N   UNL A   1      32.302  26.643  25.225  1.00  0.00    -0.324 N 
ATOM     11  C   UNL A   1      31.961  25.747  26.159  1.00  0.00     0.318 C 
ATOM     12  H   UNL A   1      32.495  27.509  25.651  1.00  0.00     0.166 HD
ATOM     13  O   UNL A   1      31.395  26.257  27.133  1.00  0.00    -0.249 OA
BRANCH  11  14
ATOM     14  N   UNL A   1      32.309  24.431  26.148  1.00  0.00    -0.324 N 
ATOM     15  C   UNL A   1      33.623  23.879  26.409  1.00  0.00     0.149 C 
BRANCH  14  16
ATOM     16  C   UNL A   1      31.250  23.465  25.791  1.00  0.00     0.156 C 
BRANCH  16  17
ATOM     17  C   UNL A   1      31.688  22.360  24.834  1.00  0.00    -0.028 A 
ATOM     18  C   UNL A   1      31.777  22.596  23.454  1.00  0.00     0.005 A 
ATOM     19  C   UNL A   1      31.961  21.059  25.294  1.00  0.00     0.009 A 
ATOM     20  C   UNL A   1      32.108  21.560  22.573  1.00  0.00     0.001 A 
ATOM     21  C   UNL A   1      32.364  20.032  24.428  1.00  0.00    -0.051 A 
ATOM     22  C   UNL A   1      32.379  20.279  23.055  1.00  0.00     0.003 A 
ATOM     23  C   UNL A   1      32.793  18.702  24.973  1.00  0.00     0.044 C 
ENDBRANCH  16  17
ENDBRANCH  14  16
ENDBRANCH  11  14
ENDBRANCH   6  10
ENDBRANCH   3   6
ENDBRANCH   1   2
BRANCH   1  24
ATOM     24  C   UNL A   1      32.846  29.963  26.097  1.00  0.00     0.023 C 
BRANCH  24  25
ATOM     25  C   UNL A   1      32.722  31.329  26.773  1.00  0.00     0.023 C 
BRANCH  25  26
ATOM     26  C   UNL A   1      33.421  31.406  28.118  1.00  0.00     0.116 C 
BRANCH  26  27
ATOM     27  N   UNL A   1      34.580  32.294  28.120  1.00  0.00    -0.352 N 
ATOM     28  C   UNL A   1      35.926  32.009  28.284  1.00  0.00     0.251 C 
ATOM     29  H   UNL A   1      34.372  33.246  27.986  1.00  0.00     0.163 HD
ATOM     30  O   UNL A   1      36.785  32.873  28.246  1.00  0.00    -0.269 OA
BRANCH  28  31
ATOM     31  C   UNL A   1      36.308  30.585  28.362  1.00  0.00     0.039 A 
ATOM     32  C   UNL A   1      36.464  30.058  29.647  1.00  0.00     0.014 A 
ATOM     33  C   UNL A   1      36.935  30.018  27.260  1.00  0.00     0.014 A 
ATOM     34  C   UNL A   1      37.506  29.172  29.876  1.00  0.00     0.010 A 
ATOM     35  C   UNL A   1      38.046  29.240  27.509  1.00  0.00     0.010 A 
ATOM     36  C   UNL A   1      38.387  28.901  28.831  1.00  0.00    -0.014 A 
BRANCH  36  37
ATOM     37  C   UNL A   1      39.782  28.515  29.056  1.00  0.00     0.031 A 
ATOM     38  C   UNL A   1      40.221  27.116  28.854  1.00  0.00     0.074 A 
ATOM     39  C   UNL A   1      40.715  29.487  29.233  1.00  0.00     0.049 A 
ATOM     40  N   UNL A   1      41.399  26.687  29.159  1.00  0.00    -0.248 NA
ATOM     41  C   UNL A   1      39.353  26.055  28.336  1.00  0.00     0.031 C 
ATOM     42  C   UNL A   1      42.156  29.385  28.994  1.00  0.00     0.029 A 
ATOM     43  N   UNL A   1      40.568  30.734  29.876  1.00  0.00    -0.354 N 
ATOM     44  C   UNL A   1      41.554  25.470  28.551  1.00  0.00     0.074 A 
ATOM     45  C   UNL A   1      40.229  25.056  28.176  1.00  0.00     0.031 C 
ATOM     46  C   UNL A   1      42.789  30.324  29.711  1.00  0.00     0.029 A 
ATOM     47  C   UNL A   1      41.794  30.957  30.553  1.00  0.00     0.049 A 
ATOM     48  H   UNL A   1      39.780  31.324  29.857  1.00  0.00     0.167 HD
ATOM     49  C   UNL A   1      42.813  25.032  28.285  1.00  0.00     0.037 A 
ATOM     50  C   UNL A   1      41.865  31.026  31.913  1.00  0.00     0.037 A 
ATOM     51  C   UNL A   1      43.809  25.740  29.082  1.00  0.00     0.049 A 
ATOM     52  C   UNL A   1      42.774  30.004  32.563  1.00  0.00     0.074 A 
ATOM     53  C   UNL A   1      44.864  26.588  28.803  1.00  0.00     0.029 A 
ATOM     54  N   UNL A   1      43.642  25.765  30.465  1.00  0.00    -0.354 N 
ATOM     55  N   UNL A   1      43.297  28.986  31.937  1.00  0.00    -0.248 NA
ATOM     56  C   UNL A   1      43.107  30.011  33.986  1.00  0.00     0.031 C 
ATOM     57  C   UNL A   1      45.253  27.211  30.026  1.00  0.00     0.029 A 
ATOM     58  C   UNL A   1      44.471  26.698  31.047  1.00  0.00     0.049 A 
ATOM     59  H   UNL A   1      43.014  25.191  30.961  1.00  0.00     0.167 HD
ATOM     60  C   UNL A   1      43.916  28.162  32.843  1.00  0.00     0.074 A 
ATOM     61  C   UNL A   1      43.822  28.878  34.100  1.00  0.00     0.031 C 
ATOM     62  C   UNL A   1      44.399  26.936  32.483  1.00  0.00     0.037 A 
BRANCH  49  63
ATOM     63  C   UNL A   1      43.146  24.066  27.176  1.00  0.00     0.064 A 
ATOM     64  C   UNL A   1      42.842  22.697  27.305  1.00  0.00     0.173 A 
ATOM     65  C   UNL A   1      43.892  24.407  26.025  1.00  0.00     0.173 A 
ATOM     66  F   UNL A   1      42.172  22.239  28.373  1.00  0.00    -0.203 F 
ATOM     67  C   UNL A   1      43.237  21.752  26.349  1.00  0.00     0.198 A 
ATOM     68  C   UNL A   1      44.232  23.474  25.043  1.00  0.00     0.198 A 
ATOM     69  F   UNL A   1      44.382  25.640  25.836  1.00  0.00    -0.203 F 
ATOM     70  F   UNL A   1      42.970  20.454  26.546  1.00  0.00    -0.200 F 
ATOM     71  C   UNL A   1      43.915  22.144  25.210  1.00  0.00     0.200 A 
ATOM     72  F   UNL A   1      44.901  23.875  23.952  1.00  0.00    -0.200 F 
ATOM     73  F   UNL A   1      44.282  21.243  24.290  1.00  0.00    -0.200 F 
ENDBRANCH  49  63
BRANCH  50  74
ATOM     74  C   UNL A   1      40.639  31.587  32.535  1.00  0.00     0.064 A 
ATOM     75  C   UNL A   1      40.474  32.984  32.539  1.00  0.00     0.173 A 
ATOM     76  C   UNL A   1      39.506  30.795  32.755  1.00  0.00     0.173 A 
ATOM     77  F   UNL A   1      41.531  33.784  32.326  1.00  0.00    -0.203 F 
ATOM     78  C   UNL A   1      39.210  33.561  32.646  1.00  0.00     0.198 A 
ATOM     79  C   UNL A   1      38.242  31.379  32.867  1.00  0.00     0.198 A 
ATOM     80  F   UNL A   1      39.600  29.458  32.733  1.00  0.00    -0.203 F 
ATOM     81  F   UNL A   1      39.073  34.890  32.537  1.00  0.00    -0.200 F 
ATOM     82  C   UNL A   1      38.093  32.756  32.780  1.00  0.00     0.200 A 
ATOM     83  F   UNL A   1      37.156  30.598  32.957  1.00  0.00    -0.200 F 
ATOM     84  F   UNL A   1      36.868  33.300  32.775  1.00  0.00    -0.200 F 
ENDBRANCH  50  74
BRANCH  62  85
ATOM     85  C   UNL A   1      44.855  25.847  33.431  1.00  0.00     0.064 A 
ATOM     86  C   UNL A   1      44.007  25.150  34.311  1.00  0.00     0.173 A 
ATOM     87  C   UNL A   1      46.184  25.360  33.367  1.00  0.00     0.173 A 
ATOM     88  F   UNL A   1      42.696  25.418  34.376  1.00  0.00    -0.203 F 
ATOM     89  C   UNL A   1      44.467  24.101  35.114  1.00  0.00     0.198 A 
ATOM     90  C   UNL A   1      46.625  24.274  34.124  1.00  0.00     0.198 A 
ATOM     91  F   UNL A   1      47.087  25.910  32.542  1.00  0.00    -0.203 F 
ATOM     92  F   UNL A   1      43.625  23.501  35.968  1.00  0.00    -0.200 F 
ATOM     93  C   UNL A   1      45.772  23.657  35.013  1.00  0.00     0.200 A 
ATOM     94  F   UNL A   1      47.876  23.819  33.971  1.00  0.00    -0.200 F 
ATOM     95  F   UNL A   1      46.195  22.621  35.750  1.00  0.00    -0.200 F 
ENDBRANCH  62  85
ENDBRANCH  36  37
ENDBRANCH  28  31
ENDBRANCH  26  27
ENDBRANCH  25  26
ENDBRANCH  24  25
ENDBRANCH   1  24
TORSDOF 16
ENDMDL
