MODEL 1
REMARK VINA RESULT:     -12.9      0.000      0.000
REMARK SMILES CC[N@H+]1C[C@@H](C(=O)NCCCCNC(=O)c2ccc(-c3c4nc(c(-c5c(F)c(F)c(F)c(F)c5F)c5ccc([nH]5)c(-c5c(F)c(F)c(F)c(F)c5F)c5nc(c(-c6c(F)c(F)c(F)c(F)c6F)c6ccc3[nH]6)C=C5)C=C4)cc2)C[C@@H](C(=O)Nc2ccc(F)cc2)C1
REMARK SMILES IDX 10 1 9 2 8 3 6 4 7 5 5 7 3 8 4 9 91 10 80 12 79 13 2 14 1 15
REMARK SMILES IDX 81 16 82 17 83 18 84 20 85 21 90 22 86 23 89 24 87 25 88 26
REMARK SMILES IDX 11 27 12 28 13 29 14 30 15 32 16 33 17 34 78 35 18 36 77 37
REMARK SMILES IDX 19 38 20 39 21 40 71 41 22 42 76 43 70 44 72 45 23 46 75 47
REMARK SMILES IDX 69 48 68 49 24 51 56 52 36 53 55 54 37 55 40 56 54 57 73 58
REMARK SMILES IDX 38 59 39 60 53 62 74 63 41 64 25 65 26 66 34 67 27 68 28 69
REMARK SMILES IDX 32 70 35 71 29 72 30 73 33 74 31 75 57 76 58 77 66 78 59 79
REMARK SMILES IDX 60 80 64 81 67 82 61 83 62 84 65 85 63 86 42 87 43 88 51 89
REMARK SMILES IDX 44 90 45 91 49 92 52 93 46 94 47 95 50 96 48 97
REMARK H PARENT 8 6 3 11 83 19 13 31 72 50 40 61
REMARK Flexibility Score: inf
ROOT
ATOM      1  C   UNL A   1      37.384  21.483  24.626  1.00  0.00     0.023 C 
ENDROOT
BRANCH   1   2
ATOM      2  C   UNL A   1      37.202  22.463  25.783  1.00  0.00     0.116 C 
BRANCH   2   3
ATOM      3  N   UNL A   1      36.480  23.644  25.351  1.00  0.00    -0.356 N 
ATOM      4  C   UNL A   1      35.143  23.885  25.244  1.00  0.00     0.228 C 
ATOM      5  O   UNL A   1      34.802  24.974  24.776  1.00  0.00    -0.275 OA
ATOM      6  H   UNL A   1      37.054  24.401  25.090  1.00  0.00     0.163 HD
BRANCH   4   7
ATOM      7  C   UNL A   1      34.099  22.892  25.747  1.00  0.00     0.134 C 
ATOM      8  N   UNL A   1      32.705  20.978  24.931  1.00  0.00    -0.334 N 
ATOM      9  C   UNL A   1      33.845  21.858  24.637  1.00  0.00     0.275 C 
ATOM     10  C   UNL A   1      31.506  21.789  25.163  1.00  0.00     0.275 C 
ATOM     11  H   UNL A   1      32.912  20.449  25.778  1.00  0.00     0.348 HD
ATOM     12  C   UNL A   1      31.619  22.655  26.402  1.00  0.00     0.135 C 
ATOM     13  C   UNL A   1      32.852  23.567  26.351  1.00  0.00     0.038 C 
BRANCH   8  14
ATOM     14  C   UNL A   1      32.489  19.979  23.865  1.00  0.00     0.258 C 
ATOM     15  C   UNL A   1      32.540  18.504  24.272  1.00  0.00     0.071 C 
ENDBRANCH   8  14
BRANCH  12  16
ATOM     16  C   UNL A   1      30.361  23.453  26.793  1.00  0.00     0.233 C 
ATOM     17  O   UNL A   1      29.590  22.951  27.626  1.00  0.00    -0.274 OA
ATOM     18  N   UNL A   1      30.103  24.756  26.476  1.00  0.00    -0.326 N 
ATOM     19  H   UNL A   1      29.473  25.173  27.107  1.00  0.00     0.169 HD
BRANCH  18  20
ATOM     20  C   UNL A   1      30.514  25.645  25.476  1.00  0.00     0.041 A 
ATOM     21  C   UNL A   1      31.024  26.888  25.878  1.00  0.00     0.029 A 
ATOM     22  C   UNL A   1      30.347  25.414  24.113  1.00  0.00     0.029 A 
ATOM     23  C   UNL A   1      31.530  27.789  24.932  1.00  0.00     0.041 A 
ATOM     24  C   UNL A   1      30.884  26.288  23.164  1.00  0.00     0.041 A 
ATOM     25  C   UNL A   1      31.497  27.458  23.585  1.00  0.00     0.123 A 
ATOM     26  F   UNL A   1      32.054  28.272  22.683  1.00  0.00    -0.207 F 
ENDBRANCH  18  20
ENDBRANCH  12  16
ENDBRANCH   4   7
ENDBRANCH   2   3
ENDBRANCH   1   2
BRANCH   1  27
ATOM     27  C   UNL A   1      38.088  20.182  24.991  1.00  0.00     0.023 C 
BRANCH  27  28
ATOM     28  C   UNL A   1      39.211  20.328  26.011  1.00  0.00     0.116 C 
BRANCH  28  29
ATOM     29  N   UNL A   1      40.140  19.206  26.015  1.00  0.00    -0.352 N 
ATOM     30  C   UNL A   1      41.510  19.218  26.126  1.00  0.00     0.251 C 
ATOM     31  H   UNL A   1      39.730  18.315  25.926  1.00  0.00     0.163 HD
ATOM     32  O   UNL A   1      42.159  18.193  25.942  1.00  0.00    -0.269 OA
BRANCH  30  33
ATOM     33  C   UNL A   1      42.201  20.489  26.426  1.00  0.00     0.039 A 
ATOM     34  C   UNL A   1      42.719  21.242  25.368  1.00  0.00     0.014 A 
ATOM     35  C   UNL A   1      42.293  20.958  27.738  1.00  0.00     0.014 A 
ATOM     36  C   UNL A   1      43.247  22.508  25.621  1.00  0.00     0.010 A 
ATOM     37  C   UNL A   1      42.737  22.253  27.975  1.00  0.00     0.010 A 
ATOM     38  C   UNL A   1      43.213  23.043  26.918  1.00  0.00    -0.014 A 
BRANCH  38  39
ATOM     39  C   UNL A   1      43.658  24.432  27.193  1.00  0.00     0.031 A 
ATOM     40  C   UNL A   1      42.675  25.449  27.698  1.00  0.00     0.074 A 
ATOM     41  C   UNL A   1      44.926  24.792  26.911  1.00  0.00     0.049 A 
ATOM     42  N   UNL A   1      42.844  26.730  27.910  1.00  0.00    -0.248 NA
ATOM     43  C   UNL A   1      41.312  24.970  27.975  1.00  0.00     0.031 C 
ATOM     44  C   UNL A   1      45.954  23.909  26.361  1.00  0.00     0.029 A 
ATOM     45  N   UNL A   1      45.560  26.003  27.034  1.00  0.00    -0.354 N 
ATOM     46  C   UNL A   1      41.611  27.207  28.332  1.00  0.00     0.074 A 
ATOM     47  C   UNL A   1      40.687  26.096  28.286  1.00  0.00     0.031 C 
ATOM     48  C   UNL A   1      47.095  24.601  26.210  1.00  0.00     0.029 A 
ATOM     49  C   UNL A   1      46.868  25.984  26.616  1.00  0.00     0.049 A 
ATOM     50  H   UNL A   1      45.119  26.808  27.388  1.00  0.00     0.167 HD
ATOM     51  C   UNL A   1      41.286  28.454  28.749  1.00  0.00     0.037 A 
ATOM     52  C   UNL A   1      47.778  26.975  26.556  1.00  0.00     0.037 A 
ATOM     53  C   UNL A   1      42.213  29.552  28.810  1.00  0.00     0.049 A 
ATOM     54  C   UNL A   1      47.390  28.353  27.024  1.00  0.00     0.074 A 
ATOM     55  C   UNL A   1      41.994  30.843  29.257  1.00  0.00     0.029 A 
ATOM     56  N   UNL A   1      43.541  29.486  28.413  1.00  0.00    -0.354 N 
ATOM     57  N   UNL A   1      46.238  28.777  27.482  1.00  0.00    -0.248 NA
ATOM     58  C   UNL A   1      48.433  29.386  26.975  1.00  0.00     0.031 C 
ATOM     59  C   UNL A   1      43.179  31.569  29.094  1.00  0.00     0.029 A 
ATOM     60  C   UNL A   1      44.149  30.717  28.592  1.00  0.00     0.049 A 
ATOM     61  H   UNL A   1      43.984  28.682  28.056  1.00  0.00     0.167 HD
ATOM     62  C   UNL A   1      46.423  30.115  27.802  1.00  0.00     0.074 A 
ATOM     63  C   UNL A   1      47.805  30.428  27.501  1.00  0.00     0.031 C 
ATOM     64  C   UNL A   1      45.530  31.005  28.297  1.00  0.00     0.037 A 
BRANCH  51  65
ATOM     65  C   UNL A   1      39.869  28.689  29.185  1.00  0.00     0.064 A 
ATOM     66  C   UNL A   1      39.469  28.481  30.515  1.00  0.00     0.173 A 
ATOM     67  C   UNL A   1      38.908  29.157  28.278  1.00  0.00     0.173 A 
ATOM     68  F   UNL A   1      40.346  28.021  31.420  1.00  0.00    -0.203 F 
ATOM     69  C   UNL A   1      38.154  28.703  30.912  1.00  0.00     0.198 A 
ATOM     70  C   UNL A   1      37.600  29.409  28.685  1.00  0.00     0.198 A 
ATOM     71  F   UNL A   1      39.237  29.377  26.996  1.00  0.00    -0.203 F 
ATOM     72  F   UNL A   1      37.783  28.447  32.174  1.00  0.00    -0.200 F 
ATOM     73  C   UNL A   1      37.222  29.173  29.998  1.00  0.00     0.200 A 
ATOM     74  F   UNL A   1      36.703  29.875  27.805  1.00  0.00    -0.200 F 
ATOM     75  F   UNL A   1      35.957  29.394  30.383  1.00  0.00    -0.200 F 
ENDBRANCH  51  65
BRANCH  52  76
ATOM     76  C   UNL A   1      49.148  26.699  26.051  1.00  0.00     0.064 A 
ATOM     77  C   UNL A   1      50.137  26.178  26.898  1.00  0.00     0.173 A 
ATOM     78  C   UNL A   1      49.503  26.961  24.720  1.00  0.00     0.173 A 
ATOM     79  F   UNL A   1      49.853  25.928  28.184  1.00  0.00    -0.203 F 
ATOM     80  C   UNL A   1      51.434  25.954  26.439  1.00  0.00     0.198 A 
ATOM     81  C   UNL A   1      50.791  26.709  24.254  1.00  0.00     0.198 A 
ATOM     82  F   UNL A   1      48.591  27.453  23.867  1.00  0.00    -0.203 F 
ATOM     83  F   UNL A   1      52.372  25.505  27.283  1.00  0.00    -0.200 F 
ATOM     84  C   UNL A   1      51.759  26.216  25.117  1.00  0.00     0.200 A 
ATOM     85  F   UNL A   1      51.096  26.949  22.971  1.00  0.00    -0.200 F 
ATOM     86  F   UNL A   1      53.005  25.999  24.675  1.00  0.00    -0.200 F 
ENDBRANCH  52  76
BRANCH  64  87
ATOM     87  C   UNL A   1      46.028  32.393  28.581  1.00  0.00     0.064 A 
ATOM     88  C   UNL A   1      45.958  33.411  27.618  1.00  0.00     0.173 A 
ATOM     89  C   UNL A   1      46.544  32.716  29.844  1.00  0.00     0.173 A 
ATOM     90  F   UNL A   1      45.486  33.148  26.390  1.00  0.00    -0.203 F 
ATOM     91  C   UNL A   1      46.410  34.697  27.904  1.00  0.00     0.198 A 
ATOM     92  C   UNL A   1      46.967  34.008  30.136  1.00  0.00     0.198 A 
ATOM     93  F   UNL A   1      46.625  31.778  30.802  1.00  0.00    -0.203 F 
ATOM     94  F   UNL A   1      46.379  35.642  26.956  1.00  0.00    -0.200 F 
ATOM     95  C   UNL A   1      46.907  34.996  29.164  1.00  0.00     0.200 A 
ATOM     96  F   UNL A   1      47.434  34.300  31.359  1.00  0.00    -0.200 F 
ATOM     97  F   UNL A   1      47.335  36.236  29.440  1.00  0.00    -0.200 F 
ENDBRANCH  64  87
ENDBRANCH  38  39
ENDBRANCH  30  33
ENDBRANCH  28  29
ENDBRANCH  27  28
ENDBRANCH   1  27
TORSDOF 14
ENDMDL
MODEL 2
REMARK VINA RESULT:     -12.7      1.077      2.422
REMARK SMILES CC[N@H+]1C[C@@H](C(=O)NCCCCNC(=O)c2ccc(-c3c4nc(c(-c5c(F)c(F)c(F)c(F)c5F)c5ccc([nH]5)c(-c5c(F)c(F)c(F)c(F)c5F)c5nc(c(-c6c(F)c(F)c(F)c(F)c6F)c6ccc3[nH]6)C=C5)C=C4)cc2)C[C@@H](C(=O)Nc2ccc(F)cc2)C1
REMARK SMILES IDX 10 1 9 2 8 3 6 4 7 5 5 7 3 8 4 9 91 10 80 12 79 13 2 14 1 15
REMARK SMILES IDX 81 16 82 17 83 18 84 20 85 21 90 22 86 23 89 24 87 25 88 26
REMARK SMILES IDX 11 27 12 28 13 29 14 30 15 32 16 33 17 34 78 35 18 36 77 37
REMARK SMILES IDX 19 38 20 39 21 40 71 41 22 42 76 43 70 44 72 45 23 46 75 47
REMARK SMILES IDX 69 48 68 49 24 51 56 52 36 53 55 54 37 55 40 56 54 57 73 58
REMARK SMILES IDX 38 59 39 60 53 62 74 63 41 64 25 65 26 66 34 67 27 68 28 69
REMARK SMILES IDX 32 70 35 71 29 72 30 73 33 74 31 75 57 76 58 77 66 78 59 79
REMARK SMILES IDX 60 80 64 81 67 82 61 83 62 84 65 85 63 86 42 87 43 88 51 89
REMARK SMILES IDX 44 90 45 91 49 92 52 93 46 94 47 95 50 96 48 97
REMARK H PARENT 8 6 3 11 83 19 13 31 72 50 40 61
REMARK Flexibility Score: inf
ROOT
ATOM      1  C   UNL A   1      36.999  21.328  24.693  1.00  0.00     0.023 C 
ENDROOT
BRANCH   1   2
ATOM      2  C   UNL A   1      35.657  21.335  25.423  1.00  0.00     0.116 C 
BRANCH   2   3
ATOM      3  N   UNL A   1      34.971  20.070  25.252  1.00  0.00    -0.356 N 
ATOM      4  C   UNL A   1      33.681  19.792  24.908  1.00  0.00     0.228 C 
ATOM      5  O   UNL A   1      33.342  18.606  24.903  1.00  0.00    -0.275 OA
ATOM      6  H   UNL A   1      35.532  19.275  25.409  1.00  0.00     0.163 HD
BRANCH   4   7
ATOM      7  C   UNL A   1      32.706  20.883  24.477  1.00  0.00     0.134 C 
ATOM      8  N   UNL A   1      32.613  22.929  23.033  1.00  0.00    -0.334 N 
ATOM      9  C   UNL A   1      33.378  21.721  23.375  1.00  0.00     0.275 C 
ATOM     10  C   UNL A   1      32.406  23.736  24.239  1.00  0.00     0.275 C 
ATOM     11  H   UNL A   1      31.703  22.645  22.669  1.00  0.00     0.348 HD
ATOM     12  C   UNL A   1      31.536  23.039  25.266  1.00  0.00     0.135 C 
ATOM     13  C   UNL A   1      32.102  21.668  25.659  1.00  0.00     0.038 C 
BRANCH   8  14
ATOM     14  C   UNL A   1      33.262  23.707  21.960  1.00  0.00     0.258 C 
ATOM     15  C   UNL A   1      32.754  25.133  21.730  1.00  0.00     0.071 C 
ENDBRANCH   8  14
BRANCH  12  16
ATOM     16  C   UNL A   1      31.165  23.859  26.516  1.00  0.00     0.233 C 
ATOM     17  O   UNL A   1      31.176  23.282  27.614  1.00  0.00    -0.274 OA
ATOM     18  N   UNL A   1      31.023  25.215  26.575  1.00  0.00    -0.326 N 
ATOM     19  H   UNL A   1      31.159  25.563  27.486  1.00  0.00     0.169 HD
BRANCH  18  20
ATOM     20  C   UNL A   1      30.731  26.235  25.659  1.00  0.00     0.041 A 
ATOM     21  C   UNL A   1      31.414  27.451  25.799  1.00  0.00     0.029 A 
ATOM     22  C   UNL A   1      29.732  26.150  24.693  1.00  0.00     0.029 A 
ATOM     23  C   UNL A   1      31.231  28.482  24.868  1.00  0.00     0.041 A 
ATOM     24  C   UNL A   1      29.571  27.156  23.736  1.00  0.00     0.041 A 
ATOM     25  C   UNL A   1      30.343  28.303  23.817  1.00  0.00     0.123 A 
ATOM     26  F   UNL A   1      30.225  29.245  22.875  1.00  0.00    -0.207 F 
ENDBRANCH  18  20
ENDBRANCH  12  16
ENDBRANCH   4   7
ENDBRANCH   2   3
ENDBRANCH   1   2
BRANCH   1  27
ATOM     27  C   UNL A   1      37.879  20.117  24.979  1.00  0.00     0.023 C 
BRANCH  27  28
ATOM     28  C   UNL A   1      39.176  20.429  25.716  1.00  0.00     0.116 C 
BRANCH  28  29
ATOM     29  N   UNL A   1      40.062  19.281  25.841  1.00  0.00    -0.352 N 
ATOM     30  C   UNL A   1      41.417  19.255  26.073  1.00  0.00     0.251 C 
ATOM     31  H   UNL A   1      39.632  18.400  25.747  1.00  0.00     0.163 HD
ATOM     32  O   UNL A   1      42.045  18.205  25.983  1.00  0.00    -0.269 OA
BRANCH  30  33
ATOM     33  C   UNL A   1      42.121  20.515  26.390  1.00  0.00     0.039 A 
ATOM     34  C   UNL A   1      42.637  21.282  25.341  1.00  0.00     0.014 A 
ATOM     35  C   UNL A   1      42.228  20.960  27.709  1.00  0.00     0.014 A 
ATOM     36  C   UNL A   1      43.177  22.539  25.612  1.00  0.00     0.010 A 
ATOM     37  C   UNL A   1      42.686  22.246  27.965  1.00  0.00     0.010 A 
ATOM     38  C   UNL A   1      43.159  23.052  26.919  1.00  0.00    -0.014 A 
BRANCH  38  39
ATOM     39  C   UNL A   1      43.618  24.431  27.214  1.00  0.00     0.031 A 
ATOM     40  C   UNL A   1      42.643  25.454  27.722  1.00  0.00     0.074 A 
ATOM     41  C   UNL A   1      44.893  24.780  26.949  1.00  0.00     0.049 A 
ATOM     42  N   UNL A   1      42.825  26.731  27.950  1.00  0.00    -0.248 NA
ATOM     43  C   UNL A   1      41.271  24.989  27.979  1.00  0.00     0.031 C 
ATOM     44  C   UNL A   1      45.916  23.890  26.398  1.00  0.00     0.029 A 
ATOM     45  N   UNL A   1      45.540  25.981  27.092  1.00  0.00    -0.354 N 
ATOM     46  C   UNL A   1      41.594  27.218  28.366  1.00  0.00     0.074 A 
ATOM     47  C   UNL A   1      40.657  26.118  28.298  1.00  0.00     0.031 C 
ATOM     48  C   UNL A   1      47.066  24.570  26.266  1.00  0.00     0.029 A 
ATOM     49  C   UNL A   1      46.852  25.951  26.686  1.00  0.00     0.049 A 
ATOM     50  H   UNL A   1      45.106  26.787  27.451  1.00  0.00     0.167 HD
ATOM     51  C   UNL A   1      41.280  28.464  28.795  1.00  0.00     0.037 A 
ATOM     52  C   UNL A   1      47.774  26.931  26.647  1.00  0.00     0.037 A 
ATOM     53  C   UNL A   1      42.220  29.550  28.878  1.00  0.00     0.049 A 
ATOM     54  C   UNL A   1      47.399  28.308  27.128  1.00  0.00     0.074 A 
ATOM     55  C   UNL A   1      42.012  30.838  29.338  1.00  0.00     0.029 A 
ATOM     56  N   UNL A   1      43.550  29.472  28.493  1.00  0.00    -0.354 N 
ATOM     57  N   UNL A   1      46.247  28.740  27.580  1.00  0.00    -0.248 NA
ATOM     58  C   UNL A   1      48.455  29.329  27.100  1.00  0.00     0.031 C 
ATOM     59  C   UNL A   1      43.207  31.551  29.195  1.00  0.00     0.029 A 
ATOM     60  C   UNL A   1      44.172  30.693  28.692  1.00  0.00     0.049 A 
ATOM     61  H   UNL A   1      43.987  28.667  28.131  1.00  0.00     0.167 HD
ATOM     62  C   UNL A   1      46.446  30.073  27.916  1.00  0.00     0.074 A 
ATOM     63  C   UNL A   1      47.834  30.373  27.632  1.00  0.00     0.031 C 
ATOM     64  C   UNL A   1      45.559  30.968  28.413  1.00  0.00     0.037 A 
BRANCH  51  65
ATOM     65  C   UNL A   1      39.862  28.711  29.220  1.00  0.00     0.064 A 
ATOM     66  C   UNL A   1      38.899  29.186  28.316  1.00  0.00     0.173 A 
ATOM     67  C   UNL A   1      39.450  28.441  30.533  1.00  0.00     0.173 A 
ATOM     68  F   UNL A   1      39.244  29.472  27.052  1.00  0.00    -0.203 F 
ATOM     69  C   UNL A   1      37.585  29.410  28.719  1.00  0.00     0.198 A 
ATOM     70  C   UNL A   1      38.129  28.636  30.925  1.00  0.00     0.198 A 
ATOM     71  F   UNL A   1      40.329  27.981  31.438  1.00  0.00    -0.203 F 
ATOM     72  F   UNL A   1      36.697  29.913  27.851  1.00  0.00    -0.200 F 
ATOM     73  C   UNL A   1      37.200  29.128  30.021  1.00  0.00     0.200 A 
ATOM     74  F   UNL A   1      37.753  28.351  32.180  1.00  0.00    -0.200 F 
ATOM     75  F   UNL A   1      35.933  29.337  30.405  1.00  0.00    -0.200 F 
ENDBRANCH  51  65
BRANCH  52  76
ATOM     76  C   UNL A   1      49.147  26.645  26.152  1.00  0.00     0.064 A 
ATOM     77  C   UNL A   1      49.515  26.950  24.834  1.00  0.00     0.173 A 
ATOM     78  C   UNL A   1      50.112  26.049  26.977  1.00  0.00     0.173 A 
ATOM     79  F   UNL A   1      48.622  27.503  24.000  1.00  0.00    -0.203 F 
ATOM     80  C   UNL A   1      50.788  26.648  24.353  1.00  0.00     0.198 A 
ATOM     81  C   UNL A   1      51.393  25.774  26.504  1.00  0.00     0.198 A 
ATOM     82  F   UNL A   1      49.811  25.744  28.248  1.00  0.00    -0.203 F 
ATOM     83  F   UNL A   1      51.097  26.904  23.075  1.00  0.00    -0.200 F 
ATOM     84  C   UNL A   1      51.727  26.064  25.190  1.00  0.00     0.200 A 
ATOM     85  F   UNL A   1      52.302  25.225  27.321  1.00  0.00    -0.200 F 
ATOM     86  F   UNL A   1      52.951  25.775  24.728  1.00  0.00    -0.200 F 
ENDBRANCH  52  76
BRANCH  64  87
ATOM     87  C   UNL A   1      46.071  32.346  28.719  1.00  0.00     0.064 A 
ATOM     88  C   UNL A   1      46.627  32.665  29.966  1.00  0.00     0.173 A 
ATOM     89  C   UNL A   1      46.039  33.347  27.736  1.00  0.00     0.173 A 
ATOM     90  F   UNL A   1      46.666  31.746  30.943  1.00  0.00    -0.203 F 
ATOM     91  C   UNL A   1      47.111  33.944  30.226  1.00  0.00     0.198 A 
ATOM     92  C   UNL A   1      46.551  34.615  27.990  1.00  0.00     0.198 A 
ATOM     93  F   UNL A   1      45.523  33.089  26.524  1.00  0.00    -0.203 F 
ATOM     94  F   UNL A   1      47.595  34.241  31.439  1.00  0.00    -0.200 F 
ATOM     95  C   UNL A   1      47.080  34.915  29.236  1.00  0.00     0.200 A 
ATOM     96  F   UNL A   1      46.533  35.549  27.028  1.00  0.00    -0.200 F 
ATOM     97  F   UNL A   1      47.553  36.145  29.486  1.00  0.00    -0.200 F 
ENDBRANCH  64  87
ENDBRANCH  38  39
ENDBRANCH  30  33
ENDBRANCH  28  29
ENDBRANCH  27  28
ENDBRANCH   1  27
TORSDOF 14
ENDMDL
MODEL 3
REMARK VINA RESULT:     -12.7      5.591      9.812
REMARK SMILES CC[N@H+]1C[C@@H](C(=O)NCCCCNC(=O)c2ccc(-c3c4nc(c(-c5c(F)c(F)c(F)c(F)c5F)c5ccc([nH]5)c(-c5c(F)c(F)c(F)c(F)c5F)c5nc(c(-c6c(F)c(F)c(F)c(F)c6F)c6ccc3[nH]6)C=C5)C=C4)cc2)C[C@@H](C(=O)Nc2ccc(F)cc2)C1
REMARK SMILES IDX 10 1 9 2 8 3 6 4 7 5 5 7 3 8 4 9 91 10 80 12 79 13 2 14 1 15
REMARK SMILES IDX 81 16 82 17 83 18 84 20 85 21 90 22 86 23 89 24 87 25 88 26
REMARK SMILES IDX 11 27 12 28 13 29 14 30 15 32 16 33 17 34 78 35 18 36 77 37
REMARK SMILES IDX 19 38 20 39 21 40 71 41 22 42 76 43 70 44 72 45 23 46 75 47
REMARK SMILES IDX 69 48 68 49 24 51 56 52 36 53 55 54 37 55 40 56 54 57 73 58
REMARK SMILES IDX 38 59 39 60 53 62 74 63 41 64 25 65 26 66 34 67 27 68 28 69
REMARK SMILES IDX 32 70 35 71 29 72 30 73 33 74 31 75 57 76 58 77 66 78 59 79
REMARK SMILES IDX 60 80 64 81 67 82 61 83 62 84 65 85 63 86 42 87 43 88 51 89
REMARK SMILES IDX 44 90 45 91 49 92 52 93 46 94 47 95 50 96 48 97
REMARK H PARENT 8 6 3 11 83 19 13 31 72 50 40 61
REMARK Flexibility Score: inf
ROOT
ATOM      1  C   UNL A   1      31.669  30.716  26.127  1.00  0.00     0.023 C 
ENDROOT
BRANCH   1   2
ATOM      2  C   UNL A   1      32.034  29.704  27.211  1.00  0.00     0.116 C 
BRANCH   2   3
ATOM      3  N   UNL A   1      33.450  29.393  27.171  1.00  0.00    -0.356 N 
ATOM      4  C   UNL A   1      34.112  28.296  26.705  1.00  0.00     0.228 C 
ATOM      5  O   UNL A   1      35.335  28.267  26.861  1.00  0.00    -0.275 OA
ATOM      6  H   UNL A   1      34.034  30.095  27.541  1.00  0.00     0.163 HD
BRANCH   4   7
ATOM      7  C   UNL A   1      33.394  27.176  25.958  1.00  0.00     0.134 C 
ATOM      8  N   UNL A   1      33.761  24.817  25.198  1.00  0.00    -0.334 N 
ATOM      9  C   UNL A   1      34.251  25.902  26.060  1.00  0.00     0.275 C 
ATOM     10  C   UNL A   1      33.697  25.284  23.810  1.00  0.00     0.275 C 
ATOM     11  H   UNL A   1      32.821  24.561  25.501  1.00  0.00     0.348 HD
ATOM     12  C   UNL A   1      32.677  26.388  23.612  1.00  0.00     0.135 C 
ATOM     13  C   UNL A   1      32.938  27.580  24.541  1.00  0.00     0.038 C 
BRANCH   8  14
ATOM     14  C   UNL A   1      34.583  23.597  25.326  1.00  0.00     0.258 C 
ATOM     15  C   UNL A   1      35.883  23.715  26.127  1.00  0.00     0.071 C 
ENDBRANCH   8  14
BRANCH  12  16
ATOM     16  C   UNL A   1      32.454  26.858  22.162  1.00  0.00     0.233 C 
ATOM     17  O   UNL A   1      33.260  26.480  21.298  1.00  0.00    -0.274 OA
ATOM     18  N   UNL A   1      31.340  27.484  21.682  1.00  0.00    -0.326 N 
ATOM     19  H   UNL A   1      31.235  27.360  20.711  1.00  0.00     0.169 HD
BRANCH  18  20
ATOM     20  C   UNL A   1      30.308  28.258  22.230  1.00  0.00     0.041 A 
ATOM     21  C   UNL A   1      30.354  29.643  22.025  1.00  0.00     0.029 A 
ATOM     22  C   UNL A   1      29.307  27.748  23.052  1.00  0.00     0.029 A 
ATOM     23  C   UNL A   1      29.311  30.465  22.474  1.00  0.00     0.041 A 
ATOM     24  C   UNL A   1      28.242  28.551  23.469  1.00  0.00     0.041 A 
ATOM     25  C   UNL A   1      28.241  29.900  23.152  1.00  0.00     0.123 A 
ATOM     26  F   UNL A   1      27.200  30.660  23.509  1.00  0.00    -0.207 F 
ENDBRANCH  18  20
ENDBRANCH  12  16
ENDBRANCH   4   7
ENDBRANCH   2   3
ENDBRANCH   1   2
BRANCH   1  27
ATOM     27  C   UNL A   1      31.397  32.127  26.633  1.00  0.00     0.023 C 
BRANCH  27  28
ATOM     28  C   UNL A   1      32.587  32.810  27.296  1.00  0.00     0.116 C 
BRANCH  28  29
ATOM     29  N   UNL A   1      32.350  34.212  27.611  1.00  0.00    -0.352 N 
ATOM     30  C   UNL A   1      32.956  34.998  28.562  1.00  0.00     0.251 C 
ATOM     31  H   UNL A   1      31.661  34.658  27.068  1.00  0.00     0.163 HD
ATOM     32  O   UNL A   1      32.521  36.118  28.813  1.00  0.00    -0.269 OA
BRANCH  30  33
ATOM     33  C   UNL A   1      34.112  34.466  29.313  1.00  0.00     0.039 A 
ATOM     34  C   UNL A   1      33.882  33.789  30.514  1.00  0.00     0.014 A 
ATOM     35  C   UNL A   1      35.408  34.592  28.810  1.00  0.00     0.014 A 
ATOM     36  C   UNL A   1      34.945  33.159  31.161  1.00  0.00     0.010 A 
ATOM     37  C   UNL A   1      36.448  33.891  29.408  1.00  0.00     0.010 A 
ATOM     38  C   UNL A   1      36.227  33.163  30.586  1.00  0.00    -0.014 A 
BRANCH  38  39
ATOM     39  C   UNL A   1      37.347  32.402  31.191  1.00  0.00     0.031 A 
ATOM     40  C   UNL A   1      37.867  32.781  32.548  1.00  0.00     0.074 A 
ATOM     41  C   UNL A   1      37.946  31.424  30.482  1.00  0.00     0.049 A 
ATOM     42  N   UNL A   1      38.893  32.303  33.205  1.00  0.00    -0.248 NA
ATOM     43  C   UNL A   1      37.157  33.864  33.248  1.00  0.00     0.031 C 
ATOM     44  C   UNL A   1      37.569  31.005  29.132  1.00  0.00     0.029 A 
ATOM     45  N   UNL A   1      39.009  30.614  30.796  1.00  0.00    -0.354 N 
ATOM     46  C   UNL A   1      38.956  33.031  34.386  1.00  0.00     0.074 A 
ATOM     47  C   UNL A   1      37.907  34.024  34.328  1.00  0.00     0.031 C 
ATOM     48  C   UNL A   1      38.377  30.007  28.738  1.00  0.00     0.029 A 
ATOM     49  C   UNL A   1      39.350  29.741  29.792  1.00  0.00     0.049 A 
ATOM     50  H   UNL A   1      39.482  30.657  31.657  1.00  0.00     0.167 HD
ATOM     51  C   UNL A   1      39.795  32.865  35.436  1.00  0.00     0.037 A 
ATOM     52  C   UNL A   1      40.344  28.835  29.727  1.00  0.00     0.037 A 
ATOM     53  C   UNL A   1      40.825  31.863  35.497  1.00  0.00     0.049 A 
ATOM     54  C   UNL A   1      41.264  28.671  30.908  1.00  0.00     0.074 A 
ATOM     55  C   UNL A   1      41.699  31.585  36.532  1.00  0.00     0.029 A 
ATOM     56  N   UNL A   1      41.117  30.970  34.475  1.00  0.00    -0.354 N 
ATOM     57  N   UNL A   1      41.272  29.323  32.045  1.00  0.00    -0.248 NA
ATOM     58  C   UNL A   1      42.305  27.641  30.798  1.00  0.00     0.031 C 
ATOM     59  C   UNL A   1      42.546  30.550  36.122  1.00  0.00     0.029 A 
ATOM     60  C   UNL A   1      42.168  30.149  34.851  1.00  0.00     0.049 A 
ATOM     61  H   UNL A   1      40.647  30.927  33.611  1.00  0.00     0.167 HD
ATOM     62  C   UNL A   1      42.298  28.764  32.797  1.00  0.00     0.074 A 
ATOM     63  C   UNL A   1      42.878  27.709  31.992  1.00  0.00     0.031 C 
ATOM     64  C   UNL A   1      42.723  29.097  34.040  1.00  0.00     0.037 A 
BRANCH  51  65
ATOM     65  C   UNL A   1      39.619  33.782  36.611  1.00  0.00     0.064 A 
ATOM     66  C   UNL A   1      40.235  35.043  36.654  1.00  0.00     0.173 A 
ATOM     67  C   UNL A   1      38.803  33.415  37.691  1.00  0.00     0.173 A 
ATOM     68  F   UNL A   1      41.037  35.436  35.653  1.00  0.00    -0.203 F 
ATOM     69  C   UNL A   1      40.065  35.888  37.747  1.00  0.00     0.198 A 
ATOM     70  C   UNL A   1      38.609  34.276  38.768  1.00  0.00     0.198 A 
ATOM     71  F   UNL A   1      38.186  32.223  37.699  1.00  0.00    -0.203 F 
ATOM     72  F   UNL A   1      40.706  37.064  37.789  1.00  0.00    -0.200 F 
ATOM     73  C   UNL A   1      39.247  35.507  38.800  1.00  0.00     0.200 A 
ATOM     74  F   UNL A   1      37.808  33.913  39.779  1.00  0.00    -0.200 F 
ATOM     75  F   UNL A   1      39.078  36.324  39.848  1.00  0.00    -0.200 F 
ENDBRANCH  51  65
BRANCH  52  76
ATOM     76  C   UNL A   1      40.512  27.999  28.509  1.00  0.00     0.064 A 
ATOM     77  C   UNL A   1      41.275  28.453  27.424  1.00  0.00     0.173 A 
ATOM     78  C   UNL A   1      39.906  26.739  28.397  1.00  0.00     0.173 A 
ATOM     79  F   UNL A   1      41.859  29.659  27.474  1.00  0.00    -0.203 F 
ATOM     80  C   UNL A   1      41.403  27.691  26.264  1.00  0.00     0.198 A 
ATOM     81  C   UNL A   1      40.059  25.965  27.250  1.00  0.00     0.198 A 
ATOM     82  F   UNL A   1      39.172  26.256  29.411  1.00  0.00    -0.203 F 
ATOM     83  F   UNL A   1      42.095  28.172  25.222  1.00  0.00    -0.200 F 
ATOM     84  C   UNL A   1      40.799  26.446  26.179  1.00  0.00     0.200 A 
ATOM     85  F   UNL A   1      39.487  24.755  27.179  1.00  0.00    -0.200 F 
ATOM     86  F   UNL A   1      40.924  25.712  25.065  1.00  0.00    -0.200 F 
ENDBRANCH  52  76
BRANCH  64  87
ATOM     87  C   UNL A   1      43.845  28.287  34.622  1.00  0.00     0.064 A 
ATOM     88  C   UNL A   1      45.181  28.702  34.521  1.00  0.00     0.173 A 
ATOM     89  C   UNL A   1      43.574  27.102  35.322  1.00  0.00     0.173 A 
ATOM     90  F   UNL A   1      45.493  29.820  33.849  1.00  0.00    -0.203 F 
ATOM     91  C   UNL A   1      46.208  27.946  35.081  1.00  0.00     0.198 A 
ATOM     92  C   UNL A   1      44.600  26.365  35.905  1.00  0.00     0.198 A 
ATOM     93  F   UNL A   1      42.311  26.666  35.451  1.00  0.00    -0.203 F 
ATOM     94  F   UNL A   1      47.481  28.335  34.933  1.00  0.00    -0.200 F 
ATOM     95  C   UNL A   1      45.915  26.783  35.778  1.00  0.00     0.200 A 
ATOM     96  F   UNL A   1      44.315  25.248  36.591  1.00  0.00    -0.200 F 
ATOM     97  F   UNL A   1      46.905  26.060  36.322  1.00  0.00    -0.200 F 
ENDBRANCH  64  87
ENDBRANCH  38  39
ENDBRANCH  30  33
ENDBRANCH  28  29
ENDBRANCH  27  28
ENDBRANCH   1  27
TORSDOF 14
ENDMDL
