MODEL 1
REMARK VINA RESULT:     -12.6      0.000      0.000
REMARK SMILES Cc1cc(OCC(=O)NCCCCNC(=O)c2ccc(-c3c4nc(c(-c5c(F)c(F)c(F)c(F)c5F)c5ccc([nH]5)c(-c5c(F)c(F)c(F)c(F)c5F)c5nc(c(-c6c(F)c(F)c(F)c(F)c6F)c6ccc3[nH]6)C=C5)C=C4)cc2)nc(-n2nc(C)cc2C)n1
REMARK SMILES IDX 11 1 10 2 9 3 7 4 8 5 6 7 5 8 4 9 1 10 2 11 3 12 89 13 81 14
REMARK SMILES IDX 80 15 82 16 83 17 87 18 84 19 86 20 88 21 85 22 12 23 13 24
REMARK SMILES IDX 14 25 15 26 16 28 17 29 18 30 79 31 19 32 78 33 20 34 21 35
REMARK SMILES IDX 22 36 72 37 23 38 77 39 71 40 73 41 24 42 76 43 70 44 69 45
REMARK SMILES IDX 25 47 57 48 37 49 56 50 38 51 41 52 55 53 74 54 39 55 40 56
REMARK SMILES IDX 54 58 75 59 42 60 26 61 27 62 35 63 28 64 29 65 33 66 36 67
REMARK SMILES IDX 30 68 31 69 34 70 32 71 58 72 59 73 67 74 60 75 61 76 65 77
REMARK SMILES IDX 68 78 62 79 63 80 66 81 64 82 43 83 44 84 52 85 45 86 46 87
REMARK SMILES IDX 50 88 53 89 47 90 48 91 51 92 49 93
REMARK H PARENT 9 6 14 27 73 46 41 57
REMARK Flexibility Score: inf
ROOT
ATOM      1  C   UNL A   1      31.621  30.803  25.979  1.00  0.00     0.023 C 
ENDROOT
BRANCH   1   2
ATOM      2  C   UNL A   1      31.878  29.719  27.025  1.00  0.00     0.116 C 
BRANCH   2   3
ATOM      3  N   UNL A   1      33.284  29.606  27.361  1.00  0.00    -0.353 N 
ATOM      4  C   UNL A   1      34.221  28.772  26.831  1.00  0.00     0.258 C 
ATOM      5  O   UNL A   1      35.374  28.830  27.265  1.00  0.00    -0.271 OA
ATOM      6  H   UNL A   1      33.603  30.214  28.066  1.00  0.00     0.163 HD
BRANCH   4   7
ATOM      7  C   UNL A   1      33.845  27.800  25.701  1.00  0.00     0.331 C 
BRANCH   7   8
ATOM      8  O   UNL A   1      34.094  28.187  24.364  1.00  0.00    -0.467 OA
BRANCH   8   9
ATOM      9  C   UNL A   1      33.231  27.767  23.394  1.00  0.00     0.218 A 
ATOM     10  C   UNL A   1      32.552  25.226  20.737  1.00  0.00     0.067 C 
ATOM     11  C   UNL A   1      32.397  26.328  21.740  1.00  0.00     0.047 A 
ATOM     12  C   UNL A   1      33.454  26.713  22.537  1.00  0.00     0.092 A 
ATOM     13  N   UNL A   1      31.206  26.950  21.782  1.00  0.00    -0.216 NA
ATOM     14  C   UNL A   1      31.114  28.052  22.563  1.00  0.00     0.254 A 
ATOM     15  N   UNL A   1      32.098  28.486  23.374  1.00  0.00    -0.175 NA
BRANCH  14  16
ATOM     16  N   UNL A   1      29.892  28.808  22.487  1.00  0.00    -0.203 N 
ATOM     17  N   UNL A   1      29.829  30.014  21.847  1.00  0.00    -0.170 NA
ATOM     18  C   UNL A   1      28.637  28.419  22.943  1.00  0.00     0.045 A 
ATOM     19  C   UNL A   1      28.521  30.259  21.715  1.00  0.00     0.060 A 
ATOM     20  C   UNL A   1      27.739  29.323  22.420  1.00  0.00     0.049 A 
ATOM     21  C   UNL A   1      28.422  27.275  23.863  1.00  0.00     0.067 C 
ATOM     22  C   UNL A   1      28.045  31.406  20.904  1.00  0.00     0.069 C 
ENDBRANCH  14  16
ENDBRANCH   8   9
ENDBRANCH   7   8
ENDBRANCH   4   7
ENDBRANCH   2   3
ENDBRANCH   1   2
BRANCH   1  23
ATOM     23  C   UNL A   1      31.377  32.208  26.538  1.00  0.00     0.023 C 
BRANCH  23  24
ATOM     24  C   UNL A   1      32.563  32.857  27.247  1.00  0.00     0.116 C 
BRANCH  24  25
ATOM     25  N   UNL A   1      32.319  34.239  27.625  1.00  0.00    -0.352 N 
ATOM     26  C   UNL A   1      32.947  35.012  28.571  1.00  0.00     0.251 C 
ATOM     27  H   UNL A   1      31.596  34.689  27.129  1.00  0.00     0.163 HD
ATOM     28  O   UNL A   1      32.514  36.133  28.834  1.00  0.00    -0.269 OA
BRANCH  26  29
ATOM     29  C   UNL A   1      34.122  34.492  29.304  1.00  0.00     0.039 A 
ATOM     30  C   UNL A   1      33.930  33.934  30.572  1.00  0.00     0.014 A 
ATOM     31  C   UNL A   1      35.405  34.553  28.757  1.00  0.00     0.014 A 
ATOM     32  C   UNL A   1      35.011  33.372  31.257  1.00  0.00     0.010 A 
ATOM     33  C   UNL A   1      36.468  33.924  29.406  1.00  0.00     0.010 A 
ATOM     34  C   UNL A   1      36.282  33.326  30.661  1.00  0.00    -0.014 A 
BRANCH  34  35
ATOM     35  C   UNL A   1      37.421  32.646  31.334  1.00  0.00     0.031 A 
ATOM     36  C   UNL A   1      38.125  31.497  30.666  1.00  0.00     0.074 A 
ATOM     37  C   UNL A   1      37.784  33.025  32.576  1.00  0.00     0.049 A 
ATOM     38  N   UNL A   1      39.094  30.742  31.120  1.00  0.00    -0.248 NA
ATOM     39  C   UNL A   1      37.660  31.132  29.320  1.00  0.00     0.031 C 
ATOM     40  C   UNL A   1      37.154  34.095  33.351  1.00  0.00     0.029 A 
ATOM     41  N   UNL A   1      38.765  32.545  33.410  1.00  0.00    -0.354 N 
ATOM     42  C   UNL A   1      39.347  29.810  30.121  1.00  0.00     0.074 A 
ATOM     43  C   UNL A   1      38.390  30.056  29.064  1.00  0.00     0.031 C 
ATOM     44  C   UNL A   1      37.779  34.209  34.533  1.00  0.00     0.029 A 
ATOM     45  C   UNL A   1      38.823  33.192  34.621  1.00  0.00     0.049 A 
ATOM     46  H   UNL A   1      39.368  31.808  33.163  1.00  0.00     0.167 HD
ATOM     47  C   UNL A   1      40.304  28.852  30.079  1.00  0.00     0.037 A 
ATOM     48  C   UNL A   1      39.621  32.983  35.686  1.00  0.00     0.037 A 
ATOM     49  C   UNL A   1      41.264  28.619  31.128  1.00  0.00     0.049 A 
ATOM     50  C   UNL A   1      40.659  31.895  35.623  1.00  0.00     0.074 A 
ATOM     51  C   UNL A   1      42.306  27.709  31.156  1.00  0.00     0.029 A 
ATOM     52  N   UNL A   1      41.295  29.299  32.337  1.00  0.00    -0.354 N 
ATOM     53  N   UNL A   1      40.935  31.067  34.646  1.00  0.00    -0.248 NA
ATOM     54  C   UNL A   1      41.504  31.717  36.814  1.00  0.00     0.031 C 
ATOM     55  C   UNL A   1      42.931  27.796  32.405  1.00  0.00     0.029 A 
ATOM     56  C   UNL A   1      42.321  28.806  33.130  1.00  0.00     0.049 A 
ATOM     57  H   UNL A   1      40.680  30.022  32.594  1.00  0.00     0.167 HD
ATOM     58  C   UNL A   1      42.002  30.295  35.087  1.00  0.00     0.074 A 
ATOM     59  C   UNL A   1      42.333  30.764  36.417  1.00  0.00     0.031 C 
ATOM     60  C   UNL A   1      42.648  29.287  34.449  1.00  0.00     0.037 A 
BRANCH  47  61
ATOM     61  C   UNL A   1      40.361  27.979  28.857  1.00  0.00     0.064 A 
ATOM     62  C   UNL A   1      41.142  28.322  27.742  1.00  0.00     0.173 A 
ATOM     63  C   UNL A   1      39.656  26.768  28.813  1.00  0.00     0.173 A 
ATOM     64  F   UNL A   1      41.830  29.474  27.727  1.00  0.00    -0.203 F 
ATOM     65  C   UNL A   1      41.187  27.502  26.617  1.00  0.00     0.198 A 
ATOM     66  C   UNL A   1      39.730  25.933  27.701  1.00  0.00     0.198 A 
ATOM     67  F   UNL A   1      38.900  26.386  29.853  1.00  0.00    -0.203 F 
ATOM     68  F   UNL A   1      41.896  27.878  25.544  1.00  0.00    -0.200 F 
ATOM     69  C   UNL A   1      40.488  26.305  26.600  1.00  0.00     0.200 A 
ATOM     70  F   UNL A   1      39.067  24.769  27.692  1.00  0.00    -0.200 F 
ATOM     71  F   UNL A   1      40.538  25.513  25.520  1.00  0.00    -0.200 F 
ENDBRANCH  47  61
BRANCH  48  72
ATOM     72  C   UNL A   1      39.485  33.835  36.898  1.00  0.00     0.064 A 
ATOM     73  C   UNL A   1      38.725  33.410  37.996  1.00  0.00     0.173 A 
ATOM     74  C   UNL A   1      40.099  35.093  36.980  1.00  0.00     0.173 A 
ATOM     75  F   UNL A   1      38.100  32.223  37.958  1.00  0.00    -0.203 F 
ATOM     76  C   UNL A   1      38.562  34.220  39.117  1.00  0.00     0.198 A 
ATOM     77  C   UNL A   1      39.963  35.889  38.115  1.00  0.00     0.198 A 
ATOM     78  F   UNL A   1      40.842  35.547  35.959  1.00  0.00    -0.203 F 
ATOM     79  F   UNL A   1      37.785  33.810  40.130  1.00  0.00    -0.200 F 
ATOM     80  C   UNL A   1      39.186  35.456  39.180  1.00  0.00     0.200 A 
ATOM     81  F   UNL A   1      40.581  37.077  38.177  1.00  0.00    -0.200 F 
ATOM     82  F   UNL A   1      39.032  36.234  40.259  1.00  0.00    -0.200 F 
ENDBRANCH  48  72
BRANCH  60  83
ATOM     83  C   UNL A   1      43.810  28.652  35.159  1.00  0.00     0.064 A 
ATOM     84  C   UNL A   1      45.116  29.149  35.032  1.00  0.00     0.173 A 
ATOM     85  C   UNL A   1      43.607  27.552  36.007  1.00  0.00     0.173 A 
ATOM     86  F   UNL A   1      45.367  30.189  34.223  1.00  0.00    -0.203 F 
ATOM     87  C   UNL A   1      46.178  28.549  35.705  1.00  0.00     0.198 A 
ATOM     88  C   UNL A   1      44.665  26.978  36.705  1.00  0.00     0.198 A 
ATOM     89  F   UNL A   1      42.377  27.042  36.170  1.00  0.00    -0.203 F 
ATOM     90  F   UNL A   1      47.425  29.006  35.525  1.00  0.00    -0.200 F 
ATOM     91  C   UNL A   1      45.951  27.470  36.545  1.00  0.00     0.200 A 
ATOM     92  F   UNL A   1      44.441  25.946  37.529  1.00  0.00    -0.200 F 
ATOM     93  F   UNL A   1      46.973  26.900  37.198  1.00  0.00    -0.200 F 
ENDBRANCH  60  83
ENDBRANCH  34  35
ENDBRANCH  26  29
ENDBRANCH  24  25
ENDBRANCH  23  24
ENDBRANCH   1  23
TORSDOF 14
ENDMDL
MODEL 2
REMARK VINA RESULT:     -12.1      4.093     10.788
REMARK SMILES Cc1cc(OCC(=O)NCCCCNC(=O)c2ccc(-c3c4nc(c(-c5c(F)c(F)c(F)c(F)c5F)c5ccc([nH]5)c(-c5c(F)c(F)c(F)c(F)c5F)c5nc(c(-c6c(F)c(F)c(F)c(F)c6F)c6ccc3[nH]6)C=C5)C=C4)cc2)nc(-n2nc(C)cc2C)n1
REMARK SMILES IDX 11 1 10 2 9 3 7 4 8 5 6 7 5 8 4 9 1 10 2 11 3 12 89 13 81 14
REMARK SMILES IDX 80 15 82 16 83 17 87 18 84 19 86 20 88 21 85 22 12 23 13 24
REMARK SMILES IDX 14 25 15 26 16 28 17 29 18 30 79 31 19 32 78 33 20 34 21 35
REMARK SMILES IDX 22 36 72 37 23 38 77 39 71 40 73 41 24 42 76 43 70 44 69 45
REMARK SMILES IDX 25 47 57 48 37 49 56 50 38 51 41 52 55 53 74 54 39 55 40 56
REMARK SMILES IDX 54 58 75 59 42 60 26 61 27 62 35 63 28 64 29 65 33 66 36 67
REMARK SMILES IDX 30 68 31 69 34 70 32 71 58 72 59 73 67 74 60 75 61 76 65 77
REMARK SMILES IDX 68 78 62 79 63 80 66 81 64 82 43 83 44 84 52 85 45 86 46 87
REMARK SMILES IDX 50 88 53 89 47 90 48 91 51 92 49 93
REMARK H PARENT 9 6 14 27 73 46 41 57
REMARK Flexibility Score: inf
ROOT
ATOM      1  C   UNL A   1      33.082  34.822  28.742  1.00  0.00     0.023 C 
ENDROOT
BRANCH   1   2
ATOM      2  C   UNL A   1      33.590  35.989  29.589  1.00  0.00     0.116 C 
BRANCH   2   3
ATOM      3  N   UNL A   1      32.602  36.437  30.550  1.00  0.00    -0.353 N 
ATOM      4  C   UNL A   1      32.415  36.022  31.835  1.00  0.00     0.258 C 
ATOM      5  O   UNL A   1      31.504  36.532  32.491  1.00  0.00    -0.271 OA
ATOM      6  H   UNL A   1      31.984  37.134  30.233  1.00  0.00     0.163 HD
BRANCH   4   7
ATOM      7  C   UNL A   1      33.341  34.960  32.450  1.00  0.00     0.331 C 
BRANCH   7   8
ATOM      8  O   UNL A   1      34.480  35.390  33.169  1.00  0.00    -0.467 OA
BRANCH   8   9
ATOM      9  C   UNL A   1      35.695  34.863  32.837  1.00  0.00     0.218 A 
ATOM     10  C   UNL A   1      37.830  33.481  30.096  1.00  0.00     0.067 C 
ATOM     11  C   UNL A   1      37.362  34.055  31.400  1.00  0.00     0.047 A 
ATOM     12  C   UNL A   1      36.039  34.389  31.591  1.00  0.00     0.092 A 
ATOM     13  N   UNL A   1      38.279  34.172  32.377  1.00  0.00    -0.216 NA
ATOM     14  C   UNL A   1      37.829  34.529  33.602  1.00  0.00     0.254 A 
ATOM     15  N   UNL A   1      36.555  34.876  33.867  1.00  0.00    -0.175 NA
BRANCH  14  16
ATOM     16  N   UNL A   1      38.780  34.501  34.682  1.00  0.00    -0.203 N 
ATOM     17  N   UNL A   1      39.429  35.630  35.101  1.00  0.00    -0.170 NA
ATOM     18  C   UNL A   1      39.106  33.412  35.482  1.00  0.00     0.045 A 
ATOM     19  C   UNL A   1      39.972  35.291  36.275  1.00  0.00     0.060 A 
ATOM     20  C   UNL A   1      39.841  33.913  36.535  1.00  0.00     0.049 A 
ATOM     21  C   UNL A   1      38.741  32.014  35.147  1.00  0.00     0.067 C 
ATOM     22  C   UNL A   1      40.616  36.315  37.133  1.00  0.00     0.069 C 
ENDBRANCH  14  16
ENDBRANCH   8   9
ENDBRANCH   7   8
ENDBRANCH   4   7
ENDBRANCH   2   3
ENDBRANCH   1   2
BRANCH   1  23
ATOM     23  C   UNL A   1      34.170  33.916  28.157  1.00  0.00     0.023 C 
BRANCH  23  24
ATOM     24  C   UNL A   1      34.443  32.624  28.920  1.00  0.00     0.116 C 
BRANCH  24  25
ATOM     25  N   UNL A   1      33.915  31.443  28.258  1.00  0.00    -0.352 N 
ATOM     26  C   UNL A   1      34.544  30.264  27.938  1.00  0.00     0.251 C 
ATOM     27  H   UNL A   1      32.966  31.495  28.000  1.00  0.00     0.163 HD
ATOM     28  O   UNL A   1      33.959  29.420  27.261  1.00  0.00    -0.269 OA
BRANCH  26  29
ATOM     29  C   UNL A   1      35.936  30.015  28.371  1.00  0.00     0.039 A 
ATOM     30  C   UNL A   1      36.158  29.466  29.638  1.00  0.00     0.014 A 
ATOM     31  C   UNL A   1      37.021  30.320  27.545  1.00  0.00     0.014 A 
ATOM     32  C   UNL A   1      37.458  29.155  30.045  1.00  0.00     0.010 A 
ATOM     33  C   UNL A   1      38.309  29.939  27.920  1.00  0.00     0.010 A 
ATOM     34  C   UNL A   1      38.541  29.352  29.173  1.00  0.00    -0.014 A 
BRANCH  34  35
ATOM     35  C   UNL A   1      39.918  28.937  29.553  1.00  0.00     0.031 A 
ATOM     36  C   UNL A   1      40.758  29.811  30.444  1.00  0.00     0.074 A 
ATOM     37  C   UNL A   1      40.437  27.802  29.045  1.00  0.00     0.049 A 
ATOM     38  N   UNL A   1      41.998  29.649  30.833  1.00  0.00    -0.248 NA
ATOM     39  C   UNL A   1      40.128  31.042  30.944  1.00  0.00     0.031 C 
ATOM     40  C   UNL A   1      39.743  26.889  28.135  1.00  0.00     0.029 A 
ATOM     41  N   UNL A   1      41.673  27.226  29.213  1.00  0.00    -0.354 N 
ATOM     42  C   UNL A   1      42.298  30.760  31.613  1.00  0.00     0.074 A 
ATOM     43  C   UNL A   1      41.131  31.616  31.592  1.00  0.00     0.031 C 
ATOM     44  C   UNL A   1      40.551  25.857  27.846  1.00  0.00     0.029 A 
ATOM     45  C   UNL A   1      41.835  26.055  28.512  1.00  0.00     0.049 A 
ATOM     46  H   UNL A   1      42.376  27.615  29.782  1.00  0.00     0.167 HD
ATOM     47  C   UNL A   1      43.433  31.029  32.302  1.00  0.00     0.037 A 
ATOM     48  C   UNL A   1      42.901  25.238  28.411  1.00  0.00     0.037 A 
ATOM     49  C   UNL A   1      44.587  30.168  32.331  1.00  0.00     0.049 A 
ATOM     50  C   UNL A   1      44.160  25.575  29.166  1.00  0.00     0.074 A 
ATOM     51  C   UNL A   1      45.764  30.327  33.041  1.00  0.00     0.029 A 
ATOM     52  N   UNL A   1      44.711  28.987  31.612  1.00  0.00    -0.354 N 
ATOM     53  N   UNL A   1      44.406  26.591  29.955  1.00  0.00    -0.248 NA
ATOM     54  C   UNL A   1      45.288  24.643  29.019  1.00  0.00     0.031 C 
ATOM     55  C   UNL A   1      46.623  29.275  32.708  1.00  0.00     0.029 A 
ATOM     56  C   UNL A   1      45.958  28.424  31.841  1.00  0.00     0.049 A 
ATOM     57  H   UNL A   1      44.018  28.607  31.028  1.00  0.00     0.167 HD
ATOM     58  C   UNL A   1      45.700  26.406  30.425  1.00  0.00     0.074 A 
ATOM     59  C   UNL A   1      46.181  25.170  29.843  1.00  0.00     0.031 C 
ATOM     60  C   UNL A   1      46.424  27.189  31.263  1.00  0.00     0.037 A 
BRANCH  47  61
ATOM     61  C   UNL A   1      43.484  32.313  33.082  1.00  0.00     0.064 A 
ATOM     62  C   UNL A   1      43.790  33.537  32.469  1.00  0.00     0.173 A 
ATOM     63  C   UNL A   1      43.189  32.325  34.454  1.00  0.00     0.173 A 
ATOM     64  F   UNL A   1      44.089  33.582  31.162  1.00  0.00    -0.203 F 
ATOM     65  C   UNL A   1      43.832  34.719  33.205  1.00  0.00     0.198 A 
ATOM     66  C   UNL A   1      43.197  33.513  35.180  1.00  0.00     0.198 A 
ATOM     67  F   UNL A   1      42.882  31.185  35.090  1.00  0.00    -0.203 F 
ATOM     68  F   UNL A   1      44.181  35.866  32.608  1.00  0.00    -0.200 F 
ATOM     69  C   UNL A   1      43.528  34.707  34.558  1.00  0.00     0.200 A 
ATOM     70  F   UNL A   1      42.887  33.502  36.484  1.00  0.00    -0.200 F 
ATOM     71  F   UNL A   1      43.561  35.846  35.263  1.00  0.00    -0.200 F 
ENDBRANCH  47  61
BRANCH  48  72
ATOM     72  C   UNL A   1      42.822  24.009  27.576  1.00  0.00     0.064 A 
ATOM     73  C   UNL A   1      42.443  22.781  28.135  1.00  0.00     0.173 A 
ATOM     74  C   UNL A   1      43.136  24.033  26.209  1.00  0.00     0.173 A 
ATOM     75  F   UNL A   1      42.154  22.701  29.442  1.00  0.00    -0.203 F 
ATOM     76  C   UNL A   1      42.406  21.620  27.366  1.00  0.00     0.198 A 
ATOM     77  C   UNL A   1      43.067  22.878  25.433  1.00  0.00     0.198 A 
ATOM     78  F   UNL A   1      43.501  25.183  25.622  1.00  0.00    -0.203 F 
ATOM     79  F   UNL A   1      42.092  20.449  27.939  1.00  0.00    -0.200 F 
ATOM     80  C   UNL A   1      42.712  21.669  26.014  1.00  0.00     0.200 A 
ATOM     81  F   UNL A   1      43.347  22.934  24.124  1.00  0.00    -0.200 F 
ATOM     82  F   UNL A   1      42.673  20.553  25.274  1.00  0.00    -0.200 F 
ENDBRANCH  48  72
BRANCH  60  83
ATOM     83  C   UNL A   1      47.798  26.712  31.639  1.00  0.00     0.064 A 
ATOM     84  C   UNL A   1      48.944  27.133  30.945  1.00  0.00     0.173 A 
ATOM     85  C   UNL A   1      47.975  25.851  32.733  1.00  0.00     0.173 A 
ATOM     86  F   UNL A   1      48.829  27.944  29.884  1.00  0.00    -0.203 F 
ATOM     87  C   UNL A   1      50.209  26.684  31.315  1.00  0.00     0.198 A 
ATOM     88  C   UNL A   1      49.245  25.433  33.121  1.00  0.00     0.198 A 
ATOM     89  F   UNL A   1      46.915  25.424  33.435  1.00  0.00    -0.203 F 
ATOM     90  F   UNL A   1      51.283  27.055  30.603  1.00  0.00    -0.200 F 
ATOM     91  C   UNL A   1      50.359  25.842  32.406  1.00  0.00     0.200 A 
ATOM     92  F   UNL A   1      49.388  24.633  34.185  1.00  0.00    -0.200 F 
ATOM     93  F   UNL A   1      51.579  25.418  32.765  1.00  0.00    -0.200 F 
ENDBRANCH  60  83
ENDBRANCH  34  35
ENDBRANCH  26  29
ENDBRANCH  24  25
ENDBRANCH  23  24
ENDBRANCH   1  23
TORSDOF 14
ENDMDL
MODEL 3
REMARK VINA RESULT:     -12.1      1.793      3.206
REMARK SMILES Cc1cc(OCC(=O)NCCCCNC(=O)c2ccc(-c3c4nc(c(-c5c(F)c(F)c(F)c(F)c5F)c5ccc([nH]5)c(-c5c(F)c(F)c(F)c(F)c5F)c5nc(c(-c6c(F)c(F)c(F)c(F)c6F)c6ccc3[nH]6)C=C5)C=C4)cc2)nc(-n2nc(C)cc2C)n1
REMARK SMILES IDX 11 1 10 2 9 3 7 4 8 5 6 7 5 8 4 9 1 10 2 11 3 12 89 13 81 14
REMARK SMILES IDX 80 15 82 16 83 17 87 18 84 19 86 20 88 21 85 22 12 23 13 24
REMARK SMILES IDX 14 25 15 26 16 28 17 29 18 30 79 31 19 32 78 33 20 34 21 35
REMARK SMILES IDX 22 36 72 37 23 38 77 39 71 40 73 41 24 42 76 43 70 44 69 45
REMARK SMILES IDX 25 47 57 48 37 49 56 50 38 51 41 52 55 53 74 54 39 55 40 56
REMARK SMILES IDX 54 58 75 59 42 60 26 61 27 62 35 63 28 64 29 65 33 66 36 67
REMARK SMILES IDX 30 68 31 69 34 70 32 71 58 72 59 73 67 74 60 75 61 76 65 77
REMARK SMILES IDX 68 78 62 79 63 80 66 81 64 82 43 83 44 84 52 85 45 86 46 87
REMARK SMILES IDX 50 88 53 89 47 90 48 91 51 92 49 93
REMARK H PARENT 9 6 14 27 73 46 41 57
REMARK Flexibility Score: inf
ROOT
ATOM      1  C   UNL A   1      31.507  30.679  26.248  1.00  0.00     0.023 C 
ENDROOT
BRANCH   1   2
ATOM      2  C   UNL A   1      32.527  29.942  27.116  1.00  0.00     0.116 C 
BRANCH   2   3
ATOM      3  N   UNL A   1      32.072  28.617  27.487  1.00  0.00    -0.353 N 
ATOM      4  C   UNL A   1      31.719  27.580  26.676  1.00  0.00     0.258 C 
ATOM      5  O   UNL A   1      31.350  26.525  27.197  1.00  0.00    -0.271 OA
ATOM      6  H   UNL A   1      32.010  28.442  28.454  1.00  0.00     0.163 HD
BRANCH   4   7
ATOM      7  C   UNL A   1      31.805  27.726  25.149  1.00  0.00     0.331 C 
BRANCH   7   8
ATOM      8  O   UNL A   1      33.044  27.478  24.514  1.00  0.00    -0.467 OA
BRANCH   8   9
ATOM      9  C   UNL A   1      33.105  26.492  23.572  1.00  0.00     0.218 A 
ATOM     10  C   UNL A   1      32.498  25.577  19.997  1.00  0.00     0.067 C 
ATOM     11  C   UNL A   1      32.971  25.569  21.420  1.00  0.00     0.047 A 
ATOM     12  C   UNL A   1      32.670  26.611  22.271  1.00  0.00     0.092 A 
ATOM     13  N   UNL A   1      33.646  24.481  21.830  1.00  0.00    -0.216 NA
ATOM     14  C   UNL A   1      33.927  24.394  23.151  1.00  0.00     0.254 A 
ATOM     15  N   UNL A   1      33.672  25.370  24.044  1.00  0.00    -0.175 NA
BRANCH  14  16
ATOM     16  N   UNL A   1      34.507  23.162  23.617  1.00  0.00    -0.203 N 
ATOM     17  N   UNL A   1      35.859  22.955  23.613  1.00  0.00    -0.170 NA
ATOM     18  C   UNL A   1      33.840  22.087  24.193  1.00  0.00     0.045 A 
ATOM     19  C   UNL A   1      36.036  21.871  24.376  1.00  0.00     0.060 A 
ATOM     20  C   UNL A   1      34.812  21.266  24.721  1.00  0.00     0.049 A 
ATOM     21  C   UNL A   1      32.367  21.918  24.139  1.00  0.00     0.067 C 
ATOM     22  C   UNL A   1      37.401  21.432  24.758  1.00  0.00     0.069 C 
ENDBRANCH  14  16
ENDBRANCH   8   9
ENDBRANCH   7   8
ENDBRANCH   4   7
ENDBRANCH   2   3
ENDBRANCH   1   2
BRANCH   1  23
ATOM     23  C   UNL A   1      31.399  32.186  26.503  1.00  0.00     0.023 C 
BRANCH  23  24
ATOM     24  C   UNL A   1      32.569  32.821  27.249  1.00  0.00     0.116 C 
BRANCH  24  25
ATOM     25  N   UNL A   1      32.327  34.204  27.625  1.00  0.00    -0.352 N 
ATOM     26  C   UNL A   1      32.958  34.978  28.568  1.00  0.00     0.251 C 
ATOM     27  H   UNL A   1      31.604  34.653  27.129  1.00  0.00     0.163 HD
ATOM     28  O   UNL A   1      32.528  36.100  28.830  1.00  0.00    -0.269 OA
BRANCH  26  29
ATOM     29  C   UNL A   1      34.134  34.458  29.300  1.00  0.00     0.039 A 
ATOM     30  C   UNL A   1      33.940  33.881  30.559  1.00  0.00     0.014 A 
ATOM     31  C   UNL A   1      35.420  34.537  28.760  1.00  0.00     0.014 A 
ATOM     32  C   UNL A   1      35.023  33.318  31.242  1.00  0.00     0.010 A 
ATOM     33  C   UNL A   1      36.485  33.909  29.406  1.00  0.00     0.010 A 
ATOM     34  C   UNL A   1      36.297  33.292  30.652  1.00  0.00    -0.014 A 
BRANCH  34  35
ATOM     35  C   UNL A   1      37.439  32.613  31.322  1.00  0.00     0.031 A 
ATOM     36  C   UNL A   1      38.135  31.458  30.655  1.00  0.00     0.074 A 
ATOM     37  C   UNL A   1      37.810  32.996  32.559  1.00  0.00     0.049 A 
ATOM     38  N   UNL A   1      39.106  30.703  31.107  1.00  0.00    -0.248 NA
ATOM     39  C   UNL A   1      37.662  31.087  29.313  1.00  0.00     0.031 C 
ATOM     40  C   UNL A   1      37.188  34.072  33.332  1.00  0.00     0.029 A 
ATOM     41  N   UNL A   1      38.795  32.518  33.389  1.00  0.00    -0.354 N 
ATOM     42  C   UNL A   1      39.350  29.765  30.111  1.00  0.00     0.074 A 
ATOM     43  C   UNL A   1      38.388  30.009  29.058  1.00  0.00     0.031 C 
ATOM     44  C   UNL A   1      37.820  34.190  34.510  1.00  0.00     0.029 A 
ATOM     45  C   UNL A   1      38.862  33.170  34.597  1.00  0.00     0.049 A 
ATOM     46  H   UNL A   1      39.395  31.778  33.143  1.00  0.00     0.167 HD
ATOM     47  C   UNL A   1      40.305  28.805  30.068  1.00  0.00     0.037 A 
ATOM     48  C   UNL A   1      39.666  32.965  35.658  1.00  0.00     0.037 A 
ATOM     49  C   UNL A   1      41.271  28.575  31.112  1.00  0.00     0.049 A 
ATOM     50  C   UNL A   1      40.701  31.874  35.594  1.00  0.00     0.074 A 
ATOM     51  C   UNL A   1      42.310  27.662  31.138  1.00  0.00     0.029 A 
ATOM     52  N   UNL A   1      41.310  29.260  32.317  1.00  0.00    -0.354 N 
ATOM     53  N   UNL A   1      40.969  31.040  34.619  1.00  0.00    -0.248 NA
ATOM     54  C   UNL A   1      41.552  31.700  36.781  1.00  0.00     0.031 C 
ATOM     55  C   UNL A   1      42.943  27.753  32.382  1.00  0.00     0.029 A 
ATOM     56  C   UNL A   1      42.340  28.769  33.106  1.00  0.00     0.049 A 
ATOM     57  H   UNL A   1      40.699  29.986  32.574  1.00  0.00     0.167 HD
ATOM     58  C   UNL A   1      42.036  30.268  35.058  1.00  0.00     0.074 A 
ATOM     59  C   UNL A   1      42.377  30.743  36.383  1.00  0.00     0.031 C 
ATOM     60  C   UNL A   1      42.676  29.256  34.421  1.00  0.00     0.037 A 
BRANCH  47  61
ATOM     61  C   UNL A   1      40.353  27.926  28.849  1.00  0.00     0.064 A 
ATOM     62  C   UNL A   1      41.120  28.267  27.724  1.00  0.00     0.173 A 
ATOM     63  C   UNL A   1      39.652  26.711  28.819  1.00  0.00     0.173 A 
ATOM     64  F   UNL A   1      41.802  29.421  27.696  1.00  0.00    -0.203 F 
ATOM     65  C   UNL A   1      41.156  27.441  26.603  1.00  0.00     0.198 A 
ATOM     66  C   UNL A   1      39.718  25.871  27.710  1.00  0.00     0.198 A 
ATOM     67  F   UNL A   1      38.909  26.332  29.869  1.00  0.00    -0.203 F 
ATOM     68  F   UNL A   1      41.851  27.815  25.520  1.00  0.00    -0.200 F 
ATOM     69  C   UNL A   1      40.462  26.241  26.600  1.00  0.00     0.200 A 
ATOM     70  F   UNL A   1      39.059  24.704  27.715  1.00  0.00    -0.200 F 
ATOM     71  F   UNL A   1      40.504  25.443  25.523  1.00  0.00    -0.200 F 
ENDBRANCH  47  61
BRANCH  48  72
ATOM     72  C   UNL A   1      39.540  33.823  36.866  1.00  0.00     0.064 A 
ATOM     73  C   UNL A   1      38.748  33.426  37.953  1.00  0.00     0.173 A 
ATOM     74  C   UNL A   1      40.195  35.060  36.957  1.00  0.00     0.173 A 
ATOM     75  F   UNL A   1      38.084  32.261  37.906  1.00  0.00    -0.203 F 
ATOM     76  C   UNL A   1      38.595  34.243  39.070  1.00  0.00     0.198 A 
ATOM     77  C   UNL A   1      40.067  35.862  38.089  1.00  0.00     0.198 A 
ATOM     78  F   UNL A   1      40.968  35.487  35.948  1.00  0.00    -0.203 F 
ATOM     79  F   UNL A   1      37.788  33.862  40.071  1.00  0.00    -0.200 F 
ATOM     80  C   UNL A   1      39.259  35.458  39.141  1.00  0.00     0.200 A 
ATOM     81  F   UNL A   1      40.724  37.028  38.159  1.00  0.00    -0.200 F 
ATOM     82  F   UNL A   1      39.114  36.243  40.217  1.00  0.00    -0.200 F 
ENDBRANCH  48  72
BRANCH  60  83
ATOM     83  C   UNL A   1      43.841  28.622  35.127  1.00  0.00     0.064 A 
ATOM     84  C   UNL A   1      43.679  27.521  35.982  1.00  0.00     0.173 A 
ATOM     85  C   UNL A   1      45.143  29.100  34.916  1.00  0.00     0.173 A 
ATOM     86  F   UNL A   1      42.454  27.033  36.230  1.00  0.00    -0.203 F 
ATOM     87  C   UNL A   1      44.773  26.944  36.622  1.00  0.00     0.198 A 
ATOM     88  C   UNL A   1      46.238  28.498  35.529  1.00  0.00     0.198 A 
ATOM     89  F   UNL A   1      45.356  30.145  34.102  1.00  0.00    -0.203 F 
ATOM     90  F   UNL A   1      44.587  25.929  37.477  1.00  0.00    -0.200 F 
ATOM     91  C   UNL A   1      46.051  27.427  36.389  1.00  0.00     0.200 A 
ATOM     92  F   UNL A   1      47.474  28.957  35.289  1.00  0.00    -0.200 F 
ATOM     93  F   UNL A   1      47.104  26.865  36.998  1.00  0.00    -0.200 F 
ENDBRANCH  60  83
ENDBRANCH  34  35
ENDBRANCH  26  29
ENDBRANCH  24  25
ENDBRANCH  23  24
ENDBRANCH   1  23
TORSDOF 14
ENDMDL
