MODEL 1
REMARK VINA RESULT:     -11.2      0.000      0.000
REMARK SMILES O=C(NCCCCNC(=O)C1(O)CCC(F)(F)CC1)c1ccc(-c2c3nc(c(-c4c(F)c(F)c(F)c(F)c4F)c4ccc([nH]4)c(-c4c(F)c(F)c(F)c(F)c4F)c4nc(c(-c5c(F)c(F)c(F)c(F)c5F)c5ccc2[nH]5)C=C4)C=C3)cc1
REMARK SMILES IDX 5 1 4 2 3 3 1 4 2 5 20 7 21 8 82 9 22 10 81 11 23 12 24 13
REMARK SMILES IDX 25 14 75 15 26 16 80 17 74 18 76 19 27 20 79 21 73 22 72 23
REMARK SMILES IDX 28 25 60 26 40 27 59 28 41 29 44 30 58 31 77 32 42 33 43 34
REMARK SMILES IDX 57 36 78 37 45 38 29 39 30 40 38 41 31 42 32 43 36 44 39 45
REMARK SMILES IDX 33 46 34 47 37 48 35 49 61 50 62 51 70 52 63 53 64 54 68 55
REMARK SMILES IDX 71 56 65 57 66 58 69 59 67 60 46 61 47 62 55 63 48 64 49 65
REMARK SMILES IDX 53 66 56 67 50 68 51 69 54 70 52 71 6 72 7 73 8 74 9 75
REMARK SMILES IDX 10 77 11 78 13 79 19 80 14 81 18 82 15 83 16 84 17 85 12 86
REMARK H PARENT 3 6 76 24 44 35 8 76 12 87
REMARK Flexibility Score: inf
ROOT
ATOM      1  C   UNL A   1      33.808  33.978  28.071  1.00  0.00     0.023 C 
ENDROOT
BRANCH   1   2
ATOM      2  C   UNL A   1      34.763  32.795  28.196  1.00  0.00     0.116 C 
BRANCH   2   3
ATOM      3  N   UNL A   1      34.138  31.509  27.923  1.00  0.00    -0.352 N 
ATOM      4  O   UNL A   1      33.959  29.298  27.543  1.00  0.00    -0.269 OA
ATOM      5  C   UNL A   1      34.657  30.237  27.915  1.00  0.00     0.251 C 
ATOM      6  H   UNL A   1      33.179  31.559  27.707  1.00  0.00     0.163 HD
BRANCH   5   7
ATOM      7  C   UNL A   1      36.060  29.992  28.306  1.00  0.00     0.039 A 
ATOM      8  C   UNL A   1      37.103  30.121  27.387  1.00  0.00     0.014 A 
ATOM      9  C   UNL A   1      36.332  29.637  29.630  1.00  0.00     0.014 A 
ATOM     10  C   UNL A   1      38.390  29.729  27.743  1.00  0.00     0.010 A 
ATOM     11  C   UNL A   1      37.638  29.320  30.008  1.00  0.00     0.010 A 
ATOM     12  C   UNL A   1      38.668  29.317  29.055  1.00  0.00    -0.014 A 
BRANCH  12  13
ATOM     13  C   UNL A   1      40.038  28.886  29.431  1.00  0.00     0.031 A 
ATOM     14  C   UNL A   1      40.900  29.759  30.297  1.00  0.00     0.074 A 
ATOM     15  C   UNL A   1      40.507  27.708  28.980  1.00  0.00     0.049 A 
ATOM     16  N   UNL A   1      42.151  29.598  30.652  1.00  0.00    -0.248 NA
ATOM     17  C   UNL A   1      40.280  30.984  30.825  1.00  0.00     0.031 C 
ATOM     18  C   UNL A   1      39.759  26.772  28.140  1.00  0.00     0.029 A 
ATOM     19  N   UNL A   1      41.724  27.101  29.157  1.00  0.00    -0.354 N 
ATOM     20  C   UNL A   1      42.475  30.712  31.415  1.00  0.00     0.074 A 
ATOM     21  C   UNL A   1      41.295  31.551  31.462  1.00  0.00     0.031 C 
ATOM     22  C   UNL A   1      40.529  25.704  27.883  1.00  0.00     0.029 A 
ATOM     23  C   UNL A   1      41.841  25.909  28.487  1.00  0.00     0.049 A 
ATOM     24  H   UNL A   1      42.442  27.483  29.711  1.00  0.00     0.167 HD
ATOM     25  C   UNL A   1      43.651  31.005  32.021  1.00  0.00     0.037 A 
ATOM     26  C   UNL A   1      42.898  25.089  28.345  1.00  0.00     0.037 A 
ATOM     27  C   UNL A   1      44.811  30.152  31.993  1.00  0.00     0.049 A 
ATOM     28  C   UNL A   1      44.196  25.442  29.010  1.00  0.00     0.074 A 
ATOM     29  C   UNL A   1      46.034  30.337  32.613  1.00  0.00     0.029 A 
ATOM     30  N   UNL A   1      44.889  28.951  31.301  1.00  0.00    -0.354 N 
ATOM     31  N   UNL A   1      44.488  26.488  29.742  1.00  0.00    -0.248 NA
ATOM     32  C   UNL A   1      45.312  24.504  28.826  1.00  0.00     0.031 C 
ATOM     33  C   UNL A   1      46.867  29.268  32.263  1.00  0.00     0.029 A 
ATOM     34  C   UNL A   1      46.148  28.395  31.462  1.00  0.00     0.049 A 
ATOM     35  H   UNL A   1      44.159  28.554  30.774  1.00  0.00     0.167 HD
ATOM     36  C   UNL A   1      45.812  26.331  30.122  1.00  0.00     0.074 A 
ATOM     37  C   UNL A   1      46.267  25.082  29.544  1.00  0.00     0.031 C 
ATOM     38  C   UNL A   1      46.581  27.149  30.882  1.00  0.00     0.037 A 
BRANCH  25  39
ATOM     39  C   UNL A   1      43.752  32.317  32.744  1.00  0.00     0.064 A 
ATOM     40  C   UNL A   1      43.401  32.448  34.096  1.00  0.00     0.173 A 
ATOM     41  C   UNL A   1      44.232  33.455  32.079  1.00  0.00     0.173 A 
ATOM     42  F   UNL A   1      42.924  31.393  34.775  1.00  0.00    -0.203 F 
ATOM     43  C   UNL A   1      43.501  33.676  34.746  1.00  0.00     0.198 A 
ATOM     44  C   UNL A   1      44.355  34.674  32.739  1.00  0.00     0.198 A 
ATOM     45  F   UNL A   1      44.587  33.383  30.787  1.00  0.00    -0.203 F 
ATOM     46  F   UNL A   1      43.115  33.787  36.025  1.00  0.00    -0.200 F 
ATOM     47  C   UNL A   1      43.982  34.786  34.069  1.00  0.00     0.200 A 
ATOM     48  F   UNL A   1      44.830  35.744  32.086  1.00  0.00    -0.200 F 
ATOM     49  F   UNL A   1      44.078  35.967  34.698  1.00  0.00    -0.200 F 
ENDBRANCH  25  39
BRANCH  26  50
ATOM     50  C   UNL A   1      42.751  23.865  27.521  1.00  0.00     0.064 A 
ATOM     51  C   UNL A   1      43.058  23.872  26.155  1.00  0.00     0.173 A 
ATOM     52  C   UNL A   1      42.368  22.645  28.101  1.00  0.00     0.173 A 
ATOM     53  F   UNL A   1      43.414  25.018  25.555  1.00  0.00    -0.203 F 
ATOM     54  C   UNL A   1      42.992  22.704  25.399  1.00  0.00     0.198 A 
ATOM     55  C   UNL A   1      42.326  21.474  27.350  1.00  0.00     0.198 A 
ATOM     56  F   UNL A   1      42.072  22.589  29.408  1.00  0.00    -0.203 F 
ATOM     57  F   UNL A   1      43.278  22.739  24.090  1.00  0.00    -0.200 F 
ATOM     58  C   UNL A   1      42.637  21.505  25.999  1.00  0.00     0.200 A 
ATOM     59  F   UNL A   1      42.001  20.315  27.938  1.00  0.00    -0.200 F 
ATOM     60  F   UNL A   1      42.597  20.377  25.276  1.00  0.00    -0.200 F 
ENDBRANCH  26  50
BRANCH  38  61
ATOM     61  C   UNL A   1      47.984  26.706  31.163  1.00  0.00     0.064 A 
ATOM     62  C   UNL A   1      48.288  25.884  32.256  1.00  0.00     0.173 A 
ATOM     63  C   UNL A   1      49.025  27.061  30.292  1.00  0.00     0.173 A 
ATOM     64  F   UNL A   1      47.328  25.532  33.124  1.00  0.00    -0.203 F 
ATOM     65  C   UNL A   1      49.590  25.440  32.475  1.00  0.00     0.198 A 
ATOM     66  C   UNL A   1      50.321  26.598  30.501  1.00  0.00     0.198 A 
ATOM     67  F   UNL A   1      48.782  27.843  29.230  1.00  0.00    -0.203 F 
ATOM     68  F   UNL A   1      49.867  24.679  33.542  1.00  0.00    -0.200 F 
ATOM     69  C   UNL A   1      50.602  25.790  31.593  1.00  0.00     0.200 A 
ATOM     70  F   UNL A   1      51.296  26.929  29.643  1.00  0.00    -0.200 F 
ATOM     71  F   UNL A   1      51.853  25.353  31.798  1.00  0.00    -0.200 F 
ENDBRANCH  38  61
ENDBRANCH  12  13
ENDBRANCH   5   7
ENDBRANCH   2   3
ENDBRANCH   1   2
BRANCH   1  72
ATOM     72  C   UNL A   1      34.090  35.181  28.973  1.00  0.00     0.023 C 
BRANCH  72  73
ATOM     73  C   UNL A   1      33.159  35.390  30.165  1.00  0.00     0.116 C 
BRANCH  73  74
ATOM     74  N   UNL A   1      33.790  35.987  31.320  1.00  0.00    -0.354 N 
ATOM     75  C   UNL A   1      34.354  35.445  32.430  1.00  0.00     0.251 C 
ATOM     76  H   UNL A   1      33.814  36.971  31.299  1.00  0.00     0.163 HD
ATOM     77  O   UNL A   1      34.880  36.268  33.197  1.00  0.00    -0.272 OA
BRANCH  75  78
ATOM     78  C   UNL A   1      34.289  33.940  32.863  1.00  0.00     0.143 C 
ATOM     79  C   UNL A   1      34.668  32.818  31.892  1.00  0.00     0.051 C 
ATOM     80  C   UNL A   1      35.121  33.752  34.159  1.00  0.00     0.051 C 
ATOM     81  C   UNL A   1      36.162  32.738  31.598  1.00  0.00     0.080 C 
ATOM     82  C   UNL A   1      36.623  33.717  33.878  1.00  0.00     0.080 C 
ATOM     83  C   UNL A   1      36.971  32.629  32.877  1.00  0.00     0.248 C 
ATOM     84  F   UNL A   1      38.291  32.691  32.577  1.00  0.00    -0.207 F 
ATOM     85  F   UNL A   1      36.755  31.415  33.440  1.00  0.00    -0.207 F 
BRANCH  78  86
ATOM     86  O   UNL A   1      32.910  33.718  33.211  1.00  0.00    -0.380 OA
ATOM     87  H   UNL A   1      32.805  33.774  34.174  1.00  0.00     0.212 HD
ENDBRANCH  78  86
ENDBRANCH  75  78
ENDBRANCH  73  74
ENDBRANCH  72  73
ENDBRANCH   1  72
TORSDOF 12
ENDMDL
MODEL 2
REMARK VINA RESULT:     -11.1      3.416     11.203
REMARK SMILES O=C(NCCCCNC(=O)C1(O)CCC(F)(F)CC1)c1ccc(-c2c3nc(c(-c4c(F)c(F)c(F)c(F)c4F)c4ccc([nH]4)c(-c4c(F)c(F)c(F)c(F)c4F)c4nc(c(-c5c(F)c(F)c(F)c(F)c5F)c5ccc2[nH]5)C=C4)C=C3)cc1
REMARK SMILES IDX 5 1 4 2 3 3 1 4 2 5 20 7 21 8 82 9 22 10 81 11 23 12 24 13
REMARK SMILES IDX 25 14 75 15 26 16 80 17 74 18 76 19 27 20 79 21 73 22 72 23
REMARK SMILES IDX 28 25 60 26 40 27 59 28 41 29 44 30 58 31 77 32 42 33 43 34
REMARK SMILES IDX 57 36 78 37 45 38 29 39 30 40 38 41 31 42 32 43 36 44 39 45
REMARK SMILES IDX 33 46 34 47 37 48 35 49 61 50 62 51 70 52 63 53 64 54 68 55
REMARK SMILES IDX 71 56 65 57 66 58 69 59 67 60 46 61 47 62 55 63 48 64 49 65
REMARK SMILES IDX 53 66 56 67 50 68 51 69 54 70 52 71 6 72 7 73 8 74 9 75
REMARK SMILES IDX 10 77 11 78 13 79 19 80 14 81 18 82 15 83 16 84 17 85 12 86
REMARK H PARENT 3 6 76 24 44 35 8 76 12 87
REMARK Flexibility Score: inf
ROOT
ATOM      1  C   UNL A   1      40.966  20.664  27.092  1.00  0.00     0.023 C 
ENDROOT
BRANCH   1   2
ATOM      2  C   UNL A   1      40.806  21.833  26.126  1.00  0.00     0.116 C 
BRANCH   2   3
ATOM      3  N   UNL A   1      39.419  22.146  25.814  1.00  0.00    -0.352 N 
ATOM      4  O   UNL A   1      37.452  23.239  25.848  1.00  0.00    -0.269 OA
ATOM      5  C   UNL A   1      38.647  23.239  26.126  1.00  0.00     0.251 C 
ATOM      6  H   UNL A   1      38.953  21.456  25.288  1.00  0.00     0.163 HD
BRANCH   5   7
ATOM      7  C   UNL A   1      39.230  24.396  26.835  1.00  0.00     0.039 A 
ATOM      8  C   UNL A   1      39.034  24.584  28.204  1.00  0.00     0.014 A 
ATOM      9  C   UNL A   1      40.003  25.306  26.107  1.00  0.00     0.014 A 
ATOM     10  C   UNL A   1      39.459  25.763  28.809  1.00  0.00     0.010 A 
ATOM     11  C   UNL A   1      40.498  26.451  26.732  1.00  0.00     0.010 A 
ATOM     12  C   UNL A   1      40.189  26.712  28.076  1.00  0.00    -0.014 A 
BRANCH  12  13
ATOM     13  C   UNL A   1      40.630  27.976  28.717  1.00  0.00     0.031 A 
ATOM     14  C   UNL A   1      42.058  28.152  29.149  1.00  0.00     0.074 A 
ATOM     15  C   UNL A   1      39.737  28.962  28.918  1.00  0.00     0.049 A 
ATOM     16  N   UNL A   1      42.609  29.141  29.807  1.00  0.00    -0.248 NA
ATOM     17  C   UNL A   1      42.990  27.066  28.807  1.00  0.00     0.031 C 
ATOM     18  C   UNL A   1      38.326  28.909  28.534  1.00  0.00     0.029 A 
ATOM     19  N   UNL A   1      39.880  30.195  29.502  1.00  0.00    -0.354 N 
ATOM     20  C   UNL A   1      43.939  28.783  29.986  1.00  0.00     0.074 A 
ATOM     21  C   UNL A   1      44.112  27.480  29.380  1.00  0.00     0.031 C 
ATOM     22  C   UNL A   1      37.734  30.061  28.882  1.00  0.00     0.029 A 
ATOM     23  C   UNL A   1      38.708  30.905  29.567  1.00  0.00     0.049 A 
ATOM     24  H   UNL A   1      40.739  30.536  29.840  1.00  0.00     0.167 HD
ATOM     25  C   UNL A   1      44.923  29.483  30.600  1.00  0.00     0.037 A 
ATOM     26  C   UNL A   1      38.437  32.090  30.145  1.00  0.00     0.037 A 
ATOM     27  C   UNL A   1      44.750  30.791  31.177  1.00  0.00     0.049 A 
ATOM     28  C   UNL A   1      39.539  32.839  30.835  1.00  0.00     0.074 A 
ATOM     29  C   UNL A   1      45.695  31.602  31.780  1.00  0.00     0.029 A 
ATOM     30  N   UNL A   1      43.545  31.478  31.223  1.00  0.00    -0.354 N 
ATOM     31  N   UNL A   1      40.796  32.501  30.985  1.00  0.00    -0.248 NA
ATOM     32  C   UNL A   1      39.186  34.130  31.440  1.00  0.00     0.031 C 
ATOM     33  C   UNL A   1      45.053  32.762  32.228  1.00  0.00     0.029 A 
ATOM     34  C   UNL A   1      43.718  32.694  31.864  1.00  0.00     0.049 A 
ATOM     35  H   UNL A   1      42.693  31.149  30.854  1.00  0.00     0.167 HD
ATOM     36  C   UNL A   1      41.390  33.540  31.685  1.00  0.00     0.074 A 
ATOM     37  C   UNL A   1      40.356  34.526  31.925  1.00  0.00     0.031 C 
ATOM     38  C   UNL A   1      42.677  33.665  32.090  1.00  0.00     0.037 A 
BRANCH  25  39
ATOM     39  C   UNL A   1      46.274  28.834  30.706  1.00  0.00     0.064 A 
ATOM     40  C   UNL A   1      46.624  28.025  31.797  1.00  0.00     0.173 A 
ATOM     41  C   UNL A   1      47.221  29.005  29.685  1.00  0.00     0.173 A 
ATOM     42  F   UNL A   1      45.759  27.839  32.805  1.00  0.00    -0.203 F 
ATOM     43  C   UNL A   1      47.884  27.434  31.875  1.00  0.00     0.198 A 
ATOM     44  C   UNL A   1      48.469  28.392  29.754  1.00  0.00     0.198 A 
ATOM     45  F   UNL A   1      46.935  29.764  28.617  1.00  0.00    -0.203 F 
ATOM     46  F   UNL A   1      48.213  26.704  32.950  1.00  0.00    -0.200 F 
ATOM     47  C   UNL A   1      48.802  27.615  30.853  1.00  0.00     0.200 A 
ATOM     48  F   UNL A   1      49.353  28.559  28.761  1.00  0.00    -0.200 F 
ATOM     49  F   UNL A   1      50.014  27.044  30.930  1.00  0.00    -0.200 F 
ENDBRANCH  25  39
BRANCH  26  50
ATOM     50  C   UNL A   1      37.050  32.614  30.094  1.00  0.00     0.064 A 
ATOM     51  C   UNL A   1      36.152  32.382  31.143  1.00  0.00     0.173 A 
ATOM     52  C   UNL A   1      36.621  33.416  29.026  1.00  0.00     0.173 A 
ATOM     53  F   UNL A   1      36.515  31.609  32.177  1.00  0.00    -0.203 F 
ATOM     54  C   UNL A   1      34.876  32.938  31.128  1.00  0.00     0.198 A 
ATOM     55  C   UNL A   1      35.352  33.991  29.025  1.00  0.00     0.198 A 
ATOM     56  F   UNL A   1      37.450  33.671  28.003  1.00  0.00    -0.203 F 
ATOM     57  F   UNL A   1      34.028  32.692  32.137  1.00  0.00    -0.200 F 
ATOM     58  C   UNL A   1      34.481  33.751  30.075  1.00  0.00     0.200 A 
ATOM     59  F   UNL A   1      34.983  34.790  28.014  1.00  0.00    -0.200 F 
ATOM     60  F   UNL A   1      33.260  34.305  30.074  1.00  0.00    -0.200 F 
ENDBRANCH  26  50
BRANCH  38  61
ATOM     61  C   UNL A   1      43.052  34.926  32.807  1.00  0.00     0.064 A 
ATOM     62  C   UNL A   1      43.468  36.068  32.111  1.00  0.00     0.173 A 
ATOM     63  C   UNL A   1      42.935  35.007  34.202  1.00  0.00     0.173 A 
ATOM     64  F   UNL A   1      43.610  36.033  30.778  1.00  0.00    -0.203 F 
ATOM     65  C   UNL A   1      43.765  37.248  32.789  1.00  0.00     0.198 A 
ATOM     66  C   UNL A   1      43.211  36.194  34.875  1.00  0.00     0.198 A 
ATOM     67  F   UNL A   1      42.537  33.940  34.911  1.00  0.00    -0.203 F 
ATOM     68  F   UNL A   1      44.189  38.321  32.109  1.00  0.00    -0.200 F 
ATOM     69  C   UNL A   1      43.628  37.312  34.168  1.00  0.00     0.200 A 
ATOM     70  F   UNL A   1      43.069  36.257  36.207  1.00  0.00    -0.200 F 
ATOM     71  F   UNL A   1      43.903  38.451  34.818  1.00  0.00    -0.200 F 
ENDBRANCH  38  61
ENDBRANCH  12  13
ENDBRANCH   5   7
ENDBRANCH   2   3
ENDBRANCH   1   2
BRANCH   1  72
ATOM     72  C   UNL A   1      42.262  19.859  26.980  1.00  0.00     0.023 C 
BRANCH  72  73
ATOM     73  C   UNL A   1      42.896  19.751  25.595  1.00  0.00     0.116 C 
BRANCH  73  74
ATOM     74  N   UNL A   1      44.340  19.813  25.589  1.00  0.00    -0.354 N 
ATOM     75  C   UNL A   1      45.207  20.773  25.177  1.00  0.00     0.251 C 
ATOM     76  H   UNL A   1      44.777  19.009  25.952  1.00  0.00     0.163 HD
ATOM     77  O   UNL A   1      46.402  20.520  25.397  1.00  0.00    -0.272 OA
BRANCH  75  78
ATOM     78  C   UNL A   1      44.843  22.066  24.369  1.00  0.00     0.143 C 
ATOM     79  C   UNL A   1      43.675  22.963  24.789  1.00  0.00     0.051 C 
ATOM     80  C   UNL A   1      46.108  22.957  24.247  1.00  0.00     0.051 C 
ATOM     81  C   UNL A   1      43.935  23.754  26.067  1.00  0.00     0.080 C 
ATOM     82  C   UNL A   1      46.403  23.718  25.539  1.00  0.00     0.080 C 
ATOM     83  C   UNL A   1      45.214  24.563  25.964  1.00  0.00     0.248 C 
ATOM     84  F   UNL A   1      45.472  25.145  27.160  1.00  0.00    -0.207 F 
ATOM     85  F   UNL A   1      45.036  25.568  25.071  1.00  0.00    -0.207 F 
BRANCH  78  86
ATOM     86  O   UNL A   1      44.529  21.596  23.046  1.00  0.00    -0.380 OA
ATOM     87  H   UNL A   1      44.444  20.629  23.057  1.00  0.00     0.212 HD
ENDBRANCH  78  86
ENDBRANCH  75  78
ENDBRANCH  73  74
ENDBRANCH  72  73
ENDBRANCH   1  72
TORSDOF 12
ENDMDL
MODEL 3
REMARK VINA RESULT:     -11.0      0.574      1.549
REMARK SMILES O=C(NCCCCNC(=O)C1(O)CCC(F)(F)CC1)c1ccc(-c2c3nc(c(-c4c(F)c(F)c(F)c(F)c4F)c4ccc([nH]4)c(-c4c(F)c(F)c(F)c(F)c4F)c4nc(c(-c5c(F)c(F)c(F)c(F)c5F)c5ccc2[nH]5)C=C4)C=C3)cc1
REMARK SMILES IDX 5 1 4 2 3 3 1 4 2 5 20 7 21 8 82 9 22 10 81 11 23 12 24 13
REMARK SMILES IDX 25 14 75 15 26 16 80 17 74 18 76 19 27 20 79 21 73 22 72 23
REMARK SMILES IDX 28 25 60 26 40 27 59 28 41 29 44 30 58 31 77 32 42 33 43 34
REMARK SMILES IDX 57 36 78 37 45 38 29 39 30 40 38 41 31 42 32 43 36 44 39 45
REMARK SMILES IDX 33 46 34 47 37 48 35 49 61 50 62 51 70 52 63 53 64 54 68 55
REMARK SMILES IDX 71 56 65 57 66 58 69 59 67 60 46 61 47 62 55 63 48 64 49 65
REMARK SMILES IDX 53 66 56 67 50 68 51 69 54 70 52 71 6 72 7 73 8 74 9 75
REMARK SMILES IDX 10 77 11 78 13 79 19 80 14 81 18 82 15 83 16 84 17 85 12 86
REMARK H PARENT 3 6 76 24 44 35 8 76 12 87
REMARK Flexibility Score: inf
ROOT
ATOM      1  C   UNL A   1      33.490  33.646  28.373  1.00  0.00     0.023 C 
ENDROOT
BRANCH   1   2
ATOM      2  C   UNL A   1      34.522  32.524  28.338  1.00  0.00     0.116 C 
BRANCH   2   3
ATOM      3  N   UNL A   1      33.959  31.224  28.001  1.00  0.00    -0.352 N 
ATOM      4  O   UNL A   1      33.888  29.033  27.494  1.00  0.00    -0.269 OA
ATOM      5  C   UNL A   1      34.543  29.985  27.909  1.00  0.00     0.251 C 
ATOM      6  H   UNL A   1      32.995  31.236  27.805  1.00  0.00     0.163 HD
BRANCH   5   7
ATOM      7  C   UNL A   1      35.965  29.792  28.259  1.00  0.00     0.039 A 
ATOM      8  C   UNL A   1      36.982  30.046  27.336  1.00  0.00     0.014 A 
ATOM      9  C   UNL A   1      36.282  29.360  29.550  1.00  0.00     0.014 A 
ATOM     10  C   UNL A   1      38.295  29.703  27.644  1.00  0.00     0.010 A 
ATOM     11  C   UNL A   1      37.611  29.091  29.884  1.00  0.00     0.010 A 
ATOM     12  C   UNL A   1      38.621  29.215  28.919  1.00  0.00    -0.014 A 
BRANCH  12  13
ATOM     13  C   UNL A   1      40.020  28.836  29.241  1.00  0.00     0.031 A 
ATOM     14  C   UNL A   1      40.900  29.771  30.020  1.00  0.00     0.074 A 
ATOM     15  C   UNL A   1      40.498  27.651  28.820  1.00  0.00     0.049 A 
ATOM     16  N   UNL A   1      42.171  29.658  30.317  1.00  0.00    -0.248 NA
ATOM     17  C   UNL A   1      40.273  31.003  30.525  1.00  0.00     0.031 C 
ATOM     18  C   UNL A   1      39.734  26.658  28.062  1.00  0.00     0.029 A 
ATOM     19  N   UNL A   1      41.738  27.085  28.960  1.00  0.00    -0.354 N 
ATOM     20  C   UNL A   1      42.502  30.814  31.012  1.00  0.00     0.074 A 
ATOM     21  C   UNL A   1      41.304  31.624  31.082  1.00  0.00     0.031 C 
ATOM     22  C   UNL A   1      40.519  25.600  27.813  1.00  0.00     0.029 A 
ATOM     23  C   UNL A   1      41.854  25.867  28.339  1.00  0.00     0.049 A 
ATOM     24  H   UNL A   1      42.473  27.510  29.458  1.00  0.00     0.167 HD
ATOM     25  C   UNL A   1      43.699  31.164  31.541  1.00  0.00     0.037 A 
ATOM     26  C   UNL A   1      42.925  25.068  28.178  1.00  0.00     0.037 A 
ATOM     27  C   UNL A   1      44.880  30.341  31.491  1.00  0.00     0.049 A 
ATOM     28  C   UNL A   1      44.245  25.484  28.758  1.00  0.00     0.074 A 
ATOM     29  C   UNL A   1      46.127  30.585  32.037  1.00  0.00     0.029 A 
ATOM     30  N   UNL A   1      44.956  29.112  30.851  1.00  0.00    -0.354 N 
ATOM     31  N   UNL A   1      44.544  26.570  29.427  1.00  0.00    -0.248 NA
ATOM     32  C   UNL A   1      45.376  24.568  28.559  1.00  0.00     0.031 C 
ATOM     33  C   UNL A   1      46.971  29.523  31.693  1.00  0.00     0.029 A 
ATOM     34  C   UNL A   1      46.237  28.596  30.970  1.00  0.00     0.049 A 
ATOM     35  H   UNL A   1      44.211  28.672  30.381  1.00  0.00     0.167 HD
ATOM     36  C   UNL A   1      45.891  26.465  29.743  1.00  0.00     0.074 A 
ATOM     37  C   UNL A   1      46.350  25.203  29.199  1.00  0.00     0.031 C 
ATOM     38  C   UNL A   1      46.674  27.335  30.425  1.00  0.00     0.037 A 
BRANCH  25  39
ATOM     39  C   UNL A   1      43.800  32.511  32.199  1.00  0.00     0.064 A 
ATOM     40  C   UNL A   1      44.155  33.662  31.481  1.00  0.00     0.173 A 
ATOM     41  C   UNL A   1      43.512  32.653  33.565  1.00  0.00     0.173 A 
ATOM     42  F   UNL A   1      44.453  33.578  30.175  1.00  0.00    -0.203 F 
ATOM     43  C   UNL A   1      44.244  34.901  32.112  1.00  0.00     0.198 A 
ATOM     44  C   UNL A   1      43.576  33.897  34.186  1.00  0.00     0.198 A 
ATOM     45  F   UNL A   1      43.161  31.584  34.297  1.00  0.00    -0.203 F 
ATOM     46  F   UNL A   1      44.631  35.979  31.415  1.00  0.00    -0.200 F 
ATOM     47  C   UNL A   1      43.951  35.018  33.462  1.00  0.00     0.200 A 
ATOM     48  F   UNL A   1      43.283  34.011  35.489  1.00  0.00    -0.200 F 
ATOM     49  F   UNL A   1      44.037  36.212  34.067  1.00  0.00    -0.200 F 
ENDBRANCH  25  39
BRANCH  26  50
ATOM     50  C   UNL A   1      42.771  23.803  27.419  1.00  0.00     0.064 A 
ATOM     51  C   UNL A   1      43.136  23.722  26.069  1.00  0.00     0.173 A 
ATOM     52  C   UNL A   1      42.320  22.633  28.049  1.00  0.00     0.173 A 
ATOM     53  F   UNL A   1      43.557  24.819  25.423  1.00  0.00    -0.203 F 
ATOM     54  C   UNL A   1      43.061  22.515  25.379  1.00  0.00     0.198 A 
ATOM     55  C   UNL A   1      42.270  21.422  27.363  1.00  0.00     0.198 A 
ATOM     56  F   UNL A   1      41.967  22.661  29.342  1.00  0.00    -0.203 F 
ATOM     57  F   UNL A   1      43.403  22.465  24.084  1.00  0.00    -0.200 F 
ATOM     58  C   UNL A   1      42.639  21.364  26.029  1.00  0.00     0.200 A 
ATOM     59  F   UNL A   1      41.879  20.310  28.001  1.00  0.00    -0.200 F 
ATOM     60  F   UNL A   1      42.590  20.199  25.369  1.00  0.00    -0.200 F 
ENDBRANCH  26  50
BRANCH  38  61
ATOM     61  C   UNL A   1      48.102  26.942  30.652  1.00  0.00     0.064 A 
ATOM     62  C   UNL A   1      48.468  26.087  31.699  1.00  0.00     0.173 A 
ATOM     63  C   UNL A   1      49.104  27.380  29.773  1.00  0.00     0.173 A 
ATOM     64  F   UNL A   1      47.547  25.656  32.573  1.00  0.00    -0.203 F 
ATOM     65  C   UNL A   1      49.793  25.691  31.866  1.00  0.00     0.198 A 
ATOM     66  C   UNL A   1      50.423  26.965  29.930  1.00  0.00     0.198 A 
ATOM     67  F   UNL A   1      48.800  28.197  28.753  1.00  0.00    -0.203 F 
ATOM     68  F   UNL A   1      50.129  24.896  32.891  1.00  0.00    -0.200 F 
ATOM     69  C   UNL A   1      50.766  26.123  30.977  1.00  0.00     0.200 A 
ATOM     70  F   UNL A   1      51.361  27.375  29.064  1.00  0.00    -0.200 F 
ATOM     71  F   UNL A   1      52.039  25.732  31.132  1.00  0.00    -0.200 F 
ENDBRANCH  38  61
ENDBRANCH  12  13
ENDBRANCH   5   7
ENDBRANCH   2   3
ENDBRANCH   1   2
BRANCH   1  72
ATOM     72  C   UNL A   1      33.997  35.028  28.789  1.00  0.00     0.023 C 
BRANCH  72  73
ATOM     73  C   UNL A   1      33.498  35.579  30.123  1.00  0.00     0.116 C 
BRANCH  73  74
ATOM     74  N   UNL A   1      33.279  34.578  31.141  1.00  0.00    -0.354 N 
ATOM     75  C   UNL A   1      34.028  34.181  32.202  1.00  0.00     0.251 C 
ATOM     76  H   UNL A   1      32.428  34.092  31.049  1.00  0.00     0.163 HD
ATOM     77  O   UNL A   1      33.488  33.332  32.928  1.00  0.00    -0.272 OA
BRANCH  75  78
ATOM     78  C   UNL A   1      35.508  34.602  32.501  1.00  0.00     0.143 C 
ATOM     79  C   UNL A   1      36.205  34.188  33.801  1.00  0.00     0.051 C 
ATOM     80  C   UNL A   1      36.407  34.160  31.316  1.00  0.00     0.051 C 
ATOM     81  C   UNL A   1      36.543  32.703  33.871  1.00  0.00     0.080 C 
ATOM     82  C   UNL A   1      36.712  32.663  31.353  1.00  0.00     0.080 C 
ATOM     83  C   UNL A   1      37.359  32.265  32.669  1.00  0.00     0.248 C 
ATOM     84  F   UNL A   1      37.525  30.921  32.708  1.00  0.00    -0.207 F 
ATOM     85  F   UNL A   1      38.596  32.815  32.746  1.00  0.00    -0.207 F 
BRANCH  78  86
ATOM     86  O   UNL A   1      35.487  36.042  32.501  1.00  0.00    -0.380 OA
ATOM     87  H   UNL A   1      36.040  36.374  31.775  1.00  0.00     0.212 HD
ENDBRANCH  78  86
ENDBRANCH  75  78
ENDBRANCH  73  74
ENDBRANCH  72  73
ENDBRANCH   1  72
TORSDOF 12
ENDMDL
