MODEL 1
REMARK VINA RESULT:     -10.6      0.000      0.000
REMARK SMILES CCS(=O)(=O)N1CCC(C(=O)N[C@H](CO)C(=O)NCCCCNC(=O)c2ccc(-c3c4nc(c(-c5c(F)c(F)c(F)c(F)c5F)c5ccc([nH]5)c(-c5c(F)c(F)c(F)c(F)c5F)c5nc(c(-c6c(F)c(F)c(F)c(F)c6F)c6ccc3[nH]6)C=C5)C=C4)cc2)CC1
REMARK SMILES IDX 19 1 18 2 16 3 17 4 13 6 12 7 10 8 11 9 9 11 6 12 7 13 90 14
REMARK SMILES IDX 8 15 89 16 3 17 4 18 5 19 2 20 1 21 14 22 15 23 20 25 21 26
REMARK SMILES IDX 22 27 23 28 24 29 25 31 26 32 27 33 88 34 28 35 87 36 29 37
REMARK SMILES IDX 30 38 31 39 81 40 32 41 86 42 80 43 82 44 33 45 85 46 79 47
REMARK SMILES IDX 78 48 34 50 66 51 46 52 65 53 47 54 50 55 64 56 83 57 48 58
REMARK SMILES IDX 49 59 63 61 84 62 51 63 35 64 36 65 44 66 37 67 38 68 42 69
REMARK SMILES IDX 45 70 39 71 40 72 43 73 41 74 67 75 68 76 76 77 69 78 70 79
REMARK SMILES IDX 74 80 77 81 71 82 72 83 75 84 73 85 52 86 53 87 61 88 54 89
REMARK SMILES IDX 55 90 59 91 62 92 56 93 57 94 60 95 58 96
REMARK H PARENT 18 5 12 10 15 24 23 30 82 49 50 60
REMARK Flexibility Score: inf
ROOT
ATOM      1  C   UNL A   1      34.374  36.019  28.438  1.00  0.00     0.116 C 
ENDROOT
BRANCH   1   2
ATOM      2  N   UNL A   1      33.173  36.474  29.120  1.00  0.00    -0.354 N 
ATOM      3  C   UNL A   1      32.842  36.338  30.435  1.00  0.00     0.244 C 
ATOM      4  O   UNL A   1      31.665  36.511  30.771  1.00  0.00    -0.273 OA
ATOM      5  H   UNL A   1      32.513  36.941  28.558  1.00  0.00     0.163 HD
BRANCH   3   6
ATOM      6  C   UNL A   1      33.831  35.794  31.466  1.00  0.00     0.197 C 
BRANCH   6   7
ATOM      7  N   UNL A   1      33.516  34.457  31.993  1.00  0.00    -0.342 N 
ATOM      8  C   UNL A   1      34.102  33.704  32.963  1.00  0.00     0.223 C 
ATOM      9  O   UNL A   1      33.382  32.830  33.461  1.00  0.00    -0.275 OA
ATOM     10  H   UNL A   1      32.739  34.030  31.566  1.00  0.00     0.164 HD
BRANCH   8  11
ATOM     11  C   UNL A   1      35.595  33.739  33.340  1.00  0.00     0.081 C 
ATOM     12  N   UNL A   1      37.354  32.218  35.090  1.00  0.00    -0.202 NA
ATOM     13  C   UNL A   1      36.868  33.508  35.629  1.00  0.00     0.103 C 
ATOM     14  C   UNL A   1      37.726  32.379  33.659  1.00  0.00     0.103 C 
ATOM     15  C   UNL A   1      35.715  34.088  34.827  1.00  0.00     0.030 C 
ATOM     16  C   UNL A   1      36.466  32.595  32.830  1.00  0.00     0.030 C 
BRANCH  12  17
ATOM     17  S   UNL A   1      38.596  31.550  36.077  1.00  0.00     0.213 S 
ATOM     18  O   UNL A   1      38.133  30.261  36.549  1.00  0.00    -0.212 OA
ATOM     19  O   UNL A   1      38.983  32.581  37.019  1.00  0.00    -0.212 OA
BRANCH  17  20
ATOM     20  C   UNL A   1      39.951  31.272  34.934  1.00  0.00     0.151 C 
ATOM     21  C   UNL A   1      40.439  29.838  34.928  1.00  0.00     0.022 C 
ENDBRANCH  17  20
ENDBRANCH  12  17
ENDBRANCH   8  11
ENDBRANCH   6   7
BRANCH   6  22
ATOM     22  C   UNL A   1      34.052  36.843  32.592  1.00  0.00     0.191 C 
BRANCH  22  23
ATOM     23  O   UNL A   1      32.995  36.964  33.541  1.00  0.00    -0.394 OA
ATOM     24  H   UNL A   1      32.819  36.097  33.940  1.00  0.00     0.210 HD
ENDBRANCH  22  23
ENDBRANCH   6  22
ENDBRANCH   3   6
ENDBRANCH   1   2
BRANCH   1  25
ATOM     25  C   UNL A   1      34.312  34.547  28.026  1.00  0.00     0.023 C 
BRANCH  25  26
ATOM     26  C   UNL A   1      35.239  33.577  28.769  1.00  0.00     0.023 C 
BRANCH  26  27
ATOM     27  C   UNL A   1      34.600  32.323  29.359  1.00  0.00     0.116 C 
BRANCH  27  28
ATOM     28  N   UNL A   1      34.174  31.353  28.375  1.00  0.00    -0.352 N 
ATOM     29  C   UNL A   1      34.828  30.245  27.894  1.00  0.00     0.251 C 
ATOM     30  H   UNL A   1      33.280  31.510  27.993  1.00  0.00     0.163 HD
ATOM     31  O   UNL A   1      34.289  29.556  27.031  1.00  0.00    -0.269 OA
BRANCH  29  32
ATOM     32  C   UNL A   1      36.188  29.885  28.361  1.00  0.00     0.039 A 
ATOM     33  C   UNL A   1      37.252  30.103  27.481  1.00  0.00     0.014 A 
ATOM     34  C   UNL A   1      36.432  29.293  29.605  1.00  0.00     0.014 A 
ATOM     35  C   UNL A   1      38.554  29.760  27.853  1.00  0.00     0.010 A 
ATOM     36  C   UNL A   1      37.745  29.004  29.999  1.00  0.00     0.010 A 
ATOM     37  C   UNL A   1      38.819  29.221  29.122  1.00  0.00    -0.014 A 
BRANCH  37  38
ATOM     38  C   UNL A   1      40.218  28.876  29.498  1.00  0.00     0.031 A 
ATOM     39  C   UNL A   1      40.871  27.621  28.990  1.00  0.00     0.074 A 
ATOM     40  C   UNL A   1      40.920  29.709  30.292  1.00  0.00     0.049 A 
ATOM     41  N   UNL A   1      42.112  27.216  29.127  1.00  0.00    -0.248 NA
ATOM     42  C   UNL A   1      40.016  26.686  28.246  1.00  0.00     0.031 C 
ATOM     43  C   UNL A   1      40.394  30.927  30.906  1.00  0.00     0.029 A 
ATOM     44  N   UNL A   1      42.227  29.659  30.711  1.00  0.00    -0.354 N 
ATOM     45  C   UNL A   1      42.184  25.987  28.484  1.00  0.00     0.074 A 
ATOM     46  C   UNL A   1      40.848  25.682  28.015  1.00  0.00     0.031 C 
ATOM     47  C   UNL A   1      41.374  31.525  31.601  1.00  0.00     0.029 A 
ATOM     48  C   UNL A   1      42.593  30.725  31.496  1.00  0.00     0.049 A 
ATOM     49  H   UNL A   1      42.843  28.929  30.472  1.00  0.00     0.167 HD
ATOM     50  C   UNL A   1      43.267  25.196  28.279  1.00  0.00     0.037 A 
ATOM     51  C   UNL A   1      43.776  31.033  32.060  1.00  0.00     0.037 A 
ATOM     52  C   UNL A   1      44.596  25.493  28.751  1.00  0.00     0.049 A 
ATOM     53  C   UNL A   1      44.970  30.152  31.809  1.00  0.00     0.074 A 
ATOM     54  C   UNL A   1      45.765  24.778  28.553  1.00  0.00     0.029 A 
ATOM     55  N   UNL A   1      44.931  26.591  29.530  1.00  0.00    -0.354 N 
ATOM     56  N   UNL A   1      45.049  29.039  31.119  1.00  0.00    -0.248 NA
ATOM     57  C   UNL A   1      46.246  30.585  32.396  1.00  0.00     0.031 C 
ATOM     58  C   UNL A   1      46.795  25.414  29.258  1.00  0.00     0.029 A 
ATOM     59  C   UNL A   1      46.283  26.561  29.841  1.00  0.00     0.049 A 
ATOM     60  H   UNL A   1      44.301  27.291  29.821  1.00  0.00     0.167 HD
ATOM     61  C   UNL A   1      46.382  28.654  31.166  1.00  0.00     0.074 A 
ATOM     62  C   UNL A   1      47.080  29.662  31.938  1.00  0.00     0.031 C 
ATOM     63  C   UNL A   1      46.973  27.564  30.616  1.00  0.00     0.037 A 
BRANCH  50  64
ATOM     64  C   UNL A   1      43.046  23.921  27.512  1.00  0.00     0.064 A 
ATOM     65  C   UNL A   1      42.603  22.747  28.144  1.00  0.00     0.173 A 
ATOM     66  C   UNL A   1      43.282  23.867  26.130  1.00  0.00     0.173 A 
ATOM     67  F   UNL A   1      42.368  22.739  29.465  1.00  0.00    -0.203 F 
ATOM     68  C   UNL A   1      42.453  21.559  27.432  1.00  0.00     0.198 A 
ATOM     69  C   UNL A   1      43.097  22.687  25.415  1.00  0.00     0.198 A 
ATOM     70  F   UNL A   1      43.695  24.960  25.470  1.00  0.00    -0.203 F 
ATOM     71  F   UNL A   1      42.099  20.437  28.072  1.00  0.00    -0.200 F 
ATOM     72  C   UNL A   1      42.697  21.531  26.068  1.00  0.00     0.200 A 
ATOM     73  F   UNL A   1      43.316  22.663  24.092  1.00  0.00    -0.200 F 
ATOM     74  F   UNL A   1      42.558  20.386  25.385  1.00  0.00    -0.200 F 
ENDBRANCH  50  64
BRANCH  51  75
ATOM     75  C   UNL A   1      43.892  32.263  32.884  1.00  0.00     0.064 A 
ATOM     76  C   UNL A   1      43.712  32.225  34.274  1.00  0.00     0.173 A 
ATOM     77  C   UNL A   1      44.212  33.497  32.300  1.00  0.00     0.173 A 
ATOM     78  F   UNL A   1      43.383  31.073  34.876  1.00  0.00    -0.203 F 
ATOM     79  C   UNL A   1      43.839  33.377  35.047  1.00  0.00     0.198 A 
ATOM     80  C   UNL A   1      44.367  34.643  33.078  1.00  0.00     0.198 A 
ATOM     81  F   UNL A   1      44.398  33.585  30.976  1.00  0.00    -0.203 F 
ATOM     82  F   UNL A   1      43.627  33.321  36.370  1.00  0.00    -0.200 F 
ATOM     83  C   UNL A   1      44.175  34.583  34.450  1.00  0.00     0.200 A 
ATOM     84  F   UNL A   1      44.707  35.803  32.499  1.00  0.00    -0.200 F 
ATOM     85  F   UNL A   1      44.311  35.688  35.196  1.00  0.00    -0.200 F 
ENDBRANCH  51  75
BRANCH  63  86
ATOM     86  C   UNL A   1      48.459  27.421  30.800  1.00  0.00     0.064 A 
ATOM     87  C   UNL A   1      49.010  26.731  31.892  1.00  0.00     0.173 A 
ATOM     88  C   UNL A   1      49.346  27.975  29.864  1.00  0.00     0.173 A 
ATOM     89  F   UNL A   1      48.209  26.193  32.824  1.00  0.00    -0.203 F 
ATOM     90  C   UNL A   1      50.391  26.640  32.060  1.00  0.00     0.198 A 
ATOM     91  C   UNL A   1      50.724  27.851  30.017  1.00  0.00     0.198 A 
ATOM     92  F   UNL A   1      48.876  28.637  28.795  1.00  0.00    -0.203 F 
ATOM     93  F   UNL A   1      50.892  26.033  33.145  1.00  0.00    -0.200 F 
ATOM     94  C   UNL A   1      51.246  27.195  31.121  1.00  0.00     0.200 A 
ATOM     95  F   UNL A   1      51.550  28.375  29.100  1.00  0.00    -0.200 F 
ATOM     96  F   UNL A   1      52.573  27.108  31.286  1.00  0.00    -0.200 F 
ENDBRANCH  63  86
ENDBRANCH  37  38
ENDBRANCH  29  32
ENDBRANCH  27  28
ENDBRANCH  26  27
ENDBRANCH  25  26
ENDBRANCH   1  25
TORSDOF 17
ENDMDL
MODEL 2
REMARK VINA RESULT:     -10.2      5.061     12.048
REMARK SMILES CCS(=O)(=O)N1CCC(C(=O)N[C@H](CO)C(=O)NCCCCNC(=O)c2ccc(-c3c4nc(c(-c5c(F)c(F)c(F)c(F)c5F)c5ccc([nH]5)c(-c5c(F)c(F)c(F)c(F)c5F)c5nc(c(-c6c(F)c(F)c(F)c(F)c6F)c6ccc3[nH]6)C=C5)C=C4)cc2)CC1
REMARK SMILES IDX 19 1 18 2 16 3 17 4 13 6 12 7 10 8 11 9 9 11 6 12 7 13 90 14
REMARK SMILES IDX 8 15 89 16 3 17 4 18 5 19 2 20 1 21 14 22 15 23 20 25 21 26
REMARK SMILES IDX 22 27 23 28 24 29 25 31 26 32 27 33 88 34 28 35 87 36 29 37
REMARK SMILES IDX 30 38 31 39 81 40 32 41 86 42 80 43 82 44 33 45 85 46 79 47
REMARK SMILES IDX 78 48 34 50 66 51 46 52 65 53 47 54 50 55 64 56 83 57 48 58
REMARK SMILES IDX 49 59 63 61 84 62 51 63 35 64 36 65 44 66 37 67 38 68 42 69
REMARK SMILES IDX 45 70 39 71 40 72 43 73 41 74 67 75 68 76 76 77 69 78 70 79
REMARK SMILES IDX 74 80 77 81 71 82 72 83 75 84 73 85 52 86 53 87 61 88 54 89
REMARK SMILES IDX 55 90 59 91 62 92 56 93 57 94 60 95 58 96
REMARK H PARENT 18 5 12 10 15 24 23 30 82 49 50 60
REMARK Flexibility Score: inf
ROOT
ATOM      1  C   UNL A   1      42.853  18.785  25.844  1.00  0.00     0.116 C 
ENDROOT
BRANCH   1   2
ATOM      2  N   UNL A   1      44.260  18.490  26.057  1.00  0.00    -0.354 N 
ATOM      3  C   UNL A   1      45.321  18.796  25.257  1.00  0.00     0.244 C 
ATOM      4  O   UNL A   1      46.392  18.207  25.442  1.00  0.00    -0.273 OA
ATOM      5  H   UNL A   1      44.475  18.007  26.888  1.00  0.00     0.163 HD
BRANCH   3   6
ATOM      6  C   UNL A   1      45.174  19.691  24.026  1.00  0.00     0.197 C 
BRANCH   6   7
ATOM      7  N   UNL A   1      44.265  20.836  24.189  1.00  0.00    -0.342 N 
ATOM      8  C   UNL A   1      44.502  22.156  24.419  1.00  0.00     0.223 C 
ATOM      9  O   UNL A   1      43.585  22.922  24.096  1.00  0.00    -0.275 OA
ATOM     10  H   UNL A   1      43.310  20.605  24.117  1.00  0.00     0.164 HD
BRANCH   8  11
ATOM     11  C   UNL A   1      45.705  22.725  25.193  1.00  0.00     0.081 C 
ATOM     12  N   UNL A   1      46.764  25.372  25.778  1.00  0.00    -0.202 NA
ATOM     13  C   UNL A   1      47.422  24.647  24.670  1.00  0.00     0.103 C 
ATOM     14  C   UNL A   1      46.500  24.437  26.905  1.00  0.00     0.103 C 
ATOM     15  C   UNL A   1      46.631  23.436  24.201  1.00  0.00     0.030 C 
ATOM     16  C   UNL A   1      45.408  23.453  26.500  1.00  0.00     0.030 C 
BRANCH  12  17
ATOM     17  S   UNL A   1      47.643  26.785  26.218  1.00  0.00     0.213 S 
ATOM     18  O   UNL A   1      48.376  27.225  25.049  1.00  0.00    -0.212 OA
ATOM     19  O   UNL A   1      48.343  26.475  27.450  1.00  0.00    -0.212 OA
BRANCH  17  20
ATOM     20  C   UNL A   1      46.366  27.996  26.567  1.00  0.00     0.151 C 
ATOM     21  C   UNL A   1      45.101  27.774  25.763  1.00  0.00     0.022 C 
ENDBRANCH  17  20
ENDBRANCH  12  17
ENDBRANCH   8  11
ENDBRANCH   6   7
BRANCH   6  22
ATOM     22  C   UNL A   1      44.829  18.826  22.781  1.00  0.00     0.191 C 
BRANCH  22  23
ATOM     23  O   UNL A   1      45.939  18.416  21.986  1.00  0.00    -0.394 OA
ATOM     24  H   UNL A   1      46.496  19.185  21.787  1.00  0.00     0.210 HD
ENDBRANCH  22  23
ENDBRANCH   6  22
ENDBRANCH   3   6
ENDBRANCH   1   2
BRANCH   1  25
ATOM     25  C   UNL A   1      42.261  19.705  26.914  1.00  0.00     0.023 C 
BRANCH  25  26
ATOM     26  C   UNL A   1      41.688  21.047  26.439  1.00  0.00     0.023 C 
BRANCH  26  27
ATOM     27  C   UNL A   1      40.604  21.682  27.304  1.00  0.00     0.116 C 
BRANCH  27  28
ATOM     28  N   UNL A   1      39.394  22.022  26.589  1.00  0.00    -0.352 N 
ATOM     29  C   UNL A   1      38.791  23.244  26.415  1.00  0.00     0.251 C 
ATOM     30  H   UNL A   1      38.933  21.264  26.162  1.00  0.00     0.163 HD
ATOM     31  O   UNL A   1      37.740  23.312  25.782  1.00  0.00    -0.269 OA
BRANCH  29  32
ATOM     32  C   UNL A   1      39.356  24.479  27.011  1.00  0.00     0.039 A 
ATOM     33  C   UNL A   1      39.045  24.753  28.346  1.00  0.00     0.014 A 
ATOM     34  C   UNL A   1      40.129  25.389  26.281  1.00  0.00     0.014 A 
ATOM     35  C   UNL A   1      39.526  25.914  28.955  1.00  0.00     0.010 A 
ATOM     36  C   UNL A   1      40.659  26.522  26.910  1.00  0.00     0.010 A 
ATOM     37  C   UNL A   1      40.351  26.805  28.251  1.00  0.00    -0.014 A 
BRANCH  37  38
ATOM     38  C   UNL A   1      40.862  28.029  28.929  1.00  0.00     0.031 A 
ATOM     39  C   UNL A   1      39.942  29.170  29.265  1.00  0.00     0.074 A 
ATOM     40  C   UNL A   1      42.165  28.112  29.264  1.00  0.00     0.049 A 
ATOM     41  N   UNL A   1      40.191  30.263  29.947  1.00  0.00    -0.248 NA
ATOM     42  C   UNL A   1      38.569  29.084  28.753  1.00  0.00     0.031 C 
ATOM     43  C   UNL A   1      43.180  27.109  28.945  1.00  0.00     0.029 A 
ATOM     44  N   UNL A   1      42.854  29.080  29.954  1.00  0.00    -0.354 N 
ATOM     45  C   UNL A   1      39.006  30.988  29.949  1.00  0.00     0.074 A 
ATOM     46  C   UNL A   1      38.060  30.243  29.144  1.00  0.00     0.031 C 
ATOM     47  C   UNL A   1      44.356  27.499  29.460  1.00  0.00     0.029 A 
ATOM     48  C   UNL A   1      44.183  28.786  30.131  1.00  0.00     0.049 A 
ATOM     49  H   UNL A   1      42.435  29.906  30.288  1.00  0.00     0.167 HD
ATOM     50  C   UNL A   1      38.721  32.153  30.582  1.00  0.00     0.037 A 
ATOM     51  C   UNL A   1      45.153  29.467  30.770  1.00  0.00     0.037 A 
ATOM     52  C   UNL A   1      39.663  32.901  31.378  1.00  0.00     0.049 A 
ATOM     53  C   UNL A   1      44.816  30.750  31.479  1.00  0.00     0.074 A 
ATOM     54  C   UNL A   1      39.456  34.066  32.096  1.00  0.00     0.029 A 
ATOM     55  N   UNL A   1      40.997  32.563  31.547  1.00  0.00    -0.354 N 
ATOM     56  N   UNL A   1      43.668  31.379  31.554  1.00  0.00    -0.248 NA
ATOM     57  C   UNL A   1      45.907  31.404  32.216  1.00  0.00     0.031 C 
ATOM     58  C   UNL A   1      40.677  34.462  32.655  1.00  0.00     0.029 A 
ATOM     59  C   UNL A   1      41.632  33.509  32.340  1.00  0.00     0.049 A 
ATOM     60  H   UNL A   1      41.433  31.768  31.162  1.00  0.00     0.167 HD
ATOM     61  C   UNL A   1      43.889  32.486  32.364  1.00  0.00     0.074 A 
ATOM     62  C   UNL A   1      45.279  32.431  32.771  1.00  0.00     0.031 C 
ATOM     63  C   UNL A   1      43.018  33.455  32.737  1.00  0.00     0.037 A 
BRANCH  50  64
ATOM     64  C   UNL A   1      37.325  32.692  30.427  1.00  0.00     0.064 A 
ATOM     65  C   UNL A   1      36.980  33.553  29.371  1.00  0.00     0.173 A 
ATOM     66  C   UNL A   1      36.319  32.350  31.343  1.00  0.00     0.173 A 
ATOM     67  F   UNL A   1      37.904  33.920  28.470  1.00  0.00    -0.203 F 
ATOM     68  C   UNL A   1      35.698  34.088  29.269  1.00  0.00     0.198 A 
ATOM     69  C   UNL A   1      35.029  32.857  31.216  1.00  0.00     0.198 A 
ATOM     70  F   UNL A   1      36.587  31.521  32.364  1.00  0.00    -0.203 F 
ATOM     71  F   UNL A   1      35.416  34.963  28.295  1.00  0.00    -0.200 F 
ATOM     72  C   UNL A   1      34.723  33.736  30.189  1.00  0.00     0.200 A 
ATOM     73  F   UNL A   1      34.081  32.504  32.097  1.00  0.00    -0.200 F 
ATOM     74  F   UNL A   1      33.491  34.256  30.092  1.00  0.00    -0.200 F 
ENDBRANCH  50  64
BRANCH  51  75
ATOM     75  C   UNL A   1      46.532  28.915  30.800  1.00  0.00     0.064 A 
ATOM     76  C   UNL A   1      47.497  29.321  29.867  1.00  0.00     0.173 A 
ATOM     77  C   UNL A   1      46.919  27.989  31.779  1.00  0.00     0.173 A 
ATOM     78  F   UNL A   1      47.169  30.188  28.898  1.00  0.00    -0.203 F 
ATOM     79  C   UNL A   1      48.794  28.815  29.908  1.00  0.00     0.198 A 
ATOM     80  C   UNL A   1      48.225  27.506  31.836  1.00  0.00     0.198 A 
ATOM     81  F   UNL A   1      46.034  27.573  32.696  1.00  0.00    -0.203 F 
ATOM     82  F   UNL A   1      49.688  29.194  28.984  1.00  0.00    -0.200 F 
ATOM     83  C   UNL A   1      49.159  27.915  30.898  1.00  0.00     0.200 A 
ATOM     84  F   UNL A   1      48.578  26.648  32.803  1.00  0.00    -0.200 F 
ATOM     85  F   UNL A   1      50.412  27.440  30.945  1.00  0.00    -0.200 F 
ENDBRANCH  51  75
BRANCH  63  86
ATOM     86  C   UNL A   1      43.533  34.524  33.663  1.00  0.00     0.064 A 
ATOM     87  C   UNL A   1      43.557  34.352  35.056  1.00  0.00     0.173 A 
ATOM     88  C   UNL A   1      44.020  35.734  33.146  1.00  0.00     0.173 A 
ATOM     89  F   UNL A   1      43.092  33.220  35.605  1.00  0.00    -0.203 F 
ATOM     90  C   UNL A   1      44.007  35.369  35.897  1.00  0.00     0.198 A 
ATOM     91  C   UNL A   1      44.503  36.734  33.988  1.00  0.00     0.198 A 
ATOM     92  F   UNL A   1      44.031  35.950  31.822  1.00  0.00    -0.203 F 
ATOM     93  F   UNL A   1      43.958  35.206  37.226  1.00  0.00    -0.200 F 
ATOM     94  C   UNL A   1      44.484  36.556  35.362  1.00  0.00     0.200 A 
ATOM     95  F   UNL A   1      44.977  37.875  33.468  1.00  0.00    -0.200 F 
ATOM     96  F   UNL A   1      44.915  37.532  36.172  1.00  0.00    -0.200 F 
ENDBRANCH  63  86
ENDBRANCH  37  38
ENDBRANCH  29  32
ENDBRANCH  27  28
ENDBRANCH  26  27
ENDBRANCH  25  26
ENDBRANCH   1  25
TORSDOF 17
ENDMDL
MODEL 3
REMARK VINA RESULT:     -10.2      0.870      7.400
REMARK SMILES CCS(=O)(=O)N1CCC(C(=O)N[C@H](CO)C(=O)NCCCCNC(=O)c2ccc(-c3c4nc(c(-c5c(F)c(F)c(F)c(F)c5F)c5ccc([nH]5)c(-c5c(F)c(F)c(F)c(F)c5F)c5nc(c(-c6c(F)c(F)c(F)c(F)c6F)c6ccc3[nH]6)C=C5)C=C4)cc2)CC1
REMARK SMILES IDX 19 1 18 2 16 3 17 4 13 6 12 7 10 8 11 9 9 11 6 12 7 13 90 14
REMARK SMILES IDX 8 15 89 16 3 17 4 18 5 19 2 20 1 21 14 22 15 23 20 25 21 26
REMARK SMILES IDX 22 27 23 28 24 29 25 31 26 32 27 33 88 34 28 35 87 36 29 37
REMARK SMILES IDX 30 38 31 39 81 40 32 41 86 42 80 43 82 44 33 45 85 46 79 47
REMARK SMILES IDX 78 48 34 50 66 51 46 52 65 53 47 54 50 55 64 56 83 57 48 58
REMARK SMILES IDX 49 59 63 61 84 62 51 63 35 64 36 65 44 66 37 67 38 68 42 69
REMARK SMILES IDX 45 70 39 71 40 72 43 73 41 74 67 75 68 76 76 77 69 78 70 79
REMARK SMILES IDX 74 80 77 81 71 82 72 83 75 84 73 85 52 86 53 87 61 88 54 89
REMARK SMILES IDX 55 90 59 91 62 92 56 93 57 94 60 95 58 96
REMARK H PARENT 18 5 12 10 15 24 23 30 82 49 50 60
REMARK Flexibility Score: inf
ROOT
ATOM      1  C   UNL A   1      34.975  35.657  28.884  1.00  0.00     0.116 C 
ENDROOT
BRANCH   1   2
ATOM      2  N   UNL A   1      33.792  36.376  29.329  1.00  0.00    -0.354 N 
ATOM      3  C   UNL A   1      33.256  36.435  30.582  1.00  0.00     0.244 C 
ATOM      4  O   UNL A   1      32.095  36.838  30.711  1.00  0.00    -0.273 OA
ATOM      5  H   UNL A   1      33.316  36.887  28.635  1.00  0.00     0.163 HD
BRANCH   3   6
ATOM      6  C   UNL A   1      33.972  35.842  31.795  1.00  0.00     0.197 C 
BRANCH   6   7
ATOM      7  N   UNL A   1      33.549  34.484  32.170  1.00  0.00    -0.342 N 
ATOM      8  C   UNL A   1      34.089  33.569  33.021  1.00  0.00     0.223 C 
ATOM      9  O   UNL A   1      33.305  32.707  33.438  1.00  0.00    -0.275 OA
ATOM     10  H   UNL A   1      32.725  34.182  31.726  1.00  0.00     0.164 HD
BRANCH   8  11
ATOM     11  C   UNL A   1      35.588  33.425  33.342  1.00  0.00     0.081 C 
ATOM     12  N   UNL A   1      37.175  32.199  35.451  1.00  0.00    -0.202 NA
ATOM     13  C   UNL A   1      36.972  33.660  35.566  1.00  0.00     0.103 C 
ATOM     14  C   UNL A   1      37.459  31.839  34.036  1.00  0.00     0.103 C 
ATOM     15  C   UNL A   1      35.884  34.180  34.641  1.00  0.00     0.030 C 
ATOM     16  C   UNL A   1      36.197  32.033  33.203  1.00  0.00     0.030 C 
BRANCH  12  17
ATOM     17  S   UNL A   1      38.350  31.634  36.576  1.00  0.00     0.213 S 
ATOM     18  O   UNL A   1      39.569  31.372  35.840  1.00  0.00    -0.212 OA
ATOM     19  O   UNL A   1      37.718  30.583  37.349  1.00  0.00    -0.212 OA
BRANCH  17  20
ATOM     20  C   UNL A   1      38.635  33.046  37.646  1.00  0.00     0.151 C 
ATOM     21  C   UNL A   1      39.902  32.923  38.467  1.00  0.00     0.022 C 
ENDBRANCH  17  20
ENDBRANCH  12  17
ENDBRANCH   8  11
ENDBRANCH   6   7
BRANCH   6  22
ATOM     22  C   UNL A   1      33.906  36.838  32.987  1.00  0.00     0.191 C 
BRANCH  22  23
ATOM     23  O   UNL A   1      32.623  37.002  33.587  1.00  0.00    -0.394 OA
ATOM     24  H   UNL A   1      32.402  37.946  33.625  1.00  0.00     0.210 HD
ENDBRANCH  22  23
ENDBRANCH   6  22
ENDBRANCH   3   6
ENDBRANCH   1   2
BRANCH   1  25
ATOM     25  C   UNL A   1      34.683  34.643  27.776  1.00  0.00     0.023 C 
BRANCH  25  26
ATOM     26  C   UNL A   1      35.195  33.213  27.989  1.00  0.00     0.023 C 
BRANCH  26  27
ATOM     27  C   UNL A   1      34.380  32.317  28.917  1.00  0.00     0.116 C 
BRANCH  27  28
ATOM     28  N   UNL A   1      33.835  31.139  28.280  1.00  0.00    -0.352 N 
ATOM     29  C   UNL A   1      34.434  29.936  27.998  1.00  0.00     0.251 C 
ATOM     30  H   UNL A   1      32.891  31.210  28.006  1.00  0.00     0.163 HD
ATOM     31  O   UNL A   1      33.790  29.062  27.423  1.00  0.00    -0.269 OA
BRANCH  29  32
ATOM     32  C   UNL A   1      35.856  29.681  28.335  1.00  0.00     0.039 A 
ATOM     33  C   UNL A   1      36.798  29.831  27.314  1.00  0.00     0.014 A 
ATOM     34  C   UNL A   1      36.270  29.248  29.599  1.00  0.00     0.014 A 
ATOM     35  C   UNL A   1      38.150  29.580  27.562  1.00  0.00     0.010 A 
ATOM     36  C   UNL A   1      37.633  29.054  29.862  1.00  0.00     0.010 A 
ATOM     37  C   UNL A   1      38.586  29.203  28.842  1.00  0.00    -0.014 A 
BRANCH  37  38
ATOM     38  C   UNL A   1      40.035  28.955  29.083  1.00  0.00     0.031 A 
ATOM     39  C   UNL A   1      40.869  29.930  29.867  1.00  0.00     0.074 A 
ATOM     40  C   UNL A   1      40.607  27.831  28.608  1.00  0.00     0.049 A 
ATOM     41  N   UNL A   1      42.115  29.825  30.265  1.00  0.00    -0.248 NA
ATOM     42  C   UNL A   1      40.228  31.198  30.239  1.00  0.00     0.031 C 
ATOM     43  C   UNL A   1      39.935  26.831  27.781  1.00  0.00     0.029 A 
ATOM     44  N   UNL A   1      41.881  27.340  28.760  1.00  0.00    -0.354 N 
ATOM     45  C   UNL A   1      42.401  31.007  30.934  1.00  0.00     0.074 A 
ATOM     46  C   UNL A   1      41.222  31.841  30.832  1.00  0.00     0.031 C 
ATOM     47  C   UNL A   1      40.791  25.832  27.519  1.00  0.00     0.029 A 
ATOM     48  C   UNL A   1      42.079  26.128  28.146  1.00  0.00     0.049 A 
ATOM     49  H   UNL A   1      42.585  27.812  29.260  1.00  0.00     0.167 HD
ATOM     50  C   UNL A   1      43.532  31.358  31.597  1.00  0.00     0.037 A 
ATOM     51  C   UNL A   1      43.167  25.336  28.100  1.00  0.00     0.037 A 
ATOM     52  C   UNL A   1      44.711  30.533  31.694  1.00  0.00     0.049 A 
ATOM     53  C   UNL A   1      44.407  25.734  28.852  1.00  0.00     0.074 A 
ATOM     54  C   UNL A   1      45.887  30.781  32.381  1.00  0.00     0.029 A 
ATOM     55  N   UNL A   1      44.868  29.303  31.071  1.00  0.00    -0.354 N 
ATOM     56  N   UNL A   1      44.636  26.813  29.563  1.00  0.00    -0.248 NA
ATOM     57  C   UNL A   1      45.533  24.790  28.818  1.00  0.00     0.031 C 
ATOM     58  C   UNL A   1      46.774  29.727  32.130  1.00  0.00     0.029 A 
ATOM     59  C   UNL A   1      46.129  28.791  31.339  1.00  0.00     0.049 A 
ATOM     60  H   UNL A   1      44.184  28.858  30.519  1.00  0.00     0.167 HD
ATOM     61  C   UNL A   1      45.917  26.667  30.079  1.00  0.00     0.074 A 
ATOM     62  C   UNL A   1      46.408  25.385  29.615  1.00  0.00     0.031 C 
ATOM     63  C   UNL A   1      46.618  27.517  30.869  1.00  0.00     0.037 A 
BRANCH  50  64
ATOM     64  C   UNL A   1      43.544  32.707  32.263  1.00  0.00     0.064 A 
ATOM     65  C   UNL A   1      44.005  33.855  31.596  1.00  0.00     0.173 A 
ATOM     66  C   UNL A   1      43.092  32.858  33.583  1.00  0.00     0.173 A 
ATOM     67  F   UNL A   1      44.455  33.768  30.334  1.00  0.00    -0.203 F 
ATOM     68  C   UNL A   1      44.060  35.088  32.241  1.00  0.00     0.198 A 
ATOM     69  C   UNL A   1      43.115  34.099  34.212  1.00  0.00     0.198 A 
ATOM     70  F   UNL A   1      42.629  31.799  34.265  1.00  0.00    -0.203 F 
ATOM     71  F   UNL A   1      44.571  36.151  31.607  1.00  0.00    -0.200 F 
ATOM     72  C   UNL A   1      43.612  35.210  33.547  1.00  0.00     0.200 A 
ATOM     73  F   UNL A   1      42.666  34.221  35.470  1.00  0.00    -0.200 F 
ATOM     74  F   UNL A   1      43.670  36.396  34.169  1.00  0.00    -0.200 F 
ENDBRANCH  50  64
BRANCH  51  75
ATOM     75  C   UNL A   1      43.108  24.060  27.341  1.00  0.00     0.064 A 
ATOM     76  C   UNL A   1      43.514  23.993  26.001  1.00  0.00     0.173 A 
ATOM     77  C   UNL A   1      42.668  22.876  27.951  1.00  0.00     0.173 A 
ATOM     78  F   UNL A   1      43.922  25.103  25.368  1.00  0.00    -0.203 F 
ATOM     79  C   UNL A   1      43.475  22.792  25.297  1.00  0.00     0.198 A 
ATOM     80  C   UNL A   1      42.656  21.670  27.254  1.00  0.00     0.198 A 
ATOM     81  F   UNL A   1      42.273  22.888  29.231  1.00  0.00    -0.203 F 
ATOM     82  F   UNL A   1      43.836  22.761  24.007  1.00  0.00    -0.200 F 
ATOM     83  C   UNL A   1      43.054  21.630  25.926  1.00  0.00     0.200 A 
ATOM     84  F   UNL A   1      42.264  20.547  27.870  1.00  0.00    -0.200 F 
ATOM     85  F   UNL A   1      43.030  20.472  25.252  1.00  0.00    -0.200 F 
ENDBRANCH  51  75
BRANCH  63  86
ATOM     86  C   UNL A   1      47.986  27.074  31.313  1.00  0.00     0.064 A 
ATOM     87  C   UNL A   1      48.175  26.272  32.449  1.00  0.00     0.173 A 
ATOM     88  C   UNL A   1      49.124  27.450  30.582  1.00  0.00     0.173 A 
ATOM     89  F   UNL A   1      47.124  25.894  33.192  1.00  0.00    -0.203 F 
ATOM     90  C   UNL A   1      49.454  25.901  32.861  1.00  0.00     0.198 A 
ATOM     91  C   UNL A   1      50.397  27.048  30.976  1.00  0.00     0.198 A 
ATOM     92  F   UNL A   1      49.002  28.208  29.482  1.00  0.00    -0.203 F 
ATOM     93  F   UNL A   1      49.613  25.191  33.986  1.00  0.00    -0.200 F 
ATOM     94  C   UNL A   1      50.563  26.285  32.121  1.00  0.00     0.200 A 
ATOM     95  F   UNL A   1      51.467  27.407  30.253  1.00  0.00    -0.200 F 
ATOM     96  F   UNL A   1      51.792  25.928  32.520  1.00  0.00    -0.200 F 
ENDBRANCH  63  86
ENDBRANCH  37  38
ENDBRANCH  29  32
ENDBRANCH  27  28
ENDBRANCH  26  27
ENDBRANCH  25  26
ENDBRANCH   1  25
TORSDOF 17
ENDMDL
