MODEL 1
REMARK VINA RESULT:     -11.5      0.000      0.000
REMARK SMILES CC[N@@H+]1CCO[C@@H](Cn2cc(C(=O)NCCCCNC(=O)c3ccc(-c4c5nc(c(-c6c(F)c(F)c(F)c(F)c6F)c6ccc([nH]6)c(-c6c(F)c(F)c(F)c(F)c6F)c6nc(c(-c7c(F)c(F)c(F)c(F)c7F)c7ccc4[nH]7)C=C6)C=C5)cc3)nn2)C1
REMARK SMILES IDX 16 1 15 2 14 3 12 4 13 5 11 7 9 8 10 9 86 10 85 11 8 12 7 13
REMARK SMILES IDX 3 14 4 15 87 16 5 18 6 19 2 20 1 21 17 22 18 23 19 24 20 25
REMARK SMILES IDX 21 27 22 28 23 29 84 30 24 31 83 32 25 33 26 34 27 35 77 36
REMARK SMILES IDX 28 37 82 38 76 39 78 40 29 41 81 42 75 43 74 44 30 46 62 47
REMARK SMILES IDX 42 48 61 49 43 50 46 51 60 52 79 53 44 54 45 55 59 57 80 58
REMARK SMILES IDX 47 59 31 60 32 61 40 62 33 63 34 64 38 65 41 66 35 67 36 68
REMARK SMILES IDX 39 69 37 70 63 71 64 72 72 73 65 74 66 75 70 76 73 77 67 78
REMARK SMILES IDX 68 79 71 80 69 81 48 82 49 83 57 84 50 85 51 86 55 87 58 88
REMARK SMILES IDX 52 89 53 90 56 91 54 92
REMARK H PARENT 14 6 3 17 19 26 78 45 46 56
REMARK Flexibility Score: inf
ROOT
ATOM      1  C   UNL A   1      40.846  20.844  26.704  1.00  0.00     0.023 C 
ENDROOT
BRANCH   1   2
ATOM      2  C   UNL A   1      39.490  21.260  26.128  1.00  0.00     0.116 C 
BRANCH   2   3
ATOM      3  N   UNL A   1      39.191  22.649  26.406  1.00  0.00    -0.351 N 
ATOM      4  C   UNL A   1      38.099  23.436  26.114  1.00  0.00     0.273 C 
ATOM      5  O   UNL A   1      38.117  24.577  26.578  1.00  0.00    -0.267 OA
ATOM      6  H   UNL A   1      39.904  23.120  26.897  1.00  0.00     0.163 HD
BRANCH   4   7
ATOM      7  C   UNL A   1      36.966  22.934  25.341  1.00  0.00     0.170 A 
ATOM      8  N   UNL A   1      35.085  22.168  24.572  1.00  0.00    -0.249 N 
ATOM      9  C   UNL A   1      35.836  22.229  25.711  1.00  0.00     0.145 A 
ATOM     10  N   UNL A   1      35.750  22.668  23.523  1.00  0.00    -0.067 NA
ATOM     11  N   UNL A   1      36.903  23.137  23.976  1.00  0.00    -0.125 NA
BRANCH   8  12
ATOM     12  C   UNL A   1      33.688  21.823  24.448  1.00  0.00     0.184 C 
BRANCH  12  13
ATOM     13  C   UNL A   1      32.764  22.932  24.965  1.00  0.00     0.194 C 
ATOM     14  N   UNL A   1      30.480  23.972  24.751  1.00  0.00    -0.331 N 
ATOM     15  C   UNL A   1      30.378  23.880  26.213  1.00  0.00     0.291 C 
ATOM     16  C   UNL A   1      31.400  22.943  24.241  1.00  0.00     0.296 C 
ATOM     17  H   UNL A   1      29.546  23.769  24.398  1.00  0.00     0.348 HD
ATOM     18  C   UNL A   1      31.730  23.749  26.942  1.00  0.00     0.222 C 
ATOM     19  O   UNL A   1      32.568  22.729  26.379  1.00  0.00    -0.365 OA
BRANCH  14  20
ATOM     20  C   UNL A   1      30.665  25.307  24.177  1.00  0.00     0.258 C 
ATOM     21  C   UNL A   1      29.503  26.293  24.200  1.00  0.00     0.071 C 
ENDBRANCH  14  20
ENDBRANCH  12  13
ENDBRANCH   8  12
ENDBRANCH   4   7
ENDBRANCH   2   3
ENDBRANCH   1   2
BRANCH   1  22
ATOM     22  C   UNL A   1      41.408  19.524  26.154  1.00  0.00     0.023 C 
BRANCH  22  23
ATOM     23  C   UNL A   1      42.856  19.231  26.538  1.00  0.00     0.116 C 
BRANCH  23  24
ATOM     24  N   UNL A   1      43.723  19.009  25.383  1.00  0.00    -0.352 N 
ATOM     25  C   UNL A   1      44.208  19.962  24.501  1.00  0.00     0.251 C 
ATOM     26  H   UNL A   1      43.996  18.079  25.213  1.00  0.00     0.163 HD
ATOM     27  O   UNL A   1      44.578  19.668  23.380  1.00  0.00    -0.269 OA
BRANCH  25  28
ATOM     28  C   UNL A   1      44.287  21.355  24.972  1.00  0.00     0.039 A 
ATOM     29  C   UNL A   1      43.332  22.304  24.602  1.00  0.00     0.014 A 
ATOM     30  C   UNL A   1      45.317  21.669  25.854  1.00  0.00     0.014 A 
ATOM     31  C   UNL A   1      43.368  23.559  25.207  1.00  0.00     0.010 A 
ATOM     32  C   UNL A   1      45.278  22.856  26.540  1.00  0.00     0.010 A 
ATOM     33  C   UNL A   1      44.329  23.818  26.198  1.00  0.00    -0.014 A 
BRANCH  33  34
ATOM     34  C   UNL A   1      44.247  25.028  27.016  1.00  0.00     0.031 A 
ATOM     35  C   UNL A   1      45.309  26.033  26.716  1.00  0.00     0.074 A 
ATOM     36  C   UNL A   1      43.164  25.310  27.775  1.00  0.00     0.049 A 
ATOM     37  N   UNL A   1      46.219  26.486  27.514  1.00  0.00    -0.248 NA
ATOM     38  C   UNL A   1      45.468  26.497  25.326  1.00  0.00     0.031 C 
ATOM     39  C   UNL A   1      41.929  24.521  27.885  1.00  0.00     0.029 A 
ATOM     40  N   UNL A   1      42.870  26.419  28.516  1.00  0.00    -0.354 N 
ATOM     41  C   UNL A   1      46.924  27.450  26.790  1.00  0.00     0.074 A 
ATOM     42  C   UNL A   1      46.550  27.274  25.416  1.00  0.00     0.031 C 
ATOM     43  C   UNL A   1      40.949  25.276  28.424  1.00  0.00     0.029 A 
ATOM     44  C   UNL A   1      41.527  26.530  28.864  1.00  0.00     0.049 A 
ATOM     45  H   UNL A   1      43.550  27.081  28.781  1.00  0.00     0.167 HD
ATOM     46  C   UNL A   1      47.513  28.496  27.437  1.00  0.00     0.037 A 
ATOM     47  C   UNL A   1      40.919  27.579  29.469  1.00  0.00     0.037 A 
ATOM     48  C   UNL A   1      47.596  28.218  28.850  1.00  0.00     0.049 A 
ATOM     49  C   UNL A   1      41.970  28.370  30.141  1.00  0.00     0.074 A 
ATOM     50  C   UNL A   1      48.340  27.404  29.671  1.00  0.00     0.029 A 
ATOM     51  N   UNL A   1      46.477  28.593  29.543  1.00  0.00    -0.354 N 
ATOM     52  N   UNL A   1      42.660  27.928  31.155  1.00  0.00    -0.248 NA
ATOM     53  C   UNL A   1      42.534  29.528  29.458  1.00  0.00     0.031 C 
ATOM     54  C   UNL A   1      47.515  27.137  30.807  1.00  0.00     0.029 A 
ATOM     55  C   UNL A   1      46.317  27.839  30.670  1.00  0.00     0.049 A 
ATOM     56  H   UNL A   1      45.866  29.315  29.266  1.00  0.00     0.167 HD
ATOM     57  C   UNL A   1      43.924  28.450  30.961  1.00  0.00     0.074 A 
ATOM     58  C   UNL A   1      43.741  29.557  30.029  1.00  0.00     0.031 C 
ATOM     59  C   UNL A   1      45.028  27.729  31.313  1.00  0.00     0.037 A 
BRANCH  46  60
ATOM     60  C   UNL A   1      47.508  29.941  26.950  1.00  0.00     0.064 A 
ATOM     61  C   UNL A   1      48.689  30.705  27.103  1.00  0.00     0.173 A 
ATOM     62  C   UNL A   1      46.343  30.692  26.689  1.00  0.00     0.173 A 
ATOM     63  F   UNL A   1      49.865  30.107  27.353  1.00  0.00    -0.203 F 
ATOM     64  C   UNL A   1      48.677  32.105  27.106  1.00  0.00     0.198 A 
ATOM     65  C   UNL A   1      46.344  32.088  26.648  1.00  0.00     0.198 A 
ATOM     66  F   UNL A   1      45.137  30.131  26.569  1.00  0.00    -0.203 F 
ATOM     67  F   UNL A   1      49.798  32.781  27.392  1.00  0.00    -0.200 F 
ATOM     68  C   UNL A   1      47.500  32.795  26.893  1.00  0.00     0.200 A 
ATOM     69  F   UNL A   1      45.187  32.739  26.457  1.00  0.00    -0.200 F 
ATOM     70  F   UNL A   1      47.468  34.132  26.968  1.00  0.00    -0.200 F 
ENDBRANCH  46  60
BRANCH  47  71
ATOM     71  C   UNL A   1      39.525  28.061  29.329  1.00  0.00     0.064 A 
ATOM     72  C   UNL A   1      38.670  28.177  30.436  1.00  0.00     0.173 A 
ATOM     73  C   UNL A   1      39.098  28.680  28.138  1.00  0.00     0.173 A 
ATOM     74  F   UNL A   1      39.022  27.651  31.618  1.00  0.00    -0.203 F 
ATOM     75  C   UNL A   1      37.469  28.893  30.363  1.00  0.00     0.198 A 
ATOM     76  C   UNL A   1      37.900  29.393  28.066  1.00  0.00     0.198 A 
ATOM     77  F   UNL A   1      39.883  28.684  27.051  1.00  0.00    -0.203 F 
ATOM     78  F   UNL A   1      36.706  29.034  31.456  1.00  0.00    -0.200 F 
ATOM     79  C   UNL A   1      37.092  29.512  29.182  1.00  0.00     0.200 A 
ATOM     80  F   UNL A   1      37.567  30.018  26.929  1.00  0.00    -0.200 F 
ATOM     81  F   UNL A   1      35.975  30.251  29.130  1.00  0.00    -0.200 F 
ENDBRANCH  47  71
BRANCH  59  82
ATOM     82  C   UNL A   1      44.843  26.638  32.322  1.00  0.00     0.064 A 
ATOM     83  C   UNL A   1      44.642  25.285  32.007  1.00  0.00     0.173 A 
ATOM     84  C   UNL A   1      44.963  26.977  33.676  1.00  0.00     0.173 A 
ATOM     85  F   UNL A   1      44.599  24.870  30.735  1.00  0.00    -0.203 F 
ATOM     86  C   UNL A   1      44.526  24.322  33.008  1.00  0.00     0.198 A 
ATOM     87  C   UNL A   1      44.886  26.011  34.671  1.00  0.00     0.198 A 
ATOM     88  F   UNL A   1      45.200  28.250  34.029  1.00  0.00    -0.203 F 
ATOM     89  F   UNL A   1      44.316  23.038  32.685  1.00  0.00    -0.200 F 
ATOM     90  C   UNL A   1      44.656  24.686  34.339  1.00  0.00     0.200 A 
ATOM     91  F   UNL A   1      45.058  26.361  35.953  1.00  0.00    -0.200 F 
ATOM     92  F   UNL A   1      44.581  23.756  35.301  1.00  0.00    -0.200 F 
ENDBRANCH  59  82
ENDBRANCH  33  34
ENDBRANCH  25  28
ENDBRANCH  23  24
ENDBRANCH  22  23
ENDBRANCH   1  22
TORSDOF 14
ENDMDL
MODEL 2
REMARK VINA RESULT:     -11.4      5.073     11.003
REMARK SMILES CC[N@@H+]1CCO[C@@H](Cn2cc(C(=O)NCCCCNC(=O)c3ccc(-c4c5nc(c(-c6c(F)c(F)c(F)c(F)c6F)c6ccc([nH]6)c(-c6c(F)c(F)c(F)c(F)c6F)c6nc(c(-c7c(F)c(F)c(F)c(F)c7F)c7ccc4[nH]7)C=C6)C=C5)cc3)nn2)C1
REMARK SMILES IDX 16 1 15 2 14 3 12 4 13 5 11 7 9 8 10 9 86 10 85 11 8 12 7 13
REMARK SMILES IDX 3 14 4 15 87 16 5 18 6 19 2 20 1 21 17 22 18 23 19 24 20 25
REMARK SMILES IDX 21 27 22 28 23 29 84 30 24 31 83 32 25 33 26 34 27 35 77 36
REMARK SMILES IDX 28 37 82 38 76 39 78 40 29 41 81 42 75 43 74 44 30 46 62 47
REMARK SMILES IDX 42 48 61 49 43 50 46 51 60 52 79 53 44 54 45 55 59 57 80 58
REMARK SMILES IDX 47 59 31 60 32 61 40 62 33 63 34 64 38 65 41 66 35 67 36 68
REMARK SMILES IDX 39 69 37 70 63 71 64 72 72 73 65 74 66 75 70 76 73 77 67 78
REMARK SMILES IDX 68 79 71 80 69 81 48 82 49 83 57 84 50 85 51 86 55 87 58 88
REMARK SMILES IDX 52 89 53 90 56 91 54 92
REMARK H PARENT 14 6 3 17 19 26 78 45 46 56
REMARK Flexibility Score: inf
ROOT
ATOM      1  C   UNL A   1      34.365  35.374  28.090  1.00  0.00     0.023 C 
ENDROOT
BRANCH   1   2
ATOM      2  C   UNL A   1      33.101  35.251  28.945  1.00  0.00     0.116 C 
BRANCH   2   3
ATOM      3  N   UNL A   1      32.861  36.447  29.725  1.00  0.00    -0.351 N 
ATOM      4  C   UNL A   1      33.097  36.750  31.048  1.00  0.00     0.273 C 
ATOM      5  O   UNL A   1      32.856  37.910  31.386  1.00  0.00    -0.267 OA
ATOM      6  H   UNL A   1      32.452  37.182  29.213  1.00  0.00     0.163 HD
BRANCH   4   7
ATOM      7  C   UNL A   1      33.643  35.770  31.984  1.00  0.00     0.170 A 
ATOM      8  N   UNL A   1      34.716  34.634  33.490  1.00  0.00    -0.249 N 
ATOM      9  C   UNL A   1      34.839  35.722  32.674  1.00  0.00     0.145 A 
ATOM     10  N   UNL A   1      33.590  33.958  33.234  1.00  0.00    -0.067 NA
ATOM     11  N   UNL A   1      32.924  34.637  32.312  1.00  0.00    -0.125 NA
BRANCH   8  12
ATOM     12  C   UNL A   1      35.526  34.289  34.636  1.00  0.00     0.184 C 
BRANCH  12  13
ATOM     13  C   UNL A   1      36.847  33.621  34.239  1.00  0.00     0.194 C 
ATOM     14  N   UNL A   1      39.326  33.546  34.675  1.00  0.00    -0.331 N 
ATOM     15  C   UNL A   1      39.190  32.088  34.792  1.00  0.00     0.291 C 
ATOM     16  C   UNL A   1      38.053  34.202  35.010  1.00  0.00     0.296 C 
ATOM     17  H   UNL A   1      40.017  33.813  35.376  1.00  0.00     0.348 HD
ATOM     18  C   UNL A   1      37.927  31.508  34.127  1.00  0.00     0.222 C 
ATOM     19  O   UNL A   1      36.731  32.208  34.501  1.00  0.00    -0.365 OA
BRANCH  14  20
ATOM     20  C   UNL A   1      39.992  34.060  33.477  1.00  0.00     0.258 C 
ATOM     21  C   UNL A   1      40.993  33.173  32.744  1.00  0.00     0.071 C 
ENDBRANCH  14  20
ENDBRANCH  12  13
ENDBRANCH   8  12
ENDBRANCH   4   7
ENDBRANCH   2   3
ENDBRANCH   1   2
BRANCH   1  22
ATOM     22  C   UNL A   1      35.432  34.299  28.350  1.00  0.00     0.023 C 
BRANCH  22  23
ATOM     23  C   UNL A   1      34.884  32.931  28.747  1.00  0.00     0.116 C 
BRANCH  23  24
ATOM     24  N   UNL A   1      34.688  32.787  30.188  1.00  0.00    -0.352 N 
ATOM     25  C   UNL A   1      35.321  31.893  31.037  1.00  0.00     0.251 C 
ATOM     26  H   UNL A   1      34.035  33.394  30.603  1.00  0.00     0.163 HD
ATOM     27  O   UNL A   1      34.837  31.572  32.105  1.00  0.00    -0.269 OA
BRANCH  25  28
ATOM     28  C   UNL A   1      36.626  31.355  30.616  1.00  0.00     0.039 A 
ATOM     29  C   UNL A   1      37.740  32.183  30.460  1.00  0.00     0.014 A 
ATOM     30  C   UNL A   1      36.717  29.977  30.442  1.00  0.00     0.014 A 
ATOM     31  C   UNL A   1      38.979  31.595  30.219  1.00  0.00     0.010 A 
ATOM     32  C   UNL A   1      37.953  29.393  30.330  1.00  0.00     0.010 A 
ATOM     33  C   UNL A   1      39.083  30.195  30.183  1.00  0.00    -0.014 A 
BRANCH  33  34
ATOM     34  C   UNL A   1      40.394  29.545  30.172  1.00  0.00     0.031 A 
ATOM     35  C   UNL A   1      40.988  29.363  31.530  1.00  0.00     0.074 A 
ATOM     36  C   UNL A   1      40.887  28.938  29.069  1.00  0.00     0.049 A 
ATOM     37  N   UNL A   1      42.094  29.855  31.983  1.00  0.00    -0.248 NA
ATOM     38  C   UNL A   1      40.197  28.661  32.557  1.00  0.00     0.031 C 
ATOM     39  C   UNL A   1      40.224  28.796  27.766  1.00  0.00     0.029 A 
ATOM     40  N   UNL A   1      42.028  28.207  28.900  1.00  0.00    -0.354 N 
ATOM     41  C   UNL A   1      42.245  29.345  33.274  1.00  0.00     0.074 A 
ATOM     42  C   UNL A   1      40.973  28.786  33.636  1.00  0.00     0.031 C 
ATOM     43  C   UNL A   1      40.838  27.836  27.042  1.00  0.00     0.029 A 
ATOM     44  C   UNL A   1      42.038  27.429  27.746  1.00  0.00     0.049 A 
ATOM     45  H   UNL A   1      42.778  28.231  29.538  1.00  0.00     0.167 HD
ATOM     46  C   UNL A   1      43.491  29.162  33.796  1.00  0.00     0.037 A 
ATOM     47  C   UNL A   1      42.961  26.505  27.385  1.00  0.00     0.037 A 
ATOM     48  C   UNL A   1      44.463  29.885  33.015  1.00  0.00     0.049 A 
ATOM     49  C   UNL A   1      44.194  26.796  28.144  1.00  0.00     0.074 A 
ATOM     50  C   UNL A   1      44.828  31.198  32.828  1.00  0.00     0.029 A 
ATOM     51  N   UNL A   1      44.949  29.167  31.955  1.00  0.00    -0.354 N 
ATOM     52  N   UNL A   1      44.908  27.872  27.964  1.00  0.00    -0.248 NA
ATOM     53  C   UNL A   1      44.453  26.074  29.384  1.00  0.00     0.031 C 
ATOM     54  C   UNL A   1      45.368  31.270  31.507  1.00  0.00     0.029 A 
ATOM     55  C   UNL A   1      45.367  29.991  30.950  1.00  0.00     0.049 A 
ATOM     56  H   UNL A   1      44.993  28.184  31.922  1.00  0.00     0.167 HD
ATOM     57  C   UNL A   1      45.360  28.196  29.228  1.00  0.00     0.074 A 
ATOM     58  C   UNL A   1      45.212  26.976  30.012  1.00  0.00     0.031 C 
ATOM     59  C   UNL A   1      45.496  29.504  29.596  1.00  0.00     0.037 A 
BRANCH  46  60
ATOM     60  C   UNL A   1      43.929  27.954  34.618  1.00  0.00     0.064 A 
ATOM     61  C   UNL A   1      43.702  26.663  34.086  1.00  0.00     0.173 A 
ATOM     62  C   UNL A   1      44.211  27.988  35.999  1.00  0.00     0.173 A 
ATOM     63  F   UNL A   1      43.426  26.497  32.783  1.00  0.00    -0.203 F 
ATOM     64  C   UNL A   1      43.652  25.522  34.895  1.00  0.00     0.198 A 
ATOM     65  C   UNL A   1      44.204  26.840  36.795  1.00  0.00     0.198 A 
ATOM     66  F   UNL A   1      44.399  29.129  36.668  1.00  0.00    -0.203 F 
ATOM     67  F   UNL A   1      43.298  24.343  34.364  1.00  0.00    -0.200 F 
ATOM     68  C   UNL A   1      43.888  25.614  36.252  1.00  0.00     0.200 A 
ATOM     69  F   UNL A   1      44.419  26.955  38.114  1.00  0.00    -0.200 F 
ATOM     70  F   UNL A   1      43.769  24.540  37.042  1.00  0.00    -0.200 F 
ENDBRANCH  46  60
BRANCH  47  71
ATOM     71  C   UNL A   1      42.785  25.266  26.593  1.00  0.00     0.064 A 
ATOM     72  C   UNL A   1      43.610  24.967  25.497  1.00  0.00     0.173 A 
ATOM     73  C   UNL A   1      41.976  24.217  27.075  1.00  0.00     0.173 A 
ATOM     74  F   UNL A   1      44.439  25.898  25.005  1.00  0.00    -0.203 F 
ATOM     75  C   UNL A   1      43.643  23.687  24.931  1.00  0.00     0.198 A 
ATOM     76  C   UNL A   1      42.010  22.942  26.509  1.00  0.00     0.198 A 
ATOM     77  F   UNL A   1      41.212  24.389  28.163  1.00  0.00    -0.203 F 
ATOM     78  F   UNL A   1      44.486  23.422  23.924  1.00  0.00    -0.200 F 
ATOM     79  C   UNL A   1      42.853  22.672  25.447  1.00  0.00     0.200 A 
ATOM     80  F   UNL A   1      41.269  21.960  27.042  1.00  0.00    -0.200 F 
ATOM     81  F   UNL A   1      42.932  21.431  24.948  1.00  0.00    -0.200 F 
ENDBRANCH  47  71
BRANCH  59  82
ATOM     82  C   UNL A   1      45.624  30.516  28.499  1.00  0.00     0.064 A 
ATOM     83  C   UNL A   1      44.547  31.198  27.913  1.00  0.00     0.173 A 
ATOM     84  C   UNL A   1      46.916  30.870  28.088  1.00  0.00     0.173 A 
ATOM     85  F   UNL A   1      43.288  30.976  28.311  1.00  0.00    -0.203 F 
ATOM     86  C   UNL A   1      44.755  32.163  26.929  1.00  0.00     0.198 A 
ATOM     87  C   UNL A   1      47.124  31.859  27.135  1.00  0.00     0.198 A 
ATOM     88  F   UNL A   1      47.983  30.279  28.650  1.00  0.00    -0.203 F 
ATOM     89  F   UNL A   1      43.710  32.789  26.369  1.00  0.00    -0.200 F 
ATOM     90  C   UNL A   1      46.045  32.497  26.546  1.00  0.00     0.200 A 
ATOM     91  F   UNL A   1      48.374  32.210  26.803  1.00  0.00    -0.200 F 
ATOM     92  F   UNL A   1      46.248  33.450  25.627  1.00  0.00    -0.200 F 
ENDBRANCH  59  82
ENDBRANCH  33  34
ENDBRANCH  25  28
ENDBRANCH  23  24
ENDBRANCH  22  23
ENDBRANCH   1  22
TORSDOF 14
ENDMDL
MODEL 3
REMARK VINA RESULT:     -11.4      4.917     10.919
REMARK SMILES CC[N@@H+]1CCO[C@@H](Cn2cc(C(=O)NCCCCNC(=O)c3ccc(-c4c5nc(c(-c6c(F)c(F)c(F)c(F)c6F)c6ccc([nH]6)c(-c6c(F)c(F)c(F)c(F)c6F)c6nc(c(-c7c(F)c(F)c(F)c(F)c7F)c7ccc4[nH]7)C=C6)C=C5)cc3)nn2)C1
REMARK SMILES IDX 16 1 15 2 14 3 12 4 13 5 11 7 9 8 10 9 86 10 85 11 8 12 7 13
REMARK SMILES IDX 3 14 4 15 87 16 5 18 6 19 2 20 1 21 17 22 18 23 19 24 20 25
REMARK SMILES IDX 21 27 22 28 23 29 84 30 24 31 83 32 25 33 26 34 27 35 77 36
REMARK SMILES IDX 28 37 82 38 76 39 78 40 29 41 81 42 75 43 74 44 30 46 62 47
REMARK SMILES IDX 42 48 61 49 43 50 46 51 60 52 79 53 44 54 45 55 59 57 80 58
REMARK SMILES IDX 47 59 31 60 32 61 40 62 33 63 34 64 38 65 41 66 35 67 36 68
REMARK SMILES IDX 39 69 37 70 63 71 64 72 72 73 65 74 66 75 70 76 73 77 67 78
REMARK SMILES IDX 68 79 71 80 69 81 48 82 49 83 57 84 50 85 51 86 55 87 58 88
REMARK SMILES IDX 52 89 53 90 56 91 54 92
REMARK H PARENT 14 6 3 17 19 26 78 45 46 56
REMARK Flexibility Score: inf
ROOT
ATOM      1  C   UNL A   1      34.295  35.893  28.518  1.00  0.00     0.023 C 
ENDROOT
BRANCH   1   2
ATOM      2  C   UNL A   1      32.909  36.004  29.158  1.00  0.00     0.116 C 
BRANCH   2   3
ATOM      3  N   UNL A   1      32.866  37.038  30.171  1.00  0.00    -0.351 N 
ATOM      4  C   UNL A   1      33.227  37.045  31.500  1.00  0.00     0.273 C 
ATOM      5  O   UNL A   1      33.148  38.132  32.075  1.00  0.00    -0.267 OA
ATOM      6  H   UNL A   1      32.512  37.899  29.848  1.00  0.00     0.163 HD
BRANCH   4   7
ATOM      7  C   UNL A   1      33.718  35.847  32.177  1.00  0.00     0.170 A 
ATOM      8  N   UNL A   1      34.726  34.337  33.367  1.00  0.00    -0.249 N 
ATOM      9  C   UNL A   1      34.910  35.575  32.822  1.00  0.00     0.145 A 
ATOM     10  N   UNL A   1      33.563  33.801  32.978  1.00  0.00    -0.067 NA
ATOM     11  N   UNL A   1      32.936  34.710  32.247  1.00  0.00    -0.125 NA
BRANCH   8  12
ATOM     12  C   UNL A   1      35.516  33.693  34.391  1.00  0.00     0.184 C 
BRANCH  12  13
ATOM     13  C   UNL A   1      36.809  33.083  33.836  1.00  0.00     0.194 C 
ATOM     14  N   UNL A   1      39.268  33.468  33.460  1.00  0.00    -0.331 N 
ATOM     15  C   UNL A   1      39.497  32.159  34.085  1.00  0.00     0.291 C 
ATOM     16  C   UNL A   1      38.008  34.049  33.948  1.00  0.00     0.296 C 
ATOM     17  H   UNL A   1      40.036  34.060  33.775  1.00  0.00     0.348 HD
ATOM     18  C   UNL A   1      38.270  31.226  34.086  1.00  0.00     0.222 C 
ATOM     19  O   UNL A   1      37.083  31.872  34.569  1.00  0.00    -0.365 OA
BRANCH  14  20
ATOM     20  C   UNL A   1      39.475  33.562  32.013  1.00  0.00     0.258 C 
ATOM     21  C   UNL A   1      40.747  32.981  31.404  1.00  0.00     0.071 C 
ENDBRANCH  14  20
ENDBRANCH  12  13
ENDBRANCH   8  12
ENDBRANCH   4   7
ENDBRANCH   2   3
ENDBRANCH   1   2
BRANCH   1  22
ATOM     22  C   UNL A   1      35.139  34.702  29.001  1.00  0.00     0.023 C 
BRANCH  22  23
ATOM     23  C   UNL A   1      35.351  33.602  27.964  1.00  0.00     0.116 C 
BRANCH  23  24
ATOM     24  N   UNL A   1      34.523  32.421  28.202  1.00  0.00    -0.352 N 
ATOM     25  C   UNL A   1      34.892  31.093  28.060  1.00  0.00     0.251 C 
ATOM     26  H   UNL A   1      33.599  32.587  28.498  1.00  0.00     0.163 HD
ATOM     27  O   UNL A   1      34.069  30.213  27.893  1.00  0.00    -0.269 OA
BRANCH  25  28
ATOM     28  C   UNL A   1      36.327  30.768  28.142  1.00  0.00     0.039 A 
ATOM     29  C   UNL A   1      37.203  31.529  28.920  1.00  0.00     0.014 A 
ATOM     30  C   UNL A   1      36.760  29.634  27.462  1.00  0.00     0.014 A 
ATOM     31  C   UNL A   1      38.510  31.078  29.086  1.00  0.00     0.010 A 
ATOM     32  C   UNL A   1      38.006  29.125  27.726  1.00  0.00     0.010 A 
ATOM     33  C   UNL A   1      38.898  29.858  28.507  1.00  0.00    -0.014 A 
BRANCH  33  34
ATOM     34  C   UNL A   1      40.177  29.242  28.857  1.00  0.00     0.031 A 
ATOM     35  C   UNL A   1      40.339  28.973  30.316  1.00  0.00     0.074 A 
ATOM     36  C   UNL A   1      41.009  28.729  27.921  1.00  0.00     0.049 A 
ATOM     37  N   UNL A   1      41.232  29.455  31.116  1.00  0.00    -0.248 NA
ATOM     38  C   UNL A   1      39.306  28.178  31.006  1.00  0.00     0.031 C 
ATOM     39  C   UNL A   1      40.779  28.670  26.471  1.00  0.00     0.029 A 
ATOM     40  N   UNL A   1      42.178  28.040  28.062  1.00  0.00    -0.354 N 
ATOM     41  C   UNL A   1      41.007  28.854  32.357  1.00  0.00     0.074 A 
ATOM     42  C   UNL A   1      39.712  28.241  32.276  1.00  0.00     0.031 C 
ATOM     43  C   UNL A   1      41.626  27.781  25.909  1.00  0.00     0.029 A 
ATOM     44  C   UNL A   1      42.573  27.350  26.919  1.00  0.00     0.049 A 
ATOM     45  H   UNL A   1      42.697  28.033  28.899  1.00  0.00     0.167 HD
ATOM     46  C   UNL A   1      42.043  28.662  33.222  1.00  0.00     0.037 A 
ATOM     47  C   UNL A   1      43.602  26.476  26.800  1.00  0.00     0.037 A 
ATOM     48  C   UNL A   1      43.173  29.463  32.823  1.00  0.00     0.049 A 
ATOM     49  C   UNL A   1      44.533  26.739  27.917  1.00  0.00     0.074 A 
ATOM     50  C   UNL A   1      43.518  30.795  32.841  1.00  0.00     0.029 A 
ATOM     51  N   UNL A   1      43.989  28.838  31.919  1.00  0.00    -0.354 N 
ATOM     52  N   UNL A   1      45.219  27.841  28.033  1.00  0.00    -0.248 NA
ATOM     53  C   UNL A   1      44.435  25.933  29.128  1.00  0.00     0.031 C 
ATOM     54  C   UNL A   1      44.430  30.977  31.756  1.00  0.00     0.029 A 
ATOM     55  C   UNL A   1      44.656  29.743  31.144  1.00  0.00     0.049 A 
ATOM     56  H   UNL A   1      44.085  27.860  31.839  1.00  0.00     0.167 HD
ATOM     57  C   UNL A   1      45.251  28.081  29.392  1.00  0.00     0.074 A 
ATOM     58  C   UNL A   1      44.927  26.803  30.015  1.00  0.00     0.031 C 
ATOM     59  C   UNL A   1      45.211  29.360  29.866  1.00  0.00     0.037 A 
BRANCH  46  60
ATOM     60  C   UNL A   1      42.264  27.407  34.059  1.00  0.00     0.064 A 
ATOM     61  C   UNL A   1      41.961  27.458  35.440  1.00  0.00     0.173 A 
ATOM     62  C   UNL A   1      43.068  26.316  33.666  1.00  0.00     0.173 A 
ATOM     63  F   UNL A   1      41.201  28.446  35.938  1.00  0.00    -0.203 F 
ATOM     64  C   UNL A   1      42.513  26.558  36.359  1.00  0.00     0.198 A 
ATOM     65  C   UNL A   1      43.581  25.394  34.581  1.00  0.00     0.198 A 
ATOM     66  F   UNL A   1      43.488  26.148  32.409  1.00  0.00    -0.203 F 
ATOM     67  F   UNL A   1      42.305  26.732  37.671  1.00  0.00    -0.200 F 
ATOM     68  C   UNL A   1      43.335  25.535  35.929  1.00  0.00     0.200 A 
ATOM     69  F   UNL A   1      44.391  24.418  34.144  1.00  0.00    -0.200 F 
ATOM     70  F   UNL A   1      43.925  24.716  36.809  1.00  0.00    -0.200 F 
ENDBRANCH  46  60
BRANCH  47  71
ATOM     71  C   UNL A   1      43.730  25.296  25.915  1.00  0.00     0.064 A 
ATOM     72  C   UNL A   1      44.898  25.050  25.178  1.00  0.00     0.173 A 
ATOM     73  C   UNL A   1      42.804  24.237  25.996  1.00  0.00     0.173 A 
ATOM     74  F   UNL A   1      45.849  25.991  25.086  1.00  0.00    -0.203 F 
ATOM     75  C   UNL A   1      45.139  23.809  24.576  1.00  0.00     0.198 A 
ATOM     76  C   UNL A   1      43.044  23.001  25.395  1.00  0.00     0.198 A 
ATOM     77  F   UNL A   1      41.694  24.356  26.739  1.00  0.00    -0.203 F 
ATOM     78  F   UNL A   1      46.293  23.590  23.929  1.00  0.00    -0.200 F 
ATOM     79  C   UNL A   1      44.217  22.781  24.696  1.00  0.00     0.200 A 
ATOM     80  F   UNL A   1      42.162  22.004  25.552  1.00  0.00    -0.200 F 
ATOM     81  F   UNL A   1      44.477  21.573  24.177  1.00  0.00    -0.200 F 
ENDBRANCH  47  71
BRANCH  59  82
ATOM     82  C   UNL A   1      45.620  30.454  28.929  1.00  0.00     0.064 A 
ATOM     83  C   UNL A   1      46.948  30.780  28.612  1.00  0.00     0.173 A 
ATOM     84  C   UNL A   1      44.605  31.146  28.255  1.00  0.00     0.173 A 
ATOM     85  F   UNL A   1      47.972  30.108  29.152  1.00  0.00    -0.203 F 
ATOM     86  C   UNL A   1      47.243  31.783  27.691  1.00  0.00     0.198 A 
ATOM     87  C   UNL A   1      44.901  32.119  27.309  1.00  0.00     0.198 A 
ATOM     88  F   UNL A   1      43.318  30.843  28.488  1.00  0.00    -0.203 F 
ATOM     89  F   UNL A   1      48.520  32.090  27.417  1.00  0.00    -0.200 F 
ATOM     90  C   UNL A   1      46.219  32.447  27.035  1.00  0.00     0.200 A 
ATOM     91  F   UNL A   1      43.907  32.725  26.645  1.00  0.00    -0.200 F 
ATOM     92  F   UNL A   1      46.502  33.386  26.123  1.00  0.00    -0.200 F 
ENDBRANCH  59  82
ENDBRANCH  33  34
ENDBRANCH  25  28
ENDBRANCH  23  24
ENDBRANCH  22  23
ENDBRANCH   1  22
TORSDOF 14
ENDMDL
