MODEL 1
REMARK VINA RESULT:     -13.4      0.000      0.000
REMARK SMILES C[C@@H]1CCC/C(=C\Nc2ccc(C(=O)NCCCCNC(=O)c3ccc(-c4c5nc(c(-c6c(F)c(F)c(F)c(F)c6F)c6ccc([nH]6)c(-c6c(F)c(F)c(F)c(F)c6F)c6nc(c(-c7c(F)c(F)c(F)c(F)c7F)c7ccc4[nH]7)C=C6)C=C5)cc3)c(O)c2)C1=O
REMARK SMILES IDX 17 1 16 2 15 3 13 4 14 5 12 7 9 8 10 9 88 10 11 11 86 12
REMARK SMILES IDX 8 13 7 15 1 16 2 17 3 18 89 19 4 20 6 21 90 22 5 23 87 24
REMARK SMILES IDX 18 26 19 27 20 28 21 29 22 31 23 32 24 33 85 34 25 35 84 36
REMARK SMILES IDX 26 37 27 38 28 39 78 40 29 41 83 42 77 43 79 44 30 45 82 46
REMARK SMILES IDX 76 47 75 48 31 50 63 51 43 52 62 53 44 54 47 55 61 56 80 57
REMARK SMILES IDX 45 58 46 59 60 61 81 62 48 63 32 64 33 65 41 66 34 67 35 68
REMARK SMILES IDX 39 69 42 70 36 71 37 72 40 73 38 74 64 75 65 76 73 77 66 78
REMARK SMILES IDX 67 79 71 80 74 81 68 82 69 83 72 84 70 85 49 86 50 87 58 88
REMARK SMILES IDX 51 89 52 90 56 91 59 92 53 93 54 94 57 95 55 96
REMARK H PARENT 15 6 8 14 87 25 20 30 79 49 47 60
REMARK Flexibility Score: inf
ROOT
ATOM      1  C   UNL A   1      31.776  30.385  26.722  1.00  0.00     0.023 C 
ENDROOT
BRANCH   1   2
ATOM      2  C   UNL A   1      31.959  29.760  25.342  1.00  0.00     0.116 C 
BRANCH   2   3
ATOM      3  N   UNL A   1      30.915  30.097  24.385  1.00  0.00    -0.352 N 
ATOM      4  C   UNL A   1      30.264  29.287  23.483  1.00  0.00     0.255 C 
ATOM      5  O   UNL A   1      29.418  29.772  22.737  1.00  0.00    -0.269 OA
ATOM      6  H   UNL A   1      30.636  31.041  24.381  1.00  0.00     0.163 HD
BRANCH   4   7
ATOM      7  C   UNL A   1      30.598  27.848  23.375  1.00  0.00     0.081 A 
ATOM      8  C   UNL A   1      30.950  25.060  23.078  1.00  0.00     0.042 A 
ATOM      9  C   UNL A   1      29.989  25.569  23.959  1.00  0.00     0.027 A 
ATOM     10  C   UNL A   1      31.779  25.974  22.409  1.00  0.00     0.073 A 
ATOM     11  C   UNL A   1      29.811  26.950  24.105  1.00  0.00     0.020 A 
ATOM     12  C   UNL A   1      31.634  27.348  22.587  1.00  0.00     0.130 A 
BRANCH   8  13
ATOM     13  N   UNL A   1      31.130  23.693  22.816  1.00  0.00    -0.361 N 
ATOM     14  H   UNL A   1      30.743  23.376  21.968  1.00  0.00     0.166 HD
BRANCH  13  15
ATOM     15  C   UNL A   1      31.763  22.733  23.563  1.00  0.00     0.090 C 
ATOM     16  C   UNL A   1      34.561  22.429  26.447  1.00  0.00     0.016 C 
ATOM     17  C   UNL A   1      34.857  21.620  25.183  1.00  0.00     0.058 C 
ATOM     18  C   UNL A   1      35.881  22.305  24.268  1.00  0.00     0.012 C 
ATOM     19  C   UNL A   1      33.550  21.341  24.450  1.00  0.00     0.163 C 
ATOM     20  C   UNL A   1      35.300  23.490  23.505  1.00  0.00     0.006 C 
ATOM     21  C   UNL A   1      33.064  22.402  23.512  1.00  0.00     0.011 C 
ATOM     22  O   UNL A   1      32.872  20.344  24.688  1.00  0.00    -0.294 OA
ATOM     23  C   UNL A   1      34.113  23.044  22.657  1.00  0.00     0.041 C 
ENDBRANCH  13  15
ENDBRANCH   8  13
BRANCH  12  24
ATOM     24  O   UNL A   1      32.568  28.133  21.967  1.00  0.00    -0.507 OA
ATOM     25  H   UNL A   1      33.233  27.739  21.438  1.00  0.00     0.293 HD
ENDBRANCH  12  24
ENDBRANCH   4   7
ENDBRANCH   2   3
ENDBRANCH   1   2
BRANCH   1  26
ATOM     26  C   UNL A   1      31.587  31.900  26.763  1.00  0.00     0.023 C 
BRANCH  26  27
ATOM     27  C   UNL A   1      32.770  32.717  27.275  1.00  0.00     0.116 C 
BRANCH  27  28
ATOM     28  N   UNL A   1      32.424  34.080  27.650  1.00  0.00    -0.352 N 
ATOM     29  C   UNL A   1      32.989  34.920  28.581  1.00  0.00     0.251 C 
ATOM     30  H   UNL A   1      31.661  34.462  27.158  1.00  0.00     0.163 HD
ATOM     31  O   UNL A   1      32.478  36.014  28.808  1.00  0.00    -0.269 OA
BRANCH  29  32
ATOM     32  C   UNL A   1      34.181  34.500  29.351  1.00  0.00     0.039 A 
ATOM     33  C   UNL A   1      34.001  33.964  30.629  1.00  0.00     0.014 A 
ATOM     34  C   UNL A   1      35.468  34.619  28.823  1.00  0.00     0.014 A 
ATOM     35  C   UNL A   1      35.097  33.456  31.333  1.00  0.00     0.010 A 
ATOM     36  C   UNL A   1      36.545  34.034  29.485  1.00  0.00     0.010 A 
ATOM     37  C   UNL A   1      36.371  33.437  30.743  1.00  0.00    -0.014 A 
BRANCH  37  38
ATOM     38  C   UNL A   1      37.526  32.781  31.412  1.00  0.00     0.031 A 
ATOM     39  C   UNL A   1      38.225  31.622  30.758  1.00  0.00     0.074 A 
ATOM     40  C   UNL A   1      37.894  33.175  32.649  1.00  0.00     0.049 A 
ATOM     41  N   UNL A   1      39.182  30.859  31.225  1.00  0.00    -0.248 NA
ATOM     42  C   UNL A   1      37.769  31.250  29.409  1.00  0.00     0.031 C 
ATOM     43  C   UNL A   1      37.264  34.250  33.417  1.00  0.00     0.029 A 
ATOM     44  N   UNL A   1      38.879  32.706  33.485  1.00  0.00    -0.354 N 
ATOM     45  C   UNL A   1      39.424  29.909  30.240  1.00  0.00     0.074 A 
ATOM     46  C   UNL A   1      38.483  30.159  29.171  1.00  0.00     0.031 C 
ATOM     47  C   UNL A   1      37.889  34.372  34.600  1.00  0.00     0.029 A 
ATOM     48  C   UNL A   1      38.935  33.359  34.692  1.00  0.00     0.049 A 
ATOM     49  H   UNL A   1      39.487  31.971  33.241  1.00  0.00     0.167 HD
ATOM     50  C   UNL A   1      40.363  28.932  30.220  1.00  0.00     0.037 A 
ATOM     51  C   UNL A   1      39.733  33.157  35.759  1.00  0.00     0.037 A 
ATOM     52  C   UNL A   1      41.324  28.708  31.268  1.00  0.00     0.049 A 
ATOM     53  C   UNL A   1      40.771  32.068  35.705  1.00  0.00     0.074 A 
ATOM     54  C   UNL A   1      42.358  27.789  31.307  1.00  0.00     0.029 A 
ATOM     55  N   UNL A   1      41.370  29.412  32.461  1.00  0.00    -0.354 N 
ATOM     56  N   UNL A   1      41.038  31.225  34.738  1.00  0.00    -0.248 NA
ATOM     57  C   UNL A   1      41.624  31.907  36.892  1.00  0.00     0.031 C 
ATOM     58  C   UNL A   1      43.003  27.907  32.543  1.00  0.00     0.029 A 
ATOM     59  C   UNL A   1      42.403  28.934  33.252  1.00  0.00     0.049 A 
ATOM     60  H   UNL A   1      40.759  30.143  32.711  1.00  0.00     0.167 HD
ATOM     61  C   UNL A   1      42.106  30.458  35.184  1.00  0.00     0.074 A 
ATOM     62  C   UNL A   1      42.448  30.945  36.503  1.00  0.00     0.031 C 
ATOM     63  C   UNL A   1      42.743  29.439  34.556  1.00  0.00     0.037 A 
BRANCH  50  64
ATOM     64  C   UNL A   1      40.408  28.033  29.019  1.00  0.00     0.064 A 
ATOM     65  C   UNL A   1      39.677  26.836  28.970  1.00  0.00     0.173 A 
ATOM     66  C   UNL A   1      41.144  28.398  27.883  1.00  0.00     0.173 A 
ATOM     67  F   UNL A   1      38.965  26.436  30.034  1.00  0.00    -0.203 F 
ATOM     68  C   UNL A   1      39.703  26.027  27.837  1.00  0.00     0.198 A 
ATOM     69  C   UNL A   1      41.144  27.602  26.741  1.00  0.00     0.198 A 
ATOM     70  F   UNL A   1      41.856  29.537  27.875  1.00  0.00    -0.203 F 
ATOM     71  F   UNL A   1      39.031  24.867  27.829  1.00  0.00    -0.200 F 
ATOM     72  C   UNL A   1      40.428  26.414  26.721  1.00  0.00     0.200 A 
ATOM     73  F   UNL A   1      41.834  27.985  25.658  1.00  0.00    -0.200 F 
ATOM     74  F   UNL A   1      40.442  25.640  25.627  1.00  0.00    -0.200 F 
ENDBRANCH  50  64
BRANCH  51  75
ATOM     75  C   UNL A   1      39.600  34.014  36.967  1.00  0.00     0.064 A 
ATOM     76  C   UNL A   1      38.843  33.590  38.070  1.00  0.00     0.173 A 
ATOM     77  C   UNL A   1      40.198  35.281  37.035  1.00  0.00     0.173 A 
ATOM     78  F   UNL A   1      38.234  32.396  38.043  1.00  0.00    -0.203 F 
ATOM     79  C   UNL A   1      38.669  34.410  39.182  1.00  0.00     0.198 A 
ATOM     80  C   UNL A   1      40.047  36.088  38.161  1.00  0.00     0.198 A 
ATOM     81  F   UNL A   1      40.935  35.732  36.011  1.00  0.00    -0.203 F 
ATOM     82  F   UNL A   1      37.895  34.003  40.197  1.00  0.00    -0.200 F 
ATOM     83  C   UNL A   1      39.274  35.657  39.229  1.00  0.00     0.200 A 
ATOM     84  F   UNL A   1      40.645  37.286  38.209  1.00  0.00    -0.200 F 
ATOM     85  F   UNL A   1      39.103  36.447  40.297  1.00  0.00    -0.200 F 
ENDBRANCH  51  75
BRANCH  63  86
ATOM     86  C   UNL A   1      43.905  28.811  35.269  1.00  0.00     0.064 A 
ATOM     87  C   UNL A   1      45.221  29.253  35.066  1.00  0.00     0.173 A 
ATOM     88  C   UNL A   1      43.693  27.781  36.197  1.00  0.00     0.173 A 
ATOM     89  F   UNL A   1      45.476  30.225  34.178  1.00  0.00    -0.203 F 
ATOM     90  C   UNL A   1      46.284  28.669  35.749  1.00  0.00     0.198 A 
ATOM     91  C   UNL A   1      44.756  27.220  36.900  1.00  0.00     0.198 A 
ATOM     92  F   UNL A   1      42.454  27.326  36.432  1.00  0.00    -0.203 F 
ATOM     93  F   UNL A   1      47.538  29.075  35.505  1.00  0.00    -0.200 F 
ATOM     94  C   UNL A   1      46.051  27.659  36.670  1.00  0.00     0.200 A 
ATOM     95  F   UNL A   1      44.527  26.253  37.801  1.00  0.00    -0.200 F 
ATOM     96  F   UNL A   1      47.075  27.105  37.332  1.00  0.00    -0.200 F 
ENDBRANCH  63  86
ENDBRANCH  37  38
ENDBRANCH  29  32
ENDBRANCH  27  28
ENDBRANCH  26  27
ENDBRANCH   1  26
TORSDOF 14
ENDMDL
MODEL 2
REMARK VINA RESULT:     -13.3      0.094      1.123
REMARK SMILES C[C@@H]1CCC/C(=C\Nc2ccc(C(=O)NCCCCNC(=O)c3ccc(-c4c5nc(c(-c6c(F)c(F)c(F)c(F)c6F)c6ccc([nH]6)c(-c6c(F)c(F)c(F)c(F)c6F)c6nc(c(-c7c(F)c(F)c(F)c(F)c7F)c7ccc4[nH]7)C=C6)C=C5)cc3)c(O)c2)C1=O
REMARK SMILES IDX 17 1 16 2 15 3 13 4 14 5 12 7 9 8 10 9 88 10 11 11 86 12
REMARK SMILES IDX 8 13 7 15 1 16 2 17 3 18 89 19 4 20 6 21 90 22 5 23 87 24
REMARK SMILES IDX 18 26 19 27 20 28 21 29 22 31 23 32 24 33 85 34 25 35 84 36
REMARK SMILES IDX 26 37 27 38 28 39 78 40 29 41 83 42 77 43 79 44 30 45 82 46
REMARK SMILES IDX 76 47 75 48 31 50 63 51 43 52 62 53 44 54 47 55 61 56 80 57
REMARK SMILES IDX 45 58 46 59 60 61 81 62 48 63 32 64 33 65 41 66 34 67 35 68
REMARK SMILES IDX 39 69 42 70 36 71 37 72 40 73 38 74 64 75 65 76 73 77 66 78
REMARK SMILES IDX 67 79 71 80 74 81 68 82 69 83 72 84 70 85 49 86 50 87 58 88
REMARK SMILES IDX 51 89 52 90 56 91 59 92 53 93 54 94 57 95 55 96
REMARK H PARENT 15 6 8 14 87 25 20 30 79 49 47 60
REMARK Flexibility Score: inf
ROOT
ATOM      1  C   UNL A   1      31.780  30.365  26.764  1.00  0.00     0.023 C 
ENDROOT
BRANCH   1   2
ATOM      2  C   UNL A   1      31.983  29.745  25.384  1.00  0.00     0.116 C 
BRANCH   2   3
ATOM      3  N   UNL A   1      30.968  30.108  24.405  1.00  0.00    -0.352 N 
ATOM      4  C   UNL A   1      30.320  29.315  23.486  1.00  0.00     0.255 C 
ATOM      5  O   UNL A   1      29.502  29.821  22.723  1.00  0.00    -0.269 OA
ATOM      6  H   UNL A   1      30.709  31.058  24.399  1.00  0.00     0.163 HD
BRANCH   4   7
ATOM      7  C   UNL A   1      30.625  27.870  23.380  1.00  0.00     0.081 A 
ATOM      8  C   UNL A   1      30.922  25.075  23.085  1.00  0.00     0.042 A 
ATOM      9  C   UNL A   1      29.966  25.603  23.960  1.00  0.00     0.027 A 
ATOM     10  C   UNL A   1      31.774  25.972  22.420  1.00  0.00     0.073 A 
ATOM     11  C   UNL A   1      29.816  26.989  24.105  1.00  0.00     0.020 A 
ATOM     12  C   UNL A   1      31.655  27.349  22.598  1.00  0.00     0.130 A 
BRANCH   8  13
ATOM     13  N   UNL A   1      31.075  23.705  22.824  1.00  0.00    -0.361 N 
ATOM     14  H   UNL A   1      30.670  23.392  21.983  1.00  0.00     0.166 HD
BRANCH  13  15
ATOM     15  C   UNL A   1      31.704  22.736  23.563  1.00  0.00     0.090 C 
ATOM     16  C   UNL A   1      34.500  22.399  26.447  1.00  0.00     0.016 C 
ATOM     17  C   UNL A   1      34.794  21.599  25.176  1.00  0.00     0.058 C 
ATOM     18  C   UNL A   1      35.821  22.288  24.267  1.00  0.00     0.012 C 
ATOM     19  C   UNL A   1      33.486  21.331  24.440  1.00  0.00     0.163 C 
ATOM     20  C   UNL A   1      35.244  23.482  23.513  1.00  0.00     0.006 C 
ATOM     21  C   UNL A   1      33.004  22.401  23.510  1.00  0.00     0.011 C 
ATOM     22  O   UNL A   1      32.805  20.334  24.669  1.00  0.00    -0.294 OA
ATOM     23  C   UNL A   1      34.056  23.047  22.662  1.00  0.00     0.041 C 
ENDBRANCH  13  15
ENDBRANCH   8  13
BRANCH  12  24
ATOM     24  O   UNL A   1      32.609  28.114  21.983  1.00  0.00    -0.507 OA
ATOM     25  H   UNL A   1      32.887  27.906  21.114  1.00  0.00     0.293 HD
ENDBRANCH  12  24
ENDBRANCH   4   7
ENDBRANCH   2   3
ENDBRANCH   1   2
BRANCH   1  26
ATOM     26  C   UNL A   1      31.582  31.879  26.807  1.00  0.00     0.023 C 
BRANCH  26  27
ATOM     27  C   UNL A   1      32.775  32.705  27.277  1.00  0.00     0.116 C 
BRANCH  27  28
ATOM     28  N   UNL A   1      32.435  34.070  27.649  1.00  0.00    -0.352 N 
ATOM     29  C   UNL A   1      33.004  34.911  28.577  1.00  0.00     0.251 C 
ATOM     30  H   UNL A   1      31.672  34.454  27.157  1.00  0.00     0.163 HD
ATOM     31  O   UNL A   1      32.497  36.008  28.800  1.00  0.00    -0.269 OA
BRANCH  29  32
ATOM     32  C   UNL A   1      34.196  34.490  29.345  1.00  0.00     0.039 A 
ATOM     33  C   UNL A   1      34.013  33.921  30.609  1.00  0.00     0.014 A 
ATOM     34  C   UNL A   1      35.485  34.640  28.831  1.00  0.00     0.014 A 
ATOM     35  C   UNL A   1      35.111  33.411  31.309  1.00  0.00     0.010 A 
ATOM     36  C   UNL A   1      36.565  34.054  29.487  1.00  0.00     0.010 A 
ATOM     37  C   UNL A   1      36.390  33.424  30.729  1.00  0.00    -0.014 A 
BRANCH  37  38
ATOM     38  C   UNL A   1      37.549  32.769  31.392  1.00  0.00     0.031 A 
ATOM     39  C   UNL A   1      38.252  31.618  30.728  1.00  0.00     0.074 A 
ATOM     40  C   UNL A   1      37.917  33.156  32.631  1.00  0.00     0.049 A 
ATOM     41  N   UNL A   1      39.213  30.856  31.188  1.00  0.00    -0.248 NA
ATOM     42  C   UNL A   1      37.795  31.254  29.378  1.00  0.00     0.031 C 
ATOM     43  C   UNL A   1      37.283  34.222  33.408  1.00  0.00     0.029 A 
ATOM     44  N   UNL A   1      38.905  32.685  33.462  1.00  0.00    -0.354 N 
ATOM     45  C   UNL A   1      39.458  29.914  30.197  1.00  0.00     0.074 A 
ATOM     46  C   UNL A   1      38.514  30.168  29.131  1.00  0.00     0.031 C 
ATOM     47  C   UNL A   1      37.910  34.339  34.590  1.00  0.00     0.029 A 
ATOM     48  C   UNL A   1      38.961  33.330  34.674  1.00  0.00     0.049 A 
ATOM     49  H   UNL A   1      39.516  31.955  33.211  1.00  0.00     0.167 HD
ATOM     50  C   UNL A   1      40.401  28.942  30.168  1.00  0.00     0.037 A 
ATOM     51  C   UNL A   1      39.762  33.124  35.738  1.00  0.00     0.037 A 
ATOM     52  C   UNL A   1      41.364  28.715  31.213  1.00  0.00     0.049 A 
ATOM     53  C   UNL A   1      40.804  32.040  35.674  1.00  0.00     0.074 A 
ATOM     54  C   UNL A   1      42.403  27.800  31.243  1.00  0.00     0.029 A 
ATOM     55  N   UNL A   1      41.410  29.410  32.411  1.00  0.00    -0.354 N 
ATOM     56  N   UNL A   1      41.073  31.206  34.701  1.00  0.00    -0.248 NA
ATOM     57  C   UNL A   1      41.660  31.875  36.858  1.00  0.00     0.031 C 
ATOM     58  C   UNL A   1      43.050  27.912  32.479  1.00  0.00     0.029 A 
ATOM     59  C   UNL A   1      42.446  28.931  33.197  1.00  0.00     0.049 A 
ATOM     60  H   UNL A   1      40.796  30.137  32.667  1.00  0.00     0.167 HD
ATOM     61  C   UNL A   1      42.145  30.440  35.139  1.00  0.00     0.074 A 
ATOM     62  C   UNL A   1      42.488  30.919  36.461  1.00  0.00     0.031 C 
ATOM     63  C   UNL A   1      42.786  29.429  34.504  1.00  0.00     0.037 A 
BRANCH  50  64
ATOM     64  C   UNL A   1      40.448  28.051  28.960  1.00  0.00     0.064 A 
ATOM     65  C   UNL A   1      39.712  26.858  28.898  1.00  0.00     0.173 A 
ATOM     66  C   UNL A   1      41.192  28.422  27.830  1.00  0.00     0.173 A 
ATOM     67  F   UNL A   1      38.992  26.453  29.956  1.00  0.00    -0.203 F 
ATOM     68  C   UNL A   1      39.740  26.058  27.760  1.00  0.00     0.198 A 
ATOM     69  C   UNL A   1      41.194  27.634  26.683  1.00  0.00     0.198 A 
ATOM     70  F   UNL A   1      41.908  29.557  27.834  1.00  0.00    -0.203 F 
ATOM     71  F   UNL A   1      39.063  24.901  27.740  1.00  0.00    -0.200 F 
ATOM     72  C   UNL A   1      40.473  26.450  26.650  1.00  0.00     0.200 A 
ATOM     73  F   UNL A   1      41.891  28.022  25.606  1.00  0.00    -0.200 F 
ATOM     74  F   UNL A   1      40.488  25.684  25.551  1.00  0.00    -0.200 F 
ENDBRANCH  50  64
BRANCH  51  75
ATOM     75  C   UNL A   1      39.626  33.972  36.952  1.00  0.00     0.064 A 
ATOM     76  C   UNL A   1      38.830  33.561  38.031  1.00  0.00     0.173 A 
ATOM     77  C   UNL A   1      40.264  35.217  37.050  1.00  0.00     0.173 A 
ATOM     78  F   UNL A   1      38.182  32.388  37.975  1.00  0.00    -0.203 F 
ATOM     79  C   UNL A   1      38.654  34.375  39.148  1.00  0.00     0.198 A 
ATOM     80  C   UNL A   1      40.111  36.017  38.180  1.00  0.00     0.198 A 
ATOM     81  F   UNL A   1      41.040  35.655  36.048  1.00  0.00    -0.203 F 
ATOM     82  F   UNL A   1      37.843  33.982  40.140  1.00  0.00    -0.200 F 
ATOM     83  C   UNL A   1      39.299  35.600  39.224  1.00  0.00     0.200 A 
ATOM     84  F   UNL A   1      40.747  37.194  38.257  1.00  0.00    -0.200 F 
ATOM     85  F   UNL A   1      39.128  36.384  40.297  1.00  0.00    -0.200 F 
ENDBRANCH  51  75
BRANCH  63  86
ATOM     86  C   UNL A   1      43.952  28.801  35.209  1.00  0.00     0.064 A 
ATOM     87  C   UNL A   1      43.791  27.706  36.070  1.00  0.00     0.173 A 
ATOM     88  C   UNL A   1      45.254  29.277  34.987  1.00  0.00     0.173 A 
ATOM     89  F   UNL A   1      42.566  27.224  36.327  1.00  0.00    -0.203 F 
ATOM     90  C   UNL A   1      44.887  27.126  36.703  1.00  0.00     0.198 A 
ATOM     91  C   UNL A   1      46.351  28.675  35.597  1.00  0.00     0.198 A 
ATOM     92  F   UNL A   1      45.463  30.317  34.167  1.00  0.00    -0.203 F 
ATOM     93  F   UNL A   1      44.705  26.111  37.559  1.00  0.00    -0.200 F 
ATOM     94  C   UNL A   1      46.166  27.606  36.461  1.00  0.00     0.200 A 
ATOM     95  F   UNL A   1      47.587  29.131  35.351  1.00  0.00    -0.200 F 
ATOM     96  F   UNL A   1      47.221  27.040  37.063  1.00  0.00    -0.200 F 
ENDBRANCH  63  86
ENDBRANCH  37  38
ENDBRANCH  29  32
ENDBRANCH  27  28
ENDBRANCH  26  27
ENDBRANCH   1  26
TORSDOF 14
ENDMDL
MODEL 3
REMARK VINA RESULT:     -13.3      3.890      8.744
REMARK SMILES C[C@@H]1CCC/C(=C\Nc2ccc(C(=O)NCCCCNC(=O)c3ccc(-c4c5nc(c(-c6c(F)c(F)c(F)c(F)c6F)c6ccc([nH]6)c(-c6c(F)c(F)c(F)c(F)c6F)c6nc(c(-c7c(F)c(F)c(F)c(F)c7F)c7ccc4[nH]7)C=C6)C=C5)cc3)c(O)c2)C1=O
REMARK SMILES IDX 17 1 16 2 15 3 13 4 14 5 12 7 9 8 10 9 88 10 11 11 86 12
REMARK SMILES IDX 8 13 7 15 1 16 2 17 3 18 89 19 4 20 6 21 90 22 5 23 87 24
REMARK SMILES IDX 18 26 19 27 20 28 21 29 22 31 23 32 24 33 85 34 25 35 84 36
REMARK SMILES IDX 26 37 27 38 28 39 78 40 29 41 83 42 77 43 79 44 30 45 82 46
REMARK SMILES IDX 76 47 75 48 31 50 63 51 43 52 62 53 44 54 47 55 61 56 80 57
REMARK SMILES IDX 45 58 46 59 60 61 81 62 48 63 32 64 33 65 41 66 34 67 35 68
REMARK SMILES IDX 39 69 42 70 36 71 37 72 40 73 38 74 64 75 65 76 73 77 66 78
REMARK SMILES IDX 67 79 71 80 74 81 68 82 69 83 72 84 70 85 49 86 50 87 58 88
REMARK SMILES IDX 51 89 52 90 56 91 59 92 53 93 54 94 57 95 55 96
REMARK H PARENT 15 6 8 14 87 25 20 30 79 49 47 60
REMARK Flexibility Score: inf
ROOT
ATOM      1  C   UNL A   1      32.687  29.686  24.996  1.00  0.00     0.023 C 
ENDROOT
BRANCH   1   2
ATOM      2  C   UNL A   1      31.161  29.714  25.028  1.00  0.00     0.116 C 
BRANCH   2   3
ATOM      3  N   UNL A   1      30.534  29.867  23.722  1.00  0.00    -0.352 N 
ATOM      4  C   UNL A   1      30.476  28.977  22.673  1.00  0.00     0.255 C 
ATOM      5  O   UNL A   1      29.912  29.306  21.634  1.00  0.00    -0.269 OA
ATOM      6  H   UNL A   1      30.088  30.731  23.568  1.00  0.00     0.163 HD
BRANCH   4   7
ATOM      7  C   UNL A   1      31.117  27.647  22.769  1.00  0.00     0.081 A 
ATOM      8  C   UNL A   1      32.099  24.997  22.808  1.00  0.00     0.042 A 
ATOM      9  C   UNL A   1      30.884  25.317  23.422  1.00  0.00     0.027 A 
ATOM     10  C   UNL A   1      32.847  26.042  22.243  1.00  0.00     0.073 A 
ATOM     11  C   UNL A   1      30.394  26.629  23.401  1.00  0.00     0.020 A 
ATOM     12  C   UNL A   1      32.383  27.356  22.260  1.00  0.00     0.130 A 
BRANCH   8  13
ATOM     13  N   UNL A   1      32.614  23.694  22.715  1.00  0.00    -0.361 N 
ATOM     14  H   UNL A   1      31.939  22.985  22.614  1.00  0.00     0.166 HD
BRANCH  13  15
ATOM     15  C   UNL A   1      33.915  23.261  22.744  1.00  0.00     0.090 C 
ATOM     16  C   UNL A   1      36.340  20.957  24.992  1.00  0.00     0.016 C 
ATOM     17  C   UNL A   1      36.837  22.388  24.777  1.00  0.00     0.058 C 
ATOM     18  C   UNL A   1      36.579  23.293  25.990  1.00  0.00     0.012 C 
ATOM     19  C   UNL A   1      36.202  22.953  23.512  1.00  0.00     0.163 C 
ATOM     20  C   UNL A   1      35.117  23.705  26.126  1.00  0.00     0.006 C 
ATOM     21  C   UNL A   1      34.848  23.575  23.658  1.00  0.00     0.011 C 
ATOM     22  O   UNL A   1      36.724  22.819  22.408  1.00  0.00    -0.294 OA
ATOM     23  C   UNL A   1      34.653  24.433  24.869  1.00  0.00     0.041 C 
ENDBRANCH  13  15
ENDBRANCH   8  13
BRANCH  12  24
ATOM     24  O   UNL A   1      33.246  28.301  21.776  1.00  0.00    -0.507 OA
ATOM     25  H   UNL A   1      33.782  28.108  21.033  1.00  0.00     0.293 HD
ENDBRANCH  12  24
ENDBRANCH   4   7
ENDBRANCH   2   3
ENDBRANCH   1   2
BRANCH   1  26
ATOM     26  C   UNL A   1      33.359  28.496  25.678  1.00  0.00     0.023 C 
BRANCH  26  27
ATOM     27  C   UNL A   1      33.615  28.628  27.176  1.00  0.00     0.116 C 
BRANCH  27  28
ATOM     28  N   UNL A   1      33.661  30.005  27.645  1.00  0.00    -0.352 N 
ATOM     29  C   UNL A   1      34.678  30.710  28.245  1.00  0.00     0.251 C 
ATOM     30  H   UNL A   1      32.828  30.514  27.513  1.00  0.00     0.163 HD
ATOM     31  O   UNL A   1      34.474  31.851  28.651  1.00  0.00    -0.269 OA
BRANCH  29  32
ATOM     32  C   UNL A   1      36.006  30.091  28.451  1.00  0.00     0.039 A 
ATOM     33  C   UNL A   1      36.945  30.157  27.417  1.00  0.00     0.014 A 
ATOM     34  C   UNL A   1      36.337  29.458  29.650  1.00  0.00     0.014 A 
ATOM     35  C   UNL A   1      38.244  29.681  27.624  1.00  0.00     0.010 A 
ATOM     36  C   UNL A   1      37.653  29.066  29.886  1.00  0.00     0.010 A 
ATOM     37  C   UNL A   1      38.624  29.181  28.880  1.00  0.00    -0.014 A 
BRANCH  37  38
ATOM     38  C   UNL A   1      40.031  28.795  29.167  1.00  0.00     0.031 A 
ATOM     39  C   UNL A   1      40.949  29.748  29.883  1.00  0.00     0.074 A 
ATOM     40  C   UNL A   1      40.508  27.619  28.711  1.00  0.00     0.049 A 
ATOM     41  N   UNL A   1      42.229  29.634  30.136  1.00  0.00    -0.248 NA
ATOM     42  C   UNL A   1      40.357  31.010  30.351  1.00  0.00     0.031 C 
ATOM     43  C   UNL A   1      39.738  26.629  27.956  1.00  0.00     0.029 A 
ATOM     44  N   UNL A   1      41.762  27.063  28.801  1.00  0.00    -0.354 N 
ATOM     45  C   UNL A   1      42.596  30.814  30.770  1.00  0.00     0.074 A 
ATOM     46  C   UNL A   1      41.418  31.651  30.820  1.00  0.00     0.031 C 
ATOM     47  C   UNL A   1      40.528  25.580  27.671  1.00  0.00     0.029 A 
ATOM     48  C   UNL A   1      41.869  25.839  28.185  1.00  0.00     0.049 A 
ATOM     49  H   UNL A   1      42.512  27.500  29.265  1.00  0.00     0.167 HD
ATOM     50  C   UNL A   1      43.802  31.158  31.284  1.00  0.00     0.037 A 
ATOM     51  C   UNL A   1      42.931  25.023  28.039  1.00  0.00     0.037 A 
ATOM     52  C   UNL A   1      44.964  30.309  31.266  1.00  0.00     0.049 A 
ATOM     53  C   UNL A   1      44.256  25.430  28.627  1.00  0.00     0.074 A 
ATOM     54  C   UNL A   1      46.209  30.542  31.824  1.00  0.00     0.029 A 
ATOM     55  N   UNL A   1      45.023  29.064  30.661  1.00  0.00    -0.354 N 
ATOM     56  N   UNL A   1      44.570  26.516  29.288  1.00  0.00    -0.248 NA
ATOM     57  C   UNL A   1      45.373  24.490  28.452  1.00  0.00     0.031 C 
ATOM     58  C   UNL A   1      47.036  29.456  31.518  1.00  0.00     0.029 A 
ATOM     59  C   UNL A   1      46.291  28.524  30.814  1.00  0.00     0.049 A 
ATOM     60  H   UNL A   1      44.276  28.627  30.191  1.00  0.00     0.167 HD
ATOM     61  C   UNL A   1      45.908  26.378  29.635  1.00  0.00     0.074 A 
ATOM     62  C   UNL A   1      46.342  25.096  29.125  1.00  0.00     0.031 C 
ATOM     63  C   UNL A   1      46.704  27.239  30.315  1.00  0.00     0.037 A 
BRANCH  50  64
ATOM     64  C   UNL A   1      43.927  32.511  31.923  1.00  0.00     0.064 A 
ATOM     65  C   UNL A   1      43.667  32.705  33.288  1.00  0.00     0.173 A 
ATOM     66  C   UNL A   1      44.365  33.614  31.176  1.00  0.00     0.173 A 
ATOM     67  F   UNL A   1      43.236  31.684  34.045  1.00  0.00    -0.203 F 
ATOM     68  C   UNL A   1      43.818  33.958  33.875  1.00  0.00     0.198 A 
ATOM     69  C   UNL A   1      44.542  34.859  31.773  1.00  0.00     0.198 A 
ATOM     70  F   UNL A   1      44.633  33.482  29.868  1.00  0.00    -0.203 F 
ATOM     71  F   UNL A   1      43.523  34.129  35.172  1.00  0.00    -0.200 F 
ATOM     72  C   UNL A   1      44.263  35.032  33.120  1.00  0.00     0.200 A 
ATOM     73  F   UNL A   1      44.987  35.893  31.044  1.00  0.00    -0.200 F 
ATOM     74  F   UNL A   1      44.419  36.235  33.690  1.00  0.00    -0.200 F 
ENDBRANCH  50  64
BRANCH  51  75
ATOM     75  C   UNL A   1      42.788  23.729  27.322  1.00  0.00     0.064 A 
ATOM     76  C   UNL A   1      42.292  22.593  27.980  1.00  0.00     0.173 A 
ATOM     77  C   UNL A   1      43.166  23.590  25.979  1.00  0.00     0.173 A 
ATOM     78  F   UNL A   1      41.938  22.671  29.271  1.00  0.00    -0.203 F 
ATOM     79  C   UNL A   1      42.206  21.364  27.331  1.00  0.00     0.198 A 
ATOM     80  C   UNL A   1      43.052  22.366  25.322  1.00  0.00     0.198 A 
ATOM     81  F   UNL A   1      43.642  24.644  25.302  1.00  0.00    -0.203 F 
ATOM     82  F   UNL A   1      41.782  20.283  28.001  1.00  0.00    -0.200 F 
ATOM     83  C   UNL A   1      42.582  21.252  26.001  1.00  0.00     0.200 A 
ATOM     84  F   UNL A   1      43.403  22.265  24.032  1.00  0.00    -0.200 F 
ATOM     85  F   UNL A   1      42.503  20.069  25.377  1.00  0.00    -0.200 F 
ENDBRANCH  51  75
BRANCH  63  86
ATOM     86  C   UNL A   1      48.115  26.804  30.585  1.00  0.00     0.064 A 
ATOM     87  C   UNL A   1      48.434  25.963  31.661  1.00  0.00     0.173 A 
ATOM     88  C   UNL A   1      49.154  27.203  29.731  1.00  0.00     0.173 A 
ATOM     89  F   UNL A   1      47.478  25.567  32.515  1.00  0.00    -0.203 F 
ATOM     90  C   UNL A   1      49.747  25.557  31.886  1.00  0.00     0.198 A 
ATOM     91  C   UNL A   1      50.461  26.770  29.941  1.00  0.00     0.198 A 
ATOM     92  F   UNL A   1      48.901  28.002  28.684  1.00  0.00    -0.203 F 
ATOM     93  F   UNL A   1      50.037  24.792  32.948  1.00  0.00    -0.200 F 
ATOM     94  C   UNL A   1      50.757  25.954  31.023  1.00  0.00     0.200 A 
ATOM     95  F   UNL A   1      51.434  27.143  29.098  1.00  0.00    -0.200 F 
ATOM     96  F   UNL A   1      52.018  25.555  31.236  1.00  0.00    -0.200 F 
ENDBRANCH  63  86
ENDBRANCH  37  38
ENDBRANCH  29  32
ENDBRANCH  27  28
ENDBRANCH  26  27
ENDBRANCH   1  26
TORSDOF 14
ENDMDL
