MODEL 1
REMARK VINA RESULT:     -13.4      0.000      0.000
REMARK SMILES O=C(NCCCCNC(=O)[C@H](Cc1ccc([N+](=O)[O-])cc1)N1C(=O)c2ccccc2C1=O)c1ccc(-c2c3nc(c(-c4c(F)c(F)c(F)c(F)c4F)c4ccc([nH]4)c(-c4c(F)c(F)c(F)c(F)c4F)c4nc(c(-c5c(F)c(F)c(F)c(F)c5F)c5ccc2[nH]5)C=C4)C=C3)cc1
REMARK SMILES IDX 6 1 5 2 4 3 3 4 1 5 2 6 33 8 34 9 95 10 35 11 94 12 36 13
REMARK SMILES IDX 37 14 38 15 88 16 39 17 93 18 87 19 89 20 40 21 92 22 86 23
REMARK SMILES IDX 85 24 41 26 73 27 53 28 72 29 54 30 57 31 71 32 90 33 55 34
REMARK SMILES IDX 56 35 70 37 91 38 58 39 42 40 43 41 51 42 44 43 45 44 49 45
REMARK SMILES IDX 52 46 46 47 47 48 50 49 48 50 74 51 75 52 83 53 76 54 77 55
REMARK SMILES IDX 81 56 84 57 78 58 79 59 82 60 80 61 59 62 60 63 68 64 61 65
REMARK SMILES IDX 62 66 66 67 69 68 63 69 64 70 67 71 65 72 7 73 8 74 9 75
REMARK SMILES IDX 10 77 11 78 22 79 23 80 31 81 24 82 25 83 30 84 32 85 26 86
REMARK SMILES IDX 29 87 27 88 28 89 12 90 13 91 14 92 21 93 15 94 20 95 16 96
REMARK SMILES IDX 17 97 18 98 19 99
REMARK H PARENT 3 7 89 25 57 36 8 76
REMARK Flexibility Score: inf
ROOT
ATOM      1  C   UNL A   1      31.559  30.822  25.776  1.00  0.00     0.023 C 
ENDROOT
BRANCH   1   2
ATOM      2  C   UNL A   1      31.331  31.962  26.769  1.00  0.00     0.023 C 
BRANCH   2   3
ATOM      3  C   UNL A   1      32.587  32.706  27.198  1.00  0.00     0.116 C 
BRANCH   3   4
ATOM      4  N   UNL A   1      32.329  34.090  27.566  1.00  0.00    -0.352 N 
ATOM      5  O   UNL A   1      32.538  35.975  28.796  1.00  0.00    -0.269 OA
ATOM      6  C   UNL A   1      32.959  34.856  28.518  1.00  0.00     0.251 C 
ATOM      7  H   UNL A   1      31.607  34.536  27.068  1.00  0.00     0.163 HD
BRANCH   6   8
ATOM      8  C   UNL A   1      34.132  34.307  29.231  1.00  0.00     0.039 A 
ATOM      9  C   UNL A   1      35.425  34.585  28.783  1.00  0.00     0.014 A 
ATOM     10  C   UNL A   1      33.934  33.484  30.344  1.00  0.00     0.014 A 
ATOM     11  C   UNL A   1      36.504  33.919  29.346  1.00  0.00     0.010 A 
ATOM     12  C   UNL A   1      35.033  32.886  30.969  1.00  0.00     0.010 A 
ATOM     13  C   UNL A   1      36.324  33.072  30.455  1.00  0.00    -0.014 A 
BRANCH  13  14
ATOM     14  C   UNL A   1      37.522  32.456  31.077  1.00  0.00     0.031 A 
ATOM     15  C   UNL A   1      37.963  32.817  32.467  1.00  0.00     0.074 A 
ATOM     16  C   UNL A   1      38.174  31.499  30.387  1.00  0.00     0.049 A 
ATOM     17  N   UNL A   1      38.936  32.306  33.181  1.00  0.00    -0.248 NA
ATOM     18  C   UNL A   1      37.229  33.895  33.146  1.00  0.00     0.031 C 
ATOM     19  C   UNL A   1      37.851  31.087  29.019  1.00  0.00     0.029 A 
ATOM     20  N   UNL A   1      39.209  30.677  30.747  1.00  0.00    -0.354 N 
ATOM     21  C   UNL A   1      38.938  33.003  34.381  1.00  0.00     0.074 A 
ATOM     22  C   UNL A   1      37.887  33.995  34.293  1.00  0.00     0.031 C 
ATOM     23  C   UNL A   1      38.624  30.047  28.680  1.00  0.00     0.029 A 
ATOM     24  C   UNL A   1      39.533  29.755  29.782  1.00  0.00     0.049 A 
ATOM     25  H   UNL A   1      39.674  30.740  31.611  1.00  0.00     0.167 HD
ATOM     26  C   UNL A   1      39.741  32.824  35.459  1.00  0.00     0.037 A 
ATOM     27  C   UNL A   1      40.460  28.780  29.782  1.00  0.00     0.037 A 
ATOM     28  C   UNL A   1      40.777  31.827  35.545  1.00  0.00     0.049 A 
ATOM     29  C   UNL A   1      41.312  28.588  31.002  1.00  0.00     0.074 A 
ATOM     30  C   UNL A   1      41.642  31.566  36.596  1.00  0.00     0.029 A 
ATOM     31  N   UNL A   1      41.085  30.919  34.542  1.00  0.00    -0.354 N 
ATOM     32  N   UNL A   1      41.295  29.250  32.132  1.00  0.00    -0.248 NA
ATOM     33  C   UNL A   1      42.314  27.516  30.944  1.00  0.00     0.031 C 
ATOM     34  C   UNL A   1      42.490  30.519  36.218  1.00  0.00     0.029 A 
ATOM     35  C   UNL A   1      42.131  30.103  34.947  1.00  0.00     0.049 A 
ATOM     36  H   UNL A   1      40.629  30.863  33.672  1.00  0.00     0.167 HD
ATOM     37  C   UNL A   1      42.283  28.680  32.920  1.00  0.00     0.074 A 
ATOM     38  C   UNL A   1      42.853  27.591  32.151  1.00  0.00     0.031 C 
ATOM     39  C   UNL A   1      42.694  29.035  34.161  1.00  0.00     0.037 A 
BRANCH  26  40
ATOM     40  C   UNL A   1      39.538  33.730  36.639  1.00  0.00     0.064 A 
ATOM     41  C   UNL A   1      38.732  33.350  37.723  1.00  0.00     0.173 A 
ATOM     42  C   UNL A   1      40.208  34.961  36.717  1.00  0.00     0.173 A 
ATOM     43  F   UNL A   1      38.062  32.190  37.691  1.00  0.00    -0.203 F 
ATOM     44  C   UNL A   1      38.594  34.176  38.836  1.00  0.00     0.198 A 
ATOM     45  C   UNL A   1      40.085  35.773  37.841  1.00  0.00     0.198 A 
ATOM     46  F   UNL A   1      40.994  35.367  35.710  1.00  0.00    -0.203 F 
ATOM     47  F   UNL A   1      37.796  33.808  39.847  1.00  0.00    -0.200 F 
ATOM     48  C   UNL A   1      39.277  35.383  38.898  1.00  0.00     0.200 A 
ATOM     49  F   UNL A   1      40.754  36.933  37.904  1.00  0.00    -0.200 F 
ATOM     50  F   UNL A   1      39.153  36.170  39.976  1.00  0.00    -0.200 F 
ENDBRANCH  26  40
BRANCH  27  51
ATOM     51  C   UNL A   1      40.618  27.918  28.584  1.00  0.00     0.064 A 
ATOM     52  C   UNL A   1      39.955  26.688  28.484  1.00  0.00     0.173 A 
ATOM     53  C   UNL A   1      41.416  28.320  27.504  1.00  0.00     0.173 A 
ATOM     54  F   UNL A   1      39.193  26.253  29.499  1.00  0.00    -0.203 F 
ATOM     55  C   UNL A   1      40.095  25.885  27.354  1.00  0.00     0.198 A 
ATOM     56  C   UNL A   1      41.532  27.532  26.362  1.00  0.00     0.198 A 
ATOM     57  F   UNL A   1      42.065  29.493  27.549  1.00  0.00    -0.203 F 
ATOM     58  F   UNL A   1      39.481  24.697  27.298  1.00  0.00    -0.200 F 
ATOM     59  C   UNL A   1      40.878  26.313  26.291  1.00  0.00     0.200 A 
ATOM     60  F   UNL A   1      42.274  27.958  25.330  1.00  0.00    -0.200 F 
ATOM     61  F   UNL A   1      41.003  25.547  25.198  1.00  0.00    -0.200 F 
ENDBRANCH  27  51
BRANCH  39  62
ATOM     62  C   UNL A   1      43.818  28.239  34.751  1.00  0.00     0.064 A 
ATOM     63  C   UNL A   1      45.154  28.630  34.581  1.00  0.00     0.173 A 
ATOM     64  C   UNL A   1      43.559  27.078  35.492  1.00  0.00     0.173 A 
ATOM     65  F   UNL A   1      45.450  29.725  33.864  1.00  0.00    -0.203 F 
ATOM     66  C   UNL A   1      46.193  27.868  35.106  1.00  0.00     0.198 A 
ATOM     67  C   UNL A   1      44.600  26.331  36.038  1.00  0.00     0.198 A 
ATOM     68  F   UNL A   1      42.297  26.665  35.685  1.00  0.00    -0.203 F 
ATOM     69  F   UNL A   1      47.464  28.231  34.886  1.00  0.00    -0.200 F 
ATOM     70  C   UNL A   1      45.916  26.723  35.836  1.00  0.00     0.200 A 
ATOM     71  F   UNL A   1      44.331  25.229  36.748  1.00  0.00    -0.200 F 
ATOM     72  F   UNL A   1      46.918  25.987  36.336  1.00  0.00    -0.200 F 
ENDBRANCH  39  62
ENDBRANCH  13  14
ENDBRANCH   6   8
ENDBRANCH   3   4
ENDBRANCH   2   3
ENDBRANCH   1   2
BRANCH   1  73
ATOM     73  C   UNL A   1      32.700  29.865  26.130  1.00  0.00     0.116 C 
BRANCH  73  74
ATOM     74  N   UNL A   1      32.264  28.861  27.079  1.00  0.00    -0.354 N 
ATOM     75  C   UNL A   1      31.519  27.745  26.831  1.00  0.00     0.243 C 
ATOM     76  H   UNL A   1      32.538  28.999  28.015  1.00  0.00     0.163 HD
ATOM     77  O   UNL A   1      30.670  27.470  27.681  1.00  0.00    -0.273 OA
BRANCH  75  78
ATOM     78  C   UNL A   1      31.632  27.015  25.479  1.00  0.00     0.187 C 
BRANCH  78  79
ATOM     79  N   UNL A   1      32.552  25.866  25.557  1.00  0.00    -0.261 N 
ATOM     80  C   UNL A   1      33.705  25.726  24.830  1.00  0.00     0.262 C 
ATOM     81  C   UNL A   1      32.342  24.761  26.339  1.00  0.00     0.262 C 
ATOM     82  O   UNL A   1      34.112  26.349  23.871  1.00  0.00    -0.269 OA
ATOM     83  C   UNL A   1      34.386  24.540  25.336  1.00  0.00     0.053 A 
ATOM     84  C   UNL A   1      33.517  23.901  26.194  1.00  0.00     0.053 A 
ATOM     85  O   UNL A   1      31.389  24.489  27.046  1.00  0.00    -0.269 OA
ATOM     86  C   UNL A   1      35.650  24.051  25.066  1.00  0.00     0.015 A 
ATOM     87  C   UNL A   1      33.829  22.687  26.773  1.00  0.00     0.015 A 
ATOM     88  C   UNL A   1      36.007  22.843  25.672  1.00  0.00     0.001 A 
ATOM     89  C   UNL A   1      35.095  22.155  26.499  1.00  0.00     0.001 A 
ENDBRANCH  78  79
BRANCH  78  90
ATOM     90  C   UNL A   1      30.256  26.715  24.817  1.00  0.00     0.071 C 
BRANCH  90  91
ATOM     91  C   UNL A   1      29.785  27.684  23.754  1.00  0.00    -0.045 A 
ATOM     92  C   UNL A   1      30.700  28.525  23.100  1.00  0.00     0.011 A 
ATOM     93  C   UNL A   1      28.414  27.841  23.499  1.00  0.00     0.011 A 
ATOM     94  C   UNL A   1      30.256  29.603  22.335  1.00  0.00     0.086 A 
ATOM     95  C   UNL A   1      27.959  28.908  22.721  1.00  0.00     0.086 A 
ATOM     96  C   UNL A   1      28.884  29.815  22.185  1.00  0.00     0.269 A 
BRANCH  96  97
ATOM     97  N   UNL A   1      28.407  31.029  21.517  1.00  0.00     0.062 N 
ATOM     98  O   UNL A   1      27.668  30.898  20.530  1.00  0.00    -0.258 OA
ATOM     99  O   UNL A   1      28.780  32.122  21.971  1.00  0.00    -0.258 OA
ENDBRANCH  96  97
ENDBRANCH  90  91
ENDBRANCH  78  90
ENDBRANCH  75  78
ENDBRANCH  73  74
ENDBRANCH   1  73
TORSDOF 15
ENDMDL
MODEL 2
REMARK VINA RESULT:     -13.3      0.721      2.039
REMARK SMILES O=C(NCCCCNC(=O)[C@H](Cc1ccc([N+](=O)[O-])cc1)N1C(=O)c2ccccc2C1=O)c1ccc(-c2c3nc(c(-c4c(F)c(F)c(F)c(F)c4F)c4ccc([nH]4)c(-c4c(F)c(F)c(F)c(F)c4F)c4nc(c(-c5c(F)c(F)c(F)c(F)c5F)c5ccc2[nH]5)C=C4)C=C3)cc1
REMARK SMILES IDX 6 1 5 2 4 3 3 4 1 5 2 6 33 8 34 9 95 10 35 11 94 12 36 13
REMARK SMILES IDX 37 14 38 15 88 16 39 17 93 18 87 19 89 20 40 21 92 22 86 23
REMARK SMILES IDX 85 24 41 26 73 27 53 28 72 29 54 30 57 31 71 32 90 33 55 34
REMARK SMILES IDX 56 35 70 37 91 38 58 39 42 40 43 41 51 42 44 43 45 44 49 45
REMARK SMILES IDX 52 46 46 47 47 48 50 49 48 50 74 51 75 52 83 53 76 54 77 55
REMARK SMILES IDX 81 56 84 57 78 58 79 59 82 60 80 61 59 62 60 63 68 64 61 65
REMARK SMILES IDX 62 66 66 67 69 68 63 69 64 70 67 71 65 72 7 73 8 74 9 75
REMARK SMILES IDX 10 77 11 78 22 79 23 80 31 81 24 82 25 83 30 84 32 85 26 86
REMARK SMILES IDX 29 87 27 88 28 89 12 90 13 91 14 92 21 93 15 94 20 95 16 96
REMARK SMILES IDX 17 97 18 98 19 99
REMARK H PARENT 3 7 89 25 57 36 8 76
REMARK Flexibility Score: inf
ROOT
ATOM      1  C   UNL A   1      31.478  30.612  25.601  1.00  0.00     0.023 C 
ENDROOT
BRANCH   1   2
ATOM      2  C   UNL A   1      31.512  31.502  26.844  1.00  0.00     0.023 C 
BRANCH   2   3
ATOM      3  C   UNL A   1      32.740  32.392  26.968  1.00  0.00     0.116 C 
BRANCH   3   4
ATOM      4  N   UNL A   1      32.419  33.746  27.393  1.00  0.00    -0.352 N 
ATOM      5  O   UNL A   1      32.533  35.580  28.708  1.00  0.00    -0.269 OA
ATOM      6  C   UNL A   1      33.004  34.494  28.388  1.00  0.00     0.251 C 
ATOM      7  H   UNL A   1      31.686  34.183  26.905  1.00  0.00     0.163 HD
BRANCH   6   8
ATOM      8  C   UNL A   1      34.190  33.963  29.093  1.00  0.00     0.039 A 
ATOM      9  C   UNL A   1      35.465  34.442  28.790  1.00  0.00     0.014 A 
ATOM     10  C   UNL A   1      34.025  32.954  30.048  1.00  0.00     0.014 A 
ATOM     11  C   UNL A   1      36.580  33.810  29.323  1.00  0.00     0.010 A 
ATOM     12  C   UNL A   1      35.148  32.382  30.653  1.00  0.00     0.010 A 
ATOM     13  C   UNL A   1      36.436  32.782  30.271  1.00  0.00    -0.014 A 
BRANCH  13  14
ATOM     14  C   UNL A   1      37.659  32.201  30.879  1.00  0.00     0.031 A 
ATOM     15  C   UNL A   1      38.102  32.570  32.266  1.00  0.00     0.074 A 
ATOM     16  C   UNL A   1      38.334  31.269  30.178  1.00  0.00     0.049 A 
ATOM     17  N   UNL A   1      39.098  32.086  32.967  1.00  0.00    -0.248 NA
ATOM     18  C   UNL A   1      37.340  33.620  32.958  1.00  0.00     0.031 C 
ATOM     19  C   UNL A   1      38.011  30.853  28.810  1.00  0.00     0.029 A 
ATOM     20  N   UNL A   1      39.399  30.478  30.523  1.00  0.00    -0.354 N 
ATOM     21  C   UNL A   1      39.090  32.778  34.171  1.00  0.00     0.074 A 
ATOM     22  C   UNL A   1      38.007  33.736  34.099  1.00  0.00     0.031 C 
ATOM     23  C   UNL A   1      38.813  29.840  28.459  1.00  0.00     0.029 A 
ATOM     24  C   UNL A   1      39.742  29.572  29.550  1.00  0.00     0.049 A 
ATOM     25  H   UNL A   1      39.870  30.552  31.383  1.00  0.00     0.167 HD
ATOM     26  C   UNL A   1      39.909  32.620  35.240  1.00  0.00     0.037 A 
ATOM     27  C   UNL A   1      40.700  28.627  29.536  1.00  0.00     0.037 A 
ATOM     28  C   UNL A   1      40.978  31.656  35.311  1.00  0.00     0.049 A 
ATOM     29  C   UNL A   1      41.570  28.457  30.746  1.00  0.00     0.074 A 
ATOM     30  C   UNL A   1      41.861  31.418  36.352  1.00  0.00     0.029 A 
ATOM     31  N   UNL A   1      41.305  30.763  34.301  1.00  0.00    -0.354 N 
ATOM     32  N   UNL A   1      41.543  29.113  31.880  1.00  0.00    -0.248 NA
ATOM     33  C   UNL A   1      42.605  27.418  30.673  1.00  0.00     0.031 C 
ATOM     34  C   UNL A   1      42.738  30.401  35.960  1.00  0.00     0.029 A 
ATOM     35  C   UNL A   1      42.380  29.979  34.691  1.00  0.00     0.049 A 
ATOM     36  H   UNL A   1      40.842  30.696  33.435  1.00  0.00     0.167 HD
ATOM     37  C   UNL A   1      42.557  28.571  32.655  1.00  0.00     0.074 A 
ATOM     38  C   UNL A   1      43.154  27.505  31.876  1.00  0.00     0.031 C 
ATOM     39  C   UNL A   1      42.968  28.934  33.894  1.00  0.00     0.037 A 
BRANCH  26  40
ATOM     40  C   UNL A   1      39.689  33.513  36.426  1.00  0.00     0.064 A 
ATOM     41  C   UNL A   1      40.275  34.785  36.505  1.00  0.00     0.173 A 
ATOM     42  C   UNL A   1      38.832  33.119  37.466  1.00  0.00     0.173 A 
ATOM     43  F   UNL A   1      41.111  35.203  35.543  1.00  0.00    -0.203 F 
ATOM     44  C   UNL A   1      40.021  35.626  37.586  1.00  0.00     0.198 A 
ATOM     45  C   UNL A   1      38.562  33.971  38.534  1.00  0.00     0.198 A 
ATOM     46  F   UNL A   1      38.242  31.915  37.436  1.00  0.00    -0.203 F 
ATOM     47  F   UNL A   1      40.614  36.825  37.656  1.00  0.00    -0.200 F 
ATOM     48  C   UNL A   1      39.159  35.222  38.596  1.00  0.00     0.200 A 
ATOM     49  F   UNL A   1      37.721  33.584  39.503  1.00  0.00    -0.200 F 
ATOM     50  F   UNL A   1      38.906  36.037  39.629  1.00  0.00    -0.200 F 
ENDBRANCH  26  40
BRANCH  27  51
ATOM     51  C   UNL A   1      40.873  27.776  28.332  1.00  0.00     0.064 A 
ATOM     52  C   UNL A   1      41.691  28.184  27.270  1.00  0.00     0.173 A 
ATOM     53  C   UNL A   1      40.244  26.528  28.233  1.00  0.00     0.173 A 
ATOM     54  F   UNL A   1      42.300  29.378  27.313  1.00  0.00    -0.203 F 
ATOM     55  C   UNL A   1      41.862  27.379  26.145  1.00  0.00     0.198 A 
ATOM     56  C   UNL A   1      40.439  25.711  27.122  1.00  0.00     0.198 A 
ATOM     57  F   UNL A   1      39.459  26.090  29.227  1.00  0.00    -0.203 F 
ATOM     58  F   UNL A   1      42.618  27.807  25.126  1.00  0.00    -0.200 F 
ATOM     59  C   UNL A   1      41.241  26.140  26.077  1.00  0.00     0.200 A 
ATOM     60  F   UNL A   1      39.854  24.506  27.068  1.00  0.00    -0.200 F 
ATOM     61  F   UNL A   1      41.415  25.360  25.000  1.00  0.00    -0.200 F 
ENDBRANCH  27  51
BRANCH  39  62
ATOM     62  C   UNL A   1      44.123  28.171  34.469  1.00  0.00     0.064 A 
ATOM     63  C   UNL A   1      43.924  26.991  35.200  1.00  0.00     0.173 A 
ATOM     64  C   UNL A   1      45.438  28.622  34.287  1.00  0.00     0.173 A 
ATOM     65  F   UNL A   1      42.682  26.531  35.413  1.00  0.00    -0.203 F 
ATOM     66  C   UNL A   1      45.000  26.306  35.756  1.00  0.00     0.198 A 
ATOM     67  C   UNL A   1      46.514  27.920  34.824  1.00  0.00     0.198 A 
ATOM     68  F   UNL A   1      45.680  29.744  33.593  1.00  0.00    -0.203 F 
ATOM     69  F   UNL A   1      44.782  25.209  36.496  1.00  0.00    -0.200 F 
ATOM     70  C   UNL A   1      46.293  26.768  35.565  1.00  0.00     0.200 A 
ATOM     71  F   UNL A   1      47.763  28.364  34.634  1.00  0.00    -0.200 F 
ATOM     72  F   UNL A   1      47.327  26.110  36.107  1.00  0.00    -0.200 F 
ENDBRANCH  39  62
ENDBRANCH  13  14
ENDBRANCH   6   8
ENDBRANCH   3   4
ENDBRANCH   2   3
ENDBRANCH   1   2
BRANCH   1  73
ATOM     73  C   UNL A   1      32.555  29.526  25.544  1.00  0.00     0.116 C 
BRANCH  73  74
ATOM     74  N   UNL A   1      32.204  28.399  26.385  1.00  0.00    -0.354 N 
ATOM     75  C   UNL A   1      31.404  27.340  26.069  1.00  0.00     0.243 C 
ATOM     76  H   UNL A   1      32.590  28.396  27.291  1.00  0.00     0.163 HD
ATOM     77  O   UNL A   1      30.653  26.952  26.966  1.00  0.00    -0.273 OA
BRANCH  75  78
ATOM     78  C   UNL A   1      31.338  26.814  24.622  1.00  0.00     0.187 C 
BRANCH  78  79
ATOM     79  N   UNL A   1      32.170  25.610  24.442  1.00  0.00    -0.261 N 
ATOM     80  C   UNL A   1      33.313  25.545  23.690  1.00  0.00     0.262 C 
ATOM     81  C   UNL A   1      31.876  24.383  24.973  1.00  0.00     0.262 C 
ATOM     82  O   UNL A   1      33.770  26.327  22.881  1.00  0.00    -0.269 OA
ATOM     83  C   UNL A   1      33.903  24.232  23.923  1.00  0.00     0.053 A 
ATOM     84  C   UNL A   1      32.985  23.490  24.634  1.00  0.00     0.053 A 
ATOM     85  O   UNL A   1      30.902  24.036  25.616  1.00  0.00    -0.269 OA
ATOM     86  C   UNL A   1      35.128  23.720  23.541  1.00  0.00     0.015 A 
ATOM     87  C   UNL A   1      33.203  22.160  24.937  1.00  0.00     0.015 A 
ATOM     88  C   UNL A   1      35.392  22.388  23.871  1.00  0.00     0.001 A 
ATOM     89  C   UNL A   1      34.428  21.608  24.542  1.00  0.00     0.001 A 
ENDBRANCH  78  79
BRANCH  78  90
ATOM     90  C   UNL A   1      29.889  26.703  24.066  1.00  0.00     0.071 C 
BRANCH  90  91
ATOM     91  C   UNL A   1      29.388  27.864  23.234  1.00  0.00    -0.045 A 
ATOM     92  C   UNL A   1      30.289  28.683  22.535  1.00  0.00     0.011 A 
ATOM     93  C   UNL A   1      28.028  28.211  23.254  1.00  0.00     0.011 A 
ATOM     94  C   UNL A   1      29.878  29.904  22.003  1.00  0.00     0.086 A 
ATOM     95  C   UNL A   1      27.602  29.425  22.710  1.00  0.00     0.086 A 
ATOM     96  C   UNL A   1      28.541  30.290  22.132  1.00  0.00     0.269 A 
BRANCH  96  97
ATOM     97  N   UNL A   1      28.132  31.635  21.718  1.00  0.00     0.062 N 
ATOM     98  O   UNL A   1      27.861  32.459  22.604  1.00  0.00    -0.258 OA
ATOM     99  O   UNL A   1      28.069  31.870  20.501  1.00  0.00    -0.258 OA
ENDBRANCH  96  97
ENDBRANCH  90  91
ENDBRANCH  78  90
ENDBRANCH  75  78
ENDBRANCH  73  74
ENDBRANCH   1  73
TORSDOF 15
ENDMDL
MODEL 3
REMARK VINA RESULT:     -13.2      5.399     10.913
REMARK SMILES O=C(NCCCCNC(=O)[C@H](Cc1ccc([N+](=O)[O-])cc1)N1C(=O)c2ccccc2C1=O)c1ccc(-c2c3nc(c(-c4c(F)c(F)c(F)c(F)c4F)c4ccc([nH]4)c(-c4c(F)c(F)c(F)c(F)c4F)c4nc(c(-c5c(F)c(F)c(F)c(F)c5F)c5ccc2[nH]5)C=C4)C=C3)cc1
REMARK SMILES IDX 6 1 5 2 4 3 3 4 1 5 2 6 33 8 34 9 95 10 35 11 94 12 36 13
REMARK SMILES IDX 37 14 38 15 88 16 39 17 93 18 87 19 89 20 40 21 92 22 86 23
REMARK SMILES IDX 85 24 41 26 73 27 53 28 72 29 54 30 57 31 71 32 90 33 55 34
REMARK SMILES IDX 56 35 70 37 91 38 58 39 42 40 43 41 51 42 44 43 45 44 49 45
REMARK SMILES IDX 52 46 46 47 47 48 50 49 48 50 74 51 75 52 83 53 76 54 77 55
REMARK SMILES IDX 81 56 84 57 78 58 79 59 82 60 80 61 59 62 60 63 68 64 61 65
REMARK SMILES IDX 62 66 66 67 69 68 63 69 64 70 67 71 65 72 7 73 8 74 9 75
REMARK SMILES IDX 10 77 11 78 22 79 23 80 31 81 24 82 25 83 30 84 32 85 26 86
REMARK SMILES IDX 29 87 27 88 28 89 12 90 13 91 14 92 21 93 15 94 20 95 16 96
REMARK SMILES IDX 17 97 18 98 19 99
REMARK H PARENT 3 7 89 25 57 36 8 76
REMARK Flexibility Score: inf
ROOT
ATOM      1  C   UNL A   1      36.517  20.017  25.043  1.00  0.00     0.023 C 
ENDROOT
BRANCH   1   2
ATOM      2  C   UNL A   1      37.938  19.553  24.718  1.00  0.00     0.023 C 
BRANCH   2   3
ATOM      3  C   UNL A   1      39.003  19.985  25.715  1.00  0.00     0.116 C 
BRANCH   3   4
ATOM      4  N   UNL A   1      40.146  19.087  25.748  1.00  0.00    -0.352 N 
ATOM      5  O   UNL A   1      42.329  18.526  25.919  1.00  0.00    -0.269 OA
ATOM      6  C   UNL A   1      41.455  19.375  26.059  1.00  0.00     0.251 C 
ATOM      7  H   UNL A   1      39.959  18.149  25.517  1.00  0.00     0.163 HD
BRANCH   6   8
ATOM      8  C   UNL A   1      41.806  20.731  26.534  1.00  0.00     0.039 A 
ATOM      9  C   UNL A   1      41.899  21.793  25.632  1.00  0.00     0.014 A 
ATOM     10  C   UNL A   1      42.072  20.933  27.891  1.00  0.00     0.014 A 
ATOM     11  C   UNL A   1      42.406  23.012  26.060  1.00  0.00     0.010 A 
ATOM     12  C   UNL A   1      42.493  22.190  28.336  1.00  0.00     0.010 A 
ATOM     13  C   UNL A   1      42.696  23.231  27.418  1.00  0.00    -0.014 A 
BRANCH  13  14
ATOM     14  C   UNL A   1      43.149  24.581  27.838  1.00  0.00     0.031 A 
ATOM     15  C   UNL A   1      44.599  24.974  27.798  1.00  0.00     0.074 A 
ATOM     16  C   UNL A   1      42.212  25.482  28.191  1.00  0.00     0.049 A 
ATOM     17  N   UNL A   1      45.141  26.139  28.051  1.00  0.00    -0.248 NA
ATOM     18  C   UNL A   1      45.568  23.929  27.439  1.00  0.00     0.031 C 
ATOM     19  C   UNL A   1      40.777  25.203  28.293  1.00  0.00     0.029 A 
ATOM     20  N   UNL A   1      42.313  26.815  28.492  1.00  0.00    -0.354 N 
ATOM     21  C   UNL A   1      46.510  25.967  27.893  1.00  0.00     0.074 A 
ATOM     22  C   UNL A   1      46.721  24.576  27.549  1.00  0.00     0.031 C 
ATOM     23  C   UNL A   1      40.126  26.342  28.564  1.00  0.00     0.029 A 
ATOM     24  C   UNL A   1      41.099  27.418  28.712  1.00  0.00     0.049 A 
ATOM     25  H   UNL A   1      43.171  27.294  28.545  1.00  0.00     0.167 HD
ATOM     26  C   UNL A   1      47.496  26.888  28.018  1.00  0.00     0.037 A 
ATOM     27  C   UNL A   1      40.799  28.697  29.000  1.00  0.00     0.037 A 
ATOM     28  C   UNL A   1      47.279  28.274  28.348  1.00  0.00     0.049 A 
ATOM     29  C   UNL A   1      41.910  29.699  29.101  1.00  0.00     0.074 A 
ATOM     30  C   UNL A   1      48.214  29.286  28.495  1.00  0.00     0.029 A 
ATOM     31  N   UNL A   1      46.036  28.845  28.577  1.00  0.00    -0.354 N 
ATOM     32  N   UNL A   1      43.198  29.521  28.940  1.00  0.00    -0.248 NA
ATOM     33  C   UNL A   1      41.527  31.079  29.427  1.00  0.00     0.031 C 
ATOM     34  C   UNL A   1      47.539  30.462  28.840  1.00  0.00     0.029 A 
ATOM     35  C   UNL A   1      46.180  30.193  28.871  1.00  0.00     0.049 A 
ATOM     36  H   UNL A   1      45.177  28.365  28.537  1.00  0.00     0.167 HD
ATOM     37  C   UNL A   1      43.781  30.762  29.149  1.00  0.00     0.074 A 
ATOM     38  C   UNL A   1      42.701  31.692  29.408  1.00  0.00     0.031 C 
ATOM     39  C   UNL A   1      45.093  31.098  29.142  1.00  0.00     0.037 A 
BRANCH  26  40
ATOM     40  C   UNL A   1      48.910  26.432  27.801  1.00  0.00     0.064 A 
ATOM     41  C   UNL A   1      49.452  26.313  26.512  1.00  0.00     0.173 A 
ATOM     42  C   UNL A   1      49.752  26.174  28.894  1.00  0.00     0.173 A 
ATOM     43  F   UNL A   1      48.685  26.537  25.436  1.00  0.00    -0.203 F 
ATOM     44  C   UNL A   1      50.781  25.940  26.326  1.00  0.00     0.198 A 
ATOM     45  C   UNL A   1      51.087  25.823  28.704  1.00  0.00     0.198 A 
ATOM     46  F   UNL A   1      49.284  26.279  30.146  1.00  0.00    -0.203 F 
ATOM     47  F   UNL A   1      51.270  25.804  25.086  1.00  0.00    -0.200 F 
ATOM     48  C   UNL A   1      51.599  25.704  27.421  1.00  0.00     0.200 A 
ATOM     49  F   UNL A   1      51.878  25.606  29.763  1.00  0.00    -0.200 F 
ATOM     50  F   UNL A   1      52.881  25.357  27.240  1.00  0.00    -0.200 F 
ENDBRANCH  26  40
BRANCH  27  51
ATOM     51  C   UNL A   1      39.382  29.089  29.208  1.00  0.00     0.064 A 
ATOM     52  C   UNL A   1      38.577  29.491  28.135  1.00  0.00     0.173 A 
ATOM     53  C   UNL A   1      38.800  29.044  30.483  1.00  0.00     0.173 A 
ATOM     54  F   UNL A   1      39.094  29.565  26.900  1.00  0.00    -0.203 F 
ATOM     55  C   UNL A   1      37.243  29.847  28.331  1.00  0.00     0.198 A 
ATOM     56  C   UNL A   1      37.460  29.371  30.673  1.00  0.00     0.198 A 
ATOM     57  F   UNL A   1      39.528  28.658  31.541  1.00  0.00    -0.203 F 
ATOM     58  F   UNL A   1      36.504  30.264  27.295  1.00  0.00    -0.200 F 
ATOM     59  C   UNL A   1      36.685  29.779  29.599  1.00  0.00     0.200 A 
ATOM     60  F   UNL A   1      36.919  29.286  31.897  1.00  0.00    -0.200 F 
ATOM     61  F   UNL A   1      35.400  30.110  29.786  1.00  0.00    -0.200 F 
ENDBRANCH  27  51
BRANCH  39  62
ATOM     62  C   UNL A   1      45.422  32.531  29.433  1.00  0.00     0.064 A 
ATOM     63  C   UNL A   1      45.656  32.971  30.744  1.00  0.00     0.173 A 
ATOM     64  C   UNL A   1      45.504  33.470  28.396  1.00  0.00     0.173 A 
ATOM     65  F   UNL A   1      45.571  32.111  31.770  1.00  0.00    -0.203 F 
ATOM     66  C   UNL A   1      45.930  34.309  31.009  1.00  0.00     0.198 A 
ATOM     67  C   UNL A   1      45.802  34.804  28.662  1.00  0.00     0.198 A 
ATOM     68  F   UNL A   1      45.290  33.096  27.125  1.00  0.00    -0.203 F 
ATOM     69  F   UNL A   1      46.098  34.719  32.274  1.00  0.00    -0.200 F 
ATOM     70  C   UNL A   1      46.007  35.223  29.968  1.00  0.00     0.200 A 
ATOM     71  F   UNL A   1      45.882  35.684  27.656  1.00  0.00    -0.200 F 
ATOM     72  F   UNL A   1      46.265  36.513  30.226  1.00  0.00    -0.200 F 
ENDBRANCH  39  62
ENDBRANCH  13  14
ENDBRANCH   6   8
ENDBRANCH   3   4
ENDBRANCH   2   3
ENDBRANCH   1   2
BRANCH   1  73
ATOM     73  C   UNL A   1      36.395  21.465  25.523  1.00  0.00     0.116 C 
BRANCH  73  74
ATOM     74  N   UNL A   1      36.545  22.394  24.422  1.00  0.00    -0.354 N 
ATOM     75  C   UNL A   1      35.568  22.886  23.607  1.00  0.00     0.243 C 
ATOM     76  H   UNL A   1      37.460  22.710  24.241  1.00  0.00     0.163 HD
ATOM     77  O   UNL A   1      35.869  22.991  22.416  1.00  0.00    -0.273 OA
BRANCH  75  78
ATOM     78  C   UNL A   1      34.140  23.105  24.142  1.00  0.00     0.187 C 
BRANCH  78  79
ATOM     79  N   UNL A   1      33.861  24.533  24.382  1.00  0.00    -0.261 N 
ATOM     80  C   UNL A   1      33.649  25.101  25.610  1.00  0.00     0.262 C 
ATOM     81  C   UNL A   1      33.734  25.471  23.392  1.00  0.00     0.262 C 
ATOM     82  O   UNL A   1      33.438  24.587  26.689  1.00  0.00    -0.269 OA
ATOM     83  C   UNL A   1      33.582  26.543  25.407  1.00  0.00     0.053 A 
ATOM     84  C   UNL A   1      33.546  26.765  24.047  1.00  0.00     0.053 A 
ATOM     85  O   UNL A   1      33.766  25.323  22.184  1.00  0.00    -0.269 OA
ATOM     86  C   UNL A   1      33.546  27.575  26.324  1.00  0.00     0.015 A 
ATOM     87  C   UNL A   1      33.388  28.033  23.522  1.00  0.00     0.015 A 
ATOM     88  C   UNL A   1      33.428  28.872  25.818  1.00  0.00     0.001 A 
ATOM     89  C   UNL A   1      33.325  29.097  24.429  1.00  0.00     0.001 A 
ENDBRANCH  78  79
BRANCH  78  90
ATOM     90  C   UNL A   1      33.049  22.347  23.332  1.00  0.00     0.071 C 
BRANCH  90  91
ATOM     91  C   UNL A   1      32.762  20.919  23.744  1.00  0.00    -0.045 A 
ATOM     92  C   UNL A   1      32.903  20.522  25.084  1.00  0.00     0.011 A 
ATOM     93  C   UNL A   1      32.473  19.948  22.773  1.00  0.00     0.011 A 
ATOM     94  C   UNL A   1      32.917  19.171  25.429  1.00  0.00     0.086 A 
ATOM     95  C   UNL A   1      32.469  18.593  23.110  1.00  0.00     0.086 A 
ATOM     96  C   UNL A   1      32.744  18.209  24.430  1.00  0.00     0.269 A 
BRANCH  96  97
ATOM     97  N   UNL A   1      32.913  16.790  24.754  1.00  0.00     0.062 N 
ATOM     98  O   UNL A   1      33.308  16.032  23.856  1.00  0.00    -0.258 OA
ATOM     99  O   UNL A   1      32.640  16.425  25.908  1.00  0.00    -0.258 OA
ENDBRANCH  96  97
ENDBRANCH  90  91
ENDBRANCH  78  90
ENDBRANCH  75  78
ENDBRANCH  73  74
ENDBRANCH   1  73
TORSDOF 15
ENDMDL
