MODEL 1
REMARK VINA RESULT:     -12.6      0.000      0.000
REMARK SMILES C[NH2+][C@]1(C(=O)NCCCCNC(=O)c2ccc(-c3c4nc(c(-c5c(F)c(F)c(F)c(F)c5F)c5ccc([nH]5)c(-c5c(F)c(F)c(F)c(F)c5F)c5nc(c(-c6c(F)c(F)c(F)c(F)c6F)c6ccc3[nH]6)C=C5)C=C4)cc2)CCC[C@@H](Sc2nncs2)C1
REMARK SMILES IDX 8 1 7 2 6 3 4 4 5 5 3 7 77 8 87 9 78 10 80 11 79 12 2 13
REMARK SMILES IDX 1 14 81 17 82 18 83 19 86 20 84 21 85 22 9 23 10 24 11 25
REMARK SMILES IDX 12 26 13 28 14 29 15 30 76 31 16 32 75 33 17 34 18 35 19 36
REMARK SMILES IDX 69 37 20 38 74 39 68 40 70 41 21 42 73 43 67 44 66 45 22 47
REMARK SMILES IDX 54 48 34 49 53 50 35 51 38 52 52 53 71 54 36 55 37 56 51 58
REMARK SMILES IDX 72 59 39 60 23 61 24 62 32 63 25 64 26 65 30 66 33 67 27 68
REMARK SMILES IDX 28 69 31 70 29 71 55 72 56 73 64 74 57 75 58 76 62 77 65 78
REMARK SMILES IDX 59 79 60 80 63 81 61 82 40 83 41 84 49 85 42 86 43 87 47 88
REMARK SMILES IDX 50 89 44 90 45 91 48 92 46 93
REMARK H PARENT 6 6 2 15 2 16 11 27 70 46 38 57
REMARK Flexibility Score: inf
ROOT
ATOM      1  C   UNL A   1      32.077  30.593  26.752  1.00  0.00     0.023 C 
ENDROOT
BRANCH   1   2
ATOM      2  C   UNL A   1      31.470  29.936  25.510  1.00  0.00     0.116 C 
BRANCH   2   3
ATOM      3  N   UNL A   1      32.493  29.664  24.516  1.00  0.00    -0.351 N 
ATOM      4  C   UNL A   1      32.577  28.734  23.525  1.00  0.00     0.281 C 
ATOM      5  O   UNL A   1      33.616  28.760  22.850  1.00  0.00    -0.268 OA
ATOM      6  H   UNL A   1      33.271  30.264  24.570  1.00  0.00     0.163 HD
BRANCH   4   7
ATOM      7  C   UNL A   1      31.409  27.738  23.172  1.00  0.00     0.176 C 
ATOM      8  C   UNL A   1      31.318  26.527  24.128  1.00  0.00     0.079 C 
ATOM      9  C   UNL A   1      30.092  28.561  23.166  1.00  0.00     0.094 C 
ATOM     10  C   UNL A   1      30.060  25.684  23.930  1.00  0.00     0.008 C 
ATOM     11  C   UNL A   1      28.831  27.694  23.048  1.00  0.00     0.061 C 
ATOM     12  C   UNL A   1      28.809  26.547  24.064  1.00  0.00     0.015 C 
BRANCH   7  13
ATOM     13  N   UNL A   1      31.584  27.294  21.746  1.00  0.00    -0.336 N 
ATOM     14  C   UNL A   1      32.328  26.050  21.571  1.00  0.00     0.331 C 
ATOM     15  H   UNL A   1      30.657  27.167  21.339  1.00  0.00     0.346 HD
ATOM     16  H   UNL A   1      32.133  28.021  21.288  1.00  0.00     0.346 HD
ENDBRANCH   7  13
BRANCH  11  17
ATOM     17  S   UNL A   1      27.289  28.686  23.098  1.00  0.00    -0.090 SA
BRANCH  17  18
ATOM     18  C   UNL A   1      27.753  30.196  22.356  1.00  0.00     0.174 A 
ATOM     19  N   UNL A   1      27.988  30.322  21.068  1.00  0.00    -0.132 NA
ATOM     20  S   UNL A   1      27.914  31.657  23.243  1.00  0.00    -0.094 S 
ATOM     21  N   UNL A   1      28.329  31.613  20.716  1.00  0.00    -0.146 NA
ATOM     22  C   UNL A   1      28.321  32.415  21.759  1.00  0.00     0.203 A 
ENDBRANCH  17  18
ENDBRANCH  11  17
ENDBRANCH   4   7
ENDBRANCH   2   3
ENDBRANCH   1   2
BRANCH   1  23
ATOM     23  C   UNL A   1      31.736  32.075  26.908  1.00  0.00     0.023 C 
BRANCH  23  24
ATOM     24  C   UNL A   1      32.913  32.965  27.292  1.00  0.00     0.116 C 
BRANCH  24  25
ATOM     25  N   UNL A   1      32.515  34.304  27.695  1.00  0.00    -0.352 N 
ATOM     26  C   UNL A   1      33.031  35.087  28.703  1.00  0.00     0.251 C 
ATOM     27  H   UNL A   1      31.779  34.705  27.178  1.00  0.00     0.163 HD
ATOM     28  O   UNL A   1      32.518  36.154  28.991  1.00  0.00    -0.269 OA
BRANCH  26  29
ATOM     29  C   UNL A   1      34.198  34.592  29.464  1.00  0.00     0.039 A 
ATOM     30  C   UNL A   1      33.984  33.988  30.705  1.00  0.00     0.014 A 
ATOM     31  C   UNL A   1      35.488  34.692  28.936  1.00  0.00     0.014 A 
ATOM     32  C   UNL A   1      35.060  33.421  31.388  1.00  0.00     0.010 A 
ATOM     33  C   UNL A   1      36.547  34.066  29.584  1.00  0.00     0.010 A 
ATOM     34  C   UNL A   1      36.342  33.422  30.815  1.00  0.00    -0.014 A 
BRANCH  34  35
ATOM     35  C   UNL A   1      37.484  32.754  31.484  1.00  0.00     0.031 A 
ATOM     36  C   UNL A   1      38.183  31.608  30.811  1.00  0.00     0.074 A 
ATOM     37  C   UNL A   1      37.845  33.136  32.724  1.00  0.00     0.049 A 
ATOM     38  N   UNL A   1      39.149  30.849  31.261  1.00  0.00    -0.248 NA
ATOM     39  C   UNL A   1      37.716  31.250  29.462  1.00  0.00     0.031 C 
ATOM     40  C   UNL A   1      37.211  34.205  33.499  1.00  0.00     0.029 A 
ATOM     41  N   UNL A   1      38.828  32.661  33.556  1.00  0.00    -0.354 N 
ATOM     42  C   UNL A   1      39.394  29.918  30.260  1.00  0.00     0.074 A 
ATOM     43  C   UNL A   1      38.441  30.174  29.201  1.00  0.00     0.031 C 
ATOM     44  C   UNL A   1      37.836  34.319  34.682  1.00  0.00     0.029 A 
ATOM     45  C   UNL A   1      38.890  33.312  34.763  1.00  0.00     0.049 A 
ATOM     46  H   UNL A   1      39.432  31.923  33.309  1.00  0.00     0.167 HD
ATOM     47  C   UNL A   1      40.344  28.955  30.217  1.00  0.00     0.037 A 
ATOM     48  C   UNL A   1      39.703  33.113  35.817  1.00  0.00     0.037 A 
ATOM     49  C   UNL A   1      41.306  28.721  31.260  1.00  0.00     0.049 A 
ATOM     50  C   UNL A   1      40.747  32.034  35.745  1.00  0.00     0.074 A 
ATOM     51  C   UNL A   1      42.342  27.803  31.290  1.00  0.00     0.029 A 
ATOM     52  N   UNL A   1      41.350  29.413  32.462  1.00  0.00    -0.354 N 
ATOM     53  N   UNL A   1      41.010  31.199  34.768  1.00  0.00    -0.248 NA
ATOM     54  C   UNL A   1      41.613  31.871  36.922  1.00  0.00     0.031 C 
ATOM     55  C   UNL A   1      42.990  27.915  32.526  1.00  0.00     0.029 A 
ATOM     56  C   UNL A   1      42.386  28.932  33.247  1.00  0.00     0.049 A 
ATOM     57  H   UNL A   1      40.735  30.138  32.719  1.00  0.00     0.167 HD
ATOM     58  C   UNL A   1      42.086  30.435  35.198  1.00  0.00     0.074 A 
ATOM     59  C   UNL A   1      42.436  30.912  36.520  1.00  0.00     0.031 C 
ATOM     60  C   UNL A   1      42.726  29.427  34.556  1.00  0.00     0.037 A 
BRANCH  47  61
ATOM     61  C   UNL A   1      40.394  28.087  28.994  1.00  0.00     0.064 A 
ATOM     62  C   UNL A   1      41.161  28.443  27.874  1.00  0.00     0.173 A 
ATOM     63  C   UNL A   1      39.694  26.872  28.950  1.00  0.00     0.173 A 
ATOM     64  F   UNL A   1      41.839  29.601  27.859  1.00  0.00    -0.203 F 
ATOM     65  C   UNL A   1      41.202  27.629  26.745  1.00  0.00     0.198 A 
ATOM     66  C   UNL A   1      39.761  26.046  27.831  1.00  0.00     0.198 A 
ATOM     67  F   UNL A   1      38.949  26.483  29.996  1.00  0.00    -0.203 F 
ATOM     68  F   UNL A   1      41.903  28.013  25.669  1.00  0.00    -0.200 F 
ATOM     69  C   UNL A   1      40.508  26.429  26.727  1.00  0.00     0.200 A 
ATOM     70  F   UNL A   1      39.098  24.881  27.820  1.00  0.00    -0.200 F 
ATOM     71  F   UNL A   1      40.554  25.643  25.642  1.00  0.00    -0.200 F 
ENDBRANCH  47  61
BRANCH  48  72
ATOM     72  C   UNL A   1      39.584  33.979  37.019  1.00  0.00     0.064 A 
ATOM     73  C   UNL A   1      40.238  35.217  37.077  1.00  0.00     0.173 A 
ATOM     74  C   UNL A   1      38.823  33.589  38.131  1.00  0.00     0.173 A 
ATOM     75  F   UNL A   1      40.995  35.622  36.045  1.00  0.00    -0.203 F 
ATOM     76  C   UNL A   1      40.151  36.025  38.207  1.00  0.00     0.198 A 
ATOM     77  C   UNL A   1      38.715  34.411  39.251  1.00  0.00     0.198 A 
ATOM     78  F   UNL A   1      38.175  32.416  38.123  1.00  0.00    -0.203 F 
ATOM     79  F   UNL A   1      40.821  37.185  38.253  1.00  0.00    -0.200 F 
ATOM     80  C   UNL A   1      39.386  35.625  39.292  1.00  0.00     0.200 A 
ATOM     81  F   UNL A   1      37.964  34.026  40.292  1.00  0.00    -0.200 F 
ATOM     82  F   UNL A   1      39.299  36.403  40.378  1.00  0.00    -0.200 F 
ENDBRANCH  48  72
BRANCH  60  83
ATOM     83  C   UNL A   1      43.894  28.799  35.257  1.00  0.00     0.064 A 
ATOM     84  C   UNL A   1      43.731  27.707  36.121  1.00  0.00     0.173 A 
ATOM     85  C   UNL A   1      45.195  29.270  35.026  1.00  0.00     0.173 A 
ATOM     86  F   UNL A   1      42.505  27.231  36.385  1.00  0.00    -0.203 F 
ATOM     87  C   UNL A   1      44.830  27.123  36.747  1.00  0.00     0.198 A 
ATOM     88  C   UNL A   1      46.293  28.666  35.632  1.00  0.00     0.198 A 
ATOM     89  F   UNL A   1      45.403  30.309  34.203  1.00  0.00    -0.203 F 
ATOM     90  F   UNL A   1      44.648  26.108  37.604  1.00  0.00    -0.200 F 
ATOM     91  C   UNL A   1      46.109  27.598  36.497  1.00  0.00     0.200 A 
ATOM     92  F   UNL A   1      47.529  29.118  35.379  1.00  0.00    -0.200 F 
ATOM     93  F   UNL A   1      47.164  27.029  37.094  1.00  0.00    -0.200 F 
ENDBRANCH  60  83
ENDBRANCH  34  35
ENDBRANCH  26  29
ENDBRANCH  24  25
ENDBRANCH  23  24
ENDBRANCH   1  23
TORSDOF 14
ENDMDL
MODEL 2
REMARK VINA RESULT:     -12.6      0.084      1.613
REMARK SMILES C[NH2+][C@]1(C(=O)NCCCCNC(=O)c2ccc(-c3c4nc(c(-c5c(F)c(F)c(F)c(F)c5F)c5ccc([nH]5)c(-c5c(F)c(F)c(F)c(F)c5F)c5nc(c(-c6c(F)c(F)c(F)c(F)c6F)c6ccc3[nH]6)C=C5)C=C4)cc2)CCC[C@@H](Sc2nncs2)C1
REMARK SMILES IDX 8 1 7 2 6 3 4 4 5 5 3 7 77 8 87 9 78 10 80 11 79 12 2 13
REMARK SMILES IDX 1 14 81 17 82 18 83 19 86 20 84 21 85 22 9 23 10 24 11 25
REMARK SMILES IDX 12 26 13 28 14 29 15 30 76 31 16 32 75 33 17 34 18 35 19 36
REMARK SMILES IDX 69 37 20 38 74 39 68 40 70 41 21 42 73 43 67 44 66 45 22 47
REMARK SMILES IDX 54 48 34 49 53 50 35 51 38 52 52 53 71 54 36 55 37 56 51 58
REMARK SMILES IDX 72 59 39 60 23 61 24 62 32 63 25 64 26 65 30 66 33 67 27 68
REMARK SMILES IDX 28 69 31 70 29 71 55 72 56 73 64 74 57 75 58 76 62 77 65 78
REMARK SMILES IDX 59 79 60 80 63 81 61 82 40 83 41 84 49 85 42 86 43 87 47 88
REMARK SMILES IDX 50 89 44 90 45 91 48 92 46 93
REMARK H PARENT 6 6 2 15 2 16 11 27 70 46 38 57
REMARK Flexibility Score: inf
ROOT
ATOM      1  C   UNL A   1      32.262  30.533  26.870  1.00  0.00     0.023 C 
ENDROOT
BRANCH   1   2
ATOM      2  C   UNL A   1      31.608  29.835  25.677  1.00  0.00     0.116 C 
BRANCH   2   3
ATOM      3  N   UNL A   1      32.556  29.671  24.589  1.00  0.00    -0.351 N 
ATOM      4  C   UNL A   1      32.592  28.812  23.533  1.00  0.00     0.281 C 
ATOM      5  O   UNL A   1      33.571  28.926  22.782  1.00  0.00    -0.268 OA
ATOM      6  H   UNL A   1      33.314  30.298  24.622  1.00  0.00     0.163 HD
BRANCH   4   7
ATOM      7  C   UNL A   1      31.436  27.795  23.204  1.00  0.00     0.176 C 
ATOM      8  C   UNL A   1      31.358  26.606  24.191  1.00  0.00     0.079 C 
ATOM      9  C   UNL A   1      30.109  28.601  23.179  1.00  0.00     0.094 C 
ATOM     10  C   UNL A   1      30.111  25.744  24.014  1.00  0.00     0.008 C 
ATOM     11  C   UNL A   1      28.859  27.718  23.082  1.00  0.00     0.061 C 
ATOM     12  C   UNL A   1      28.849  26.596  24.126  1.00  0.00     0.015 C 
BRANCH   7  13
ATOM     13  N   UNL A   1      31.616  27.317  21.790  1.00  0.00    -0.336 N 
ATOM     14  C   UNL A   1      32.413  26.103  21.643  1.00  0.00     0.331 C 
ATOM     15  H   UNL A   1      30.692  27.137  21.397  1.00  0.00     0.346 HD
ATOM     16  H   UNL A   1      32.128  28.054  21.305  1.00  0.00     0.346 HD
ENDBRANCH   7  13
BRANCH  11  17
ATOM     17  S   UNL A   1      27.305  28.692  23.107  1.00  0.00    -0.090 SA
BRANCH  17  18
ATOM     18  C   UNL A   1      27.758  30.199  22.351  1.00  0.00     0.174 A 
ATOM     19  N   UNL A   1      27.962  30.321  21.057  1.00  0.00    -0.132 NA
ATOM     20  S   UNL A   1      27.949  31.661  23.230  1.00  0.00    -0.094 S 
ATOM     21  N   UNL A   1      28.300  31.609  20.694  1.00  0.00    -0.146 NA
ATOM     22  C   UNL A   1      28.322  32.413  21.735  1.00  0.00     0.203 A 
ENDBRANCH  17  18
ENDBRANCH  11  17
ENDBRANCH   4   7
ENDBRANCH   2   3
ENDBRANCH   1   2
BRANCH   1  23
ATOM     23  C   UNL A   1      31.834  31.989  27.057  1.00  0.00     0.023 C 
BRANCH  23  24
ATOM     24  C   UNL A   1      32.983  32.976  27.232  1.00  0.00     0.116 C 
BRANCH  24  25
ATOM     25  N   UNL A   1      32.549  34.293  27.670  1.00  0.00    -0.352 N 
ATOM     26  C   UNL A   1      33.038  35.059  28.704  1.00  0.00     0.251 C 
ATOM     27  H   UNL A   1      31.807  34.690  27.159  1.00  0.00     0.163 HD
ATOM     28  O   UNL A   1      32.497  36.105  29.018  1.00  0.00    -0.269 OA
BRANCH  26  29
ATOM     29  C   UNL A   1      34.211  34.572  29.460  1.00  0.00     0.039 A 
ATOM     30  C   UNL A   1      34.007  33.975  30.706  1.00  0.00     0.014 A 
ATOM     31  C   UNL A   1      35.497  34.671  28.924  1.00  0.00     0.014 A 
ATOM     32  C   UNL A   1      35.088  33.414  31.385  1.00  0.00     0.010 A 
ATOM     33  C   UNL A   1      36.562  34.051  29.568  1.00  0.00     0.010 A 
ATOM     34  C   UNL A   1      36.367  33.414  30.804  1.00  0.00    -0.014 A 
BRANCH  34  35
ATOM     35  C   UNL A   1      37.514  32.753  31.470  1.00  0.00     0.031 A 
ATOM     36  C   UNL A   1      38.220  31.613  30.793  1.00  0.00     0.074 A 
ATOM     37  C   UNL A   1      37.876  33.135  32.709  1.00  0.00     0.049 A 
ATOM     38  N   UNL A   1      39.192  30.859  31.240  1.00  0.00    -0.248 NA
ATOM     39  C   UNL A   1      37.752  31.254  29.445  1.00  0.00     0.031 C 
ATOM     40  C   UNL A   1      37.236  34.198  33.487  1.00  0.00     0.029 A 
ATOM     41  N   UNL A   1      38.863  32.666  33.538  1.00  0.00    -0.354 N 
ATOM     42  C   UNL A   1      39.441  29.932  30.237  1.00  0.00     0.074 A 
ATOM     43  C   UNL A   1      38.484  30.183  29.180  1.00  0.00     0.031 C 
ATOM     44  C   UNL A   1      37.863  34.315  34.669  1.00  0.00     0.029 A 
ATOM     45  C   UNL A   1      38.923  33.315  34.747  1.00  0.00     0.049 A 
ATOM     46  H   UNL A   1      39.472  31.932  33.289  1.00  0.00     0.167 HD
ATOM     47  C   UNL A   1      40.397  28.975  30.190  1.00  0.00     0.037 A 
ATOM     48  C   UNL A   1      39.740  33.120  35.799  1.00  0.00     0.037 A 
ATOM     49  C   UNL A   1      41.363  28.745  31.231  1.00  0.00     0.049 A 
ATOM     50  C   UNL A   1      40.792  32.047  35.723  1.00  0.00     0.074 A 
ATOM     51  C   UNL A   1      42.405  27.835  31.258  1.00  0.00     0.029 A 
ATOM     52  N   UNL A   1      41.405  29.436  32.434  1.00  0.00    -0.354 N 
ATOM     53  N   UNL A   1      41.058  31.217  34.744  1.00  0.00    -0.248 NA
ATOM     54  C   UNL A   1      41.661  31.889  36.898  1.00  0.00     0.031 C 
ATOM     55  C   UNL A   1      43.054  27.949  32.492  1.00  0.00     0.029 A 
ATOM     56  C   UNL A   1      42.445  28.961  33.216  1.00  0.00     0.049 A 
ATOM     57  H   UNL A   1      40.785  30.156  32.693  1.00  0.00     0.167 HD
ATOM     58  C   UNL A   1      42.139  30.459  35.170  1.00  0.00     0.074 A 
ATOM     59  C   UNL A   1      42.490  30.936  36.492  1.00  0.00     0.031 C 
ATOM     60  C   UNL A   1      42.785  29.456  34.525  1.00  0.00     0.037 A 
BRANCH  47  61
ATOM     61  C   UNL A   1      40.450  28.109  28.966  1.00  0.00     0.064 A 
ATOM     62  C   UNL A   1      39.729  26.907  28.887  1.00  0.00     0.173 A 
ATOM     63  C   UNL A   1      41.203  28.497  27.848  1.00  0.00     0.173 A 
ATOM     64  F   UNL A   1      39.003  26.485  29.933  1.00  0.00    -0.203 F 
ATOM     65  C   UNL A   1      39.784  26.112  27.745  1.00  0.00     0.198 A 
ATOM     66  C   UNL A   1      41.232  27.714  26.697  1.00  0.00     0.198 A 
ATOM     67  F   UNL A   1      41.906  29.639  27.870  1.00  0.00    -0.203 F 
ATOM     68  F   UNL A   1      39.126  24.946  27.711  1.00  0.00    -0.200 F 
ATOM     69  C   UNL A   1      40.529  26.520  26.649  1.00  0.00     0.200 A 
ATOM     70  F   UNL A   1      41.943  28.116  25.633  1.00  0.00    -0.200 F 
ATOM     71  F   UNL A   1      40.575  25.757  25.548  1.00  0.00    -0.200 F 
ENDBRANCH  47  61
BRANCH  48  72
ATOM     72  C   UNL A   1      39.618  33.983  37.002  1.00  0.00     0.064 A 
ATOM     73  C   UNL A   1      38.842  33.578  38.097  1.00  0.00     0.173 A 
ATOM     74  C   UNL A   1      40.265  35.224  37.083  1.00  0.00     0.173 A 
ATOM     75  F   UNL A   1      38.188  32.408  38.056  1.00  0.00    -0.203 F 
ATOM     76  C   UNL A   1      38.704  34.389  39.221  1.00  0.00     0.198 A 
ATOM     77  C   UNL A   1      40.147  36.023  38.219  1.00  0.00     0.198 A 
ATOM     78  F   UNL A   1      41.022  35.655  36.064  1.00  0.00    -0.203 F 
ATOM     79  F   UNL A   1      37.922  33.996  40.236  1.00  0.00    -0.200 F 
ATOM     80  C   UNL A   1      39.360  35.609  39.283  1.00  0.00     0.200 A 
ATOM     81  F   UNL A   1      40.793  37.195  38.281  1.00  0.00    -0.200 F 
ATOM     82  F   UNL A   1      39.230  36.388  40.365  1.00  0.00    -0.200 F 
ENDBRANCH  48  72
BRANCH  60  83
ATOM     83  C   UNL A   1      43.958  28.835  35.223  1.00  0.00     0.064 A 
ATOM     84  C   UNL A   1      43.809  27.722  36.062  1.00  0.00     0.173 A 
ATOM     85  C   UNL A   1      45.253  29.334  35.013  1.00  0.00     0.173 A 
ATOM     86  F   UNL A   1      42.590  27.218  36.305  1.00  0.00    -0.203 F 
ATOM     87  C   UNL A   1      44.913  27.145  36.685  1.00  0.00     0.198 A 
ATOM     88  C   UNL A   1      46.357  28.737  35.616  1.00  0.00     0.198 A 
ATOM     89  F   UNL A   1      45.448  30.394  34.214  1.00  0.00    -0.203 F 
ATOM     90  F   UNL A   1      44.743  26.109  37.519  1.00  0.00    -0.200 F 
ATOM     91  C   UNL A   1      46.185  27.648  36.456  1.00  0.00     0.200 A 
ATOM     92  F   UNL A   1      47.586  29.217  35.383  1.00  0.00    -0.200 F 
ATOM     93  F   UNL A   1      47.246  27.086  37.050  1.00  0.00    -0.200 F 
ENDBRANCH  60  83
ENDBRANCH  34  35
ENDBRANCH  26  29
ENDBRANCH  24  25
ENDBRANCH  23  24
ENDBRANCH   1  23
TORSDOF 14
ENDMDL
MODEL 3
REMARK VINA RESULT:     -12.6      0.596      7.503
REMARK SMILES C[NH2+][C@]1(C(=O)NCCCCNC(=O)c2ccc(-c3c4nc(c(-c5c(F)c(F)c(F)c(F)c5F)c5ccc([nH]5)c(-c5c(F)c(F)c(F)c(F)c5F)c5nc(c(-c6c(F)c(F)c(F)c(F)c6F)c6ccc3[nH]6)C=C5)C=C4)cc2)CCC[C@@H](Sc2nncs2)C1
REMARK SMILES IDX 8 1 7 2 6 3 4 4 5 5 3 7 77 8 87 9 78 10 80 11 79 12 2 13
REMARK SMILES IDX 1 14 81 17 82 18 83 19 86 20 84 21 85 22 9 23 10 24 11 25
REMARK SMILES IDX 12 26 13 28 14 29 15 30 76 31 16 32 75 33 17 34 18 35 19 36
REMARK SMILES IDX 69 37 20 38 74 39 68 40 70 41 21 42 73 43 67 44 66 45 22 47
REMARK SMILES IDX 54 48 34 49 53 50 35 51 38 52 52 53 71 54 36 55 37 56 51 58
REMARK SMILES IDX 72 59 39 60 23 61 24 62 32 63 25 64 26 65 30 66 33 67 27 68
REMARK SMILES IDX 28 69 31 70 29 71 55 72 56 73 64 74 57 75 58 76 62 77 65 78
REMARK SMILES IDX 59 79 60 80 63 81 61 82 40 83 41 84 49 85 42 86 43 87 47 88
REMARK SMILES IDX 50 89 44 90 45 91 48 92 46 93
REMARK H PARENT 6 6 2 15 2 16 11 27 70 46 38 57
REMARK Flexibility Score: inf
ROOT
ATOM      1  C   UNL A   1      31.208  31.247  25.788  1.00  0.00     0.023 C 
ENDROOT
BRANCH   1   2
ATOM      2  C   UNL A   1      31.815  29.844  25.725  1.00  0.00     0.116 C 
BRANCH   2   3
ATOM      3  N   UNL A   1      32.717  29.721  24.593  1.00  0.00    -0.351 N 
ATOM      4  C   UNL A   1      32.729  28.876  23.525  1.00  0.00     0.281 C 
ATOM      5  O   UNL A   1      33.669  29.027  22.733  1.00  0.00    -0.268 OA
ATOM      6  H   UNL A   1      33.457  30.369  24.600  1.00  0.00     0.163 HD
BRANCH   4   7
ATOM      7  C   UNL A   1      31.588  27.829  23.236  1.00  0.00     0.176 C 
ATOM      8  C   UNL A   1      31.542  26.667  24.255  1.00  0.00     0.079 C 
ATOM      9  C   UNL A   1      30.247  28.611  23.202  1.00  0.00     0.094 C 
ATOM     10  C   UNL A   1      30.309  25.778  24.114  1.00  0.00     0.008 C 
ATOM     11  C   UNL A   1      29.012  27.702  23.143  1.00  0.00     0.061 C 
ATOM     12  C   UNL A   1      29.033  26.610  24.217  1.00  0.00     0.015 C 
BRANCH   7  13
ATOM     13  N   UNL A   1      31.763  27.317  21.834  1.00  0.00    -0.336 N 
ATOM     14  C   UNL A   1      32.658  26.171  21.700  1.00  0.00     0.331 C 
ATOM     15  H   UNL A   1      30.846  27.044  21.480  1.00  0.00     0.346 HD
ATOM     16  H   UNL A   1      32.193  28.077  21.306  1.00  0.00     0.346 HD
ENDBRANCH   7  13
BRANCH  11  17
ATOM     17  S   UNL A   1      27.441  28.649  23.157  1.00  0.00    -0.090 SA
BRANCH  17  18
ATOM     18  C   UNL A   1      27.871  30.162  22.401  1.00  0.00     0.174 A 
ATOM     19  N   UNL A   1      28.031  30.296  21.101  1.00  0.00    -0.132 NA
ATOM     20  S   UNL A   1      28.095  31.615  23.287  1.00  0.00    -0.094 S 
ATOM     21  N   UNL A   1      28.360  31.587  20.739  1.00  0.00    -0.146 NA
ATOM     22  C   UNL A   1      28.419  32.381  21.787  1.00  0.00     0.203 A 
ENDBRANCH  17  18
ENDBRANCH  11  17
ENDBRANCH   4   7
ENDBRANCH   2   3
ENDBRANCH   1   2
BRANCH   1  23
ATOM     23  C   UNL A   1      31.422  31.964  27.121  1.00  0.00     0.023 C 
BRANCH  23  24
ATOM     24  C   UNL A   1      32.669  32.839  27.184  1.00  0.00     0.116 C 
BRANCH  24  25
ATOM     25  N   UNL A   1      32.393  34.208  27.587  1.00  0.00    -0.352 N 
ATOM     26  C   UNL A   1      33.009  34.956  28.566  1.00  0.00     0.251 C 
ATOM     27  H   UNL A   1      31.670  34.661  27.096  1.00  0.00     0.163 HD
ATOM     28  O   UNL A   1      32.592  36.063  28.862  1.00  0.00    -0.269 OA
BRANCH  26  29
ATOM     29  C   UNL A   1      34.164  34.379  29.284  1.00  0.00     0.039 A 
ATOM     30  C   UNL A   1      33.929  33.610  30.427  1.00  0.00     0.014 A 
ATOM     31  C   UNL A   1      35.465  34.565  28.810  1.00  0.00     0.014 A 
ATOM     32  C   UNL A   1      34.996  32.970  31.056  1.00  0.00     0.010 A 
ATOM     33  C   UNL A   1      36.518  33.871  29.396  1.00  0.00     0.010 A 
ATOM     34  C   UNL A   1      36.292  33.064  30.524  1.00  0.00    -0.014 A 
BRANCH  34  35
ATOM     35  C   UNL A   1      37.427  32.327  31.128  1.00  0.00     0.031 A 
ATOM     36  C   UNL A   1      37.919  32.696  32.498  1.00  0.00     0.074 A 
ATOM     37  C   UNL A   1      38.056  31.373  30.416  1.00  0.00     0.049 A 
ATOM     38  N   UNL A   1      38.940  32.224  33.167  1.00  0.00    -0.248 NA
ATOM     39  C   UNL A   1      37.180  33.758  33.201  1.00  0.00     0.031 C 
ATOM     40  C   UNL A   1      37.700  30.958  29.057  1.00  0.00     0.029 A 
ATOM     41  N   UNL A   1      39.134  30.584  30.731  1.00  0.00    -0.354 N 
ATOM     42  C   UNL A   1      38.973  32.938  34.357  1.00  0.00     0.074 A 
ATOM     43  C   UNL A   1      37.904  33.911  34.298  1.00  0.00     0.031 C 
ATOM     44  C   UNL A   1      38.530  29.977  28.666  1.00  0.00     0.029 A 
ATOM     45  C   UNL A   1      39.495  29.717  29.730  1.00  0.00     0.049 A 
ATOM     46  H   UNL A   1      39.604  30.636  31.596  1.00  0.00     0.167 HD
ATOM     47  C   UNL A   1      39.805  32.779  35.413  1.00  0.00     0.037 A 
ATOM     48  C   UNL A   1      40.495  28.818  29.677  1.00  0.00     0.037 A 
ATOM     49  C   UNL A   1      40.850  31.792  35.479  1.00  0.00     0.049 A 
ATOM     50  C   UNL A   1      41.407  28.664  30.863  1.00  0.00     0.074 A 
ATOM     51  C   UNL A   1      41.713  31.516  36.524  1.00  0.00     0.029 A 
ATOM     52  N   UNL A   1      41.174  30.918  34.451  1.00  0.00    -0.354 N 
ATOM     53  N   UNL A   1      41.391  29.302  32.008  1.00  0.00    -0.248 NA
ATOM     54  C   UNL A   1      42.473  27.658  30.751  1.00  0.00     0.031 C 
ATOM     55  C   UNL A   1      42.584  30.499  36.116  1.00  0.00     0.029 A 
ATOM     56  C   UNL A   1      42.234  30.111  34.833  1.00  0.00     0.049 A 
ATOM     57  H   UNL A   1      40.718  30.877  33.579  1.00  0.00     0.167 HD
ATOM     58  C   UNL A   1      42.422  28.759  32.761  1.00  0.00     0.074 A 
ATOM     59  C   UNL A   1      43.036  27.729  31.949  1.00  0.00     0.031 C 
ATOM     60  C   UNL A   1      42.825  29.084  34.014  1.00  0.00     0.037 A 
BRANCH  47  61
ATOM     61  C   UNL A   1      39.609  33.689  36.591  1.00  0.00     0.064 A 
ATOM     62  C   UNL A   1      38.802  33.317  37.677  1.00  0.00     0.173 A 
ATOM     63  C   UNL A   1      40.259  34.930  36.650  1.00  0.00     0.173 A 
ATOM     64  F   UNL A   1      38.148  32.146  37.663  1.00  0.00    -0.203 F 
ATOM     65  C   UNL A   1      38.629  34.168  38.765  1.00  0.00     0.198 A 
ATOM     66  C   UNL A   1      40.107  35.766  37.753  1.00  0.00     0.198 A 
ATOM     67  F   UNL A   1      41.046  35.331  35.640  1.00  0.00    -0.203 F 
ATOM     68  F   UNL A   1      37.815  33.813  39.769  1.00  0.00    -0.200 F 
ATOM     69  C   UNL A   1      39.287  35.388  38.806  1.00  0.00     0.200 A 
ATOM     70  F   UNL A   1      40.754  36.940  37.796  1.00  0.00    -0.200 F 
ATOM     71  F   UNL A   1      39.125  36.203  39.857  1.00  0.00    -0.200 F 
ENDBRANCH  47  61
BRANCH  48  72
ATOM     72  C   UNL A   1      40.665  27.969  28.469  1.00  0.00     0.064 A 
ATOM     73  C   UNL A   1      41.433  28.414  27.385  1.00  0.00     0.173 A 
ATOM     74  C   UNL A   1      40.066  26.705  28.371  1.00  0.00     0.173 A 
ATOM     75  F   UNL A   1      42.009  29.625  27.425  1.00  0.00    -0.203 F 
ATOM     76  C   UNL A   1      41.581  27.635  26.240  1.00  0.00     0.198 A 
ATOM     77  C   UNL A   1      40.236  25.916  27.236  1.00  0.00     0.198 A 
ATOM     78  F   UNL A   1      39.325  26.233  29.383  1.00  0.00    -0.203 F 
ATOM     79  F   UNL A   1      42.286  28.103  25.200  1.00  0.00    -0.200 F 
ATOM     80  C   UNL A   1      40.987  26.385  26.167  1.00  0.00     0.200 A 
ATOM     81  F   UNL A   1      39.671  24.702  27.175  1.00  0.00    -0.200 F 
ATOM     82  F   UNL A   1      41.132  25.633  25.068  1.00  0.00    -0.200 F 
ENDBRANCH  48  72
BRANCH  60  83
ATOM     83  C   UNL A   1      43.958  28.293  34.598  1.00  0.00     0.064 A 
ATOM     84  C   UNL A   1      45.283  28.743  34.523  1.00  0.00     0.173 A 
ATOM     85  C   UNL A   1      43.706  27.092  35.279  1.00  0.00     0.173 A 
ATOM     86  F   UNL A   1      45.576  29.878  33.869  1.00  0.00    -0.203 F 
ATOM     87  C   UNL A   1      46.320  28.006  35.088  1.00  0.00     0.198 A 
ATOM     88  C   UNL A   1      44.743  26.373  35.867  1.00  0.00     0.198 A 
ATOM     89  F   UNL A   1      42.454  26.623  35.384  1.00  0.00    -0.203 F 
ATOM     90  F   UNL A   1      47.586  28.431  34.966  1.00  0.00    -0.200 F 
ATOM     91  C   UNL A   1      46.049  26.827  35.766  1.00  0.00     0.200 A 
ATOM     92  F   UNL A   1      44.476  25.240  36.532  1.00  0.00    -0.200 F 
ATOM     93  F   UNL A   1      47.048  26.123  36.316  1.00  0.00    -0.200 F 
ENDBRANCH  60  83
ENDBRANCH  34  35
ENDBRANCH  26  29
ENDBRANCH  24  25
ENDBRANCH  23  24
ENDBRANCH   1  23
TORSDOF 14
ENDMDL
