MODEL 1
REMARK VINA RESULT:     -11.5      0.000      0.000
REMARK SMILES C[C@@](NC(=O)NCC(N)=O)(C(=O)NCCCCNC(=O)c1ccc(-c2c3nc(c(-c4c(F)c(F)c(F)c(F)c4F)c4ccc([nH]4)c(-c4c(F)c(F)c(F)c(F)c4F)c4nc(c(-c5c(F)c(F)c(F)c(F)c5F)c5ccc2[nH]5)C=C4)C=C3)cc1)C(F)(F)F
REMARK SMILES IDX 15 1 14 2 13 3 11 4 12 5 2 7 1 8 3 9 4 10 5 12 6 13 7 15
REMARK SMILES IDX 8 16 9 17 10 18 84 21 85 22 86 23 87 24 16 25 17 26 18 27
REMARK SMILES IDX 19 28 20 30 21 31 22 32 83 33 23 34 82 35 24 36 25 37 26 38
REMARK SMILES IDX 76 39 27 40 81 41 75 42 77 43 28 44 80 45 74 46 73 47 29 49
REMARK SMILES IDX 61 50 41 51 60 52 42 53 45 54 59 55 78 56 43 57 44 58 58 60
REMARK SMILES IDX 79 61 46 62 30 63 31 64 39 65 32 66 33 67 37 68 40 69 34 70
REMARK SMILES IDX 35 71 38 72 36 73 62 74 63 75 71 76 64 77 65 78 69 79 72 80
REMARK SMILES IDX 66 81 67 82 70 83 68 84 47 85 48 86 56 87 49 88 50 89 54 90
REMARK SMILES IDX 57 91 51 92 52 93 55 94 53 95
REMARK H PARENT 13 6 3 11 6 14 9 19 9 20 18 29 77 48 45 59
REMARK Flexibility Score: inf
ROOT
ATOM      1  C   UNL A   1      31.644  30.563  26.721  1.00  0.00     0.023 C 
ENDROOT
BRANCH   1   2
ATOM      2  C   UNL A   1      31.996  30.029  25.338  1.00  0.00     0.116 C 
BRANCH   2   3
ATOM      3  N   UNL A   1      31.020  29.045  24.902  1.00  0.00    -0.354 N 
ATOM      4  C   UNL A   1      31.146  27.696  24.714  1.00  0.00     0.255 C 
ATOM      5  O   UNL A   1      30.136  27.120  24.303  1.00  0.00    -0.272 OA
ATOM      6  H   UNL A   1      30.123  29.407  24.712  1.00  0.00     0.163 HD
BRANCH   4   7
ATOM      7  C   UNL A   1      32.503  26.991  24.872  1.00  0.00     0.213 C 
ATOM      8  C   UNL A   1      32.264  25.548  24.356  1.00  0.00     0.056 C 
BRANCH   7   9
ATOM      9  N   UNL A   1      33.593  27.604  24.049  1.00  0.00    -0.316 N 
ATOM     10  C   UNL A   1      33.697  28.009  22.777  1.00  0.00     0.316 C 
ATOM     11  H   UNL A   1      34.424  27.740  24.560  1.00  0.00     0.166 HD
ATOM     12  O   UNL A   1      34.588  28.821  22.527  1.00  0.00    -0.249 OA
ATOM     13  N   UNL A   1      32.935  27.572  21.772  1.00  0.00    -0.329 N 
ATOM     14  H   UNL A   1      33.000  28.133  20.966  1.00  0.00     0.165 HD
BRANCH  13  15
ATOM     15  C   UNL A   1      32.038  26.449  21.617  1.00  0.00     0.217 C 
BRANCH  15  16
ATOM     16  C   UNL A   1      32.511  25.382  20.639  1.00  0.00     0.236 C 
ATOM     17  N   UNL A   1      32.041  25.550  19.364  1.00  0.00    -0.368 N 
ATOM     18  O   UNL A   1      33.273  24.467  20.927  1.00  0.00    -0.273 OA
ATOM     19  H   UNL A   1      31.430  26.294  19.160  1.00  0.00     0.159 HD
ATOM     20  H   UNL A   1      32.316  24.929  18.651  1.00  0.00     0.159 HD
ENDBRANCH  15  16
ENDBRANCH  13  15
ENDBRANCH   7   9
BRANCH   7  21
ATOM     21  C   UNL A   1      32.872  26.859  26.369  1.00  0.00     0.420 C 
ATOM     22  F   UNL A   1      31.807  27.028  27.186  1.00  0.00    -0.168 F 
ATOM     23  F   UNL A   1      33.339  25.604  26.616  1.00  0.00    -0.168 F 
ATOM     24  F   UNL A   1      33.838  27.711  26.768  1.00  0.00    -0.168 F 
ENDBRANCH   7  21
ENDBRANCH   4   7
ENDBRANCH   2   3
ENDBRANCH   1   2
BRANCH   1  25
ATOM     25  C   UNL A   1      31.491  32.083  26.771  1.00  0.00     0.023 C 
BRANCH  25  26
ATOM     26  C   UNL A   1      32.765  32.824  27.162  1.00  0.00     0.116 C 
BRANCH  26  27
ATOM     27  N   UNL A   1      32.501  34.207  27.533  1.00  0.00    -0.352 N 
ATOM     28  C   UNL A   1      33.006  34.933  28.580  1.00  0.00     0.251 C 
ATOM     29  H   UNL A   1      31.869  34.687  26.950  1.00  0.00     0.163 HD
ATOM     30  O   UNL A   1      32.493  36.005  28.900  1.00  0.00    -0.269 OA
BRANCH  28  31
ATOM     31  C   UNL A   1      34.163  34.415  29.332  1.00  0.00     0.039 A 
ATOM     32  C   UNL A   1      33.949  33.726  30.526  1.00  0.00     0.014 A 
ATOM     33  C   UNL A   1      35.461  34.603  28.846  1.00  0.00     0.014 A 
ATOM     34  C   UNL A   1      35.035  33.168  31.203  1.00  0.00     0.010 A 
ATOM     35  C   UNL A   1      36.529  33.973  29.473  1.00  0.00     0.010 A 
ATOM     36  C   UNL A   1      36.329  33.256  30.662  1.00  0.00    -0.014 A 
BRANCH  36  37
ATOM     37  C   UNL A   1      37.487  32.610  31.328  1.00  0.00     0.031 A 
ATOM     38  C   UNL A   1      38.205  31.474  30.653  1.00  0.00     0.074 A 
ATOM     39  C   UNL A   1      37.850  33.003  32.564  1.00  0.00     0.049 A 
ATOM     40  N   UNL A   1      39.197  30.743  31.095  1.00  0.00    -0.248 NA
ATOM     41  C   UNL A   1      37.728  31.089  29.316  1.00  0.00     0.031 C 
ATOM     42  C   UNL A   1      37.200  34.061  33.340  1.00  0.00     0.029 A 
ATOM     43  N   UNL A   1      38.849  32.553  33.390  1.00  0.00    -0.354 N 
ATOM     44  C   UNL A   1      39.450  29.808  30.100  1.00  0.00     0.074 A 
ATOM     45  C   UNL A   1      38.471  30.024  29.058  1.00  0.00     0.031 C 
ATOM     46  C   UNL A   1      37.836  34.199  34.514  1.00  0.00     0.029 A 
ATOM     47  C   UNL A   1      38.909  33.213  34.593  1.00  0.00     0.049 A 
ATOM     48  H   UNL A   1      39.466  31.827  33.143  1.00  0.00     0.167 HD
ATOM     49  C   UNL A   1      40.425  28.870  30.050  1.00  0.00     0.037 A 
ATOM     50  C   UNL A   1      39.733  33.037  35.643  1.00  0.00     0.037 A 
ATOM     51  C   UNL A   1      41.412  28.678  31.081  1.00  0.00     0.049 A 
ATOM     52  C   UNL A   1      40.799  31.976  35.568  1.00  0.00     0.074 A 
ATOM     53  C   UNL A   1      42.483  27.801  31.095  1.00  0.00     0.029 A 
ATOM     54  N   UNL A   1      41.445  29.369  32.283  1.00  0.00    -0.354 N 
ATOM     55  N   UNL A   1      41.077  31.149  34.589  1.00  0.00    -0.248 NA
ATOM     56  C   UNL A   1      41.668  31.829  36.742  1.00  0.00     0.031 C 
ATOM     57  C   UNL A   1      43.126  27.918  32.331  1.00  0.00     0.029 A 
ATOM     58  C   UNL A   1      42.498  28.916  33.061  1.00  0.00     0.049 A 
ATOM     59  H   UNL A   1      40.812  30.077  32.545  1.00  0.00     0.167 HD
ATOM     60  C   UNL A   1      42.171  30.409  35.014  1.00  0.00     0.074 A 
ATOM     61  C   UNL A   1      42.516  30.895  36.334  1.00  0.00     0.031 C 
ATOM     62  C   UNL A   1      42.833  29.416  34.370  1.00  0.00     0.037 A 
BRANCH  49  63
ATOM     63  C   UNL A   1      40.474  27.978  28.843  1.00  0.00     0.064 A 
ATOM     64  C   UNL A   1      41.243  28.302  27.714  1.00  0.00     0.173 A 
ATOM     65  C   UNL A   1      39.771  26.764  28.827  1.00  0.00     0.173 A 
ATOM     66  F   UNL A   1      41.927  29.456  27.670  1.00  0.00    -0.203 F 
ATOM     67  C   UNL A   1      41.281  27.460  26.605  1.00  0.00     0.198 A 
ATOM     68  C   UNL A   1      39.839  25.908  27.731  1.00  0.00     0.198 A 
ATOM     69  F   UNL A   1      39.024  26.402  29.882  1.00  0.00    -0.203 F 
ATOM     70  F   UNL A   1      41.981  27.817  25.519  1.00  0.00    -0.200 F 
ATOM     71  C   UNL A   1      40.586  26.261  26.618  1.00  0.00     0.200 A 
ATOM     72  F   UNL A   1      39.179  24.742  27.752  1.00  0.00    -0.200 F 
ATOM     73  F   UNL A   1      40.631  25.447  25.554  1.00  0.00    -0.200 F 
ENDBRANCH  49  63
BRANCH  50  74
ATOM     74  C   UNL A   1      39.600  33.899  36.848  1.00  0.00     0.064 A 
ATOM     75  C   UNL A   1      38.812  33.497  37.936  1.00  0.00     0.173 A 
ATOM     76  C   UNL A   1      40.243  35.143  36.933  1.00  0.00     0.173 A 
ATOM     77  F   UNL A   1      38.161  32.324  37.894  1.00  0.00    -0.203 F 
ATOM     78  C   UNL A   1      38.652  34.316  39.051  1.00  0.00     0.198 A 
ATOM     79  C   UNL A   1      40.109  35.946  38.064  1.00  0.00     0.198 A 
ATOM     80  F   UNL A   1      41.013  35.572  35.923  1.00  0.00    -0.203 F 
ATOM     81  F   UNL A   1      37.853  33.928  40.055  1.00  0.00    -0.200 F 
ATOM     82  C   UNL A   1      39.305  35.537  39.118  1.00  0.00     0.200 A 
ATOM     83  F   UNL A   1      40.755  37.118  38.130  1.00  0.00    -0.200 F 
ATOM     84  F   UNL A   1      39.154  36.324  40.192  1.00  0.00    -0.200 F 
ENDBRANCH  50  74
BRANCH  62  85
ATOM     85  C   UNL A   1      44.023  28.817  35.063  1.00  0.00     0.064 A 
ATOM     86  C   UNL A   1      43.908  27.690  35.890  1.00  0.00     0.173 A 
ATOM     87  C   UNL A   1      45.304  29.356  34.864  1.00  0.00     0.173 A 
ATOM     88  F   UNL A   1      42.705  27.144  36.125  1.00  0.00    -0.203 F 
ATOM     89  C   UNL A   1      45.026  27.143  36.514  1.00  0.00     0.198 A 
ATOM     90  C   UNL A   1      46.424  28.785  35.462  1.00  0.00     0.198 A 
ATOM     91  F   UNL A   1      45.471  30.429  34.077  1.00  0.00    -0.203 F 
ATOM     92  F   UNL A   1      44.884  26.098  37.342  1.00  0.00    -0.200 F 
ATOM     93  C   UNL A   1      46.283  27.685  36.292  1.00  0.00     0.200 A 
ATOM     94  F   UNL A   1      47.639  29.301  35.231  1.00  0.00    -0.200 F 
ATOM     95  F   UNL A   1      47.359  27.151  36.887  1.00  0.00    -0.200 F 
ENDBRANCH  62  85
ENDBRANCH  36  37
ENDBRANCH  28  31
ENDBRANCH  26  27
ENDBRANCH  25  26
ENDBRANCH   1  25
TORSDOF 15
ENDMDL
MODEL 2
REMARK VINA RESULT:     -11.5      0.878      1.884
REMARK SMILES C[C@@](NC(=O)NCC(N)=O)(C(=O)NCCCCNC(=O)c1ccc(-c2c3nc(c(-c4c(F)c(F)c(F)c(F)c4F)c4ccc([nH]4)c(-c4c(F)c(F)c(F)c(F)c4F)c4nc(c(-c5c(F)c(F)c(F)c(F)c5F)c5ccc2[nH]5)C=C4)C=C3)cc1)C(F)(F)F
REMARK SMILES IDX 15 1 14 2 13 3 11 4 12 5 2 7 1 8 3 9 4 10 5 12 6 13 7 15
REMARK SMILES IDX 8 16 9 17 10 18 84 21 85 22 86 23 87 24 16 25 17 26 18 27
REMARK SMILES IDX 19 28 20 30 21 31 22 32 83 33 23 34 82 35 24 36 25 37 26 38
REMARK SMILES IDX 76 39 27 40 81 41 75 42 77 43 28 44 80 45 74 46 73 47 29 49
REMARK SMILES IDX 61 50 41 51 60 52 42 53 45 54 59 55 78 56 43 57 44 58 58 60
REMARK SMILES IDX 79 61 46 62 30 63 31 64 39 65 32 66 33 67 37 68 40 69 34 70
REMARK SMILES IDX 35 71 38 72 36 73 62 74 63 75 71 76 64 77 65 78 69 79 72 80
REMARK SMILES IDX 66 81 67 82 70 83 68 84 47 85 48 86 56 87 49 88 50 89 54 90
REMARK SMILES IDX 57 91 51 92 52 93 55 94 53 95
REMARK H PARENT 13 6 3 11 6 14 9 19 9 20 18 29 77 48 45 59
REMARK Flexibility Score: inf
ROOT
ATOM      1  C   UNL A   1      31.324  31.202  25.743  1.00  0.00     0.023 C 
ENDROOT
BRANCH   1   2
ATOM      2  C   UNL A   1      32.116  29.910  25.902  1.00  0.00     0.116 C 
BRANCH   2   3
ATOM      3  N   UNL A   1      33.017  29.718  24.778  1.00  0.00    -0.354 N 
ATOM      4  C   UNL A   1      33.351  28.580  24.097  1.00  0.00     0.255 C 
ATOM      5  O   UNL A   1      34.179  28.725  23.194  1.00  0.00    -0.272 OA
ATOM      6  H   UNL A   1      33.458  30.538  24.455  1.00  0.00     0.163 HD
BRANCH   4   7
ATOM      7  C   UNL A   1      32.827  27.203  24.535  1.00  0.00     0.213 C 
ATOM      8  C   UNL A   1      31.418  27.481  25.120  1.00  0.00     0.056 C 
BRANCH   7   9
ATOM      9  N   UNL A   1      32.678  26.234  23.404  1.00  0.00    -0.316 N 
ATOM     10  C   UNL A   1      32.107  26.283  22.193  1.00  0.00     0.316 C 
ATOM     11  H   UNL A   1      33.096  25.363  23.591  1.00  0.00     0.166 HD
ATOM     12  O   UNL A   1      32.500  25.463  21.364  1.00  0.00    -0.249 OA
ATOM     13  N   UNL A   1      31.130  27.122  21.843  1.00  0.00    -0.329 N 
ATOM     14  H   UNL A   1      30.990  27.169  20.870  1.00  0.00     0.165 HD
BRANCH  13  15
ATOM     15  C   UNL A   1      30.234  27.976  22.590  1.00  0.00     0.217 C 
BRANCH  15  16
ATOM     16  C   UNL A   1      29.949  29.326  21.945  1.00  0.00     0.236 C 
ATOM     17  N   UNL A   1      31.071  30.070  21.696  1.00  0.00    -0.368 N 
ATOM     18  O   UNL A   1      28.833  29.722  21.630  1.00  0.00    -0.273 OA
ATOM     19  H   UNL A   1      31.956  29.729  21.961  1.00  0.00     0.159 HD
ATOM     20  H   UNL A   1      30.993  30.946  21.253  1.00  0.00     0.159 HD
ENDBRANCH  15  16
ENDBRANCH  13  15
ENDBRANCH   7   9
BRANCH   7  21
ATOM     21  C   UNL A   1      33.678  26.648  25.702  1.00  0.00     0.420 C 
ATOM     22  F   UNL A   1      34.613  25.761  25.292  1.00  0.00    -0.168 F 
ATOM     23  F   UNL A   1      34.361  27.667  26.294  1.00  0.00    -0.168 F 
ATOM     24  F   UNL A   1      32.951  26.061  26.674  1.00  0.00    -0.168 F 
ENDBRANCH   7  21
ENDBRANCH   4   7
ENDBRANCH   2   3
ENDBRANCH   1   2
BRANCH   1  25
ATOM     25  C   UNL A   1      31.334  32.086  26.990  1.00  0.00     0.023 C 
BRANCH  25  26
ATOM     26  C   UNL A   1      32.645  32.831  27.214  1.00  0.00     0.116 C 
BRANCH  26  27
ATOM     27  N   UNL A   1      32.427  34.233  27.541  1.00  0.00    -0.352 N 
ATOM     28  C   UNL A   1      32.972  34.980  28.553  1.00  0.00     0.251 C 
ATOM     29  H   UNL A   1      31.799  34.711  26.953  1.00  0.00     0.163 HD
ATOM     30  O   UNL A   1      32.496  36.076  28.844  1.00  0.00    -0.269 OA
BRANCH  28  31
ATOM     31  C   UNL A   1      34.127  34.454  29.303  1.00  0.00     0.039 A 
ATOM     32  C   UNL A   1      33.913  33.801  30.518  1.00  0.00     0.014 A 
ATOM     33  C   UNL A   1      35.423  34.599  28.796  1.00  0.00     0.014 A 
ATOM     34  C   UNL A   1      34.996  33.235  31.194  1.00  0.00     0.010 A 
ATOM     35  C   UNL A   1      36.484  33.961  29.425  1.00  0.00     0.010 A 
ATOM     36  C   UNL A   1      36.284  33.279  30.634  1.00  0.00    -0.014 A 
BRANCH  36  37
ATOM     37  C   UNL A   1      37.435  32.623  31.302  1.00  0.00     0.031 A 
ATOM     38  C   UNL A   1      38.145  31.481  30.627  1.00  0.00     0.074 A 
ATOM     39  C   UNL A   1      37.800  33.013  32.538  1.00  0.00     0.049 A 
ATOM     40  N   UNL A   1      39.130  30.742  31.071  1.00  0.00    -0.248 NA
ATOM     41  C   UNL A   1      37.666  31.101  29.289  1.00  0.00     0.031 C 
ATOM     42  C   UNL A   1      37.158  34.076  33.313  1.00  0.00     0.029 A 
ATOM     43  N   UNL A   1      38.795  32.555  33.365  1.00  0.00    -0.354 N 
ATOM     44  C   UNL A   1      39.376  29.805  30.076  1.00  0.00     0.074 A 
ATOM     45  C   UNL A   1      38.400  30.029  29.033  1.00  0.00     0.031 C 
ATOM     46  C   UNL A   1      37.794  34.210  34.487  1.00  0.00     0.029 A 
ATOM     47  C   UNL A   1      38.859  33.215  34.568  1.00  0.00     0.049 A 
ATOM     48  H   UNL A   1      39.406  31.824  33.118  1.00  0.00     0.167 HD
ATOM     49  C   UNL A   1      40.344  28.859  30.027  1.00  0.00     0.037 A 
ATOM     50  C   UNL A   1      39.680  33.032  35.619  1.00  0.00     0.037 A 
ATOM     51  C   UNL A   1      41.328  28.658  31.058  1.00  0.00     0.049 A 
ATOM     52  C   UNL A   1      40.737  31.962  35.545  1.00  0.00     0.074 A 
ATOM     53  C   UNL A   1      42.391  27.772  31.074  1.00  0.00     0.029 A 
ATOM     54  N   UNL A   1      41.365  29.349  32.261  1.00  0.00    -0.354 N 
ATOM     55  N   UNL A   1      41.010  31.132  34.566  1.00  0.00    -0.248 NA
ATOM     56  C   UNL A   1      41.604  31.807  36.720  1.00  0.00     0.031 C 
ATOM     57  C   UNL A   1      43.034  27.884  32.311  1.00  0.00     0.029 A 
ATOM     58  C   UNL A   1      42.414  28.887  33.040  1.00  0.00     0.049 A 
ATOM     59  H   UNL A   1      40.738  30.063  32.522  1.00  0.00     0.167 HD
ATOM     60  C   UNL A   1      42.097  30.383  34.993  1.00  0.00     0.074 A 
ATOM     61  C   UNL A   1      42.444  30.866  36.313  1.00  0.00     0.031 C 
ATOM     62  C   UNL A   1      42.751  29.385  34.349  1.00  0.00     0.037 A 
BRANCH  49  63
ATOM     63  C   UNL A   1      40.386  27.967  28.820  1.00  0.00     0.064 A 
ATOM     64  C   UNL A   1      41.131  28.302  27.678  1.00  0.00     0.173 A 
ATOM     65  C   UNL A   1      39.702  26.742  28.817  1.00  0.00     0.173 A 
ATOM     66  F   UNL A   1      41.796  29.466  27.622  1.00  0.00    -0.203 F 
ATOM     67  C   UNL A   1      41.163  27.459  26.569  1.00  0.00     0.198 A 
ATOM     68  C   UNL A   1      39.765  25.885  27.720  1.00  0.00     0.198 A 
ATOM     69  F   UNL A   1      38.979  26.369  29.884  1.00  0.00    -0.203 F 
ATOM     70  F   UNL A   1      41.839  27.826  25.471  1.00  0.00    -0.200 F 
ATOM     71  C   UNL A   1      40.488  26.249  26.595  1.00  0.00     0.200 A 
ATOM     72  F   UNL A   1      39.124  24.709  27.754  1.00  0.00    -0.200 F 
ATOM     73  F   UNL A   1      40.528  25.435  25.531  1.00  0.00    -0.200 F 
ENDBRANCH  49  63
BRANCH  50  74
ATOM     74  C   UNL A   1      39.554  33.895  36.824  1.00  0.00     0.064 A 
ATOM     75  C   UNL A   1      38.783  33.487  37.922  1.00  0.00     0.173 A 
ATOM     76  C   UNL A   1      40.185  35.145  36.899  1.00  0.00     0.173 A 
ATOM     77  F   UNL A   1      38.143  32.308  37.890  1.00  0.00    -0.203 F 
ATOM     78  C   UNL A   1      38.628  34.307  39.037  1.00  0.00     0.198 A 
ATOM     79  C   UNL A   1      40.057  35.949  38.029  1.00  0.00     0.198 A 
ATOM     80  F   UNL A   1      40.940  35.580  35.879  1.00  0.00    -0.203 F 
ATOM     81  F   UNL A   1      37.844  33.914  40.051  1.00  0.00    -0.200 F 
ATOM     82  C   UNL A   1      39.270  35.534  39.094  1.00  0.00     0.200 A 
ATOM     83  F   UNL A   1      40.692  37.127  38.086  1.00  0.00    -0.200 F 
ATOM     84  F   UNL A   1      39.124  36.322  40.168  1.00  0.00    -0.200 F 
ENDBRANCH  50  74
BRANCH  62  85
ATOM     85  C   UNL A   1      43.935  28.776  35.044  1.00  0.00     0.064 A 
ATOM     86  C   UNL A   1      45.229  29.298  34.897  1.00  0.00     0.173 A 
ATOM     87  C   UNL A   1      43.765  27.677  35.902  1.00  0.00     0.173 A 
ATOM     88  F   UNL A   1      45.449  30.337  34.078  1.00  0.00    -0.203 F 
ATOM     89  C   UNL A   1      46.311  28.724  35.560  1.00  0.00     0.198 A 
ATOM     90  C   UNL A   1      44.844  27.130  36.590  1.00  0.00     0.198 A 
ATOM     91  F   UNL A   1      42.547  27.145  36.085  1.00  0.00    -0.203 F 
ATOM     92  F   UNL A   1      47.546  29.206  35.361  1.00  0.00    -0.200 F 
ATOM     93  C   UNL A   1      46.116  27.648  36.411  1.00  0.00     0.200 A 
ATOM     94  F   UNL A   1      44.650  26.101  37.427  1.00  0.00    -0.200 F 
ATOM     95  F   UNL A   1      47.159  27.104  37.055  1.00  0.00    -0.200 F 
ENDBRANCH  62  85
ENDBRANCH  36  37
ENDBRANCH  28  31
ENDBRANCH  26  27
ENDBRANCH  25  26
ENDBRANCH   1  25
TORSDOF 15
ENDMDL
MODEL 3
REMARK VINA RESULT:     -11.4      0.954      7.486
REMARK SMILES C[C@@](NC(=O)NCC(N)=O)(C(=O)NCCCCNC(=O)c1ccc(-c2c3nc(c(-c4c(F)c(F)c(F)c(F)c4F)c4ccc([nH]4)c(-c4c(F)c(F)c(F)c(F)c4F)c4nc(c(-c5c(F)c(F)c(F)c(F)c5F)c5ccc2[nH]5)C=C4)C=C3)cc1)C(F)(F)F
REMARK SMILES IDX 15 1 14 2 13 3 11 4 12 5 2 7 1 8 3 9 4 10 5 12 6 13 7 15
REMARK SMILES IDX 8 16 9 17 10 18 84 21 85 22 86 23 87 24 16 25 17 26 18 27
REMARK SMILES IDX 19 28 20 30 21 31 22 32 83 33 23 34 82 35 24 36 25 37 26 38
REMARK SMILES IDX 76 39 27 40 81 41 75 42 77 43 28 44 80 45 74 46 73 47 29 49
REMARK SMILES IDX 61 50 41 51 60 52 42 53 45 54 59 55 78 56 43 57 44 58 58 60
REMARK SMILES IDX 79 61 46 62 30 63 31 64 39 65 32 66 33 67 37 68 40 69 34 70
REMARK SMILES IDX 35 71 38 72 36 73 62 74 63 75 71 76 64 77 65 78 69 79 72 80
REMARK SMILES IDX 66 81 67 82 70 83 68 84 47 85 48 86 56 87 49 88 50 89 54 90
REMARK SMILES IDX 57 91 51 92 52 93 55 94 53 95
REMARK H PARENT 13 6 3 11 6 14 9 19 9 20 18 29 77 48 45 59
REMARK Flexibility Score: inf
ROOT
ATOM      1  C   UNL A   1      31.450  31.146  25.884  1.00  0.00     0.023 C 
ENDROOT
BRANCH   1   2
ATOM      2  C   UNL A   1      32.506  30.132  26.307  1.00  0.00     0.116 C 
BRANCH   2   3
ATOM      3  N   UNL A   1      31.898  29.024  27.022  1.00  0.00    -0.354 N 
ATOM      4  C   UNL A   1      31.619  27.751  26.608  1.00  0.00     0.255 C 
ATOM      5  O   UNL A   1      31.064  27.030  27.441  1.00  0.00    -0.272 OA
ATOM      6  H   UNL A   1      31.647  29.220  27.954  1.00  0.00     0.163 HD
BRANCH   4   7
ATOM      7  C   UNL A   1      31.859  27.312  25.154  1.00  0.00     0.213 C 
ATOM      8  C   UNL A   1      30.943  26.077  24.955  1.00  0.00     0.056 C 
BRANCH   7   9
ATOM      9  N   UNL A   1      31.468  28.347  24.147  1.00  0.00    -0.316 N 
ATOM     10  C   UNL A   1      30.858  28.317  22.955  1.00  0.00     0.316 C 
ATOM     11  H   UNL A   1      31.715  29.260  24.423  1.00  0.00     0.166 HD
ATOM     12  O   UNL A   1      30.340  29.366  22.572  1.00  0.00    -0.249 OA
ATOM     13  N   UNL A   1      30.806  27.253  22.151  1.00  0.00    -0.329 N 
ATOM     14  H   UNL A   1      30.139  27.343  21.432  1.00  0.00     0.165 HD
BRANCH  13  15
ATOM     15  C   UNL A   1      31.523  25.998  22.110  1.00  0.00     0.217 C 
BRANCH  15  16
ATOM     16  C   UNL A   1      32.640  25.932  21.076  1.00  0.00     0.236 C 
ATOM     17  N   UNL A   1      32.218  25.571  19.825  1.00  0.00    -0.368 N 
ATOM     18  O   UNL A   1      33.812  26.210  21.303  1.00  0.00    -0.273 OA
ATOM     19  H   UNL A   1      31.270  25.352  19.670  1.00  0.00     0.159 HD
ATOM     20  H   UNL A   1      32.861  25.529  19.081  1.00  0.00     0.159 HD
ENDBRANCH  15  16
ENDBRANCH  13  15
ENDBRANCH   7   9
BRANCH   7  21
ATOM     21  C   UNL A   1      33.310  26.807  24.975  1.00  0.00     0.420 C 
ATOM     22  F   UNL A   1      33.994  27.501  24.036  1.00  0.00    -0.168 F 
ATOM     23  F   UNL A   1      33.998  26.973  26.138  1.00  0.00    -0.168 F 
ATOM     24  F   UNL A   1      33.397  25.498  24.664  1.00  0.00    -0.168 F 
ENDBRANCH   7  21
ENDBRANCH   4   7
ENDBRANCH   2   3
ENDBRANCH   1   2
BRANCH   1  25
ATOM     25  C   UNL A   1      31.320  32.331  26.841  1.00  0.00     0.023 C 
BRANCH  25  26
ATOM     26  C   UNL A   1      32.650  32.961  27.238  1.00  0.00     0.116 C 
BRANCH  26  27
ATOM     27  N   UNL A   1      32.495  34.346  27.660  1.00  0.00    -0.352 N 
ATOM     28  C   UNL A   1      33.083  35.002  28.710  1.00  0.00     0.251 C 
ATOM     29  H   UNL A   1      31.879  34.887  27.114  1.00  0.00     0.163 HD
ATOM     30  O   UNL A   1      32.657  36.095  29.079  1.00  0.00    -0.269 OA
BRANCH  28  31
ATOM     31  C   UNL A   1      34.225  34.381  29.405  1.00  0.00     0.039 A 
ATOM     32  C   UNL A   1      33.987  33.525  30.481  1.00  0.00     0.014 A 
ATOM     33  C   UNL A   1      35.533  34.640  28.983  1.00  0.00     0.014 A 
ATOM     34  C   UNL A   1      35.060  32.876  31.094  1.00  0.00     0.010 A 
ATOM     35  C   UNL A   1      36.590  33.928  29.536  1.00  0.00     0.010 A 
ATOM     36  C   UNL A   1      36.366  33.044  30.602  1.00  0.00    -0.014 A 
BRANCH  36  37
ATOM     37  C   UNL A   1      37.511  32.310  31.195  1.00  0.00     0.031 A 
ATOM     38  C   UNL A   1      38.013  32.676  32.564  1.00  0.00     0.074 A 
ATOM     39  C   UNL A   1      38.137  31.358  30.475  1.00  0.00     0.049 A 
ATOM     40  N   UNL A   1      39.033  32.195  33.228  1.00  0.00    -0.248 NA
ATOM     41  C   UNL A   1      37.289  33.744  33.271  1.00  0.00     0.031 C 
ATOM     42  C   UNL A   1      37.773  30.948  29.118  1.00  0.00     0.029 A 
ATOM     43  N   UNL A   1      39.217  30.569  30.781  1.00  0.00    -0.354 N 
ATOM     44  C   UNL A   1      39.081  32.910  34.417  1.00  0.00     0.074 A 
ATOM     45  C   UNL A   1      38.026  33.897  34.360  1.00  0.00     0.031 C 
ATOM     46  C   UNL A   1      38.594  29.963  28.721  1.00  0.00     0.029 A 
ATOM     47  C   UNL A   1      39.569  29.702  29.775  1.00  0.00     0.049 A 
ATOM     48  H   UNL A   1      39.694  30.619  31.640  1.00  0.00     0.167 HD
ATOM     49  C   UNL A   1      39.915  32.741  35.471  1.00  0.00     0.037 A 
ATOM     50  C   UNL A   1      40.569  28.803  29.710  1.00  0.00     0.037 A 
ATOM     51  C   UNL A   1      40.947  31.740  35.530  1.00  0.00     0.049 A 
ATOM     52  C   UNL A   1      41.492  28.648  30.890  1.00  0.00     0.074 A 
ATOM     53  C   UNL A   1      41.800  31.443  36.579  1.00  0.00     0.029 A 
ATOM     54  N   UNL A   1      41.270  30.875  34.495  1.00  0.00    -0.354 N 
ATOM     55  N   UNL A   1      41.479  29.277  32.040  1.00  0.00    -0.248 NA
ATOM     56  C   UNL A   1      42.564  27.653  30.763  1.00  0.00     0.031 C 
ATOM     57  C   UNL A   1      42.680  30.441  36.156  1.00  0.00     0.029 A 
ATOM     58  C   UNL A   1      42.332  30.066  34.868  1.00  0.00     0.049 A 
ATOM     59  H   UNL A   1      40.813  30.842  33.623  1.00  0.00     0.167 HD
ATOM     60  C   UNL A   1      42.516  28.732  32.785  1.00  0.00     0.074 A 
ATOM     61  C   UNL A   1      43.128  27.710  31.961  1.00  0.00     0.031 C 
ATOM     62  C   UNL A   1      42.925  29.047  34.038  1.00  0.00     0.037 A 
BRANCH  49  63
ATOM     63  C   UNL A   1      39.747  33.662  36.646  1.00  0.00     0.064 A 
ATOM     64  C   UNL A   1      40.416  34.894  36.721  1.00  0.00     0.173 A 
ATOM     65  C   UNL A   1      38.878  33.326  37.694  1.00  0.00     0.173 A 
ATOM     66  F   UNL A   1      41.267  35.262  35.751  1.00  0.00    -0.203 F 
ATOM     67  C   UNL A   1      40.245  35.739  37.816  1.00  0.00     0.198 A 
ATOM     68  C   UNL A   1      38.682  34.188  38.771  1.00  0.00     0.198 A 
ATOM     69  F   UNL A   1      38.209  32.163  37.671  1.00  0.00    -0.203 F 
ATOM     70  F   UNL A   1      40.935  36.885  37.889  1.00  0.00    -0.200 F 
ATOM     71  C   UNL A   1      39.372  35.389  38.834  1.00  0.00     0.200 A 
ATOM     72  F   UNL A   1      37.827  33.854  39.747  1.00  0.00    -0.200 F 
ATOM     73  F   UNL A   1      39.201  36.206  39.882  1.00  0.00    -0.200 F 
ENDBRANCH  49  63
BRANCH  50  74
ATOM     74  C   UNL A   1      40.738  27.963  28.495  1.00  0.00     0.064 A 
ATOM     75  C   UNL A   1      41.514  28.409  27.416  1.00  0.00     0.173 A 
ATOM     76  C   UNL A   1      40.121  26.709  28.380  1.00  0.00     0.173 A 
ATOM     77  F   UNL A   1      42.109  29.610  27.469  1.00  0.00    -0.203 F 
ATOM     78  C   UNL A   1      41.646  27.644  26.259  1.00  0.00     0.198 A 
ATOM     79  C   UNL A   1      40.281  25.930  27.235  1.00  0.00     0.198 A 
ATOM     80  F   UNL A   1      39.373  26.232  29.385  1.00  0.00    -0.203 F 
ATOM     81  F   UNL A   1      42.352  28.118  25.222  1.00  0.00    -0.200 F 
ATOM     82  C   UNL A   1      41.035  26.403  26.171  1.00  0.00     0.200 A 
ATOM     83  F   UNL A   1      39.702  24.724  27.162  1.00  0.00    -0.200 F 
ATOM     84  F   UNL A   1      41.165  25.666  25.059  1.00  0.00    -0.200 F 
ENDBRANCH  50  74
BRANCH  62  85
ATOM     85  C   UNL A   1      44.061  28.252  34.614  1.00  0.00     0.064 A 
ATOM     86  C   UNL A   1      43.849  27.041  35.289  1.00  0.00     0.173 A 
ATOM     87  C   UNL A   1      45.385  28.690  34.452  1.00  0.00     0.173 A 
ATOM     88  F   UNL A   1      42.603  26.585  35.485  1.00  0.00    -0.203 F 
ATOM     89  C   UNL A   1      44.919  26.313  35.805  1.00  0.00     0.198 A 
ATOM     90  C   UNL A   1      46.453  27.941  34.938  1.00  0.00     0.198 A 
ATOM     91  F   UNL A   1      45.644  29.837  33.806  1.00  0.00    -0.203 F 
ATOM     92  F   UNL A   1      44.689  25.187  36.494  1.00  0.00    -0.200 F 
ATOM     93  C   UNL A   1      46.219  26.760  35.622  1.00  0.00     0.200 A 
ATOM     94  F   UNL A   1      47.709  28.366  34.743  1.00  0.00    -0.200 F 
ATOM     95  F   UNL A   1      47.247  26.052  36.112  1.00  0.00    -0.200 F 
ENDBRANCH  62  85
ENDBRANCH  36  37
ENDBRANCH  28  31
ENDBRANCH  26  27
ENDBRANCH  25  26
ENDBRANCH   1  25
TORSDOF 15
ENDMDL
