MODEL 1
REMARK VINA RESULT:     -12.9      0.000      0.000
REMARK SMILES C[C@@H]1[C@H](C)CCC[C@H]1NC(=O)C[N@@H+]1CCC[C@@H]1C(=O)NCCCCNC(=O)c1ccc(-c2c3nc(c(-c4c(F)c(F)c(F)c(F)c4F)c4ccc([nH]4)c(-c4c(F)c(F)c(F)c(F)c4F)c4nc(c(-c5c(F)c(F)c(F)c(F)c5F)c5ccc2[nH]5)C=C4)C=C3)cc1
REMARK SMILES IDX 22 1 21 2 20 3 18 4 19 5 17 7 13 8 14 9 15 11 16 12 12 13
REMARK SMILES IDX 10 14 9 15 11 17 8 18 1 19 2 20 3 21 4 22 5 23 7 24 6 25
REMARK SMILES IDX 23 26 24 27 25 28 26 29 27 31 28 32 29 33 90 34 30 35 89 36
REMARK SMILES IDX 31 37 32 38 33 39 83 40 34 41 88 42 82 43 84 44 35 45 87 46
REMARK SMILES IDX 81 47 80 48 36 50 68 51 48 52 67 53 49 54 52 55 66 56 85 57
REMARK SMILES IDX 50 58 51 59 65 61 86 62 53 63 37 64 38 65 46 66 39 67 40 68
REMARK SMILES IDX 44 69 47 70 41 71 42 72 45 73 43 74 69 75 70 76 78 77 71 78
REMARK SMILES IDX 72 79 76 80 79 81 73 82 74 83 77 84 75 85 54 86 55 87 63 88
REMARK SMILES IDX 56 89 57 90 61 91 64 92 58 93 59 94 62 95 60 96
REMARK H PARENT 20 6 13 10 9 16 25 30 84 49 52 60
REMARK Flexibility Score: inf
ROOT
ATOM      1  C   UNL A   1      31.998  30.288  26.855  1.00  0.00     0.023 C 
ENDROOT
BRANCH   1   2
ATOM      2  C   UNL A   1      33.169  29.791  26.024  1.00  0.00     0.116 C 
BRANCH   2   3
ATOM      3  N   UNL A   1      32.883  29.720  24.610  1.00  0.00    -0.351 N 
ATOM      4  C   UNL A   1      32.098  28.842  23.920  1.00  0.00     0.278 C 
ATOM      5  O   UNL A   1      31.864  29.125  22.740  1.00  0.00    -0.268 OA
ATOM      6  H   UNL A   1      33.323  30.408  24.060  1.00  0.00     0.163 HD
BRANCH   4   7
ATOM      7  C   UNL A   1      31.513  27.561  24.547  1.00  0.00     0.274 C 
ATOM      8  N   UNL A   1      32.418  26.393  24.669  1.00  0.00    -0.317 N 
ATOM      9  C   UNL A   1      31.636  25.188  24.386  1.00  0.00     0.263 C 
ATOM     10  H   UNL A   1      32.752  26.387  25.633  1.00  0.00     0.349 HD
ATOM     11  C   UNL A   1      30.428  25.622  23.575  1.00  0.00     0.068 C 
ATOM     12  C   UNL A   1      30.196  27.074  23.953  1.00  0.00     0.081 C 
BRANCH   8  13
ATOM     13  C   UNL A   1      33.720  26.452  24.002  1.00  0.00     0.364 C 
BRANCH  13  14
ATOM     14  C   UNL A   1      33.941  25.255  23.076  1.00  0.00     0.275 C 
ATOM     15  N   UNL A   1      34.627  24.167  23.527  1.00  0.00    -0.348 N 
ATOM     16  H   UNL A   1      34.841  23.487  22.849  1.00  0.00     0.163 HD
ATOM     17  O   UNL A   1      33.545  25.265  21.909  1.00  0.00    -0.268 OA
BRANCH  15  18
ATOM     18  C   UNL A   1      35.088  23.875  24.885  1.00  0.00     0.085 C 
ATOM     19  C   UNL A   1      34.430  22.652  27.004  1.00  0.00     0.010 C 
ATOM     20  C   UNL A   1      34.265  22.705  25.479  1.00  0.00     0.011 C 
ATOM     21  C   UNL A   1      34.621  21.368  24.773  1.00  0.00    -0.009 C 
ATOM     22  C   UNL A   1      33.857  20.172  25.341  1.00  0.00     0.008 C 
ATOM     23  C   UNL A   1      36.131  21.093  24.778  1.00  0.00     0.004 C 
ATOM     24  C   UNL A   1      36.593  23.583  24.873  1.00  0.00     0.025 C 
ATOM     25  C   UNL A   1      36.932  22.256  24.199  1.00  0.00     0.002 C 
ENDBRANCH  15  18
ENDBRANCH  13  14
ENDBRANCH   8  13
ENDBRANCH   4   7
ENDBRANCH   2   3
ENDBRANCH   1   2
BRANCH   1  26
ATOM     26  C   UNL A   1      31.753  31.793  26.779  1.00  0.00     0.023 C 
BRANCH  26  27
ATOM     27  C   UNL A   1      32.846  32.674  27.379  1.00  0.00     0.116 C 
BRANCH  27  28
ATOM     28  N   UNL A   1      32.419  34.040  27.654  1.00  0.00    -0.352 N 
ATOM     29  C   UNL A   1      32.958  34.951  28.532  1.00  0.00     0.251 C 
ATOM     30  H   UNL A   1      31.639  34.353  27.141  1.00  0.00     0.163 HD
ATOM     31  O   UNL A   1      32.432  36.045  28.701  1.00  0.00    -0.269 OA
BRANCH  29  32
ATOM     32  C   UNL A   1      34.153  34.575  29.312  1.00  0.00     0.039 A 
ATOM     33  C   UNL A   1      33.978  34.066  30.601  1.00  0.00     0.014 A 
ATOM     34  C   UNL A   1      35.427  34.659  28.747  1.00  0.00     0.014 A 
ATOM     35  C   UNL A   1      35.077  33.548  31.288  1.00  0.00     0.010 A 
ATOM     36  C   UNL A   1      36.508  34.082  29.405  1.00  0.00     0.010 A 
ATOM     37  C   UNL A   1      36.339  33.507  30.675  1.00  0.00    -0.014 A 
BRANCH  37  38
ATOM     38  C   UNL A   1      37.488  32.833  31.329  1.00  0.00     0.031 A 
ATOM     39  C   UNL A   1      38.145  31.653  30.675  1.00  0.00     0.074 A 
ATOM     40  C   UNL A   1      37.874  33.229  32.558  1.00  0.00     0.049 A 
ATOM     41  N   UNL A   1      39.099  30.880  31.130  1.00  0.00    -0.248 NA
ATOM     42  C   UNL A   1      37.644  31.269  29.346  1.00  0.00     0.031 C 
ATOM     43  C   UNL A   1      37.267  34.317  33.328  1.00  0.00     0.029 A 
ATOM     44  N   UNL A   1      38.858  32.748  33.387  1.00  0.00    -0.354 N 
ATOM     45  C   UNL A   1      39.291  29.907  30.158  1.00  0.00     0.074 A 
ATOM     46  C   UNL A   1      38.331  30.162  29.106  1.00  0.00     0.031 C 
ATOM     47  C   UNL A   1      37.894  34.425  34.510  1.00  0.00     0.029 A 
ATOM     48  C   UNL A   1      38.928  33.397  34.596  1.00  0.00     0.049 A 
ATOM     49  H   UNL A   1      39.457  32.007  33.138  1.00  0.00     0.167 HD
ATOM     50  C   UNL A   1      40.199  28.904  30.141  1.00  0.00     0.037 A 
ATOM     51  C   UNL A   1      39.727  33.180  35.657  1.00  0.00     0.037 A 
ATOM     52  C   UNL A   1      41.185  28.685  31.165  1.00  0.00     0.049 A 
ATOM     53  C   UNL A   1      40.756  32.084  35.590  1.00  0.00     0.074 A 
ATOM     54  C   UNL A   1      42.218  27.764  31.185  1.00  0.00     0.029 A 
ATOM     55  N   UNL A   1      41.260  29.396  32.353  1.00  0.00    -0.354 N 
ATOM     56  N   UNL A   1      40.994  31.233  34.622  1.00  0.00    -0.248 NA
ATOM     57  C   UNL A   1      41.633  31.925  36.758  1.00  0.00     0.031 C 
ATOM     58  C   UNL A   1      42.892  27.890  32.404  1.00  0.00     0.029 A 
ATOM     59  C   UNL A   1      42.306  28.917  33.124  1.00  0.00     0.049 A 
ATOM     60  H   UNL A   1      40.659  30.132  32.611  1.00  0.00     0.167 HD
ATOM     61  C   UNL A   1      42.058  30.454  35.054  1.00  0.00     0.074 A 
ATOM     62  C   UNL A   1      42.434  30.945  36.363  1.00  0.00     0.031 C 
ATOM     63  C   UNL A   1      42.669  29.422  34.422  1.00  0.00     0.037 A 
BRANCH  50  64
ATOM     64  C   UNL A   1      40.183  27.967  28.970  1.00  0.00     0.064 A 
ATOM     65  C   UNL A   1      40.894  28.245  27.795  1.00  0.00     0.173 A 
ATOM     66  C   UNL A   1      39.495  26.746  29.051  1.00  0.00     0.173 A 
ATOM     67  F   UNL A   1      41.558  29.404  27.666  1.00  0.00    -0.203 F 
ATOM     68  C   UNL A   1      40.904  27.344  26.733  1.00  0.00     0.198 A 
ATOM     69  C   UNL A   1      39.528  25.836  27.998  1.00  0.00     0.198 A 
ATOM     70  F   UNL A   1      38.804  26.430  30.156  1.00  0.00    -0.203 F 
ATOM     71  F   UNL A   1      41.561  27.647  25.606  1.00  0.00    -0.200 F 
ATOM     72  C   UNL A   1      40.229  26.137  26.839  1.00  0.00     0.200 A 
ATOM     73  F   UNL A   1      38.886  24.665  28.106  1.00  0.00    -0.200 F 
ATOM     74  F   UNL A   1      40.250  25.265  25.823  1.00  0.00    -0.200 F 
ENDBRANCH  50  64
BRANCH  51  75
ATOM     75  C   UNL A   1      39.599  34.025  36.873  1.00  0.00     0.064 A 
ATOM     76  C   UNL A   1      40.287  35.241  36.981  1.00  0.00     0.173 A 
ATOM     77  C   UNL A   1      38.802  33.627  37.956  1.00  0.00     0.173 A 
ATOM     78  F   UNL A   1      41.078  35.655  35.980  1.00  0.00    -0.203 F 
ATOM     79  C   UNL A   1      40.205  36.014  38.137  1.00  0.00     0.198 A 
ATOM     80  C   UNL A   1      38.698  34.414  39.101  1.00  0.00     0.198 A 
ATOM     81  F   UNL A   1      38.118  32.474  37.899  1.00  0.00    -0.203 F 
ATOM     82  F   UNL A   1      40.913  37.148  38.235  1.00  0.00    -0.200 F 
ATOM     83  C   UNL A   1      39.407  35.602  39.195  1.00  0.00     0.200 A 
ATOM     84  F   UNL A   1      37.917  34.019  40.115  1.00  0.00    -0.200 F 
ATOM     85  F   UNL A   1      39.330  36.345  40.308  1.00  0.00    -0.200 F 
ENDBRANCH  51  75
BRANCH  63  86
ATOM     86  C   UNL A   1      43.820  28.770  35.128  1.00  0.00     0.064 A 
ATOM     87  C   UNL A   1      43.624  27.711  36.026  1.00  0.00     0.173 A 
ATOM     88  C   UNL A   1      45.137  29.181  34.870  1.00  0.00     0.173 A 
ATOM     89  F   UNL A   1      42.383  27.295  36.317  1.00  0.00    -0.203 F 
ATOM     90  C   UNL A   1      44.704  27.100  36.656  1.00  0.00     0.198 A 
ATOM     91  C   UNL A   1      46.216  28.550  35.481  1.00  0.00     0.198 A 
ATOM     92  F   UNL A   1      45.376  30.186  34.014  1.00  0.00    -0.203 F 
ATOM     93  F   UNL A   1      44.492  26.118  37.543  1.00  0.00    -0.200 F 
ATOM     94  C   UNL A   1      45.998  27.515  36.379  1.00  0.00     0.200 A 
ATOM     95  F   UNL A   1      47.466  28.944  35.203  1.00  0.00    -0.200 F 
ATOM     96  F   UNL A   1      47.037  26.921  36.982  1.00  0.00    -0.200 F 
ENDBRANCH  63  86
ENDBRANCH  37  38
ENDBRANCH  29  32
ENDBRANCH  27  28
ENDBRANCH  26  27
ENDBRANCH   1  26
TORSDOF 14
ENDMDL
MODEL 2
REMARK VINA RESULT:     -12.9      0.130      1.127
REMARK SMILES C[C@@H]1[C@H](C)CCC[C@H]1NC(=O)C[N@@H+]1CCC[C@@H]1C(=O)NCCCCNC(=O)c1ccc(-c2c3nc(c(-c4c(F)c(F)c(F)c(F)c4F)c4ccc([nH]4)c(-c4c(F)c(F)c(F)c(F)c4F)c4nc(c(-c5c(F)c(F)c(F)c(F)c5F)c5ccc2[nH]5)C=C4)C=C3)cc1
REMARK SMILES IDX 22 1 21 2 20 3 18 4 19 5 17 7 13 8 14 9 15 11 16 12 12 13
REMARK SMILES IDX 10 14 9 15 11 17 8 18 1 19 2 20 3 21 4 22 5 23 7 24 6 25
REMARK SMILES IDX 23 26 24 27 25 28 26 29 27 31 28 32 29 33 90 34 30 35 89 36
REMARK SMILES IDX 31 37 32 38 33 39 83 40 34 41 88 42 82 43 84 44 35 45 87 46
REMARK SMILES IDX 81 47 80 48 36 50 68 51 48 52 67 53 49 54 52 55 66 56 85 57
REMARK SMILES IDX 50 58 51 59 65 61 86 62 53 63 37 64 38 65 46 66 39 67 40 68
REMARK SMILES IDX 44 69 47 70 41 71 42 72 45 73 43 74 69 75 70 76 78 77 71 78
REMARK SMILES IDX 72 79 76 80 79 81 73 82 74 83 77 84 75 85 54 86 55 87 63 88
REMARK SMILES IDX 56 89 57 90 61 91 64 92 58 93 59 94 62 95 60 96
REMARK H PARENT 20 6 13 10 9 16 25 30 84 49 52 60
REMARK Flexibility Score: inf
ROOT
ATOM      1  C   UNL A   1      32.068  30.211  26.915  1.00  0.00     0.023 C 
ENDROOT
BRANCH   1   2
ATOM      2  C   UNL A   1      33.133  29.686  25.967  1.00  0.00     0.116 C 
BRANCH   2   3
ATOM      3  N   UNL A   1      32.711  29.657  24.585  1.00  0.00    -0.351 N 
ATOM      4  C   UNL A   1      31.891  28.776  23.940  1.00  0.00     0.278 C 
ATOM      5  O   UNL A   1      31.532  29.093  22.801  1.00  0.00    -0.268 OA
ATOM      6  H   UNL A   1      33.069  30.382  24.024  1.00  0.00     0.163 HD
BRANCH   4   7
ATOM      7  C   UNL A   1      31.417  27.451  24.568  1.00  0.00     0.274 C 
ATOM      8  N   UNL A   1      32.350  26.301  24.508  1.00  0.00    -0.317 N 
ATOM      9  C   UNL A   1      31.560  25.092  24.265  1.00  0.00     0.263 C 
ATOM     10  H   UNL A   1      32.808  26.254  25.419  1.00  0.00     0.349 HD
ATOM     11  C   UNL A   1      30.248  25.538  23.643  1.00  0.00     0.068 C 
ATOM     12  C   UNL A   1      30.042  26.963  24.125  1.00  0.00     0.081 C 
BRANCH   8  13
ATOM     13  C   UNL A   1      33.553  26.425  23.681  1.00  0.00     0.364 C 
BRANCH  13  14
ATOM     14  C   UNL A   1      33.790  25.178  22.829  1.00  0.00     0.275 C 
ATOM     15  N   UNL A   1      34.522  24.144  23.332  1.00  0.00    -0.348 N 
ATOM     16  H   UNL A   1      34.742  23.428  22.693  1.00  0.00     0.163 HD
ATOM     17  O   UNL A   1      33.366  25.100  21.674  1.00  0.00    -0.268 OA
BRANCH  15  18
ATOM     18  C   UNL A   1      35.025  23.955  24.693  1.00  0.00     0.085 C 
ATOM     19  C   UNL A   1      34.422  22.922  26.926  1.00  0.00     0.010 C 
ATOM     20  C   UNL A   1      34.205  22.853  25.408  1.00  0.00     0.011 C 
ATOM     21  C   UNL A   1      34.515  21.457  24.803  1.00  0.00    -0.009 C 
ATOM     22  C   UNL A   1      33.753  20.325  25.493  1.00  0.00     0.008 C 
ATOM     23  C   UNL A   1      36.021  21.156  24.781  1.00  0.00     0.004 C 
ATOM     24  C   UNL A   1      36.524  23.636  24.655  1.00  0.00     0.025 C 
ATOM     25  C   UNL A   1      36.820  22.253  24.082  1.00  0.00     0.002 C 
ENDBRANCH  15  18
ENDBRANCH  13  14
ENDBRANCH   8  13
ENDBRANCH   4   7
ENDBRANCH   2   3
ENDBRANCH   1   2
BRANCH   1  26
ATOM     26  C   UNL A   1      31.795  31.709  26.805  1.00  0.00     0.023 C 
BRANCH  26  27
ATOM     27  C   UNL A   1      32.896  32.624  27.332  1.00  0.00     0.116 C 
BRANCH  27  28
ATOM     28  N   UNL A   1      32.449  33.979  27.625  1.00  0.00    -0.352 N 
ATOM     29  C   UNL A   1      32.966  34.883  28.523  1.00  0.00     0.251 C 
ATOM     30  H   UNL A   1      31.669  34.291  27.110  1.00  0.00     0.163 HD
ATOM     31  O   UNL A   1      32.424  35.967  28.706  1.00  0.00    -0.269 OA
BRANCH  29  32
ATOM     32  C   UNL A   1      34.159  34.510  29.309  1.00  0.00     0.039 A 
ATOM     33  C   UNL A   1      33.978  33.971  30.585  1.00  0.00     0.014 A 
ATOM     34  C   UNL A   1      35.438  34.627  28.759  1.00  0.00     0.014 A 
ATOM     35  C   UNL A   1      35.078  33.457  31.273  1.00  0.00     0.010 A 
ATOM     36  C   UNL A   1      36.520  34.053  29.417  1.00  0.00     0.010 A 
ATOM     37  C   UNL A   1      36.348  33.449  30.673  1.00  0.00    -0.014 A 
BRANCH  37  38
ATOM     38  C   UNL A   1      37.501  32.780  31.326  1.00  0.00     0.031 A 
ATOM     39  C   UNL A   1      38.164  31.605  30.669  1.00  0.00     0.074 A 
ATOM     40  C   UNL A   1      37.885  33.176  32.555  1.00  0.00     0.049 A 
ATOM     41  N   UNL A   1      39.122  30.837  31.122  1.00  0.00    -0.248 NA
ATOM     42  C   UNL A   1      37.665  31.221  29.339  1.00  0.00     0.031 C 
ATOM     43  C   UNL A   1      37.272  34.258  33.328  1.00  0.00     0.029 A 
ATOM     44  N   UNL A   1      38.871  32.699  33.383  1.00  0.00    -0.354 N 
ATOM     45  C   UNL A   1      39.320  29.867  30.148  1.00  0.00     0.074 A 
ATOM     46  C   UNL A   1      38.358  30.118  29.097  1.00  0.00     0.031 C 
ATOM     47  C   UNL A   1      37.898  34.368  34.510  1.00  0.00     0.029 A 
ATOM     48  C   UNL A   1      38.938  33.346  34.593  1.00  0.00     0.049 A 
ATOM     49  H   UNL A   1      39.474  31.961  33.133  1.00  0.00     0.167 HD
ATOM     50  C   UNL A   1      40.234  28.869  30.129  1.00  0.00     0.037 A 
ATOM     51  C   UNL A   1      39.738  33.131  35.654  1.00  0.00     0.037 A 
ATOM     52  C   UNL A   1      41.221  28.653  31.153  1.00  0.00     0.049 A 
ATOM     53  C   UNL A   1      40.774  32.041  35.584  1.00  0.00     0.074 A 
ATOM     54  C   UNL A   1      42.258  27.737  31.170  1.00  0.00     0.029 A 
ATOM     55  N   UNL A   1      41.292  29.362  32.342  1.00  0.00    -0.354 N 
ATOM     56  N   UNL A   1      41.016  31.193  34.615  1.00  0.00    -0.248 NA
ATOM     57  C   UNL A   1      41.651  31.884  36.752  1.00  0.00     0.031 C 
ATOM     58  C   UNL A   1      42.932  27.865  32.389  1.00  0.00     0.029 A 
ATOM     59  C   UNL A   1      42.340  28.887  33.112  1.00  0.00     0.049 A 
ATOM     60  H   UNL A   1      40.686  30.094  32.601  1.00  0.00     0.167 HD
ATOM     61  C   UNL A   1      42.085  30.419  35.045  1.00  0.00     0.074 A 
ATOM     62  C   UNL A   1      42.458  30.909  36.355  1.00  0.00     0.031 C 
ATOM     63  C   UNL A   1      42.701  29.392  34.411  1.00  0.00     0.037 A 
BRANCH  50  64
ATOM     64  C   UNL A   1      40.222  27.934  28.956  1.00  0.00     0.064 A 
ATOM     65  C   UNL A   1      40.951  28.207  27.791  1.00  0.00     0.173 A 
ATOM     66  C   UNL A   1      39.521  26.720  29.026  1.00  0.00     0.173 A 
ATOM     67  F   UNL A   1      41.628  29.359  27.672  1.00  0.00    -0.203 F 
ATOM     68  C   UNL A   1      40.965  27.308  26.728  1.00  0.00     0.198 A 
ATOM     69  C   UNL A   1      39.558  25.812  27.972  1.00  0.00     0.198 A 
ATOM     70  F   UNL A   1      38.813  26.410  30.122  1.00  0.00    -0.203 F 
ATOM     71  F   UNL A   1      41.640  27.606  25.609  1.00  0.00    -0.200 F 
ATOM     72  C   UNL A   1      40.276  26.107  26.822  1.00  0.00     0.200 A 
ATOM     73  F   UNL A   1      38.902  24.647  28.069  1.00  0.00    -0.200 F 
ATOM     74  F   UNL A   1      40.301  25.238  25.805  1.00  0.00    -0.200 F 
ENDBRANCH  50  64
BRANCH  51  75
ATOM     75  C   UNL A   1      39.605  33.973  36.872  1.00  0.00     0.064 A 
ATOM     76  C   UNL A   1      38.817  33.556  37.953  1.00  0.00     0.173 A 
ATOM     77  C   UNL A   1      40.247  35.215  36.971  1.00  0.00     0.173 A 
ATOM     78  F   UNL A   1      38.167  32.384  37.896  1.00  0.00    -0.203 F 
ATOM     79  C   UNL A   1      38.654  34.362  39.077  1.00  0.00     0.198 A 
ATOM     80  C   UNL A   1      40.105  36.009  38.108  1.00  0.00     0.198 A 
ATOM     81  F   UNL A   1      41.017  35.657  35.966  1.00  0.00    -0.203 F 
ATOM     82  F   UNL A   1      37.854  33.962  40.076  1.00  0.00    -0.200 F 
ATOM     83  C   UNL A   1      39.301  35.586  39.155  1.00  0.00     0.200 A 
ATOM     84  F   UNL A   1      40.741  37.185  38.185  1.00  0.00    -0.200 F 
ATOM     85  F   UNL A   1      39.142  36.363  40.236  1.00  0.00    -0.200 F 
ENDBRANCH  51  75
BRANCH  63  86
ATOM     86  C   UNL A   1      43.856  28.744  35.115  1.00  0.00     0.064 A 
ATOM     87  C   UNL A   1      43.671  27.654  35.977  1.00  0.00     0.173 A 
ATOM     88  C   UNL A   1      45.167  29.194  34.892  1.00  0.00     0.173 A 
ATOM     89  F   UNL A   1      42.435  27.201  36.235  1.00  0.00    -0.203 F 
ATOM     90  C   UNL A   1      44.755  27.049  36.606  1.00  0.00     0.198 A 
ATOM     91  C   UNL A   1      46.250  28.569  35.501  1.00  0.00     0.198 A 
ATOM     92  F   UNL A   1      45.396  30.230  34.071  1.00  0.00    -0.203 F 
ATOM     93  F   UNL A   1      44.552  26.035  37.459  1.00  0.00    -0.200 F 
ATOM     94  C   UNL A   1      46.043  27.502  36.362  1.00  0.00     0.200 A 
ATOM     95  F   UNL A   1      47.495  29.000  35.255  1.00  0.00    -0.200 F 
ATOM     96  F   UNL A   1      47.086  26.913  36.964  1.00  0.00    -0.200 F 
ENDBRANCH  63  86
ENDBRANCH  37  38
ENDBRANCH  29  32
ENDBRANCH  27  28
ENDBRANCH  26  27
ENDBRANCH   1  26
TORSDOF 14
ENDMDL
MODEL 3
REMARK VINA RESULT:     -12.8      0.880      2.098
REMARK SMILES C[C@@H]1[C@H](C)CCC[C@H]1NC(=O)C[N@@H+]1CCC[C@@H]1C(=O)NCCCCNC(=O)c1ccc(-c2c3nc(c(-c4c(F)c(F)c(F)c(F)c4F)c4ccc([nH]4)c(-c4c(F)c(F)c(F)c(F)c4F)c4nc(c(-c5c(F)c(F)c(F)c(F)c5F)c5ccc2[nH]5)C=C4)C=C3)cc1
REMARK SMILES IDX 22 1 21 2 20 3 18 4 19 5 17 7 13 8 14 9 15 11 16 12 12 13
REMARK SMILES IDX 10 14 9 15 11 17 8 18 1 19 2 20 3 21 4 22 5 23 7 24 6 25
REMARK SMILES IDX 23 26 24 27 25 28 26 29 27 31 28 32 29 33 90 34 30 35 89 36
REMARK SMILES IDX 31 37 32 38 33 39 83 40 34 41 88 42 82 43 84 44 35 45 87 46
REMARK SMILES IDX 81 47 80 48 36 50 68 51 48 52 67 53 49 54 52 55 66 56 85 57
REMARK SMILES IDX 50 58 51 59 65 61 86 62 53 63 37 64 38 65 46 66 39 67 40 68
REMARK SMILES IDX 44 69 47 70 41 71 42 72 45 73 43 74 69 75 70 76 78 77 71 78
REMARK SMILES IDX 72 79 76 80 79 81 73 82 74 83 77 84 75 85 54 86 55 87 63 88
REMARK SMILES IDX 56 89 57 90 61 91 64 92 58 93 59 94 62 95 60 96
REMARK H PARENT 20 6 13 10 9 16 25 30 84 49 52 60
REMARK Flexibility Score: inf
ROOT
ATOM      1  C   UNL A   1      31.900  30.235  26.879  1.00  0.00     0.023 C 
ENDROOT
BRANCH   1   2
ATOM      2  C   UNL A   1      33.278  29.617  26.709  1.00  0.00     0.116 C 
BRANCH   2   3
ATOM      3  N   UNL A   1      33.630  29.364  25.331  1.00  0.00    -0.351 N 
ATOM      4  C   UNL A   1      32.828  29.111  24.256  1.00  0.00     0.278 C 
ATOM      5  O   UNL A   1      33.374  29.129  23.147  1.00  0.00    -0.268 OA
ATOM      6  H   UNL A   1      34.595  29.376  25.138  1.00  0.00     0.163 HD
BRANCH   4   7
ATOM      7  C   UNL A   1      31.319  28.820  24.379  1.00  0.00     0.274 C 
ATOM      8  N   UNL A   1      30.921  27.423  24.675  1.00  0.00    -0.317 N 
ATOM      9  C   UNL A   1      29.706  27.131  23.912  1.00  0.00     0.263 C 
ATOM     10  H   UNL A   1      30.735  27.383  25.678  1.00  0.00     0.349 HD
ATOM     11  C   UNL A   1      29.659  28.116  22.757  1.00  0.00     0.068 C 
ATOM     12  C   UNL A   1      30.452  29.322  23.230  1.00  0.00     0.081 C 
BRANCH   8  13
ATOM     13  C   UNL A   1      31.949  26.382  24.617  1.00  0.00     0.364 C 
BRANCH  13  14
ATOM     14  C   UNL A   1      32.194  25.746  25.986  1.00  0.00     0.275 C 
ATOM     15  N   UNL A   1      32.692  24.480  26.066  1.00  0.00    -0.348 N 
ATOM     16  H   UNL A   1      32.710  24.086  26.967  1.00  0.00     0.163 HD
ATOM     17  O   UNL A   1      31.913  26.341  27.029  1.00  0.00    -0.268 OA
BRANCH  15  18
ATOM     18  C   UNL A   1      33.204  23.629  24.991  1.00  0.00     0.085 C 
ATOM     19  C   UNL A   1      35.134  23.395  23.367  1.00  0.00     0.010 C 
ATOM     20  C   UNL A   1      34.695  23.953  24.728  1.00  0.00     0.011 C 
ATOM     21  C   UNL A   1      35.579  23.469  25.909  1.00  0.00    -0.009 C 
ATOM     22  C   UNL A   1      37.068  23.739  25.688  1.00  0.00     0.008 C 
ATOM     23  C   UNL A   1      35.345  21.989  26.241  1.00  0.00     0.004 C 
ATOM     24  C   UNL A   1      32.980  22.154  25.344  1.00  0.00     0.025 C 
ATOM     25  C   UNL A   1      33.871  21.679  26.489  1.00  0.00     0.002 C 
ENDBRANCH  15  18
ENDBRANCH  13  14
ENDBRANCH   8  13
ENDBRANCH   4   7
ENDBRANCH   2   3
ENDBRANCH   1   2
BRANCH   1  26
ATOM     26  C   UNL A   1      31.841  31.741  26.638  1.00  0.00     0.023 C 
BRANCH  26  27
ATOM     27  C   UNL A   1      32.866  32.576  27.400  1.00  0.00     0.116 C 
BRANCH  27  28
ATOM     28  N   UNL A   1      32.435  33.941  27.668  1.00  0.00    -0.352 N 
ATOM     29  C   UNL A   1      32.969  34.858  28.545  1.00  0.00     0.251 C 
ATOM     30  H   UNL A   1      31.655  34.250  27.153  1.00  0.00     0.163 HD
ATOM     31  O   UNL A   1      32.438  35.951  28.708  1.00  0.00    -0.269 OA
BRANCH  29  32
ATOM     32  C   UNL A   1      34.163  34.488  29.329  1.00  0.00     0.039 A 
ATOM     33  C   UNL A   1      33.985  33.943  30.603  1.00  0.00     0.014 A 
ATOM     34  C   UNL A   1      35.441  34.614  28.781  1.00  0.00     0.014 A 
ATOM     35  C   UNL A   1      35.087  33.432  31.290  1.00  0.00     0.010 A 
ATOM     36  C   UNL A   1      36.527  34.044  29.437  1.00  0.00     0.010 A 
ATOM     37  C   UNL A   1      36.356  33.433  30.690  1.00  0.00    -0.014 A 
BRANCH  37  38
ATOM     38  C   UNL A   1      37.513  32.769  31.341  1.00  0.00     0.031 A 
ATOM     39  C   UNL A   1      38.171  31.587  30.689  1.00  0.00     0.074 A 
ATOM     40  C   UNL A   1      37.905  33.173  32.565  1.00  0.00     0.049 A 
ATOM     41  N   UNL A   1      39.130  30.821  31.143  1.00  0.00    -0.248 NA
ATOM     42  C   UNL A   1      37.662  31.193  29.366  1.00  0.00     0.031 C 
ATOM     43  C   UNL A   1      37.298  34.263  33.333  1.00  0.00     0.029 A 
ATOM     44  N   UNL A   1      38.896  32.702  33.390  1.00  0.00    -0.354 N 
ATOM     45  C   UNL A   1      39.320  29.843  30.175  1.00  0.00     0.074 A 
ATOM     46  C   UNL A   1      38.353  30.088  29.128  1.00  0.00     0.031 C 
ATOM     47  C   UNL A   1      37.933  34.381  34.510  1.00  0.00     0.029 A 
ATOM     48  C   UNL A   1      38.971  33.358  34.595  1.00  0.00     0.049 A 
ATOM     49  H   UNL A   1      39.497  31.961  33.142  1.00  0.00     0.167 HD
ATOM     50  C   UNL A   1      40.233  28.844  30.158  1.00  0.00     0.037 A 
ATOM     51  C   UNL A   1      39.778  33.151  35.652  1.00  0.00     0.037 A 
ATOM     52  C   UNL A   1      41.227  28.635  31.177  1.00  0.00     0.049 A 
ATOM     53  C   UNL A   1      40.812  32.059  35.585  1.00  0.00     0.074 A 
ATOM     54  C   UNL A   1      42.263  27.718  31.196  1.00  0.00     0.029 A 
ATOM     55  N   UNL A   1      41.306  29.354  32.360  1.00  0.00    -0.354 N 
ATOM     56  N   UNL A   1      41.047  31.203  34.621  1.00  0.00    -0.248 NA
ATOM     57  C   UNL A   1      41.697  31.910  36.748  1.00  0.00     0.031 C 
ATOM     58  C   UNL A   1      42.945  27.854  32.409  1.00  0.00     0.029 A 
ATOM     59  C   UNL A   1      42.359  28.883  33.128  1.00  0.00     0.049 A 
ATOM     60  H   UNL A   1      40.703  30.088  32.618  1.00  0.00     0.167 HD
ATOM     61  C   UNL A   1      42.117  30.430  35.050  1.00  0.00     0.074 A 
ATOM     62  C   UNL A   1      42.499  30.931  36.353  1.00  0.00     0.031 C 
ATOM     63  C   UNL A   1      42.728  29.398  34.420  1.00  0.00     0.037 A 
BRANCH  50  64
ATOM     64  C   UNL A   1      40.213  27.899  28.993  1.00  0.00     0.064 A 
ATOM     65  C   UNL A   1      40.923  28.169  27.815  1.00  0.00     0.173 A 
ATOM     66  C   UNL A   1      39.523  26.680  29.083  1.00  0.00     0.173 A 
ATOM     67  F   UNL A   1      41.588  29.326  27.678  1.00  0.00    -0.203 F 
ATOM     68  C   UNL A   1      40.929  27.262  26.759  1.00  0.00     0.198 A 
ATOM     69  C   UNL A   1      39.553  25.764  28.036  1.00  0.00     0.198 A 
ATOM     70  F   UNL A   1      38.833  26.373  30.191  1.00  0.00    -0.203 F 
ATOM     71  F   UNL A   1      41.585  27.557  25.629  1.00  0.00    -0.200 F 
ATOM     72  C   UNL A   1      40.252  26.056  26.873  1.00  0.00     0.200 A 
ATOM     73  F   UNL A   1      38.908  24.595  28.151  1.00  0.00    -0.200 F 
ATOM     74  F   UNL A   1      40.269  25.179  25.862  1.00  0.00    -0.200 F 
ENDBRANCH  50  64
BRANCH  51  75
ATOM     75  C   UNL A   1      39.654  34.002  36.864  1.00  0.00     0.064 A 
ATOM     76  C   UNL A   1      38.871  33.596  37.953  1.00  0.00     0.173 A 
ATOM     77  C   UNL A   1      40.300  35.244  36.950  1.00  0.00     0.173 A 
ATOM     78  F   UNL A   1      38.217  32.426  37.908  1.00  0.00    -0.203 F 
ATOM     79  C   UNL A   1      38.716  34.412  39.071  1.00  0.00     0.198 A 
ATOM     80  C   UNL A   1      40.166  36.047  38.082  1.00  0.00     0.198 A 
ATOM     81  F   UNL A   1      41.066  35.676  35.937  1.00  0.00    -0.203 F 
ATOM     82  F   UNL A   1      37.921  34.022  40.078  1.00  0.00    -0.200 F 
ATOM     83  C   UNL A   1      39.366  35.635  39.136  1.00  0.00     0.200 A 
ATOM     84  F   UNL A   1      40.806  37.222  38.146  1.00  0.00    -0.200 F 
ATOM     85  F   UNL A   1      39.215  36.420  40.212  1.00  0.00    -0.200 F 
ENDBRANCH  51  75
BRANCH  63  86
ATOM     86  C   UNL A   1      43.887  28.754  35.122  1.00  0.00     0.064 A 
ATOM     87  C   UNL A   1      45.197  29.225  34.957  1.00  0.00     0.173 A 
ATOM     88  C   UNL A   1      43.678  27.681  36.001  1.00  0.00     0.173 A 
ATOM     89  F   UNL A   1      45.448  30.237  34.113  1.00  0.00    -0.203 F 
ATOM     90  C   UNL A   1      46.260  28.633  35.632  1.00  0.00     0.198 A 
ATOM     91  C   UNL A   1      44.739  27.109  36.696  1.00  0.00     0.198 A 
ATOM     92  F   UNL A   1      42.442  27.198  36.198  1.00  0.00    -0.203 F 
ATOM     93  F   UNL A   1      47.510  29.071  35.427  1.00  0.00    -0.200 F 
ATOM     94  C   UNL A   1      46.029  27.580  36.506  1.00  0.00     0.200 A 
ATOM     95  F   UNL A   1      44.513  26.100  37.549  1.00  0.00    -0.200 F 
ATOM     96  F   UNL A   1      47.053  27.015  37.160  1.00  0.00    -0.200 F 
ENDBRANCH  63  86
ENDBRANCH  37  38
ENDBRANCH  29  32
ENDBRANCH  27  28
ENDBRANCH  26  27
ENDBRANCH   1  26
TORSDOF 14
ENDMDL
