MODEL 1
REMARK VINA RESULT:     -12.9      0.000      0.000
REMARK SMILES O=C(NCCCCNC(=O)[C@H]1CC=CC[C@@H]1C(=O)NNc1ccccc1)c1ccc(-c2c3nc(c(-c4c(F)c(F)c(F)c(F)c4F)c4ccc([nH]4)c(-c4c(F)c(F)c(F)c(F)c4F)c4nc(c(-c5c(F)c(F)c(F)c(F)c5F)c5ccc2[nH]5)C=C4)C=C3)cc1
REMARK SMILES IDX 6 1 5 2 4 3 3 4 1 5 2 6 27 8 28 9 89 10 29 11 88 12 30 13
REMARK SMILES IDX 31 14 32 15 82 16 33 17 87 18 81 19 83 20 34 21 86 22 80 23
REMARK SMILES IDX 79 24 35 26 67 27 47 28 66 29 48 30 51 31 65 32 84 33 49 34
REMARK SMILES IDX 50 35 64 37 85 38 52 39 36 40 37 41 45 42 38 43 39 44 43 45
REMARK SMILES IDX 46 46 40 47 41 48 44 49 42 50 68 51 69 52 77 53 70 54 71 55
REMARK SMILES IDX 75 56 78 57 72 58 73 59 76 60 74 61 53 62 54 63 62 64 55 65
REMARK SMILES IDX 56 66 60 67 63 68 57 69 58 70 61 71 59 72 7 73 8 74 9 75
REMARK SMILES IDX 10 77 11 78 12 79 16 80 13 81 15 82 14 83 17 84 18 85 19 86
REMARK SMILES IDX 20 88 21 90 22 91 26 92 23 93 25 94 24 95
REMARK H PARENT 3 7 83 25 51 36 8 76 19 87 20 89
REMARK Flexibility Score: inf
ROOT
ATOM      1  C   UNL A   1      31.569  30.799  26.355  1.00  0.00     0.023 C 
ENDROOT
BRANCH   1   2
ATOM      2  C   UNL A   1      31.404  32.289  26.628  1.00  0.00     0.023 C 
BRANCH   2   3
ATOM      3  C   UNL A   1      32.613  32.958  27.251  1.00  0.00     0.116 C 
BRANCH   3   4
ATOM      4  N   UNL A   1      32.338  34.311  27.710  1.00  0.00    -0.352 N 
ATOM      5  O   UNL A   1      32.529  36.115  29.052  1.00  0.00    -0.269 OA
ATOM      6  C   UNL A   1      32.964  35.028  28.699  1.00  0.00     0.251 C 
ATOM      7  H   UNL A   1      31.604  34.775  27.248  1.00  0.00     0.163 HD
BRANCH   6   8
ATOM      8  C   UNL A   1      34.153  34.452  29.358  1.00  0.00     0.039 A 
ATOM      9  C   UNL A   1      35.418  34.576  28.777  1.00  0.00     0.014 A 
ATOM     10  C   UNL A   1      33.984  33.765  30.561  1.00  0.00     0.014 A 
ATOM     11  C   UNL A   1      36.498  33.904  29.331  1.00  0.00     0.010 A 
ATOM     12  C   UNL A   1      35.086  33.154  31.158  1.00  0.00     0.010 A 
ATOM     13  C   UNL A   1      36.343  33.200  30.533  1.00  0.00    -0.014 A 
BRANCH  13  14
ATOM     14  C   UNL A   1      37.514  32.565  31.173  1.00  0.00     0.031 A 
ATOM     15  C   UNL A   1      38.227  31.429  30.506  1.00  0.00     0.074 A 
ATOM     16  C   UNL A   1      37.902  33.007  32.383  1.00  0.00     0.049 A 
ATOM     17  N   UNL A   1      39.197  30.681  30.966  1.00  0.00    -0.248 NA
ATOM     18  C   UNL A   1      37.787  31.079  29.147  1.00  0.00     0.031 C 
ATOM     19  C   UNL A   1      37.273  34.107  33.116  1.00  0.00     0.029 A 
ATOM     20  N   UNL A   1      38.902  32.578  33.213  1.00  0.00    -0.354 N 
ATOM     21  C   UNL A   1      39.464  29.753  29.969  1.00  0.00     0.074 A 
ATOM     22  C   UNL A   1      38.545  30.023  28.883  1.00  0.00     0.031 C 
ATOM     23  C   UNL A   1      37.904  34.270  34.287  1.00  0.00     0.029 A 
ATOM     24  C   UNL A   1      38.937  33.247  34.411  1.00  0.00     0.049 A 
ATOM     25  H   UNL A   1      39.534  31.861  32.976  1.00  0.00     0.167 HD
ATOM     26  C   UNL A   1      40.392  28.766  29.970  1.00  0.00     0.037 A 
ATOM     27  C   UNL A   1      39.688  33.035  35.505  1.00  0.00     0.037 A 
ATOM     28  C   UNL A   1      41.308  28.523  31.054  1.00  0.00     0.049 A 
ATOM     29  C   UNL A   1      40.694  31.923  35.490  1.00  0.00     0.074 A 
ATOM     30  C   UNL A   1      42.318  27.582  31.136  1.00  0.00     0.029 A 
ATOM     31  N   UNL A   1      41.319  29.229  32.250  1.00  0.00    -0.354 N 
ATOM     32  N   UNL A   1      40.958  31.066  34.535  1.00  0.00    -0.248 NA
ATOM     33  C   UNL A   1      41.504  31.747  36.701  1.00  0.00     0.031 C 
ATOM     34  C   UNL A   1      42.912  27.689  32.399  1.00  0.00     0.029 A 
ATOM     35  C   UNL A   1      42.303  28.726  33.087  1.00  0.00     0.049 A 
ATOM     36  H   UNL A   1      40.716  29.975  32.471  1.00  0.00     0.167 HD
ATOM     37  C   UNL A   1      41.974  30.257  35.018  1.00  0.00     0.074 A 
ATOM     38  C   UNL A   1      42.285  30.732  36.353  1.00  0.00     0.031 C 
ATOM     39  C   UNL A   1      42.596  29.218  34.410  1.00  0.00     0.037 A 
BRANCH  26  40
ATOM     40  C   UNL A   1      40.438  27.857  28.777  1.00  0.00     0.064 A 
ATOM     41  C   UNL A   1      41.217  28.155  27.648  1.00  0.00     0.173 A 
ATOM     42  C   UNL A   1      39.708  26.659  28.772  1.00  0.00     0.173 A 
ATOM     43  F   UNL A   1      41.923  29.295  27.597  1.00  0.00    -0.203 F 
ATOM     44  C   UNL A   1      41.240  27.301  26.548  1.00  0.00     0.198 A 
ATOM     45  C   UNL A   1      39.753  25.796  27.681  1.00  0.00     0.198 A 
ATOM     46  F   UNL A   1      38.951  26.325  29.827  1.00  0.00    -0.203 F 
ATOM     47  F   UNL A   1      41.951  27.631  25.461  1.00  0.00    -0.200 F 
ATOM     48  C   UNL A   1      40.512  26.121  26.566  1.00  0.00     0.200 A 
ATOM     49  F   UNL A   1      39.056  24.650  27.705  1.00  0.00    -0.200 F 
ATOM     50  F   UNL A   1      40.533  25.301  25.506  1.00  0.00    -0.200 F 
ENDBRANCH  26  40
BRANCH  27  51
ATOM     51  C   UNL A   1      39.485  33.897  36.693  1.00  0.00     0.064 A 
ATOM     52  C   UNL A   1      38.685  33.473  37.761  1.00  0.00     0.173 A 
ATOM     53  C   UNL A   1      40.150  35.126  36.817  1.00  0.00     0.173 A 
ATOM     54  F   UNL A   1      38.021  32.311  37.681  1.00  0.00    -0.203 F 
ATOM     55  C   UNL A   1      38.561  34.247  38.913  1.00  0.00     0.198 A 
ATOM     56  C   UNL A   1      40.046  35.886  37.979  1.00  0.00     0.198 A 
ATOM     57  F   UNL A   1      40.937  35.566  35.825  1.00  0.00    -0.203 F 
ATOM     58  F   UNL A   1      37.780  33.826  39.918  1.00  0.00    -0.200 F 
ATOM     59  C   UNL A   1      39.250  35.446  39.026  1.00  0.00     0.200 A 
ATOM     60  F   UNL A   1      40.728  37.033  38.092  1.00  0.00    -0.200 F 
ATOM     61  F   UNL A   1      39.149  36.176  40.145  1.00  0.00    -0.200 F 
ENDBRANCH  27  51
BRANCH  39  62
ATOM     62  C   UNL A   1      43.695  28.541  35.169  1.00  0.00     0.064 A 
ATOM     63  C   UNL A   1      43.443  27.437  35.996  1.00  0.00     0.173 A 
ATOM     64  C   UNL A   1      45.024  28.965  35.018  1.00  0.00     0.173 A 
ATOM     65  F   UNL A   1      42.186  27.008  36.183  1.00  0.00    -0.203 F 
ATOM     66  C   UNL A   1      44.483  26.788  36.653  1.00  0.00     0.198 A 
ATOM     67  C   UNL A   1      46.064  28.299  35.658  1.00  0.00     0.198 A 
ATOM     68  F   UNL A   1      45.313  30.014  34.233  1.00  0.00    -0.203 F 
ATOM     69  F   UNL A   1      44.219  25.753  37.462  1.00  0.00    -0.200 F 
ATOM     70  C   UNL A   1      45.793  27.213  36.477  1.00  0.00     0.200 A 
ATOM     71  F   UNL A   1      47.328  28.704  35.479  1.00  0.00    -0.200 F 
ATOM     72  F   UNL A   1      46.794  26.577  37.101  1.00  0.00    -0.200 F 
ENDBRANCH  39  62
ENDBRANCH  13  14
ENDBRANCH   6   8
ENDBRANCH   3   4
ENDBRANCH   2   3
ENDBRANCH   1   2
BRANCH   1  73
ATOM     73  C   UNL A   1      32.614  30.078  27.215  1.00  0.00     0.116 C 
BRANCH  73  74
ATOM     74  N   UNL A   1      32.205  28.733  27.558  1.00  0.00    -0.356 N 
ATOM     75  C   UNL A   1      32.114  27.604  26.797  1.00  0.00     0.224 C 
ATOM     76  H   UNL A   1      31.950  28.610  28.500  1.00  0.00     0.163 HD
ATOM     77  O   UNL A   1      31.778  26.579  27.395  1.00  0.00    -0.275 OA
BRANCH  75  78
ATOM     78  C   UNL A   1      32.443  27.616  25.291  1.00  0.00     0.095 C 
ATOM     79  C   UNL A   1      33.104  26.268  24.874  1.00  0.00     0.041 C 
ATOM     80  C   UNL A   1      31.204  27.864  24.392  1.00  0.00     0.097 C 
ATOM     81  C   UNL A   1      32.123  25.192  24.466  1.00  0.00    -0.030 C 
ATOM     82  C   UNL A   1      30.204  26.732  24.679  1.00  0.00     0.041 C 
ATOM     83  C   UNL A   1      30.799  25.393  24.389  1.00  0.00    -0.030 C 
BRANCH  80  84
ATOM     84  C   UNL A   1      31.637  28.135  22.935  1.00  0.00     0.242 C 
ATOM     85  O   UNL A   1      32.826  28.073  22.601  1.00  0.00    -0.273 OA
ATOM     86  N   UNL A   1      30.748  28.602  22.001  1.00  0.00    -0.270 N 
ATOM     87  H   UNL A   1      31.099  28.848  21.116  1.00  0.00     0.191 HD
BRANCH  86  88
ATOM     88  N   UNL A   1      29.389  28.754  22.220  1.00  0.00    -0.299 N 
ATOM     89  H   UNL A   1      28.789  27.974  22.277  1.00  0.00     0.188 HD
BRANCH  88  90
ATOM     90  C   UNL A   1      28.898  30.074  22.358  1.00  0.00     0.054 A 
ATOM     91  C   UNL A   1      28.408  30.712  21.211  1.00  0.00     0.027 A 
ATOM     92  C   UNL A   1      29.151  30.843  23.501  1.00  0.00     0.027 A 
ATOM     93  C   UNL A   1      28.151  32.084  21.212  1.00  0.00     0.002 A 
ATOM     94  C   UNL A   1      28.898  32.215  23.502  1.00  0.00     0.002 A 
ATOM     95  C   UNL A   1      28.402  32.836  22.356  1.00  0.00     0.000 A 
ENDBRANCH  88  90
ENDBRANCH  86  88
ENDBRANCH  80  84
ENDBRANCH  75  78
ENDBRANCH  73  74
ENDBRANCH   1  73
TORSDOF 14
ENDMDL
MODEL 2
REMARK VINA RESULT:     -12.8      1.618      3.312
REMARK SMILES O=C(NCCCCNC(=O)[C@H]1CC=CC[C@@H]1C(=O)NNc1ccccc1)c1ccc(-c2c3nc(c(-c4c(F)c(F)c(F)c(F)c4F)c4ccc([nH]4)c(-c4c(F)c(F)c(F)c(F)c4F)c4nc(c(-c5c(F)c(F)c(F)c(F)c5F)c5ccc2[nH]5)C=C4)C=C3)cc1
REMARK SMILES IDX 6 1 5 2 4 3 3 4 1 5 2 6 27 8 28 9 89 10 29 11 88 12 30 13
REMARK SMILES IDX 31 14 32 15 82 16 33 17 87 18 81 19 83 20 34 21 86 22 80 23
REMARK SMILES IDX 79 24 35 26 67 27 47 28 66 29 48 30 51 31 65 32 84 33 49 34
REMARK SMILES IDX 50 35 64 37 85 38 52 39 36 40 37 41 45 42 38 43 39 44 43 45
REMARK SMILES IDX 46 46 40 47 41 48 44 49 42 50 68 51 69 52 77 53 70 54 71 55
REMARK SMILES IDX 75 56 78 57 72 58 73 59 76 60 74 61 53 62 54 63 62 64 55 65
REMARK SMILES IDX 56 66 60 67 63 68 57 69 58 70 61 71 59 72 7 73 8 74 9 75
REMARK SMILES IDX 10 77 11 78 12 79 16 80 13 81 15 82 14 83 17 84 18 85 19 86
REMARK SMILES IDX 20 88 21 90 22 91 26 92 23 93 25 94 24 95
REMARK H PARENT 3 7 83 25 51 36 8 76 19 87 20 89
REMARK Flexibility Score: inf
ROOT
ATOM      1  C   UNL A   1      31.584  30.839  26.015  1.00  0.00     0.023 C 
ENDROOT
BRANCH   1   2
ATOM      2  C   UNL A   1      31.329  32.109  26.815  1.00  0.00     0.023 C 
BRANCH   2   3
ATOM      3  C   UNL A   1      32.579  32.866  27.220  1.00  0.00     0.116 C 
BRANCH   3   4
ATOM      4  N   UNL A   1      32.301  34.227  27.653  1.00  0.00    -0.352 N 
ATOM      5  O   UNL A   1      32.499  36.063  28.951  1.00  0.00    -0.269 OA
ATOM      6  C   UNL A   1      32.935  34.971  28.617  1.00  0.00     0.251 C 
ATOM      7  H   UNL A   1      31.557  34.677  27.191  1.00  0.00     0.163 HD
BRANCH   6   8
ATOM      8  C   UNL A   1      34.138  34.418  29.271  1.00  0.00     0.039 A 
ATOM      9  C   UNL A   1      35.402  34.593  28.700  1.00  0.00     0.014 A 
ATOM     10  C   UNL A   1      33.984  33.699  30.457  1.00  0.00     0.014 A 
ATOM     11  C   UNL A   1      36.499  33.942  29.246  1.00  0.00     0.010 A 
ATOM     12  C   UNL A   1      35.100  33.110  31.048  1.00  0.00     0.010 A 
ATOM     13  C   UNL A   1      36.359  33.208  30.432  1.00  0.00    -0.014 A 
BRANCH  13  14
ATOM     14  C   UNL A   1      37.546  32.595  31.066  1.00  0.00     0.031 A 
ATOM     15  C   UNL A   1      38.287  31.484  30.387  1.00  0.00     0.074 A 
ATOM     16  C   UNL A   1      37.923  33.034  32.280  1.00  0.00     0.049 A 
ATOM     17  N   UNL A   1      39.275  30.756  30.840  1.00  0.00    -0.248 NA
ATOM     18  C   UNL A   1      37.855  31.137  29.025  1.00  0.00     0.031 C 
ATOM     19  C   UNL A   1      37.266  34.111  33.024  1.00  0.00     0.029 A 
ATOM     20  N   UNL A   1      38.933  32.622  33.107  1.00  0.00    -0.354 N 
ATOM     21  C   UNL A   1      39.564  29.845  29.834  1.00  0.00     0.074 A 
ATOM     22  C   UNL A   1      38.639  30.103  28.750  1.00  0.00     0.031 C 
ATOM     23  C   UNL A   1      37.893  34.277  34.197  1.00  0.00     0.029 A 
ATOM     24  C   UNL A   1      38.951  33.280  34.311  1.00  0.00     0.049 A 
ATOM     25  H   UNL A   1      39.582  31.923  32.863  1.00  0.00     0.167 HD
ATOM     26  C   UNL A   1      40.516  28.882  29.825  1.00  0.00     0.037 A 
ATOM     27  C   UNL A   1      39.707  33.074  35.403  1.00  0.00     0.037 A 
ATOM     28  C   UNL A   1      41.438  28.650  30.906  1.00  0.00     0.049 A 
ATOM     29  C   UNL A   1      40.741  31.988  35.377  1.00  0.00     0.074 A 
ATOM     30  C   UNL A   1      42.471  27.733  30.979  1.00  0.00     0.029 A 
ATOM     31  N   UNL A   1      41.431  29.343  32.109  1.00  0.00    -0.354 N 
ATOM     32  N   UNL A   1      41.025  31.148  34.413  1.00  0.00    -0.248 NA
ATOM     33  C   UNL A   1      41.554  31.820  36.586  1.00  0.00     0.031 C 
ATOM     34  C   UNL A   1      43.062  27.841  32.243  1.00  0.00     0.029 A 
ATOM     35  C   UNL A   1      42.427  28.857  32.941  1.00  0.00     0.049 A 
ATOM     36  H   UNL A   1      40.810  30.072  32.338  1.00  0.00     0.167 HD
ATOM     37  C   UNL A   1      42.061  30.359  34.889  1.00  0.00     0.074 A 
ATOM     38  C   UNL A   1      42.360  30.828  36.228  1.00  0.00     0.031 C 
ATOM     39  C   UNL A   1      42.708  29.341  34.270  1.00  0.00     0.037 A 
BRANCH  26  40
ATOM     40  C   UNL A   1      40.585  27.986  28.622  1.00  0.00     0.064 A 
ATOM     41  C   UNL A   1      41.354  28.316  27.496  1.00  0.00     0.173 A 
ATOM     42  C   UNL A   1      39.887  26.769  28.606  1.00  0.00     0.173 A 
ATOM     43  F   UNL A   1      42.029  29.475  27.455  1.00  0.00    -0.203 F 
ATOM     44  C   UNL A   1      41.397  27.475  26.387  1.00  0.00     0.198 A 
ATOM     45  C   UNL A   1      39.953  25.918  27.506  1.00  0.00     0.198 A 
ATOM     46  F   UNL A   1      39.141  26.404  29.659  1.00  0.00    -0.203 F 
ATOM     47  F   UNL A   1      42.099  27.834  25.302  1.00  0.00    -0.200 F 
ATOM     48  C   UNL A   1      40.701  26.275  26.394  1.00  0.00     0.200 A 
ATOM     49  F   UNL A   1      39.288  24.755  27.519  1.00  0.00    -0.200 F 
ATOM     50  F   UNL A   1      40.743  25.467  25.326  1.00  0.00    -0.200 F 
ENDBRANCH  26  40
BRANCH  27  51
ATOM     51  C   UNL A   1      39.482  33.919  36.600  1.00  0.00     0.064 A 
ATOM     52  C   UNL A   1      38.687  33.468  37.660  1.00  0.00     0.173 A 
ATOM     53  C   UNL A   1      40.123  35.160  36.740  1.00  0.00     0.173 A 
ATOM     54  F   UNL A   1      38.047  32.294  37.564  1.00  0.00    -0.203 F 
ATOM     55  C   UNL A   1      38.544  34.225  38.820  1.00  0.00     0.198 A 
ATOM     56  C   UNL A   1      40.000  35.904  37.911  1.00  0.00     0.198 A 
ATOM     57  F   UNL A   1      40.905  35.626  35.756  1.00  0.00    -0.203 F 
ATOM     58  F   UNL A   1      37.768  33.779  39.817  1.00  0.00    -0.200 F 
ATOM     59  C   UNL A   1      39.209  35.437  38.949  1.00  0.00     0.200 A 
ATOM     60  F   UNL A   1      40.659  37.063  38.038  1.00  0.00    -0.200 F 
ATOM     61  F   UNL A   1      39.090  36.152  40.076  1.00  0.00    -0.200 F 
ENDBRANCH  27  51
BRANCH  39  62
ATOM     62  C   UNL A   1      43.824  28.684  35.022  1.00  0.00     0.064 A 
ATOM     63  C   UNL A   1      43.601  27.560  35.829  1.00  0.00     0.173 A 
ATOM     64  C   UNL A   1      45.140  29.150  34.884  1.00  0.00     0.173 A 
ATOM     65  F   UNL A   1      42.357  27.091  36.004  1.00  0.00    -0.203 F 
ATOM     66  C   UNL A   1      44.657  26.930  36.480  1.00  0.00     0.198 A 
ATOM     67  C   UNL A   1      46.196  28.503  35.517  1.00  0.00     0.198 A 
ATOM     68  F   UNL A   1      45.401  30.220  34.119  1.00  0.00    -0.203 F 
ATOM     69  F   UNL A   1      44.420  25.874  37.270  1.00  0.00    -0.200 F 
ATOM     70  C   UNL A   1      45.954  27.396  36.316  1.00  0.00     0.200 A 
ATOM     71  F   UNL A   1      47.449  28.948  35.351  1.00  0.00    -0.200 F 
ATOM     72  F   UNL A   1      46.971  26.779  36.935  1.00  0.00    -0.200 F 
ENDBRANCH  39  62
ENDBRANCH  13  14
ENDBRANCH   6   8
ENDBRANCH   3   4
ENDBRANCH   2   3
ENDBRANCH   1   2
BRANCH   1  73
ATOM     73  C   UNL A   1      32.746  29.966  26.507  1.00  0.00     0.116 C 
BRANCH  73  74
ATOM     74  N   UNL A   1      33.644  29.596  25.433  1.00  0.00    -0.356 N 
ATOM     75  C   UNL A   1      33.531  28.649  24.459  1.00  0.00     0.224 C 
ATOM     76  H   UNL A   1      34.478  30.118  25.399  1.00  0.00     0.163 HD
ATOM     77  O   UNL A   1      34.453  28.606  23.641  1.00  0.00    -0.275 OA
BRANCH  75  78
ATOM     78  C   UNL A   1      32.307  27.716  24.376  1.00  0.00     0.095 C 
ATOM     79  C   UNL A   1      32.299  26.957  23.016  1.00  0.00     0.041 C 
ATOM     80  C   UNL A   1      32.244  26.678  25.528  1.00  0.00     0.097 C 
ATOM     81  C   UNL A   1      33.064  25.652  23.025  1.00  0.00    -0.030 C 
ATOM     82  C   UNL A   1      33.525  25.834  25.444  1.00  0.00     0.041 C 
ATOM     83  C   UNL A   1      33.637  25.142  24.125  1.00  0.00    -0.030 C 
BRANCH  80  84
ATOM     84  C   UNL A   1      30.873  25.968  25.543  1.00  0.00     0.242 C 
ATOM     85  O   UNL A   1      29.922  26.403  24.884  1.00  0.00    -0.273 OA
ATOM     86  N   UNL A   1      30.618  24.929  26.401  1.00  0.00    -0.270 N 
ATOM     87  H   UNL A   1      29.699  24.577  26.435  1.00  0.00     0.191 HD
BRANCH  86  88
ATOM     88  N   UNL A   1      31.564  24.341  27.223  1.00  0.00    -0.299 N 
ATOM     89  H   UNL A   1      31.917  24.810  28.014  1.00  0.00     0.188 HD
BRANCH  88  90
ATOM     90  C   UNL A   1      32.003  23.040  26.880  1.00  0.00     0.054 A 
ATOM     91  C   UNL A   1      33.167  22.561  27.494  1.00  0.00     0.027 A 
ATOM     92  C   UNL A   1      31.500  22.359  25.765  1.00  0.00     0.027 A 
ATOM     93  C   UNL A   1      33.801  21.409  27.023  1.00  0.00     0.002 A 
ATOM     94  C   UNL A   1      32.135  21.209  25.291  1.00  0.00     0.002 A 
ATOM     95  C   UNL A   1      33.287  20.738  25.918  1.00  0.00     0.000 A 
ENDBRANCH  88  90
ENDBRANCH  86  88
ENDBRANCH  80  84
ENDBRANCH  75  78
ENDBRANCH  73  74
ENDBRANCH   1  73
TORSDOF 14
ENDMDL
MODEL 3
REMARK VINA RESULT:     -12.6      0.799      1.815
REMARK SMILES O=C(NCCCCNC(=O)[C@H]1CC=CC[C@@H]1C(=O)NNc1ccccc1)c1ccc(-c2c3nc(c(-c4c(F)c(F)c(F)c(F)c4F)c4ccc([nH]4)c(-c4c(F)c(F)c(F)c(F)c4F)c4nc(c(-c5c(F)c(F)c(F)c(F)c5F)c5ccc2[nH]5)C=C4)C=C3)cc1
REMARK SMILES IDX 6 1 5 2 4 3 3 4 1 5 2 6 27 8 28 9 89 10 29 11 88 12 30 13
REMARK SMILES IDX 31 14 32 15 82 16 33 17 87 18 81 19 83 20 34 21 86 22 80 23
REMARK SMILES IDX 79 24 35 26 67 27 47 28 66 29 48 30 51 31 65 32 84 33 49 34
REMARK SMILES IDX 50 35 64 37 85 38 52 39 36 40 37 41 45 42 38 43 39 44 43 45
REMARK SMILES IDX 46 46 40 47 41 48 44 49 42 50 68 51 69 52 77 53 70 54 71 55
REMARK SMILES IDX 75 56 78 57 72 58 73 59 76 60 74 61 53 62 54 63 62 64 55 65
REMARK SMILES IDX 56 66 60 67 63 68 57 69 58 70 61 71 59 72 7 73 8 74 9 75
REMARK SMILES IDX 10 77 11 78 12 79 16 80 13 81 15 82 14 83 17 84 18 85 19 86
REMARK SMILES IDX 20 88 21 90 22 91 26 92 23 93 25 94 24 95
REMARK H PARENT 3 7 83 25 51 36 8 76 19 87 20 89
REMARK Flexibility Score: inf
ROOT
ATOM      1  C   UNL A   1      31.693  30.821  26.081  1.00  0.00     0.023 C 
ENDROOT
BRANCH   1   2
ATOM      2  C   UNL A   1      31.431  32.195  26.687  1.00  0.00     0.023 C 
BRANCH   2   3
ATOM      3  C   UNL A   1      32.656  32.880  27.260  1.00  0.00     0.116 C 
BRANCH   3   4
ATOM      4  N   UNL A   1      32.384  34.232  27.725  1.00  0.00    -0.352 N 
ATOM      5  O   UNL A   1      32.592  36.038  29.062  1.00  0.00    -0.269 OA
ATOM      6  C   UNL A   1      33.025  34.953  28.700  1.00  0.00     0.251 C 
ATOM      7  H   UNL A   1      31.637  34.692  27.278  1.00  0.00     0.163 HD
BRANCH   6   8
ATOM      8  C   UNL A   1      34.231  34.384  29.334  1.00  0.00     0.039 A 
ATOM      9  C   UNL A   1      35.499  34.632  28.802  1.00  0.00     0.014 A 
ATOM     10  C   UNL A   1      34.076  33.577  30.463  1.00  0.00     0.014 A 
ATOM     11  C   UNL A   1      36.604  33.971  29.319  1.00  0.00     0.010 A 
ATOM     12  C   UNL A   1      35.198  32.974  31.030  1.00  0.00     0.010 A 
ATOM     13  C   UNL A   1      36.463  33.148  30.446  1.00  0.00    -0.014 A 
BRANCH  13  14
ATOM     14  C   UNL A   1      37.655  32.521  31.055  1.00  0.00     0.031 A 
ATOM     15  C   UNL A   1      38.374  31.408  30.356  1.00  0.00     0.074 A 
ATOM     16  C   UNL A   1      38.057  32.948  32.265  1.00  0.00     0.049 A 
ATOM     17  N   UNL A   1      39.363  30.668  30.787  1.00  0.00    -0.248 NA
ATOM     18  C   UNL A   1      37.916  31.074  29.000  1.00  0.00     0.031 C 
ATOM     19  C   UNL A   1      37.423  34.026  33.028  1.00  0.00     0.029 A 
ATOM     20  N   UNL A   1      39.077  32.522  33.072  1.00  0.00    -0.354 N 
ATOM     21  C   UNL A   1      39.627  29.761  29.770  1.00  0.00     0.074 A 
ATOM     22  C   UNL A   1      38.686  30.035  28.705  1.00  0.00     0.031 C 
ATOM     23  C   UNL A   1      38.071  34.179  34.190  1.00  0.00     0.029 A 
ATOM     24  C   UNL A   1      39.122  33.171  34.280  1.00  0.00     0.049 A 
ATOM     25  H   UNL A   1      39.716  31.819  32.812  1.00  0.00     0.167 HD
ATOM     26  C   UNL A   1      40.571  28.789  29.739  1.00  0.00     0.037 A 
ATOM     27  C   UNL A   1      39.895  32.952  35.357  1.00  0.00     0.037 A 
ATOM     28  C   UNL A   1      41.508  28.542  30.803  1.00  0.00     0.049 A 
ATOM     29  C   UNL A   1      40.918  31.857  35.307  1.00  0.00     0.074 A 
ATOM     30  C   UNL A   1      42.535  27.616  30.852  1.00  0.00     0.029 A 
ATOM     31  N   UNL A   1      41.529  29.227  32.011  1.00  0.00    -0.354 N 
ATOM     32  N   UNL A   1      41.178  31.020  34.332  1.00  0.00    -0.248 NA
ATOM     33  C   UNL A   1      41.751  31.673  36.500  1.00  0.00     0.031 C 
ATOM     34  C   UNL A   1      43.148  27.710  32.107  1.00  0.00     0.029 A 
ATOM     35  C   UNL A   1      42.534  28.727  32.822  1.00  0.00     0.049 A 
ATOM     36  H   UNL A   1      40.918  29.960  32.255  1.00  0.00     0.167 HD
ATOM     37  C   UNL A   1      42.215  30.219  34.785  1.00  0.00     0.074 A 
ATOM     38  C   UNL A   1      42.541  30.677  36.122  1.00  0.00     0.031 C 
ATOM     39  C   UNL A   1      42.842  29.200  34.149  1.00  0.00     0.037 A 
BRANCH  26  40
ATOM     40  C   UNL A   1      40.611  27.901  28.530  1.00  0.00     0.064 A 
ATOM     41  C   UNL A   1      39.914  26.685  28.480  1.00  0.00     0.173 A 
ATOM     42  C   UNL A   1      41.341  28.285  27.395  1.00  0.00     0.173 A 
ATOM     43  F   UNL A   1      39.211  26.265  29.544  1.00  0.00    -0.203 F 
ATOM     44  C   UNL A   1      39.971  25.872  27.351  1.00  0.00     0.198 A 
ATOM     45  C   UNL A   1      41.376  27.482  26.258  1.00  0.00     0.198 A 
ATOM     46  F   UNL A   1      42.022  29.441  27.388  1.00  0.00    -0.203 F 
ATOM     47  F   UNL A   1      39.338  24.690  27.345  1.00  0.00    -0.200 F 
ATOM     48  C   UNL A   1      40.697  26.273  26.239  1.00  0.00     0.200 A 
ATOM     49  F   UNL A   1      42.071  27.876  25.181  1.00  0.00    -0.200 F 
ATOM     50  F   UNL A   1      40.753  25.488  25.154  1.00  0.00    -0.200 F 
ENDBRANCH  26  40
BRANCH  27  51
ATOM     51  C   UNL A   1      39.698  33.791  36.563  1.00  0.00     0.064 A 
ATOM     52  C   UNL A   1      40.270  35.066  36.654  1.00  0.00     0.173 A 
ATOM     53  C   UNL A   1      38.869  33.366  37.613  1.00  0.00     0.173 A 
ATOM     54  F   UNL A   1      41.078  35.509  35.679  1.00  0.00    -0.203 F 
ATOM     55  C   UNL A   1      40.016  35.888  37.750  1.00  0.00     0.198 A 
ATOM     56  C   UNL A   1      38.597  34.198  38.695  1.00  0.00     0.198 A 
ATOM     57  F   UNL A   1      38.291  32.157  37.563  1.00  0.00    -0.203 F 
ATOM     58  F   UNL A   1      40.583  37.100  37.820  1.00  0.00    -0.200 F 
ATOM     59  C   UNL A   1      39.171  35.458  38.764  1.00  0.00     0.200 A 
ATOM     60  F   UNL A   1      37.765  33.786  39.661  1.00  0.00    -0.200 F 
ATOM     61  F   UNL A   1      38.909  36.259  39.805  1.00  0.00    -0.200 F 
ENDBRANCH  27  51
BRANCH  39  62
ATOM     62  C   UNL A   1      43.965  28.528  34.877  1.00  0.00     0.064 A 
ATOM     63  C   UNL A   1      43.752  27.376  35.648  1.00  0.00     0.173 A 
ATOM     64  C   UNL A   1      45.277  29.009  34.752  1.00  0.00     0.173 A 
ATOM     65  F   UNL A   1      42.512  26.892  35.809  1.00  0.00    -0.203 F 
ATOM     66  C   UNL A   1      44.815  26.734  36.276  1.00  0.00     0.198 A 
ATOM     67  C   UNL A   1      46.340  28.351  35.363  1.00  0.00     0.198 A 
ATOM     68  F   UNL A   1      45.528  30.105  34.022  1.00  0.00    -0.203 F 
ATOM     69  F   UNL A   1      44.588  25.651  37.032  1.00  0.00    -0.200 F 
ATOM     70  C   UNL A   1      46.108  27.216  36.126  1.00  0.00     0.200 A 
ATOM     71  F   UNL A   1      47.588  28.811  35.209  1.00  0.00    -0.200 F 
ATOM     72  F   UNL A   1      47.131  26.588  36.722  1.00  0.00    -0.200 F 
ENDBRANCH  39  62
ENDBRANCH  13  14
ENDBRANCH   6   8
ENDBRANCH   3   4
ENDBRANCH   2   3
ENDBRANCH   1   2
BRANCH   1  73
ATOM     73  C   UNL A   1      31.745  29.656  27.077  1.00  0.00     0.116 C 
BRANCH  73  74
ATOM     74  N   UNL A   1      32.978  28.904  26.973  1.00  0.00    -0.356 N 
ATOM     75  C   UNL A   1      33.384  27.974  26.063  1.00  0.00     0.224 C 
ATOM     76  H   UNL A   1      33.636  29.097  27.679  1.00  0.00     0.163 HD
ATOM     77  O   UNL A   1      34.529  27.540  26.211  1.00  0.00    -0.275 OA
BRANCH  75  78
ATOM     78  C   UNL A   1      32.471  27.522  24.906  1.00  0.00     0.095 C 
ATOM     79  C   UNL A   1      33.221  26.505  23.994  1.00  0.00     0.041 C 
ATOM     80  C   UNL A   1      31.142  26.880  25.383  1.00  0.00     0.097 C 
ATOM     81  C   UNL A   1      33.082  25.062  24.424  1.00  0.00    -0.030 C 
ATOM     82  C   UNL A   1      31.514  25.658  26.236  1.00  0.00     0.041 C 
ATOM     83  C   UNL A   1      32.317  24.671  25.454  1.00  0.00    -0.030 C 
BRANCH  80  84
ATOM     84  C   UNL A   1      30.169  26.706  24.198  1.00  0.00     0.242 C 
ATOM     85  O   UNL A   1      29.812  25.583  23.824  1.00  0.00    -0.273 OA
ATOM     86  N   UNL A   1      29.789  27.773  23.424  1.00  0.00    -0.270 N 
ATOM     87  H   UNL A   1      29.244  27.589  22.625  1.00  0.00     0.191 HD
BRANCH  86  88
ATOM     88  N   UNL A   1      30.122  29.091  23.688  1.00  0.00    -0.299 N 
ATOM     89  H   UNL A   1      30.907  29.320  24.237  1.00  0.00     0.188 HD
BRANCH  88  90
ATOM     90  C   UNL A   1      29.287  30.093  23.139  1.00  0.00     0.054 A 
ATOM     91  C   UNL A   1      28.964  30.001  21.779  1.00  0.00     0.027 A 
ATOM     92  C   UNL A   1      29.028  31.292  23.813  1.00  0.00     0.027 A 
ATOM     93  C   UNL A   1      28.370  31.073  21.111  1.00  0.00     0.002 A 
ATOM     94  C   UNL A   1      28.437  32.367  23.146  1.00  0.00     0.002 A 
ATOM     95  C   UNL A   1      28.112  32.258  21.794  1.00  0.00     0.000 A 
ENDBRANCH  88  90
ENDBRANCH  86  88
ENDBRANCH  80  84
ENDBRANCH  75  78
ENDBRANCH  73  74
ENDBRANCH   1  73
TORSDOF 14
ENDMDL
