MODEL 1
REMARK VINA RESULT:     -12.4      0.000      0.000
REMARK SMILES O=C(NCCCCNC(=O)[C@@]1(Cc2ccccc2Cl)CCC[NH2+]1)c1ccc(-c2c3nc(c(-c4c(F)c(F)c(F)c(F)c4F)c4ccc([nH]4)c(-c4c(F)c(F)c(F)c(F)c4F)c4nc(c(-c5c(F)c(F)c(F)c(F)c5F)c5ccc2[nH]5)C=C4)C=C3)cc1
REMARK SMILES IDX 5 1 4 2 3 3 1 4 2 5 24 7 25 8 86 9 26 10 85 11 27 12 28 13
REMARK SMILES IDX 29 14 79 15 30 16 84 17 78 18 80 19 31 20 83 21 77 22 76 23
REMARK SMILES IDX 32 25 64 26 44 27 63 28 45 29 48 30 62 31 81 32 46 33 47 34
REMARK SMILES IDX 61 36 82 37 49 38 33 39 34 40 42 41 35 42 36 43 40 44 43 45
REMARK SMILES IDX 37 46 38 47 41 48 39 49 65 50 66 51 74 52 67 53 68 54 72 55
REMARK SMILES IDX 75 56 69 57 70 58 73 59 71 60 50 61 51 62 59 63 52 64 53 65
REMARK SMILES IDX 57 66 60 67 54 68 55 69 58 70 56 71 6 72 7 73 8 74 9 75
REMARK SMILES IDX 10 77 11 78 20 79 23 80 21 81 22 82 12 85 13 86 14 87 18 88
REMARK SMILES IDX 15 89 17 90 19 91 16 92
REMARK H PARENT 3 6 80 24 48 35 8 76 23 83 23 84
REMARK Flexibility Score: inf
ROOT
ATOM      1  C   UNL A   1      31.738  32.027  26.976  1.00  0.00     0.023 C 
ENDROOT
BRANCH   1   2
ATOM      2  C   UNL A   1      32.875  32.936  27.412  1.00  0.00     0.116 C 
BRANCH   2   3
ATOM      3  N   UNL A   1      32.457  34.295  27.730  1.00  0.00    -0.352 N 
ATOM      4  O   UNL A   1      32.520  36.227  28.926  1.00  0.00    -0.269 OA
ATOM      5  C   UNL A   1      32.997  35.124  28.686  1.00  0.00     0.251 C 
ATOM      6  H   UNL A   1      31.707  34.659  27.205  1.00  0.00     0.163 HD
BRANCH   5   7
ATOM      7  C   UNL A   1      34.150  34.619  29.452  1.00  0.00     0.039 A 
ATOM      8  C   UNL A   1      35.422  34.651  28.876  1.00  0.00     0.014 A 
ATOM      9  C   UNL A   1      33.932  33.996  30.682  1.00  0.00     0.014 A 
ATOM     10  C   UNL A   1      36.449  33.928  29.460  1.00  0.00     0.010 A 
ATOM     11  C   UNL A   1      34.992  33.345  31.313  1.00  0.00     0.010 A 
ATOM     12  C   UNL A   1      36.249  33.278  30.690  1.00  0.00    -0.014 A 
BRANCH  12  13
ATOM     13  C   UNL A   1      37.392  32.591  31.334  1.00  0.00     0.031 A 
ATOM     14  C   UNL A   1      37.845  32.954  32.719  1.00  0.00     0.074 A 
ATOM     15  C   UNL A   1      38.001  31.603  30.651  1.00  0.00     0.049 A 
ATOM     16  N   UNL A   1      38.837  32.459  33.415  1.00  0.00    -0.248 NA
ATOM     17  C   UNL A   1      37.097  34.014  33.413  1.00  0.00     0.031 C 
ATOM     18  C   UNL A   1      37.641  31.175  29.297  1.00  0.00     0.029 A 
ATOM     19  N   UNL A   1      39.031  30.771  31.000  1.00  0.00    -0.354 N 
ATOM     20  C   UNL A   1      38.853  33.162  34.612  1.00  0.00     0.074 A 
ATOM     21  C   UNL A   1      37.776  34.127  34.548  1.00  0.00     0.031 C 
ATOM     22  C   UNL A   1      38.402  30.130  28.949  1.00  0.00     0.029 A 
ATOM     23  C   UNL A   1      39.351  29.862  30.023  1.00  0.00     0.049 A 
ATOM     24  H   UNL A   1      39.496  30.820  31.866  1.00  0.00     0.167 HD
ATOM     25  C   UNL A   1      39.691  33.007  35.665  1.00  0.00     0.037 A 
ATOM     26  C   UNL A   1      40.318  28.929  29.984  1.00  0.00     0.037 A 
ATOM     27  C   UNL A   1      40.742  32.022  35.727  1.00  0.00     0.049 A 
ATOM     28  C   UNL A   1      41.232  28.787  31.164  1.00  0.00     0.074 A 
ATOM     29  C   UNL A   1      41.624  31.763  36.762  1.00  0.00     0.029 A 
ATOM     30  N   UNL A   1      41.051  31.132  34.708  1.00  0.00    -0.354 N 
ATOM     31  N   UNL A   1      41.228  29.450  32.294  1.00  0.00    -0.248 NA
ATOM     32  C   UNL A   1      42.290  27.775  31.060  1.00  0.00     0.031 C 
ATOM     33  C   UNL A   1      42.490  30.743  36.355  1.00  0.00     0.029 A 
ATOM     34  C   UNL A   1      42.121  30.336  35.084  1.00  0.00     0.049 A 
ATOM     35  H   UNL A   1      40.579  31.075  33.846  1.00  0.00     0.167 HD
ATOM     36  C   UNL A   1      42.275  28.932  33.040  1.00  0.00     0.074 A 
ATOM     37  C   UNL A   1      42.877  27.883  32.243  1.00  0.00     0.031 C 
ATOM     38  C   UNL A   1      42.704  29.298  34.272  1.00  0.00     0.037 A 
BRANCH  25  39
ATOM     39  C   UNL A   1      39.527  33.931  36.837  1.00  0.00     0.064 A 
ATOM     40  C   UNL A   1      38.771  33.571  37.962  1.00  0.00     0.173 A 
ATOM     41  C   UNL A   1      40.195  35.165  36.863  1.00  0.00     0.173 A 
ATOM     42  F   UNL A   1      38.105  32.406  37.983  1.00  0.00    -0.203 F 
ATOM     43  C   UNL A   1      38.680  34.417  39.065  1.00  0.00     0.198 A 
ATOM     44  C   UNL A   1      40.121  35.998  37.977  1.00  0.00     0.198 A 
ATOM     45  F   UNL A   1      40.936  35.555  35.816  1.00  0.00    -0.203 F 
ATOM     46  F   UNL A   1      37.929  34.065  40.118  1.00  0.00    -0.200 F 
ATOM     47  C   UNL A   1      39.361  35.625  39.076  1.00  0.00     0.200 A 
ATOM     48  F   UNL A   1      40.789  37.160  37.989  1.00  0.00    -0.200 F 
ATOM     49  F   UNL A   1      39.283  36.432  40.142  1.00  0.00    -0.200 F 
ENDBRANCH  25  39
BRANCH  26  50
ATOM     50  C   UNL A   1      40.465  28.076  28.779  1.00  0.00     0.064 A 
ATOM     51  C   UNL A   1      39.795  26.851  28.677  1.00  0.00     0.173 A 
ATOM     52  C   UNL A   1      41.253  28.486  27.692  1.00  0.00     0.173 A 
ATOM     53  F   UNL A   1      39.043  26.411  29.696  1.00  0.00    -0.203 F 
ATOM     54  C   UNL A   1      39.915  26.061  27.535  1.00  0.00     0.198 A 
ATOM     55  C   UNL A   1      41.347  27.710  26.541  1.00  0.00     0.198 A 
ATOM     56  F   UNL A   1      41.906  29.656  27.739  1.00  0.00    -0.203 F 
ATOM     57  F   UNL A   1      39.291  24.876  27.475  1.00  0.00    -0.200 F 
ATOM     58  C   UNL A   1      40.683  26.495  26.465  1.00  0.00     0.200 A 
ATOM     59  F   UNL A   1      42.075  28.143  25.502  1.00  0.00    -0.200 F 
ATOM     60  F   UNL A   1      40.787  25.741  25.363  1.00  0.00    -0.200 F 
ENDBRANCH  26  50
BRANCH  38  61
ATOM     61  C   UNL A   1      43.869  28.540  34.833  1.00  0.00     0.064 A 
ATOM     62  C   UNL A   1      45.186  28.984  34.652  1.00  0.00     0.173 A 
ATOM     63  C   UNL A   1      43.663  27.366  35.572  1.00  0.00     0.173 A 
ATOM     64  F   UNL A   1      45.433  30.092  33.935  1.00  0.00    -0.203 F 
ATOM     65  C   UNL A   1      46.259  28.266  35.171  1.00  0.00     0.198 A 
ATOM     66  C   UNL A   1      44.736  26.664  36.111  1.00  0.00     0.198 A 
ATOM     67  F   UNL A   1      42.419  26.904  35.774  1.00  0.00    -0.203 F 
ATOM     68  F   UNL A   1      47.513  28.681  34.946  1.00  0.00    -0.200 F 
ATOM     69  C   UNL A   1      46.033  27.110  35.904  1.00  0.00     0.200 A 
ATOM     70  F   UNL A   1      44.517  25.553  36.827  1.00  0.00    -0.200 F 
ATOM     71  F   UNL A   1      47.067  26.420  36.403  1.00  0.00    -0.200 F 
ENDBRANCH  38  61
ENDBRANCH  12  13
ENDBRANCH   5   7
ENDBRANCH   2   3
ENDBRANCH   1   2
BRANCH   1  72
ATOM     72  C   UNL A   1      32.093  30.545  26.958  1.00  0.00     0.023 C 
BRANCH  72  73
ATOM     73  C   UNL A   1      32.465  30.009  25.573  1.00  0.00     0.116 C 
BRANCH  73  74
ATOM     74  N   UNL A   1      31.338  30.073  24.667  1.00  0.00    -0.351 N 
ATOM     75  C   UNL A   1      30.720  29.087  23.947  1.00  0.00     0.281 C 
ATOM     76  H   UNL A   1      30.952  30.972  24.550  1.00  0.00     0.163 HD
ATOM     77  O   UNL A   1      29.764  29.450  23.252  1.00  0.00    -0.268 OA
BRANCH  75  78
ATOM     78  C   UNL A   1      31.180  27.582  24.008  1.00  0.00     0.179 C 
ATOM     79  C   UNL A   1      30.997  26.982  25.409  1.00  0.00     0.085 C 
ATOM     80  N   UNL A   1      30.261  26.814  23.127  1.00  0.00    -0.333 N 
ATOM     81  C   UNL A   1      30.236  25.676  25.233  1.00  0.00     0.068 C 
ATOM     82  C   UNL A   1      29.930  25.546  23.756  1.00  0.00     0.261 C 
ATOM     83  H   UNL A   1      30.716  26.642  22.231  1.00  0.00     0.347 HD
ATOM     84  H   UNL A   1      29.408  27.352  22.978  1.00  0.00     0.347 HD
BRANCH  78  85
ATOM     85  C   UNL A   1      32.671  27.535  23.508  1.00  0.00     0.116 C 
BRANCH  85  86
ATOM     86  C   UNL A   1      33.429  26.243  23.753  1.00  0.00    -0.023 A 
ATOM     87  C   UNL A   1      34.100  26.094  24.985  1.00  0.00     0.005 A 
ATOM     88  C   UNL A   1      33.440  25.166  22.858  1.00  0.00     0.044 A 
ATOM     89  C   UNL A   1      34.655  24.872  25.360  1.00  0.00     0.000 A 
ATOM     90  C   UNL A   1      33.985  23.935  23.243  1.00  0.00     0.021 A 
ATOM     91  Cl  UNL A   1      32.821  25.299  21.251  1.00  0.00    -0.084 Cl
ATOM     92  C   UNL A   1      34.571  23.784  24.500  1.00  0.00     0.002 A 
ENDBRANCH  85  86
ENDBRANCH  78  85
ENDBRANCH  75  78
ENDBRANCH  73  74
ENDBRANCH  72  73
ENDBRANCH   1  72
TORSDOF 13
ENDMDL
MODEL 2
REMARK VINA RESULT:     -12.4      0.088      1.622
REMARK SMILES O=C(NCCCCNC(=O)[C@@]1(Cc2ccccc2Cl)CCC[NH2+]1)c1ccc(-c2c3nc(c(-c4c(F)c(F)c(F)c(F)c4F)c4ccc([nH]4)c(-c4c(F)c(F)c(F)c(F)c4F)c4nc(c(-c5c(F)c(F)c(F)c(F)c5F)c5ccc2[nH]5)C=C4)C=C3)cc1
REMARK SMILES IDX 5 1 4 2 3 3 1 4 2 5 24 7 25 8 86 9 26 10 85 11 27 12 28 13
REMARK SMILES IDX 29 14 79 15 30 16 84 17 78 18 80 19 31 20 83 21 77 22 76 23
REMARK SMILES IDX 32 25 64 26 44 27 63 28 45 29 48 30 62 31 81 32 46 33 47 34
REMARK SMILES IDX 61 36 82 37 49 38 33 39 34 40 42 41 35 42 36 43 40 44 43 45
REMARK SMILES IDX 37 46 38 47 41 48 39 49 65 50 66 51 74 52 67 53 68 54 72 55
REMARK SMILES IDX 75 56 69 57 70 58 73 59 71 60 50 61 51 62 59 63 52 64 53 65
REMARK SMILES IDX 57 66 60 67 54 68 55 69 58 70 56 71 6 72 7 73 8 74 9 75
REMARK SMILES IDX 10 77 11 78 20 79 23 80 21 81 22 82 12 85 13 86 14 87 18 88
REMARK SMILES IDX 15 89 17 90 19 91 16 92
REMARK H PARENT 3 6 80 24 48 35 8 76 23 83 23 84
REMARK Flexibility Score: inf
ROOT
ATOM      1  C   UNL A   1      31.698  32.027  26.932  1.00  0.00     0.023 C 
ENDROOT
BRANCH   1   2
ATOM      2  C   UNL A   1      32.834  32.933  27.377  1.00  0.00     0.116 C 
BRANCH   2   3
ATOM      3  N   UNL A   1      32.415  34.289  27.708  1.00  0.00    -0.352 N 
ATOM      4  O   UNL A   1      32.476  36.209  28.922  1.00  0.00    -0.269 OA
ATOM      5  C   UNL A   1      32.954  35.109  28.672  1.00  0.00     0.251 C 
ATOM      6  H   UNL A   1      31.666  34.658  27.186  1.00  0.00     0.163 HD
BRANCH   5   7
ATOM      7  C   UNL A   1      34.107  34.598  29.434  1.00  0.00     0.039 A 
ATOM      8  C   UNL A   1      35.382  34.656  28.868  1.00  0.00     0.014 A 
ATOM      9  C   UNL A   1      33.887  33.943  30.647  1.00  0.00     0.014 A 
ATOM     10  C   UNL A   1      36.413  33.929  29.442  1.00  0.00     0.010 A 
ATOM     11  C   UNL A   1      34.949  33.288  31.271  1.00  0.00     0.010 A 
ATOM     12  C   UNL A   1      36.210  33.248  30.655  1.00  0.00    -0.014 A 
BRANCH  12  13
ATOM     13  C   UNL A   1      37.356  32.558  31.291  1.00  0.00     0.031 A 
ATOM     14  C   UNL A   1      37.816  32.916  32.674  1.00  0.00     0.074 A 
ATOM     15  C   UNL A   1      37.960  31.571  30.601  1.00  0.00     0.049 A 
ATOM     16  N   UNL A   1      38.812  32.417  33.364  1.00  0.00    -0.248 NA
ATOM     17  C   UNL A   1      37.074  33.974  33.376  1.00  0.00     0.031 C 
ATOM     18  C   UNL A   1      37.591  31.148  29.248  1.00  0.00     0.029 A 
ATOM     19  N   UNL A   1      38.990  30.737  30.943  1.00  0.00    -0.354 N 
ATOM     20  C   UNL A   1      38.834  33.116  34.563  1.00  0.00     0.074 A 
ATOM     21  C   UNL A   1      37.759  34.083  34.508  1.00  0.00     0.031 C 
ATOM     22  C   UNL A   1      38.350  30.103  28.892  1.00  0.00     0.029 A 
ATOM     23  C   UNL A   1      39.303  29.830  29.960  1.00  0.00     0.049 A 
ATOM     24  H   UNL A   1      39.460  30.782  31.806  1.00  0.00     0.167 HD
ATOM     25  C   UNL A   1      39.678  32.957  35.611  1.00  0.00     0.037 A 
ATOM     26  C   UNL A   1      40.269  28.896  29.914  1.00  0.00     0.037 A 
ATOM     27  C   UNL A   1      40.727  31.970  35.664  1.00  0.00     0.049 A 
ATOM     28  C   UNL A   1      41.189  28.749  31.089  1.00  0.00     0.074 A 
ATOM     29  C   UNL A   1      41.615  31.706  36.694  1.00  0.00     0.029 A 
ATOM     30  N   UNL A   1      41.030  31.082  34.641  1.00  0.00    -0.354 N 
ATOM     31  N   UNL A   1      41.192  29.408  32.221  1.00  0.00    -0.248 NA
ATOM     32  C   UNL A   1      42.245  27.736  30.975  1.00  0.00     0.031 C 
ATOM     33  C   UNL A   1      42.477  30.686  36.279  1.00  0.00     0.029 A 
ATOM     34  C   UNL A   1      42.101  30.283  35.008  1.00  0.00     0.049 A 
ATOM     35  H   UNL A   1      40.554  31.029  33.781  1.00  0.00     0.167 HD
ATOM     36  C   UNL A   1      42.242  28.886  32.959  1.00  0.00     0.074 A 
ATOM     37  C   UNL A   1      42.838  27.838  32.156  1.00  0.00     0.031 C 
ATOM     38  C   UNL A   1      42.678  29.248  34.191  1.00  0.00     0.037 A 
BRANCH  25  39
ATOM     39  C   UNL A   1      39.521  33.877  36.787  1.00  0.00     0.064 A 
ATOM     40  C   UNL A   1      38.760  33.520  37.908  1.00  0.00     0.173 A 
ATOM     41  C   UNL A   1      40.203  35.104  36.820  1.00  0.00     0.173 A 
ATOM     42  F   UNL A   1      38.081  32.362  37.923  1.00  0.00    -0.203 F 
ATOM     43  C   UNL A   1      38.676  34.362  39.015  1.00  0.00     0.198 A 
ATOM     44  C   UNL A   1      40.135  35.933  37.937  1.00  0.00     0.198 A 
ATOM     45  F   UNL A   1      40.950  35.490  35.775  1.00  0.00    -0.203 F 
ATOM     46  F   UNL A   1      37.919  34.013  40.065  1.00  0.00    -0.200 F 
ATOM     47  C   UNL A   1      39.370  35.563  39.033  1.00  0.00     0.200 A 
ATOM     48  F   UNL A   1      40.815  37.087  37.956  1.00  0.00    -0.200 F 
ATOM     49  F   UNL A   1      39.298  36.366  40.103  1.00  0.00    -0.200 F 
ENDBRANCH  25  39
BRANCH  26  50
ATOM     50  C   UNL A   1      40.408  28.046  28.706  1.00  0.00     0.064 A 
ATOM     51  C   UNL A   1      41.187  28.459  27.619  1.00  0.00     0.173 A 
ATOM     52  C   UNL A   1      39.789  26.788  28.629  1.00  0.00     0.173 A 
ATOM     53  F   UNL A   1      41.784  29.660  27.641  1.00  0.00    -0.203 F 
ATOM     54  C   UNL A   1      41.336  27.651  26.494  1.00  0.00     0.198 A 
ATOM     55  C   UNL A   1      39.964  25.969  27.517  1.00  0.00     0.198 A 
ATOM     56  F   UNL A   1      39.041  26.344  29.648  1.00  0.00    -0.203 F 
ATOM     57  F   UNL A   1      42.060  28.083  25.452  1.00  0.00    -0.200 F 
ATOM     58  C   UNL A   1      40.732  26.403  26.447  1.00  0.00     0.200 A 
ATOM     59  F   UNL A   1      39.395  24.756  27.486  1.00  0.00    -0.200 F 
ATOM     60  F   UNL A   1      40.887  25.621  25.372  1.00  0.00    -0.200 F 
ENDBRANCH  26  50
BRANCH  38  61
ATOM     61  C   UNL A   1      43.845  28.485  34.743  1.00  0.00     0.064 A 
ATOM     62  C   UNL A   1      43.666  27.297  35.465  1.00  0.00     0.173 A 
ATOM     63  C   UNL A   1      45.154  28.939  34.531  1.00  0.00     0.173 A 
ATOM     64  F   UNL A   1      42.430  26.834  35.709  1.00  0.00    -0.203 F 
ATOM     65  C   UNL A   1      44.758  26.604  35.979  1.00  0.00     0.198 A 
ATOM     66  C   UNL A   1      46.245  28.230  35.023  1.00  0.00     0.198 A 
ATOM     67  F   UNL A   1      45.375  30.070  33.842  1.00  0.00    -0.203 F 
ATOM     68  F   UNL A   1      44.563  25.497  36.708  1.00  0.00    -0.200 F 
ATOM     69  C   UNL A   1      46.046  27.067  35.753  1.00  0.00     0.200 A 
ATOM     70  F   UNL A   1      47.489  28.673  34.798  1.00  0.00    -0.200 F 
ATOM     71  F   UNL A   1      47.095  26.399  36.248  1.00  0.00    -0.200 F 
ENDBRANCH  38  61
ENDBRANCH  12  13
ENDBRANCH   5   7
ENDBRANCH   2   3
ENDBRANCH   1   2
BRANCH   1  72
ATOM     72  C   UNL A   1      32.045  30.544  26.928  1.00  0.00     0.023 C 
BRANCH  72  73
ATOM     73  C   UNL A   1      32.443  29.999  25.554  1.00  0.00     0.116 C 
BRANCH  73  74
ATOM     74  N   UNL A   1      31.332  30.052  24.627  1.00  0.00    -0.351 N 
ATOM     75  C   UNL A   1      30.726  29.057  23.909  1.00  0.00     0.281 C 
ATOM     76  H   UNL A   1      30.948  30.949  24.493  1.00  0.00     0.163 HD
ATOM     77  O   UNL A   1      29.782  29.412  23.193  1.00  0.00    -0.268 OA
BRANCH  75  78
ATOM     78  C   UNL A   1      31.185  27.553  23.995  1.00  0.00     0.179 C 
ATOM     79  C   UNL A   1      31.024  26.984  25.412  1.00  0.00     0.085 C 
ATOM     80  N   UNL A   1      30.252  26.768  23.146  1.00  0.00    -0.333 N 
ATOM     81  C   UNL A   1      30.259  25.676  25.276  1.00  0.00     0.068 C 
ATOM     82  C   UNL A   1      29.929  25.514  23.808  1.00  0.00     0.261 C 
ATOM     83  H   UNL A   1      30.693  26.575  22.247  1.00  0.00     0.347 HD
ATOM     84  H   UNL A   1      29.397  27.304  22.998  1.00  0.00     0.347 HD
BRANCH  78  85
ATOM     85  C   UNL A   1      32.669  27.493  23.474  1.00  0.00     0.116 C 
BRANCH  85  86
ATOM     86  C   UNL A   1      33.426  26.202  23.726  1.00  0.00    -0.023 A 
ATOM     87  C   UNL A   1      34.102  26.062  24.956  1.00  0.00     0.005 A 
ATOM     88  C   UNL A   1      33.431  25.117  22.841  1.00  0.00     0.044 A 
ATOM     89  C   UNL A   1      34.657  24.843  25.340  1.00  0.00     0.000 A 
ATOM     90  C   UNL A   1      33.975  23.889  23.235  1.00  0.00     0.021 A 
ATOM     91  Cl  UNL A   1      32.804  25.237  21.236  1.00  0.00    -0.084 Cl
ATOM     92  C   UNL A   1      34.567  23.747  24.490  1.00  0.00     0.002 A 
ENDBRANCH  85  86
ENDBRANCH  78  85
ENDBRANCH  75  78
ENDBRANCH  73  74
ENDBRANCH  72  73
ENDBRANCH   1  72
TORSDOF 13
ENDMDL
MODEL 3
REMARK VINA RESULT:     -12.3      0.923      7.436
REMARK SMILES O=C(NCCCCNC(=O)[C@@]1(Cc2ccccc2Cl)CCC[NH2+]1)c1ccc(-c2c3nc(c(-c4c(F)c(F)c(F)c(F)c4F)c4ccc([nH]4)c(-c4c(F)c(F)c(F)c(F)c4F)c4nc(c(-c5c(F)c(F)c(F)c(F)c5F)c5ccc2[nH]5)C=C4)C=C3)cc1
REMARK SMILES IDX 5 1 4 2 3 3 1 4 2 5 24 7 25 8 86 9 26 10 85 11 27 12 28 13
REMARK SMILES IDX 29 14 79 15 30 16 84 17 78 18 80 19 31 20 83 21 77 22 76 23
REMARK SMILES IDX 32 25 64 26 44 27 63 28 45 29 48 30 62 31 81 32 46 33 47 34
REMARK SMILES IDX 61 36 82 37 49 38 33 39 34 40 42 41 35 42 36 43 40 44 43 45
REMARK SMILES IDX 37 46 38 47 41 48 39 49 65 50 66 51 74 52 67 53 68 54 72 55
REMARK SMILES IDX 75 56 69 57 70 58 73 59 71 60 50 61 51 62 59 63 52 64 53 65
REMARK SMILES IDX 57 66 60 67 54 68 55 69 58 70 56 71 6 72 7 73 8 74 9 75
REMARK SMILES IDX 10 77 11 78 20 79 23 80 21 81 22 82 12 85 13 86 14 87 18 88
REMARK SMILES IDX 15 89 17 90 19 91 16 92
REMARK H PARENT 3 6 80 24 48 35 8 76 23 83 23 84
REMARK Flexibility Score: inf
ROOT
ATOM      1  C   UNL A   1      31.769  31.994  26.875  1.00  0.00     0.023 C 
ENDROOT
BRANCH   1   2
ATOM      2  C   UNL A   1      32.886  32.868  27.423  1.00  0.00     0.116 C 
BRANCH   2   3
ATOM      3  N   UNL A   1      32.473  34.230  27.732  1.00  0.00    -0.352 N 
ATOM      4  O   UNL A   1      32.530  36.162  28.928  1.00  0.00    -0.269 OA
ATOM      5  C   UNL A   1      33.002  35.055  28.698  1.00  0.00     0.251 C 
ATOM      6  H   UNL A   1      31.738  34.601  27.192  1.00  0.00     0.163 HD
BRANCH   5   7
ATOM      7  C   UNL A   1      34.135  34.541  29.487  1.00  0.00     0.039 A 
ATOM      8  C   UNL A   1      35.421  34.577  28.943  1.00  0.00     0.014 A 
ATOM      9  C   UNL A   1      33.887  33.905  30.705  1.00  0.00     0.014 A 
ATOM     10  C   UNL A   1      36.432  33.846  29.544  1.00  0.00     0.010 A 
ATOM     11  C   UNL A   1      34.930  33.247  31.355  1.00  0.00     0.010 A 
ATOM     12  C   UNL A   1      36.201  33.184  30.763  1.00  0.00    -0.014 A 
BRANCH  12  13
ATOM     13  C   UNL A   1      37.327  32.488  31.427  1.00  0.00     0.031 A 
ATOM     14  C   UNL A   1      38.075  31.380  30.744  1.00  0.00     0.074 A 
ATOM     15  C   UNL A   1      37.685  32.900  32.659  1.00  0.00     0.049 A 
ATOM     16  N   UNL A   1      39.072  30.661  31.196  1.00  0.00    -0.248 NA
ATOM     17  C   UNL A   1      37.649  31.022  29.383  1.00  0.00     0.031 C 
ATOM     18  C   UNL A   1      37.020  33.966  33.412  1.00  0.00     0.029 A 
ATOM     19  N   UNL A   1      38.698  32.491  33.484  1.00  0.00    -0.354 N 
ATOM     20  C   UNL A   1      39.374  29.751  30.193  1.00  0.00     0.074 A 
ATOM     21  C   UNL A   1      38.448  29.998  29.107  1.00  0.00     0.031 C 
ATOM     22  C   UNL A   1      37.671  34.161  34.566  1.00  0.00     0.029 A 
ATOM     23  C   UNL A   1      38.751  33.187  34.665  1.00  0.00     0.049 A 
ATOM     24  H   UNL A   1      39.326  31.769  33.253  1.00  0.00     0.167 HD
ATOM     25  C   UNL A   1      40.339  28.800  30.184  1.00  0.00     0.037 A 
ATOM     26  C   UNL A   1      39.566  33.042  35.725  1.00  0.00     0.037 A 
ATOM     27  C   UNL A   1      41.272  28.584  31.261  1.00  0.00     0.049 A 
ATOM     28  C   UNL A   1      40.620  31.977  35.686  1.00  0.00     0.074 A 
ATOM     29  C   UNL A   1      42.308  27.668  31.336  1.00  0.00     0.029 A 
ATOM     30  N   UNL A   1      41.283  29.294  32.453  1.00  0.00    -0.354 N 
ATOM     31  N   UNL A   1      40.902  31.131  34.726  1.00  0.00    -0.248 NA
ATOM     32  C   UNL A   1      41.462  31.840  36.880  1.00  0.00     0.031 C 
ATOM     33  C   UNL A   1      42.920  27.799  32.586  1.00  0.00     0.029 A 
ATOM     34  C   UNL A   1      42.294  28.825  33.276  1.00  0.00     0.049 A 
ATOM     35  H   UNL A   1      40.662  30.024  32.681  1.00  0.00     0.167 HD
ATOM     36  C   UNL A   1      41.958  30.366  35.194  1.00  0.00     0.074 A 
ATOM     37  C   UNL A   1      42.283  30.865  36.515  1.00  0.00     0.031 C 
ATOM     38  C   UNL A   1      42.597  29.337  34.587  1.00  0.00     0.037 A 
BRANCH  25  39
ATOM     39  C   UNL A   1      40.433  27.903  28.984  1.00  0.00     0.064 A 
ATOM     40  C   UNL A   1      39.679  26.727  28.879  1.00  0.00     0.173 A 
ATOM     41  C   UNL A   1      41.238  28.266  27.892  1.00  0.00     0.173 A 
ATOM     42  F   UNL A   1      38.901  26.331  29.898  1.00  0.00    -0.203 F 
ATOM     43  C   UNL A   1      39.734  25.940  27.731  1.00  0.00     0.198 A 
ATOM     44  C   UNL A   1      41.274  27.489  26.737  1.00  0.00     0.198 A 
ATOM     45  F   UNL A   1      41.976  29.386  27.939  1.00  0.00    -0.203 F 
ATOM     46  F   UNL A   1      39.026  24.804  27.664  1.00  0.00    -0.200 F 
ATOM     47  C   UNL A   1      40.525  26.325  26.658  1.00  0.00     0.200 A 
ATOM     48  F   UNL A   1      42.030  27.870  25.698  1.00  0.00    -0.200 F 
ATOM     49  F   UNL A   1      40.568  25.573  25.550  1.00  0.00    -0.200 F 
ENDBRANCH  25  39
BRANCH  26  50
ATOM     50  C   UNL A   1      39.396  33.926  36.905  1.00  0.00     0.064 A 
ATOM     51  C   UNL A   1      38.670  33.503  38.024  1.00  0.00     0.173 A 
ATOM     52  C   UNL A   1      39.986  35.199  36.948  1.00  0.00     0.173 A 
ATOM     53  F   UNL A   1      38.075  32.301  38.022  1.00  0.00    -0.203 F 
ATOM     54  C   UNL A   1      38.529  34.324  39.142  1.00  0.00     0.198 A 
ATOM     55  C   UNL A   1      39.870  36.005  38.077  1.00  0.00     0.198 A 
ATOM     56  F   UNL A   1      40.699  35.645  35.905  1.00  0.00    -0.203 F 
ATOM     57  F   UNL A   1      37.801  33.910  40.187  1.00  0.00    -0.200 F 
ATOM     58  C   UNL A   1      39.137  35.570  39.170  1.00  0.00     0.200 A 
ATOM     59  F   UNL A   1      40.476  37.201  38.108  1.00  0.00    -0.200 F 
ATOM     60  F   UNL A   1      39.013  36.353  40.250  1.00  0.00    -0.200 F 
ENDBRANCH  26  50
BRANCH  38  61
ATOM     61  C   UNL A   1      43.723  28.702  35.346  1.00  0.00     0.064 A 
ATOM     62  C   UNL A   1      45.051  29.117  35.169  1.00  0.00     0.173 A 
ATOM     63  C   UNL A   1      43.468  27.681  36.272  1.00  0.00     0.173 A 
ATOM     64  F   UNL A   1      45.344  30.079  34.279  1.00  0.00    -0.203 F 
ATOM     65  C   UNL A   1      46.087  28.513  35.874  1.00  0.00     0.198 A 
ATOM     66  C   UNL A   1      44.503  27.096  36.994  1.00  0.00     0.198 A 
ATOM     67  F   UNL A   1      42.213  27.252  36.478  1.00  0.00    -0.203 F 
ATOM     68  F   UNL A   1      47.354  28.891  35.654  1.00  0.00    -0.200 F 
ATOM     69  C   UNL A   1      45.813  27.508  36.790  1.00  0.00     0.200 A 
ATOM     70  F   UNL A   1      44.238  26.131  37.885  1.00  0.00    -0.200 F 
ATOM     71  F   UNL A   1      46.812  26.928  37.467  1.00  0.00    -0.200 F 
ENDBRANCH  38  61
ENDBRANCH  12  13
ENDBRANCH   5   7
ENDBRANCH   2   3
ENDBRANCH   1   2
BRANCH   1  72
ATOM     72  C   UNL A   1      32.152  30.532  26.688  1.00  0.00     0.023 C 
BRANCH  72  73
ATOM     73  C   UNL A   1      31.719  29.940  25.344  1.00  0.00     0.116 C 
BRANCH  73  74
ATOM     74  N   UNL A   1      32.861  29.673  24.496  1.00  0.00    -0.351 N 
ATOM     75  C   UNL A   1      33.417  28.487  24.102  1.00  0.00     0.281 C 
ATOM     76  H   UNL A   1      33.312  30.476  24.146  1.00  0.00     0.163 HD
ATOM     77  O   UNL A   1      34.403  28.578  23.360  1.00  0.00    -0.268 OA
BRANCH  75  78
ATOM     78  C   UNL A   1      32.836  27.092  24.546  1.00  0.00     0.179 C 
ATOM     79  C   UNL A   1      32.878  26.912  26.070  1.00  0.00     0.085 C 
ATOM     80  N   UNL A   1      31.394  27.092  24.188  1.00  0.00    -0.333 N 
ATOM     81  C   UNL A   1      31.484  26.479  26.500  1.00  0.00     0.068 C 
ATOM     82  C   UNL A   1      30.628  26.463  25.252  1.00  0.00     0.261 C 
ATOM     83  H   UNL A   1      31.260  26.574  23.319  1.00  0.00     0.347 HD
ATOM     84  H   UNL A   1      31.077  28.053  24.063  1.00  0.00     0.347 HD
BRANCH  78  85
ATOM     85  C   UNL A   1      33.648  25.987  23.774  1.00  0.00     0.116 C 
BRANCH  85  86
ATOM     86  C   UNL A   1      33.887  24.681  24.509  1.00  0.00    -0.023 A 
ATOM     87  C   UNL A   1      35.066  24.560  25.274  1.00  0.00     0.005 A 
ATOM     88  C   UNL A   1      32.973  23.622  24.530  1.00  0.00     0.044 A 
ATOM     89  C   UNL A   1      35.265  23.475  26.125  1.00  0.00     0.000 A 
ATOM     90  C   UNL A   1      33.168  22.539  25.395  1.00  0.00     0.021 A 
ATOM     91  Cl  UNL A   1      31.595  23.575  23.488  1.00  0.00    -0.084 Cl
ATOM     92  C   UNL A   1      34.301  22.478  26.207  1.00  0.00     0.002 A 
ENDBRANCH  85  86
ENDBRANCH  78  85
ENDBRANCH  75  78
ENDBRANCH  73  74
ENDBRANCH  72  73
ENDBRANCH   1  72
TORSDOF 13
ENDMDL
