MODEL 1
REMARK VINA RESULT:     -12.7      0.000      0.000
REMARK SMILES N#C/C(=C/c1cc2c(cc1Br)OCO2)C(=O)NCCCCNC(=O)c1ccc(-c2c3nc(c(-c4c(F)c(F)c(F)c(F)c4F)c4ccc([nH]4)c(-c4c(F)c(F)c(F)c(F)c4F)c4nc(c(-c5c(F)c(F)c(F)c(F)c5F)c5ccc2[nH]5)C=C4)C=C3)cc1
REMARK SMILES IDX 20 1 19 2 18 3 17 4 15 5 16 6 3 8 4 9 2 10 1 11 5 12 6 13
REMARK SMILES IDX 10 14 7 15 9 16 11 17 8 18 14 19 12 20 13 21 21 22 22 23
REMARK SMILES IDX 23 24 24 26 25 27 26 28 87 29 27 30 86 31 28 32 29 33 30 34
REMARK SMILES IDX 80 35 31 36 85 37 79 38 81 39 32 40 84 41 78 42 77 43 33 45
REMARK SMILES IDX 65 46 45 47 64 48 46 49 49 50 63 51 82 52 47 53 48 54 62 56
REMARK SMILES IDX 83 57 50 58 34 59 35 60 43 61 36 62 37 63 41 64 44 65 38 66
REMARK SMILES IDX 39 67 42 68 40 69 66 70 67 71 75 72 68 73 69 74 73 75 76 76
REMARK SMILES IDX 70 77 71 78 74 79 72 80 51 81 52 82 60 83 53 84 54 85 58 86
REMARK SMILES IDX 61 87 55 88 56 89 59 90 57 91
REMARK H PARENT 17 7 22 25 81 44 49 55
REMARK Flexibility Score: inf
ROOT
ATOM      1  C   UNL A   1      31.759  28.307  27.126  1.00  0.00     0.023 C 
ENDROOT
BRANCH   1   2
ATOM      2  C   UNL A   1      31.154  27.214  26.245  1.00  0.00     0.023 C 
BRANCH   2   3
ATOM      3  C   UNL A   1      32.072  26.052  25.885  1.00  0.00     0.116 C 
BRANCH   3   4
ATOM      4  N   UNL A   1      31.651  25.208  24.794  1.00  0.00    -0.351 N 
ATOM      5  C   UNL A   1      31.352  23.873  24.771  1.00  0.00     0.261 C 
ATOM      6  O   UNL A   1      31.014  23.398  23.686  1.00  0.00    -0.268 OA
ATOM      7  H   UNL A   1      31.565  25.666  23.926  1.00  0.00     0.163 HD
BRANCH   5   8
ATOM      8  C   UNL A   1      31.468  22.967  25.957  1.00  0.00     0.117 C 
ATOM      9  C   UNL A   1      32.510  22.255  26.456  1.00  0.00     0.034 C 
BRANCH   8  10
ATOM     10  C   UNL A   1      30.267  22.916  26.887  1.00  0.00     0.105 C 
ATOM     11  N   UNL A   1      29.270  22.875  27.658  1.00  0.00    -0.192 NA
ENDBRANCH   8  10
BRANCH   9  12
ATOM     12  C   UNL A   1      33.895  22.071  26.009  1.00  0.00    -0.006 A 
ATOM     13  C   UNL A   1      34.779  23.140  26.254  1.00  0.00     0.060 A 
ATOM     14  C   UNL A   1      34.379  20.896  25.384  1.00  0.00     0.029 A 
ATOM     15  C   UNL A   1      36.118  22.949  25.994  1.00  0.00     0.166 A 
ATOM     16  C   UNL A   1      35.739  20.754  25.086  1.00  0.00     0.067 A 
ATOM     17  Br  UNL A   1      33.229  19.446  24.957  1.00  0.00    -0.050 Br
ATOM     18  C   UNL A   1      36.584  21.787  25.432  1.00  0.00     0.166 A 
ATOM     19  O   UNL A   1      37.119  23.810  26.315  1.00  0.00    -0.454 OA
ATOM     20  O   UNL A   1      37.938  21.779  25.321  1.00  0.00    -0.454 OA
ATOM     21  C   UNL A   1      38.281  23.013  25.987  1.00  0.00     0.468 C 
ENDBRANCH   9  12
ENDBRANCH   5   8
ENDBRANCH   3   4
ENDBRANCH   2   3
ENDBRANCH   1   2
BRANCH   1  22
ATOM     22  C   UNL A   1      32.728  29.282  26.457  1.00  0.00     0.116 C 
BRANCH  22  23
ATOM     23  N   UNL A   1      32.483  30.683  26.776  1.00  0.00    -0.352 N 
ATOM     24  C   UNL A   1      33.297  31.631  27.360  1.00  0.00     0.251 C 
ATOM     25  H   UNL A   1      31.585  31.008  26.535  1.00  0.00     0.163 HD
ATOM     26  O   UNL A   1      32.857  32.739  27.638  1.00  0.00    -0.269 OA
BRANCH  24  27
ATOM     27  C   UNL A   1      34.692  31.290  27.711  1.00  0.00     0.039 A 
ATOM     28  C   UNL A   1      35.627  32.323  27.838  1.00  0.00     0.014 A 
ATOM     29  C   UNL A   1      35.062  29.971  27.972  1.00  0.00     0.014 A 
ATOM     30  C   UNL A   1      36.888  32.051  28.372  1.00  0.00     0.010 A 
ATOM     31  C   UNL A   1      36.282  29.715  28.582  1.00  0.00     0.010 A 
ATOM     32  C   UNL A   1      37.192  30.757  28.821  1.00  0.00    -0.014 A 
BRANCH  32  33
ATOM     33  C   UNL A   1      38.418  30.460  29.603  1.00  0.00     0.031 A 
ATOM     34  C   UNL A   1      39.419  29.478  29.073  1.00  0.00     0.074 A 
ATOM     35  C   UNL A   1      38.537  30.942  30.856  1.00  0.00     0.049 A 
ATOM     36  N   UNL A   1      40.413  28.891  29.687  1.00  0.00    -0.248 NA
ATOM     37  C   UNL A   1      39.244  29.064  27.673  1.00  0.00     0.031 C 
ATOM     38  C   UNL A   1      37.596  31.858  31.504  1.00  0.00     0.029 A 
ATOM     39  N   UNL A   1      39.479  30.696  31.825  1.00  0.00    -0.354 N 
ATOM     40  C   UNL A   1      40.949  28.002  28.766  1.00  0.00     0.074 A 
ATOM     41  C   UNL A   1      40.153  28.107  27.562  1.00  0.00     0.031 C 
ATOM     42  C   UNL A   1      38.002  32.092  32.761  1.00  0.00     0.029 A 
ATOM     43  C   UNL A   1      39.206  31.310  33.023  1.00  0.00     0.049 A 
ATOM     44  H   UNL A   1      40.273  30.134  31.675  1.00  0.00     0.167 HD
ATOM     45  C   UNL A   1      42.014  27.178  28.914  1.00  0.00     0.037 A 
ATOM     46  C   UNL A   1      39.839  31.230  34.209  1.00  0.00     0.037 A 
ATOM     47  C   UNL A   1      42.827  27.118  30.100  1.00  0.00     0.049 A 
ATOM     48  C   UNL A   1      41.056  30.359  34.332  1.00  0.00     0.074 A 
ATOM     49  C   UNL A   1      43.977  26.383  30.323  1.00  0.00     0.029 A 
ATOM     50  N   UNL A   1      42.572  27.830  31.264  1.00  0.00    -0.354 N 
ATOM     51  N   UNL A   1      41.591  29.564  33.439  1.00  0.00    -0.248 NA
ATOM     52  C   UNL A   1      41.759  30.372  35.622  1.00  0.00     0.031 C 
ATOM     53  C   UNL A   1      44.402  26.628  31.633  1.00  0.00     0.029 A 
ATOM     54  C   UNL A   1      43.539  27.544  32.214  1.00  0.00     0.049 A 
ATOM     55  H   UNL A   1      41.816  28.446  31.396  1.00  0.00     0.167 HD
ATOM     56  C   UNL A   1      42.705  29.002  34.045  1.00  0.00     0.074 A 
ATOM     57  C   UNL A   1      42.772  29.549  35.385  1.00  0.00     0.031 C 
ATOM     58  C   UNL A   1      43.594  28.114  33.535  1.00  0.00     0.037 A 
BRANCH  45  59
ATOM     59  C   UNL A   1      42.346  26.272  27.765  1.00  0.00     0.064 A 
ATOM     60  C   UNL A   1      41.732  25.021  27.609  1.00  0.00     0.173 A 
ATOM     61  C   UNL A   1      43.300  26.658  26.810  1.00  0.00     0.173 A 
ATOM     62  F   UNL A   1      40.824  24.598  28.502  1.00  0.00    -0.203 F 
ATOM     63  C   UNL A   1      42.093  24.170  26.567  1.00  0.00     0.198 A 
ATOM     64  C   UNL A   1      43.635  25.818  25.752  1.00  0.00     0.198 A 
ATOM     65  F   UNL A   1      43.913  27.848  26.908  1.00  0.00    -0.203 F 
ATOM     66  F   UNL A   1      41.542  22.952  26.479  1.00  0.00    -0.200 F 
ATOM     67  C   UNL A   1      43.041  24.570  25.638  1.00  0.00     0.200 A 
ATOM     68  F   UNL A   1      44.545  26.211  24.848  1.00  0.00    -0.200 F 
ATOM     69  F   UNL A   1      43.392  23.748  24.641  1.00  0.00    -0.200 F 
ENDBRANCH  45  59
BRANCH  46  70
ATOM     70  C   UNL A   1      39.333  32.021  35.359  1.00  0.00     0.064 A 
ATOM     71  C   UNL A   1      38.502  31.433  36.321  1.00  0.00     0.173 A 
ATOM     72  C   UNL A   1      39.710  33.358  35.549  1.00  0.00     0.173 A 
ATOM     73  F   UNL A   1      38.105  30.161  36.174  1.00  0.00    -0.203 F 
ATOM     74  C   UNL A   1      38.064  32.154  37.431  1.00  0.00     0.198 A 
ATOM     75  C   UNL A   1      39.287  34.073  36.669  1.00  0.00     0.198 A 
ATOM     76  F   UNL A   1      40.512  33.963  34.661  1.00  0.00    -0.203 F 
ATOM     77  F   UNL A   1      37.253  31.574  38.327  1.00  0.00    -0.200 F 
ATOM     78  C   UNL A   1      38.463  33.470  37.607  1.00  0.00     0.200 A 
ATOM     79  F   UNL A   1      39.688  35.339  36.845  1.00  0.00    -0.200 F 
ATOM     80  F   UNL A   1      38.055  34.157  38.683  1.00  0.00    -0.200 F 
ENDBRANCH  46  70
BRANCH  58  81
ATOM     81  C   UNL A   1      44.740  27.706  34.409  1.00  0.00     0.064 A 
ATOM     82  C   UNL A   1      45.927  28.451  34.456  1.00  0.00     0.173 A 
ATOM     83  C   UNL A   1      44.615  26.605  35.268  1.00  0.00     0.173 A 
ATOM     84  F   UNL A   1      46.097  29.503  33.641  1.00  0.00    -0.203 F 
ATOM     85  C   UNL A   1      46.952  28.102  35.331  1.00  0.00     0.198 A 
ATOM     86  C   UNL A   1      45.632  26.272  36.156  1.00  0.00     0.198 A 
ATOM     87  F   UNL A   1      43.495  25.866  35.260  1.00  0.00    -0.203 F 
ATOM     88  F   UNL A   1      48.087  28.814  35.348  1.00  0.00    -0.200 F 
ATOM     89  C   UNL A   1      46.799  27.021  36.188  1.00  0.00     0.200 A 
ATOM     90  F   UNL A   1      45.480  25.234  36.989  1.00  0.00    -0.200 F 
ATOM     91  F   UNL A   1      47.780  26.698  37.042  1.00  0.00    -0.200 F 
ENDBRANCH  58  81
ENDBRANCH  32  33
ENDBRANCH  24  27
ENDBRANCH  22  23
ENDBRANCH   1  22
TORSDOF 13
ENDMDL
MODEL 2
REMARK VINA RESULT:     -12.7      1.516      2.136
REMARK SMILES N#C/C(=C/c1cc2c(cc1Br)OCO2)C(=O)NCCCCNC(=O)c1ccc(-c2c3nc(c(-c4c(F)c(F)c(F)c(F)c4F)c4ccc([nH]4)c(-c4c(F)c(F)c(F)c(F)c4F)c4nc(c(-c5c(F)c(F)c(F)c(F)c5F)c5ccc2[nH]5)C=C4)C=C3)cc1
REMARK SMILES IDX 20 1 19 2 18 3 17 4 15 5 16 6 3 8 4 9 2 10 1 11 5 12 6 13
REMARK SMILES IDX 10 14 7 15 9 16 11 17 8 18 14 19 12 20 13 21 21 22 22 23
REMARK SMILES IDX 23 24 24 26 25 27 26 28 87 29 27 30 86 31 28 32 29 33 30 34
REMARK SMILES IDX 80 35 31 36 85 37 79 38 81 39 32 40 84 41 78 42 77 43 33 45
REMARK SMILES IDX 65 46 45 47 64 48 46 49 49 50 63 51 82 52 47 53 48 54 62 56
REMARK SMILES IDX 83 57 50 58 34 59 35 60 43 61 36 62 37 63 41 64 44 65 38 66
REMARK SMILES IDX 39 67 42 68 40 69 66 70 67 71 75 72 68 73 69 74 73 75 76 76
REMARK SMILES IDX 70 77 71 78 74 79 72 80 51 81 52 82 60 83 53 84 54 85 58 86
REMARK SMILES IDX 61 87 55 88 56 89 59 90 57 91
REMARK H PARENT 17 7 22 25 81 44 49 55
REMARK Flexibility Score: inf
ROOT
ATOM      1  C   UNL A   1      31.743  28.542  27.235  1.00  0.00     0.023 C 
ENDROOT
BRANCH   1   2
ATOM      2  C   UNL A   1      31.798  27.072  26.818  1.00  0.00     0.023 C 
BRANCH   2   3
ATOM      3  C   UNL A   1      32.027  26.799  25.337  1.00  0.00     0.116 C 
BRANCH   3   4
ATOM      4  N   UNL A   1      31.041  25.986  24.668  1.00  0.00    -0.351 N 
ATOM      5  C   UNL A   1      31.193  25.009  23.722  1.00  0.00     0.261 C 
ATOM      6  O   UNL A   1      30.165  24.466  23.315  1.00  0.00    -0.268 OA
ATOM      7  H   UNL A   1      30.110  26.162  24.935  1.00  0.00     0.163 HD
BRANCH   5   8
ATOM      8  C   UNL A   1      32.509  24.613  23.128  1.00  0.00     0.117 C 
ATOM      9  C   UNL A   1      33.252  23.483  23.240  1.00  0.00     0.034 C 
BRANCH   8  10
ATOM     10  C   UNL A   1      33.089  25.557  22.087  1.00  0.00     0.105 C 
ATOM     11  N   UNL A   1      33.571  26.340  21.224  1.00  0.00    -0.192 NA
ENDBRANCH   8  10
BRANCH   9  12
ATOM     12  C   UNL A   1      33.073  22.246  24.007  1.00  0.00    -0.006 A 
ATOM     13  C   UNL A   1      32.537  21.147  23.307  1.00  0.00     0.060 A 
ATOM     14  C   UNL A   1      33.425  22.099  25.371  1.00  0.00     0.029 A 
ATOM     15  C   UNL A   1      32.498  19.926  23.943  1.00  0.00     0.166 A 
ATOM     16  C   UNL A   1      33.326  20.854  26.003  1.00  0.00     0.067 A 
ATOM     17  Br  UNL A   1      34.084  23.555  26.395  1.00  0.00    -0.050 Br
ATOM     18  C   UNL A   1      32.887  19.784  25.252  1.00  0.00     0.166 A 
ATOM     19  O   UNL A   1      32.162  18.743  23.368  1.00  0.00    -0.454 OA
ATOM     20  O   UNL A   1      32.834  18.491  25.664  1.00  0.00    -0.454 OA
ATOM     21  C   UNL A   1      32.484  17.820  24.435  1.00  0.00     0.468 C 
ENDBRANCH   9  12
ENDBRANCH   5   8
ENDBRANCH   3   4
ENDBRANCH   2   3
ENDBRANCH   1   2
BRANCH   1  22
ATOM     22  C   UNL A   1      32.580  29.528  26.419  1.00  0.00     0.116 C 
BRANCH  22  23
ATOM     23  N   UNL A   1      32.371  30.927  26.775  1.00  0.00    -0.352 N 
ATOM     24  C   UNL A   1      33.207  31.836  27.387  1.00  0.00     0.251 C 
ATOM     25  H   UNL A   1      31.484  31.282  26.537  1.00  0.00     0.163 HD
ATOM     26  O   UNL A   1      32.795  32.948  27.693  1.00  0.00    -0.269 OA
BRANCH  24  27
ATOM     27  C   UNL A   1      34.590  31.447  27.736  1.00  0.00     0.039 A 
ATOM     28  C   UNL A   1      35.574  32.440  27.796  1.00  0.00     0.014 A 
ATOM     29  C   UNL A   1      34.902  30.128  28.062  1.00  0.00     0.014 A 
ATOM     30  C   UNL A   1      36.829  32.137  28.326  1.00  0.00     0.010 A 
ATOM     31  C   UNL A   1      36.119  29.846  28.667  1.00  0.00     0.010 A 
ATOM     32  C   UNL A   1      37.080  30.855  28.838  1.00  0.00    -0.014 A 
BRANCH  32  33
ATOM     33  C   UNL A   1      38.303  30.541  29.618  1.00  0.00     0.031 A 
ATOM     34  C   UNL A   1      39.293  29.551  29.082  1.00  0.00     0.074 A 
ATOM     35  C   UNL A   1      38.428  31.015  30.874  1.00  0.00     0.049 A 
ATOM     36  N   UNL A   1      40.282  28.952  29.693  1.00  0.00    -0.248 NA
ATOM     37  C   UNL A   1      39.113  29.148  27.680  1.00  0.00     0.031 C 
ATOM     38  C   UNL A   1      37.496  31.937  31.528  1.00  0.00     0.029 A 
ATOM     39  N   UNL A   1      39.368  30.754  31.840  1.00  0.00    -0.354 N 
ATOM     40  C   UNL A   1      40.809  28.062  28.766  1.00  0.00     0.074 A 
ATOM     41  C   UNL A   1      40.013  28.182  27.563  1.00  0.00     0.031 C 
ATOM     42  C   UNL A   1      37.906  32.160  32.785  1.00  0.00     0.029 A 
ATOM     43  C   UNL A   1      39.102  31.364  33.042  1.00  0.00     0.049 A 
ATOM     44  H   UNL A   1      40.156  30.184  31.687  1.00  0.00     0.167 HD
ATOM     45  C   UNL A   1      41.865  27.227  28.909  1.00  0.00     0.037 A 
ATOM     46  C   UNL A   1      39.735  31.271  34.228  1.00  0.00     0.037 A 
ATOM     47  C   UNL A   1      42.678  27.152  30.094  1.00  0.00     0.049 A 
ATOM     48  C   UNL A   1      40.943  30.387  34.345  1.00  0.00     0.074 A 
ATOM     49  C   UNL A   1      43.821  26.404  30.312  1.00  0.00     0.029 A 
ATOM     50  N   UNL A   1      42.431  27.860  31.262  1.00  0.00    -0.354 N 
ATOM     51  N   UNL A   1      41.470  29.591  33.447  1.00  0.00    -0.248 NA
ATOM     52  C   UNL A   1      41.647  30.386  35.635  1.00  0.00     0.031 C 
ATOM     53  C   UNL A   1      44.249  26.637  31.624  1.00  0.00     0.029 A 
ATOM     54  C   UNL A   1      43.395  27.559  32.210  1.00  0.00     0.049 A 
ATOM     55  H   UNL A   1      41.681  28.482  31.398  1.00  0.00     0.167 HD
ATOM     56  C   UNL A   1      42.578  29.015  34.049  1.00  0.00     0.074 A 
ATOM     57  C   UNL A   1      42.651  29.554  35.392  1.00  0.00     0.031 C 
ATOM     58  C   UNL A   1      43.458  28.121  33.534  1.00  0.00     0.037 A 
BRANCH  45  59
ATOM     59  C   UNL A   1      42.188  26.323  27.754  1.00  0.00     0.064 A 
ATOM     60  C   UNL A   1      41.536  25.095  27.573  1.00  0.00     0.173 A 
ATOM     61  C   UNL A   1      43.170  26.689  26.821  1.00  0.00     0.173 A 
ATOM     62  F   UNL A   1      40.598  24.693  28.445  1.00  0.00    -0.203 F 
ATOM     63  C   UNL A   1      41.886  24.245  26.527  1.00  0.00     0.198 A 
ATOM     64  C   UNL A   1      43.496  25.851  25.758  1.00  0.00     0.198 A 
ATOM     65  F   UNL A   1      43.819  27.856  26.944  1.00  0.00    -0.203 F 
ATOM     66  F   UNL A   1      41.296  23.047  26.414  1.00  0.00    -0.200 F 
ATOM     67  C   UNL A   1      42.863  24.624  25.620  1.00  0.00     0.200 A 
ATOM     68  F   UNL A   1      44.433  26.223  24.875  1.00  0.00    -0.200 F 
ATOM     69  F   UNL A   1      43.204  23.802  24.618  1.00  0.00    -0.200 F 
ENDBRANCH  45  59
BRANCH  46  70
ATOM     70  C   UNL A   1      39.238  32.061  35.382  1.00  0.00     0.064 A 
ATOM     71  C   UNL A   1      38.435  31.465  36.363  1.00  0.00     0.173 A 
ATOM     72  C   UNL A   1      39.596  33.406  35.557  1.00  0.00     0.173 A 
ATOM     73  F   UNL A   1      38.055  30.187  36.231  1.00  0.00    -0.203 F 
ATOM     74  C   UNL A   1      38.005  32.187  37.476  1.00  0.00     0.198 A 
ATOM     75  C   UNL A   1      39.183  34.120  36.680  1.00  0.00     0.198 A 
ATOM     76  F   UNL A   1      40.372  34.017  34.650  1.00  0.00    -0.203 F 
ATOM     77  F   UNL A   1      37.221  31.599  38.391  1.00  0.00    -0.200 F 
ATOM     78  C   UNL A   1      38.386  33.510  37.637  1.00  0.00     0.200 A 
ATOM     79  F   UNL A   1      39.567  35.393  36.841  1.00  0.00    -0.200 F 
ATOM     80  F   UNL A   1      37.987  34.197  38.717  1.00  0.00    -0.200 F 
ENDBRANCH  46  70
BRANCH  58  81
ATOM     81  C   UNL A   1      44.600  27.696  34.405  1.00  0.00     0.064 A 
ATOM     82  C   UNL A   1      45.791  28.433  34.461  1.00  0.00     0.173 A 
ATOM     83  C   UNL A   1      44.466  26.587  35.253  1.00  0.00     0.173 A 
ATOM     84  F   UNL A   1      45.970  29.492  33.657  1.00  0.00    -0.203 F 
ATOM     85  C   UNL A   1      46.813  28.068  35.334  1.00  0.00     0.198 A 
ATOM     86  C   UNL A   1      45.480  26.239  36.138  1.00  0.00     0.198 A 
ATOM     87  F   UNL A   1      43.342  25.856  35.235  1.00  0.00    -0.203 F 
ATOM     88  F   UNL A   1      47.953  28.772  35.359  1.00  0.00    -0.200 F 
ATOM     89  C   UNL A   1      46.652  26.979  36.179  1.00  0.00     0.200 A 
ATOM     90  F   UNL A   1      45.320  25.193  36.961  1.00  0.00    -0.200 F 
ATOM     91  F   UNL A   1      47.630  26.641  37.031  1.00  0.00    -0.200 F 
ENDBRANCH  58  81
ENDBRANCH  32  33
ENDBRANCH  24  27
ENDBRANCH  22  23
ENDBRANCH   1  22
TORSDOF 13
ENDMDL
MODEL 3
REMARK VINA RESULT:     -12.7      0.155      1.619
REMARK SMILES N#C/C(=C/c1cc2c(cc1Br)OCO2)C(=O)NCCCCNC(=O)c1ccc(-c2c3nc(c(-c4c(F)c(F)c(F)c(F)c4F)c4ccc([nH]4)c(-c4c(F)c(F)c(F)c(F)c4F)c4nc(c(-c5c(F)c(F)c(F)c(F)c5F)c5ccc2[nH]5)C=C4)C=C3)cc1
REMARK SMILES IDX 20 1 19 2 18 3 17 4 15 5 16 6 3 8 4 9 2 10 1 11 5 12 6 13
REMARK SMILES IDX 10 14 7 15 9 16 11 17 8 18 14 19 12 20 13 21 21 22 22 23
REMARK SMILES IDX 23 24 24 26 25 27 26 28 87 29 27 30 86 31 28 32 29 33 30 34
REMARK SMILES IDX 80 35 31 36 85 37 79 38 81 39 32 40 84 41 78 42 77 43 33 45
REMARK SMILES IDX 65 46 45 47 64 48 46 49 49 50 63 51 82 52 47 53 48 54 62 56
REMARK SMILES IDX 83 57 50 58 34 59 35 60 43 61 36 62 37 63 41 64 44 65 38 66
REMARK SMILES IDX 39 67 42 68 40 69 66 70 67 71 75 72 68 73 69 74 73 75 76 76
REMARK SMILES IDX 70 77 71 78 74 79 72 80 51 81 52 82 60 83 53 84 54 85 58 86
REMARK SMILES IDX 61 87 55 88 56 89 59 90 57 91
REMARK H PARENT 17 7 22 25 81 44 49 55
REMARK Flexibility Score: inf
ROOT
ATOM      1  C   UNL A   1      31.782  28.349  27.231  1.00  0.00     0.023 C 
ENDROOT
BRANCH   1   2
ATOM      2  C   UNL A   1      31.132  27.236  26.408  1.00  0.00     0.023 C 
BRANCH   2   3
ATOM      3  C   UNL A   1      32.021  26.051  26.053  1.00  0.00     0.116 C 
BRANCH   3   4
ATOM      4  N   UNL A   1      31.631  25.270  24.905  1.00  0.00    -0.351 N 
ATOM      5  C   UNL A   1      31.325  23.940  24.802  1.00  0.00     0.261 C 
ATOM      6  O   UNL A   1      31.020  23.526  23.682  1.00  0.00    -0.268 OA
ATOM      7  H   UNL A   1      31.577  25.773  24.061  1.00  0.00     0.163 HD
BRANCH   5   8
ATOM      8  C   UNL A   1      31.395  22.972  25.942  1.00  0.00     0.117 C 
ATOM      9  C   UNL A   1      32.397  22.178  26.397  1.00  0.00     0.034 C 
BRANCH   8  10
ATOM     10  C   UNL A   1      30.198  22.945  26.878  1.00  0.00     0.105 C 
ATOM     11  N   UNL A   1      29.205  22.923  27.655  1.00  0.00    -0.192 NA
ENDBRANCH   8  10
BRANCH   9  12
ATOM     12  C   UNL A   1      33.766  21.937  25.930  1.00  0.00    -0.006 A 
ATOM     13  C   UNL A   1      34.684  22.991  26.111  1.00  0.00     0.060 A 
ATOM     14  C   UNL A   1      34.205  20.724  25.346  1.00  0.00     0.029 A 
ATOM     15  C   UNL A   1      36.012  22.752  25.832  1.00  0.00     0.166 A 
ATOM     16  C   UNL A   1      35.555  20.532  25.026  1.00  0.00     0.067 A 
ATOM     17  Br  UNL A   1      33.008  19.290  25.005  1.00  0.00    -0.050 Br
ATOM     18  C   UNL A   1      36.434  21.555  25.311  1.00  0.00     0.166 A 
ATOM     19  O   UNL A   1      37.042  23.598  26.096  1.00  0.00    -0.454 OA
ATOM     20  O   UNL A   1      37.784  21.505  25.172  1.00  0.00    -0.454 OA
ATOM     21  C   UNL A   1      38.174  22.756  25.778  1.00  0.00     0.468 C 
ENDBRANCH   9  12
ENDBRANCH   5   8
ENDBRANCH   3   4
ENDBRANCH   2   3
ENDBRANCH   1   2
BRANCH   1  22
ATOM     22  C   UNL A   1      32.708  29.313  26.489  1.00  0.00     0.116 C 
BRANCH  22  23
ATOM     23  N   UNL A   1      32.465  30.720  26.782  1.00  0.00    -0.352 N 
ATOM     24  C   UNL A   1      33.278  31.677  27.351  1.00  0.00     0.251 C 
ATOM     25  H   UNL A   1      31.568  31.042  26.531  1.00  0.00     0.163 HD
ATOM     26  O   UNL A   1      32.839  32.791  27.608  1.00  0.00    -0.269 OA
BRANCH  24  27
ATOM     27  C   UNL A   1      34.671  31.339  27.714  1.00  0.00     0.039 A 
ATOM     28  C   UNL A   1      35.602  32.374  27.848  1.00  0.00     0.014 A 
ATOM     29  C   UNL A   1      35.040  30.021  27.981  1.00  0.00     0.014 A 
ATOM     30  C   UNL A   1      36.859  32.106  28.393  1.00  0.00     0.010 A 
ATOM     31  C   UNL A   1      36.257  29.768  28.601  1.00  0.00     0.010 A 
ATOM     32  C   UNL A   1      37.162  30.813  28.846  1.00  0.00    -0.014 A 
BRANCH  32  33
ATOM     33  C   UNL A   1      38.382  30.519  29.639  1.00  0.00     0.031 A 
ATOM     34  C   UNL A   1      39.390  29.539  29.118  1.00  0.00     0.074 A 
ATOM     35  C   UNL A   1      38.489  31.001  30.893  1.00  0.00     0.049 A 
ATOM     36  N   UNL A   1      40.381  28.956  29.741  1.00  0.00    -0.248 NA
ATOM     37  C   UNL A   1      39.228  29.125  27.716  1.00  0.00     0.031 C 
ATOM     38  C   UNL A   1      37.539  31.915  31.533  1.00  0.00     0.029 A 
ATOM     39  N   UNL A   1      39.423  30.758  31.870  1.00  0.00    -0.354 N 
ATOM     40  C   UNL A   1      40.927  28.068  28.825  1.00  0.00     0.074 A 
ATOM     41  C   UNL A   1      40.142  28.171  27.614  1.00  0.00     0.031 C 
ATOM     42  C   UNL A   1      37.935  32.150  32.793  1.00  0.00     0.029 A 
ATOM     43  C   UNL A   1      39.139  31.371  33.066  1.00  0.00     0.049 A 
ATOM     44  H   UNL A   1      40.220  30.198  31.727  1.00  0.00     0.167 HD
ATOM     45  C   UNL A   1      41.993  27.247  28.982  1.00  0.00     0.037 A 
ATOM     46  C   UNL A   1      39.761  31.294  34.257  1.00  0.00     0.037 A 
ATOM     47  C   UNL A   1      42.796  27.190  30.175  1.00  0.00     0.049 A 
ATOM     48  C   UNL A   1      40.979  30.426  34.391  1.00  0.00     0.074 A 
ATOM     49  C   UNL A   1      43.947  26.458  30.408  1.00  0.00     0.029 A 
ATOM     50  N   UNL A   1      42.529  27.901  31.337  1.00  0.00    -0.354 N 
ATOM     51  N   UNL A   1      41.525  29.632  33.502  1.00  0.00    -0.248 NA
ATOM     52  C   UNL A   1      41.671  30.442  35.687  1.00  0.00     0.031 C 
ATOM     53  C   UNL A   1      44.360  26.704  31.722  1.00  0.00     0.029 A 
ATOM     54  C   UNL A   1      43.488  27.618  32.295  1.00  0.00     0.049 A 
ATOM     55  H   UNL A   1      41.770  28.515  31.462  1.00  0.00     0.167 HD
ATOM     56  C   UNL A   1      42.634  29.074  34.119  1.00  0.00     0.074 A 
ATOM     57  C   UNL A   1      42.688  29.621  35.459  1.00  0.00     0.031 C 
ATOM     58  C   UNL A   1      43.531  28.189  33.617  1.00  0.00     0.037 A 
BRANCH  45  59
ATOM     59  C   UNL A   1      42.338  26.342  27.836  1.00  0.00     0.064 A 
ATOM     60  C   UNL A   1      43.306  26.692  26.883  1.00  0.00     0.173 A 
ATOM     61  C   UNL A   1      41.684  25.110  27.684  1.00  0.00     0.173 A 
ATOM     62  F   UNL A   1      43.951  27.866  26.975  1.00  0.00    -0.203 F 
ATOM     63  C   UNL A   1      43.574  25.865  25.795  1.00  0.00     0.198 A 
ATOM     64  C   UNL A   1      41.977  24.270  26.613  1.00  0.00     0.198 A 
ATOM     65  F   UNL A   1      40.755  24.723  28.571  1.00  0.00    -0.203 F 
ATOM     66  F   UNL A   1      44.454  26.253  24.862  1.00  0.00    -0.200 F 
ATOM     67  C   UNL A   1      42.912  24.654  25.663  1.00  0.00     0.200 A 
ATOM     68  F   UNL A   1      41.344  23.095  26.491  1.00  0.00    -0.200 F 
ATOM     69  F   UNL A   1      43.165  23.862  24.612  1.00  0.00    -0.200 F 
ENDBRANCH  45  59
BRANCH  46  70
ATOM     70  C   UNL A   1      39.243  32.084  35.403  1.00  0.00     0.064 A 
ATOM     71  C   UNL A   1      38.420  31.489  36.367  1.00  0.00     0.173 A 
ATOM     72  C   UNL A   1      39.600  33.427  35.586  1.00  0.00     0.173 A 
ATOM     73  F   UNL A   1      38.040  30.211  36.226  1.00  0.00    -0.203 F 
ATOM     74  C   UNL A   1      37.970  32.210  37.473  1.00  0.00     0.198 A 
ATOM     75  C   UNL A   1      39.167  34.142  36.701  1.00  0.00     0.198 A 
ATOM     76  F   UNL A   1      40.395  34.038  34.695  1.00  0.00    -0.203 F 
ATOM     77  F   UNL A   1      37.167  31.623  38.371  1.00  0.00    -0.200 F 
ATOM     78  C   UNL A   1      38.350  33.532  37.642  1.00  0.00     0.200 A 
ATOM     79  F   UNL A   1      39.550  35.414  36.871  1.00  0.00    -0.200 F 
ATOM     80  F   UNL A   1      37.931  34.219  38.714  1.00  0.00    -0.200 F 
ENDBRANCH  46  70
BRANCH  58  81
ATOM     81  C   UNL A   1      44.670  27.784  34.501  1.00  0.00     0.064 A 
ATOM     82  C   UNL A   1      44.594  26.650  35.321  1.00  0.00     0.173 A 
ATOM     83  C   UNL A   1      45.879  28.493  34.461  1.00  0.00     0.173 A 
ATOM     84  F   UNL A   1      43.452  25.950  35.403  1.00  0.00    -0.203 F 
ATOM     85  C   UNL A   1      45.690  26.244  36.078  1.00  0.00     0.198 A 
ATOM     86  C   UNL A   1      46.979  28.072  35.201  1.00  0.00     0.198 A 
ATOM     87  F   UNL A   1      45.998  29.582  33.687  1.00  0.00    -0.203 F 
ATOM     88  F   UNL A   1      45.592  25.169  36.872  1.00  0.00    -0.200 F 
ATOM     89  C   UNL A   1      46.884  26.948  36.008  1.00  0.00     0.200 A 
ATOM     90  F   UNL A   1      48.134  28.748  35.127  1.00  0.00    -0.200 F 
ATOM     91  F   UNL A   1      47.943  26.545  36.723  1.00  0.00    -0.200 F 
ENDBRANCH  58  81
ENDBRANCH  32  33
ENDBRANCH  24  27
ENDBRANCH  22  23
ENDBRANCH   1  22
TORSDOF 13
ENDMDL
