MODEL 1
REMARK VINA RESULT:     -12.2      0.000      0.000
REMARK SMILES CN1C(=O)C[C@H](C(=O)NCCCCNC(=O)c2ccc(-c3c4nc(c(-c5c(F)c(F)c(F)c(F)c5F)c5ccc([nH]5)c(-c5c(F)c(F)c(F)c(F)c5F)c5nc(c(-c6c(F)c(F)c(F)c(F)c6F)c6ccc3[nH]6)C=C5)C=C4)cc2)c2cccc(Cl)c21
REMARK SMILES IDX 12 1 11 2 10 3 9 4 7 5 8 6 6 8 1 9 2 10 3 11 86 12 4 13 5 14
REMARK SMILES IDX 80 15 84 16 81 17 83 18 85 19 82 20 13 21 14 22 15 23 16 25
REMARK SMILES IDX 17 26 18 27 79 28 19 29 78 30 20 31 21 32 22 33 72 34 23 35
REMARK SMILES IDX 77 36 71 37 73 38 24 39 76 40 70 41 69 42 25 44 57 45 37 46
REMARK SMILES IDX 56 47 38 48 41 49 55 50 74 51 39 52 40 53 54 55 75 56 42 57
REMARK SMILES IDX 26 58 27 59 35 60 28 61 29 62 33 63 36 64 30 65 31 66 34 67
REMARK SMILES IDX 32 68 58 69 59 70 67 71 60 72 61 73 65 74 68 75 62 76 63 77
REMARK SMILES IDX 66 78 64 79 43 80 44 81 52 82 45 83 46 84 50 85 53 86 47 87
REMARK SMILES IDX 48 88 51 89 49 90
REMARK H PARENT 9 7 14 24 73 43 41 54
REMARK Flexibility Score: inf
ROOT
ATOM      1  C   UNL A   1      31.569  32.080  26.699  1.00  0.00     0.023 C 
ENDROOT
BRANCH   1   2
ATOM      2  C   UNL A   1      31.722  30.561  26.680  1.00  0.00     0.023 C 
BRANCH   2   3
ATOM      3  C   UNL A   1      33.164  30.064  26.650  1.00  0.00     0.116 C 
BRANCH   3   4
ATOM      4  N   UNL A   1      33.594  29.703  25.312  1.00  0.00    -0.356 N 
ATOM      5  C   UNL A   1      33.260  28.624  24.547  1.00  0.00     0.228 C 
ATOM      6  O   UNL A   1      33.720  28.571  23.403  1.00  0.00    -0.274 OA
ATOM      7  H   UNL A   1      34.223  30.333  24.893  1.00  0.00     0.163 HD
BRANCH   5   8
ATOM      8  C   UNL A   1      32.354  27.506  25.078  1.00  0.00     0.120 C 
ATOM      9  C   UNL A   1      30.278  24.218  23.126  1.00  0.00     0.153 C 
ATOM     10  N   UNL A   1      30.990  25.258  23.855  1.00  0.00    -0.314 N 
ATOM     11  C   UNL A   1      30.269  26.429  24.051  1.00  0.00     0.227 C 
ATOM     12  C   UNL A   1      32.329  25.047  24.348  1.00  0.00     0.066 A 
ATOM     13  O   UNL A   1      29.064  26.523  23.793  1.00  0.00    -0.274 OA
ATOM     14  C   UNL A   1      30.975  27.672  24.492  1.00  0.00     0.119 C 
ATOM     15  C   UNL A   1      32.988  26.140  24.954  1.00  0.00    -0.010 A 
ATOM     16  C   UNL A   1      33.059  23.826  24.282  1.00  0.00     0.065 A 
ATOM     17  C   UNL A   1      34.296  26.004  25.477  1.00  0.00     0.007 A 
ATOM     18  C   UNL A   1      34.372  23.729  24.779  1.00  0.00     0.023 A 
ATOM     19  Cl  UNL A   1      32.481  22.315  23.655  1.00  0.00    -0.082 Cl
ATOM     20  C   UNL A   1      34.991  24.812  25.376  1.00  0.00     0.002 A 
ENDBRANCH   5   8
ENDBRANCH   3   4
ENDBRANCH   2   3
ENDBRANCH   1   2
BRANCH   1  21
ATOM     21  C   UNL A   1      32.769  32.841  27.251  1.00  0.00     0.116 C 
BRANCH  21  22
ATOM     22  N   UNL A   1      32.445  34.209  27.626  1.00  0.00    -0.352 N 
ATOM     23  C   UNL A   1      32.990  34.971  28.629  1.00  0.00     0.251 C 
ATOM     24  H   UNL A   1      31.744  34.645  27.090  1.00  0.00     0.163 HD
ATOM     25  O   UNL A   1      32.528  36.070  28.913  1.00  0.00    -0.269 OA
BRANCH  23  26
ATOM     26  C   UNL A   1      34.135  34.432  29.385  1.00  0.00     0.039 A 
ATOM     27  C   UNL A   1      33.898  33.762  30.587  1.00  0.00     0.014 A 
ATOM     28  C   UNL A   1      35.431  34.554  28.875  1.00  0.00     0.014 A 
ATOM     29  C   UNL A   1      34.962  33.156  31.254  1.00  0.00     0.010 A 
ATOM     30  C   UNL A   1      36.482  33.907  29.514  1.00  0.00     0.010 A 
ATOM     31  C   UNL A   1      36.256  33.203  30.707  1.00  0.00    -0.014 A 
BRANCH  31  32
ATOM     32  C   UNL A   1      37.395  32.551  31.391  1.00  0.00     0.031 A 
ATOM     33  C   UNL A   1      38.119  31.429  30.709  1.00  0.00     0.074 A 
ATOM     34  C   UNL A   1      37.750  32.943  32.629  1.00  0.00     0.049 A 
ATOM     35  N   UNL A   1      39.102  30.689  31.154  1.00  0.00    -0.248 NA
ATOM     36  C   UNL A   1      37.669  31.083  29.352  1.00  0.00     0.031 C 
ATOM     37  C   UNL A   1      37.110  34.014  33.393  1.00  0.00     0.029 A 
ATOM     38  N   UNL A   1      38.736  32.480  33.462  1.00  0.00    -0.354 N 
ATOM     39  C   UNL A   1      39.391  29.797  30.130  1.00  0.00     0.074 A 
ATOM     40  C   UNL A   1      38.445  30.048  29.065  1.00  0.00     0.031 C 
ATOM     41  C   UNL A   1      37.737  34.143  34.575  1.00  0.00     0.029 A 
ATOM     42  C   UNL A   1      38.800  33.146  34.662  1.00  0.00     0.049 A 
ATOM     43  H   UNL A   1      39.341  31.741  33.223  1.00  0.00     0.167 HD
ATOM     44  C   UNL A   1      40.377  28.873  30.073  1.00  0.00     0.037 A 
ATOM     45  C   UNL A   1      39.627  32.967  35.709  1.00  0.00     0.037 A 
ATOM     46  C   UNL A   1      41.321  28.629  31.129  1.00  0.00     0.049 A 
ATOM     47  C   UNL A   1      40.678  31.893  35.641  1.00  0.00     0.074 A 
ATOM     48  C   UNL A   1      42.361  27.718  31.165  1.00  0.00     0.029 A 
ATOM     49  N   UNL A   1      41.340  29.308  32.338  1.00  0.00    -0.354 N 
ATOM     50  N   UNL A   1      40.958  31.071  34.660  1.00  0.00    -0.248 NA
ATOM     51  C   UNL A   1      41.528  31.720  36.829  1.00  0.00     0.031 C 
ATOM     52  C   UNL A   1      42.994  27.827  32.407  1.00  0.00     0.029 A 
ATOM     53  C   UNL A   1      42.369  28.831  33.131  1.00  0.00     0.049 A 
ATOM     54  H   UNL A   1      40.714  30.024  32.595  1.00  0.00     0.167 HD
ATOM     55  C   UNL A   1      42.030  30.305  35.097  1.00  0.00     0.074 A 
ATOM     56  C   UNL A   1      42.356  30.765  36.431  1.00  0.00     0.031 C 
ATOM     57  C   UNL A   1      42.685  29.312  34.450  1.00  0.00     0.037 A 
BRANCH  44  58
ATOM     58  C   UNL A   1      40.495  28.069  28.815  1.00  0.00     0.064 A 
ATOM     59  C   UNL A   1      41.294  28.507  27.749  1.00  0.00     0.173 A 
ATOM     60  C   UNL A   1      39.842  26.835  28.685  1.00  0.00     0.173 A 
ATOM     61  F   UNL A   1      41.925  29.689  27.821  1.00  0.00    -0.203 F 
ATOM     62  C   UNL A   1      41.423  27.747  26.591  1.00  0.00     0.198 A 
ATOM     63  C   UNL A   1      39.992  26.066  27.535  1.00  0.00     0.198 A 
ATOM     64  F   UNL A   1      39.066  26.373  29.678  1.00  0.00    -0.203 F 
ATOM     65  F   UNL A   1      42.164  28.201  25.571  1.00  0.00    -0.200 F 
ATOM     66  C   UNL A   1      40.778  26.523  26.488  1.00  0.00     0.200 A 
ATOM     67  F   UNL A   1      39.373  24.880  27.439  1.00  0.00    -0.200 F 
ATOM     68  F   UNL A   1      40.909  25.787  25.376  1.00  0.00    -0.200 F 
ENDBRANCH  44  58
BRANCH  45  69
ATOM     69  C   UNL A   1      39.522  33.851  36.898  1.00  0.00     0.064 A 
ATOM     70  C   UNL A   1      40.191  35.082  36.931  1.00  0.00     0.173 A 
ATOM     71  C   UNL A   1      38.763  33.488  38.019  1.00  0.00     0.173 A 
ATOM     72  F   UNL A   1      40.947  35.460  35.890  1.00  0.00    -0.203 F 
ATOM     73  C   UNL A   1      40.114  35.913  38.047  1.00  0.00     0.198 A 
ATOM     74  C   UNL A   1      38.670  34.328  39.126  1.00  0.00     0.198 A 
ATOM     75  F   UNL A   1      38.104  32.320  38.035  1.00  0.00    -0.203 F 
ATOM     76  F   UNL A   1      40.792  37.068  38.067  1.00  0.00    -0.200 F 
ATOM     77  C   UNL A   1      39.350  35.538  39.141  1.00  0.00     0.200 A 
ATOM     78  F   UNL A   1      37.924  33.968  40.179  1.00  0.00    -0.200 F 
ATOM     79  F   UNL A   1      39.276  36.338  40.213  1.00  0.00    -0.200 F 
ENDBRANCH  45  69
BRANCH  57  80
ATOM     80  C   UNL A   1      43.840  28.670  35.158  1.00  0.00     0.064 A 
ATOM     81  C   UNL A   1      45.137  29.190  35.060  1.00  0.00     0.173 A 
ATOM     82  C   UNL A   1      43.630  27.569  36.002  1.00  0.00     0.173 A 
ATOM     83  F   UNL A   1      45.386  30.234  34.255  1.00  0.00    -0.203 F 
ATOM     84  C   UNL A   1      46.188  28.625  35.776  1.00  0.00     0.198 A 
ATOM     85  C   UNL A   1      44.679  27.020  36.733  1.00  0.00     0.198 A 
ATOM     86  F   UNL A   1      42.404  27.041  36.133  1.00  0.00    -0.203 F 
ATOM     87  F   UNL A   1      47.426  29.120  35.648  1.00  0.00    -0.200 F 
ATOM     88  C   UNL A   1      45.956  27.546  36.618  1.00  0.00     0.200 A 
ATOM     89  F   UNL A   1      44.452  25.986  37.556  1.00  0.00    -0.200 F 
ATOM     90  F   UNL A   1      46.968  27.013  37.318  1.00  0.00    -0.200 F 
ENDBRANCH  57  80
ENDBRANCH  31  32
ENDBRANCH  23  26
ENDBRANCH  21  22
ENDBRANCH   1  21
TORSDOF 11
ENDMDL
MODEL 2
REMARK VINA RESULT:     -12.2      3.641      8.882
REMARK SMILES CN1C(=O)C[C@H](C(=O)NCCCCNC(=O)c2ccc(-c3c4nc(c(-c5c(F)c(F)c(F)c(F)c5F)c5ccc([nH]5)c(-c5c(F)c(F)c(F)c(F)c5F)c5nc(c(-c6c(F)c(F)c(F)c(F)c6F)c6ccc3[nH]6)C=C5)C=C4)cc2)c2cccc(Cl)c21
REMARK SMILES IDX 12 1 11 2 10 3 9 4 7 5 8 6 6 8 1 9 2 10 3 11 86 12 4 13 5 14
REMARK SMILES IDX 80 15 84 16 81 17 83 18 85 19 82 20 13 21 14 22 15 23 16 25
REMARK SMILES IDX 17 26 18 27 79 28 19 29 78 30 20 31 21 32 22 33 72 34 23 35
REMARK SMILES IDX 77 36 71 37 73 38 24 39 76 40 70 41 69 42 25 44 57 45 37 46
REMARK SMILES IDX 56 47 38 48 41 49 55 50 74 51 39 52 40 53 54 55 75 56 42 57
REMARK SMILES IDX 26 58 27 59 35 60 28 61 29 62 33 63 36 64 30 65 31 66 34 67
REMARK SMILES IDX 32 68 58 69 59 70 67 71 60 72 61 73 65 74 68 75 62 76 63 77
REMARK SMILES IDX 66 78 64 79 43 80 44 81 52 82 45 83 46 84 50 85 53 86 47 87
REMARK SMILES IDX 48 88 51 89 49 90
REMARK H PARENT 9 7 14 24 73 43 41 54
REMARK Flexibility Score: inf
ROOT
ATOM      1  C   UNL A   1      34.053  28.225  25.476  1.00  0.00     0.023 C 
ENDROOT
BRANCH   1   2
ATOM      2  C   UNL A   1      33.271  29.227  24.630  1.00  0.00     0.023 C 
BRANCH   2   3
ATOM      3  C   UNL A   1      33.073  28.815  23.174  1.00  0.00     0.116 C 
BRANCH   3   4
ATOM      4  N   UNL A   1      31.745  29.140  22.686  1.00  0.00    -0.356 N 
ATOM      5  C   UNL A   1      30.706  28.317  22.365  1.00  0.00     0.228 C 
ATOM      6  O   UNL A   1      29.643  28.845  22.024  1.00  0.00    -0.274 OA
ATOM      7  H   UNL A   1      31.568  30.101  22.569  1.00  0.00     0.163 HD
BRANCH   5   8
ATOM      8  C   UNL A   1      30.839  26.790  22.414  1.00  0.00     0.120 C 
ATOM      9  C   UNL A   1      34.225  24.146  23.105  1.00  0.00     0.153 C 
ATOM     10  N   UNL A   1      33.037  24.967  22.924  1.00  0.00    -0.314 N 
ATOM     11  C   UNL A   1      32.727  25.260  21.602  1.00  0.00     0.227 C 
ATOM     12  C   UNL A   1      32.246  25.402  24.050  1.00  0.00     0.066 A 
ATOM     13  O   UNL A   1      33.299  24.724  20.647  1.00  0.00    -0.274 OA
ATOM     14  C   UNL A   1      31.739  26.340  21.291  1.00  0.00     0.119 C 
ATOM     15  C   UNL A   1      31.169  26.282  23.798  1.00  0.00    -0.010 A 
ATOM     16  C   UNL A   1      32.451  25.025  25.408  1.00  0.00     0.065 A 
ATOM     17  C   UNL A   1      30.338  26.737  24.850  1.00  0.00     0.007 A 
ATOM     18  C   UNL A   1      31.630  25.522  26.438  1.00  0.00     0.023 A 
ATOM     19  Cl  UNL A   1      33.648  23.918  25.998  1.00  0.00    -0.082 Cl
ATOM     20  C   UNL A   1      30.576  26.374  26.163  1.00  0.00     0.002 A 
ENDBRANCH   5   8
ENDBRANCH   3   4
ENDBRANCH   2   3
ENDBRANCH   1   2
BRANCH   1  21
ATOM     21  C   UNL A   1      33.861  28.367  26.982  1.00  0.00     0.116 C 
BRANCH  21  22
ATOM     22  N   UNL A   1      33.683  29.750  27.398  1.00  0.00    -0.352 N 
ATOM     23  C   UNL A   1      34.558  30.554  28.086  1.00  0.00     0.251 C 
ATOM     24  H   UNL A   1      32.823  30.163  27.154  1.00  0.00     0.163 HD
ATOM     25  O   UNL A   1      34.221  31.664  28.481  1.00  0.00    -0.269 OA
BRANCH  23  26
ATOM     26  C   UNL A   1      35.913  30.048  28.367  1.00  0.00     0.039 A 
ATOM     27  C   UNL A   1      36.889  30.138  27.372  1.00  0.00     0.014 A 
ATOM     28  C   UNL A   1      36.221  29.531  29.629  1.00  0.00     0.014 A 
ATOM     29  C   UNL A   1      38.200  29.763  27.664  1.00  0.00     0.010 A 
ATOM     30  C   UNL A   1      37.537  29.205  29.934  1.00  0.00     0.010 A 
ATOM     31  C   UNL A   1      38.536  29.319  28.954  1.00  0.00    -0.014 A 
BRANCH  31  32
ATOM     32  C   UNL A   1      39.925  28.932  29.288  1.00  0.00     0.031 A 
ATOM     33  C   UNL A   1      40.757  29.841  30.143  1.00  0.00     0.074 A 
ATOM     34  C   UNL A   1      40.443  27.792  28.796  1.00  0.00     0.049 A 
ATOM     35  N   UNL A   1      42.008  29.718  30.505  1.00  0.00    -0.248 NA
ATOM     36  C   UNL A   1      40.099  31.057  30.647  1.00  0.00     0.031 C 
ATOM     37  C   UNL A   1      39.730  26.838  27.945  1.00  0.00     0.029 A 
ATOM     38  N   UNL A   1      41.692  27.244  28.940  1.00  0.00    -0.354 N 
ATOM     39  C   UNL A   1      42.283  30.834  31.284  1.00  0.00     0.074 A 
ATOM     40  C   UNL A   1      41.090  31.652  31.295  1.00  0.00     0.031 C 
ATOM     41  C   UNL A   1      40.548  25.809  27.662  1.00  0.00     0.029 A 
ATOM     42  C   UNL A   1      41.846  26.046  28.286  1.00  0.00     0.049 A 
ATOM     43  H   UNL A   1      42.410  27.669  29.463  1.00  0.00     0.167 HD
ATOM     44  C   UNL A   1      43.420  31.135  31.952  1.00  0.00     0.037 A 
ATOM     45  C   UNL A   1      42.918  25.235  28.205  1.00  0.00     0.037 A 
ATOM     46  C   UNL A   1      44.603  30.318  31.945  1.00  0.00     0.049 A 
ATOM     47  C   UNL A   1      44.188  25.621  28.913  1.00  0.00     0.074 A 
ATOM     48  C   UNL A   1      45.805  30.533  32.596  1.00  0.00     0.029 A 
ATOM     49  N   UNL A   1      44.729  29.122  31.253  1.00  0.00    -0.354 N 
ATOM     50  N   UNL A   1      44.430  26.668  29.664  1.00  0.00    -0.248 NA
ATOM     51  C   UNL A   1      45.335  24.715  28.759  1.00  0.00     0.031 C 
ATOM     52  C   UNL A   1      46.668  29.480  32.276  1.00  0.00     0.029 A 
ATOM     53  C   UNL A   1      45.991  28.592  31.455  1.00  0.00     0.049 A 
ATOM     54  H   UNL A   1      44.025  28.712  30.701  1.00  0.00     0.167 HD
ATOM     55  C   UNL A   1      45.743  26.532  30.095  1.00  0.00     0.074 A 
ATOM     56  C   UNL A   1      46.245  25.298  29.527  1.00  0.00     0.031 C 
ATOM     57  C   UNL A   1      46.466  27.355  30.891  1.00  0.00     0.037 A 
BRANCH  44  58
ATOM     58  C   UNL A   1      43.430  32.392  32.764  1.00  0.00     0.064 A 
ATOM     59  C   UNL A   1      43.060  32.383  34.117  1.00  0.00     0.173 A 
ATOM     60  C   UNL A   1      43.849  33.607  32.204  1.00  0.00     0.173 A 
ATOM     61  F   UNL A   1      42.636  31.247  34.692  1.00  0.00    -0.203 F 
ATOM     62  C   UNL A   1      43.094  33.548  34.877  1.00  0.00     0.198 A 
ATOM     63  C   UNL A   1      43.904  34.766  32.972  1.00  0.00     0.198 A 
ATOM     64  F   UNL A   1      44.212  33.667  30.913  1.00  0.00    -0.203 F 
ATOM     65  F   UNL A   1      42.703  33.522  36.158  1.00  0.00    -0.200 F 
ATOM     66  C   UNL A   1      43.524  34.737  34.306  1.00  0.00     0.200 A 
ATOM     67  F   UNL A   1      44.325  35.914  32.423  1.00  0.00    -0.200 F 
ATOM     68  F   UNL A   1      43.564  35.857  35.040  1.00  0.00    -0.200 F 
ENDBRANCH  44  58
BRANCH  45  69
ATOM     69  C   UNL A   1      42.825  23.956  27.458  1.00  0.00     0.064 A 
ATOM     70  C   UNL A   1      43.192  23.893  26.106  1.00  0.00     0.173 A 
ATOM     71  C   UNL A   1      42.368  22.779  28.067  1.00  0.00     0.173 A 
ATOM     72  F   UNL A   1      43.614  24.999  25.476  1.00  0.00    -0.203 F 
ATOM     73  C   UNL A   1      43.094  22.703  25.388  1.00  0.00     0.198 A 
ATOM     74  C   UNL A   1      42.290  21.585  27.354  1.00  0.00     0.198 A 
ATOM     75  F   UNL A   1      42.005  22.788  29.357  1.00  0.00    -0.203 F 
ATOM     76  F   UNL A   1      43.418  22.679  24.089  1.00  0.00    -0.200 F 
ATOM     77  C   UNL A   1      42.648  21.549  26.013  1.00  0.00     0.200 A 
ATOM     78  F   UNL A   1      41.866  20.469  27.962  1.00  0.00    -0.200 F 
ATOM     79  F   UNL A   1      42.555  20.404  25.323  1.00  0.00    -0.200 F 
ENDBRANCH  45  69
BRANCH  57  80
ATOM     80  C   UNL A   1      47.868  26.942  31.222  1.00  0.00     0.064 A 
ATOM     81  C   UNL A   1      48.138  26.044  32.263  1.00  0.00     0.173 A 
ATOM     82  C   UNL A   1      48.942  27.391  30.440  1.00  0.00     0.173 A 
ATOM     83  F   UNL A   1      47.143  25.598  33.044  1.00  0.00    -0.203 F 
ATOM     84  C   UNL A   1      49.437  25.616  32.517  1.00  0.00     0.198 A 
ATOM     85  C   UNL A   1      50.238  26.943  30.683  1.00  0.00     0.198 A 
ATOM     86  F   UNL A   1      48.732  28.246  29.428  1.00  0.00    -0.203 F 
ATOM     87  F   UNL A   1      49.678  24.777  33.533  1.00  0.00    -0.200 F 
ATOM     88  C   UNL A   1      50.484  26.059  31.721  1.00  0.00     0.200 A 
ATOM     89  F   UNL A   1      51.247  27.363  29.906  1.00  0.00    -0.200 F 
ATOM     90  F   UNL A   1      51.733  25.633  31.958  1.00  0.00    -0.200 F 
ENDBRANCH  57  80
ENDBRANCH  31  32
ENDBRANCH  23  26
ENDBRANCH  21  22
ENDBRANCH   1  21
TORSDOF 11
ENDMDL
MODEL 3
REMARK VINA RESULT:     -12.2      0.973      2.340
REMARK SMILES CN1C(=O)C[C@H](C(=O)NCCCCNC(=O)c2ccc(-c3c4nc(c(-c5c(F)c(F)c(F)c(F)c5F)c5ccc([nH]5)c(-c5c(F)c(F)c(F)c(F)c5F)c5nc(c(-c6c(F)c(F)c(F)c(F)c6F)c6ccc3[nH]6)C=C5)C=C4)cc2)c2cccc(Cl)c21
REMARK SMILES IDX 12 1 11 2 10 3 9 4 7 5 8 6 6 8 1 9 2 10 3 11 86 12 4 13 5 14
REMARK SMILES IDX 80 15 84 16 81 17 83 18 85 19 82 20 13 21 14 22 15 23 16 25
REMARK SMILES IDX 17 26 18 27 79 28 19 29 78 30 20 31 21 32 22 33 72 34 23 35
REMARK SMILES IDX 77 36 71 37 73 38 24 39 76 40 70 41 69 42 25 44 57 45 37 46
REMARK SMILES IDX 56 47 38 48 41 49 55 50 74 51 39 52 40 53 54 55 75 56 42 57
REMARK SMILES IDX 26 58 27 59 35 60 28 61 29 62 33 63 36 64 30 65 31 66 34 67
REMARK SMILES IDX 32 68 58 69 59 70 67 71 60 72 61 73 65 74 68 75 62 76 63 77
REMARK SMILES IDX 66 78 64 79 43 80 44 81 52 82 45 83 46 84 50 85 53 86 47 87
REMARK SMILES IDX 48 88 51 89 49 90
REMARK H PARENT 9 7 14 24 73 43 41 54
REMARK Flexibility Score: inf
ROOT
ATOM      1  C   UNL A   1      31.567  31.998  26.847  1.00  0.00     0.023 C 
ENDROOT
BRANCH   1   2
ATOM      2  C   UNL A   1      31.783  30.490  26.743  1.00  0.00     0.023 C 
BRANCH   2   3
ATOM      3  C   UNL A   1      32.170  29.995  25.353  1.00  0.00     0.116 C 
BRANCH   3   4
ATOM      4  N   UNL A   1      31.060  29.364  24.664  1.00  0.00    -0.356 N 
ATOM      5  C   UNL A   1      30.797  28.043  24.455  1.00  0.00     0.228 C 
ATOM      6  O   UNL A   1      29.742  27.753  23.883  1.00  0.00    -0.274 OA
ATOM      7  H   UNL A   1      30.395  29.986  24.289  1.00  0.00     0.163 HD
BRANCH   5   8
ATOM      8  C   UNL A   1      31.770  26.944  24.903  1.00  0.00     0.120 C 
ATOM      9  C   UNL A   1      31.407  22.617  25.174  1.00  0.00     0.153 C 
ATOM     10  N   UNL A   1      31.621  24.051  25.054  1.00  0.00    -0.314 N 
ATOM     11  C   UNL A   1      31.345  24.779  26.205  1.00  0.00     0.227 C 
ATOM     12  C   UNL A   1      32.112  24.639  23.831  1.00  0.00     0.066 A 
ATOM     13  O   UNL A   1      31.112  24.244  27.294  1.00  0.00    -0.274 OA
ATOM     14  C   UNL A   1      31.214  26.268  26.130  1.00  0.00     0.119 C 
ATOM     15  C   UNL A   1      32.194  26.048  23.763  1.00  0.00    -0.010 A 
ATOM     16  C   UNL A   1      32.526  23.924  22.671  1.00  0.00     0.065 A 
ATOM     17  C   UNL A   1      32.682  26.694  22.603  1.00  0.00     0.007 A 
ATOM     18  C   UNL A   1      32.974  24.595  21.518  1.00  0.00     0.023 A 
ATOM     19  Cl  UNL A   1      32.592  22.199  22.495  1.00  0.00    -0.082 Cl
ATOM     20  C   UNL A   1      33.054  25.975  21.481  1.00  0.00     0.002 A 
ENDBRANCH   5   8
ENDBRANCH   3   4
ENDBRANCH   2   3
ENDBRANCH   1   2
BRANCH   1  21
ATOM     21  C   UNL A   1      32.793  32.795  27.276  1.00  0.00     0.116 C 
BRANCH  21  22
ATOM     22  N   UNL A   1      32.476  34.173  27.623  1.00  0.00    -0.352 N 
ATOM     23  C   UNL A   1      33.030  34.953  28.607  1.00  0.00     0.251 C 
ATOM     24  H   UNL A   1      31.774  34.600  27.082  1.00  0.00     0.163 HD
ATOM     25  O   UNL A   1      32.574  36.060  28.870  1.00  0.00    -0.269 OA
BRANCH  23  26
ATOM     26  C   UNL A   1      34.177  34.427  29.368  1.00  0.00     0.039 A 
ATOM     27  C   UNL A   1      33.942  33.756  30.571  1.00  0.00     0.014 A 
ATOM     28  C   UNL A   1      35.474  34.559  28.862  1.00  0.00     0.014 A 
ATOM     29  C   UNL A   1      35.009  33.161  31.242  1.00  0.00     0.010 A 
ATOM     30  C   UNL A   1      36.529  33.922  29.507  1.00  0.00     0.010 A 
ATOM     31  C   UNL A   1      36.304  33.219  30.700  1.00  0.00    -0.014 A 
BRANCH  31  32
ATOM     32  C   UNL A   1      37.447  32.578  31.389  1.00  0.00     0.031 A 
ATOM     33  C   UNL A   1      38.172  31.449  30.719  1.00  0.00     0.074 A 
ATOM     34  C   UNL A   1      37.803  32.986  32.621  1.00  0.00     0.049 A 
ATOM     35  N   UNL A   1      39.158  30.717  31.170  1.00  0.00    -0.248 NA
ATOM     36  C   UNL A   1      37.719  31.085  29.367  1.00  0.00     0.031 C 
ATOM     37  C   UNL A   1      37.162  34.065  33.373  1.00  0.00     0.029 A 
ATOM     38  N   UNL A   1      38.792  32.536  33.458  1.00  0.00    -0.354 N 
ATOM     39  C   UNL A   1      39.447  29.814  30.157  1.00  0.00     0.074 A 
ATOM     40  C   UNL A   1      38.498  30.049  29.091  1.00  0.00     0.031 C 
ATOM     41  C   UNL A   1      37.792  34.210  34.553  1.00  0.00     0.029 A 
ATOM     42  C   UNL A   1      38.858  33.217  34.649  1.00  0.00     0.049 A 
ATOM     43  H   UNL A   1      39.399  31.796  33.226  1.00  0.00     0.167 HD
ATOM     44  C   UNL A   1      40.434  28.891  30.109  1.00  0.00     0.037 A 
ATOM     45  C   UNL A   1      39.688  33.053  35.696  1.00  0.00     0.037 A 
ATOM     46  C   UNL A   1      41.382  28.663  31.166  1.00  0.00     0.049 A 
ATOM     47  C   UNL A   1      40.741  31.981  35.639  1.00  0.00     0.074 A 
ATOM     48  C   UNL A   1      42.424  27.755  31.210  1.00  0.00     0.029 A 
ATOM     49  N   UNL A   1      41.402  29.357  32.366  1.00  0.00    -0.354 N 
ATOM     50  N   UNL A   1      41.021  31.147  34.667  1.00  0.00    -0.248 NA
ATOM     51  C   UNL A   1      41.595  31.825  36.826  1.00  0.00     0.031 C 
ATOM     52  C   UNL A   1      43.060  27.881  32.449  1.00  0.00     0.029 A 
ATOM     53  C   UNL A   1      42.434  28.892  33.162  1.00  0.00     0.049 A 
ATOM     54  H   UNL A   1      40.775  30.075  32.615  1.00  0.00     0.167 HD
ATOM     55  C   UNL A   1      42.096  30.390  35.111  1.00  0.00     0.074 A 
ATOM     56  C   UNL A   1      42.425  30.867  36.438  1.00  0.00     0.031 C 
ATOM     57  C   UNL A   1      42.753  29.390  34.475  1.00  0.00     0.037 A 
BRANCH  44  58
ATOM     58  C   UNL A   1      40.552  28.073  28.861  1.00  0.00     0.064 A 
ATOM     59  C   UNL A   1      39.860  26.861  28.721  1.00  0.00     0.173 A 
ATOM     60  C   UNL A   1      41.328  28.517  27.780  1.00  0.00     0.173 A 
ATOM     61  F   UNL A   1      39.119  26.388  29.734  1.00  0.00    -0.203 F 
ATOM     62  C   UNL A   1      39.951  26.115  27.550  1.00  0.00     0.198 A 
ATOM     63  C   UNL A   1      41.398  27.780  26.602  1.00  0.00     0.198 A 
ATOM     64  F   UNL A   1      42.009  29.670  27.865  1.00  0.00    -0.203 F 
ATOM     65  F   UNL A   1      39.308  24.943  27.453  1.00  0.00    -0.200 F 
ATOM     66  C   UNL A   1      40.714  26.578  26.488  1.00  0.00     0.200 A 
ATOM     67  F   UNL A   1      42.130  28.231  25.573  1.00  0.00    -0.200 F 
ATOM     68  F   UNL A   1      40.795  25.863  25.358  1.00  0.00    -0.200 F 
ENDBRANCH  44  58
BRANCH  45  69
ATOM     69  C   UNL A   1      39.583  33.951  36.874  1.00  0.00     0.064 A 
ATOM     70  C   UNL A   1      38.823  33.575  37.990  1.00  0.00     0.173 A 
ATOM     71  C   UNL A   1      40.227  35.195  36.909  1.00  0.00     0.173 A 
ATOM     72  F   UNL A   1      38.171  32.403  37.991  1.00  0.00    -0.203 F 
ATOM     73  C   UNL A   1      38.703  34.415  39.095  1.00  0.00     0.198 A 
ATOM     74  C   UNL A   1      40.123  36.026  38.023  1.00  0.00     0.198 A 
ATOM     75  F   UNL A   1      40.965  35.600  35.866  1.00  0.00    -0.203 F 
ATOM     76  F   UNL A   1      37.942  34.047  40.134  1.00  0.00    -0.200 F 
ATOM     77  C   UNL A   1      39.356  35.638  39.112  1.00  0.00     0.200 A 
ATOM     78  F   UNL A   1      40.762  37.203  38.041  1.00  0.00    -0.200 F 
ATOM     79  F   UNL A   1      39.241  36.445  40.175  1.00  0.00    -0.200 F 
ENDBRANCH  45  69
BRANCH  57  80
ATOM     80  C   UNL A   1      43.911  28.760  35.188  1.00  0.00     0.064 A 
ATOM     81  C   UNL A   1      43.732  27.664  36.042  1.00  0.00     0.173 A 
ATOM     82  C   UNL A   1      45.217  29.211  34.952  1.00  0.00     0.173 A 
ATOM     83  F   UNL A   1      42.499  27.207  36.306  1.00  0.00    -0.203 F 
ATOM     84  C   UNL A   1      44.823  27.045  36.645  1.00  0.00     0.198 A 
ATOM     85  C   UNL A   1      46.308  28.576  35.539  1.00  0.00     0.198 A 
ATOM     86  F   UNL A   1      45.437  30.252  34.137  1.00  0.00    -0.203 F 
ATOM     87  F   UNL A   1      44.631  26.015  37.480  1.00  0.00    -0.200 F 
ATOM     88  C   UNL A   1      46.110  27.496  36.386  1.00  0.00     0.200 A 
ATOM     89  F   UNL A   1      47.552  29.005  35.279  1.00  0.00    -0.200 F 
ATOM     90  F   UNL A   1      47.161  26.889  36.956  1.00  0.00    -0.200 F 
ENDBRANCH  57  80
ENDBRANCH  31  32
ENDBRANCH  23  26
ENDBRANCH  21  22
ENDBRANCH   1  21
TORSDOF 11
ENDMDL
