MODEL 1
REMARK VINA RESULT:     -14.5      0.000      0.000
REMARK SMILES COC(=O)c1ccc([C@H]2CC(=O)Nc3c(C(=O)NCCCCNC(=O)c4ccc(-c5c6nc(c(-c7c(F)c(F)c(F)c(F)c7F)c7ccc([nH]7)c(-c7c(F)c(F)c(F)c(F)c7F)c7nc(c(-c8c(F)c(F)c(F)c(F)c8F)c8ccc5[nH]8)C=C7)C=C6)cc4)cn(-c4ccccc4)c32)cc1
REMARK SMILES IDX 20 1 19 2 18 3 16 4 17 5 15 7 9 8 10 9 97 10 11 11 14 12
REMARK SMILES IDX 90 13 12 14 13 15 89 16 8 18 5 19 6 20 99 21 7 22 98 23 3 24
REMARK SMILES IDX 4 25 2 26 1 27 91 28 92 29 96 30 93 31 95 32 94 33 21 34
REMARK SMILES IDX 22 35 23 36 24 37 25 39 26 40 27 41 88 42 28 43 87 44 29 45
REMARK SMILES IDX 30 46 31 47 81 48 32 49 86 50 80 51 82 52 33 53 85 54 79 55
REMARK SMILES IDX 78 56 34 58 66 59 46 60 65 61 47 62 50 63 64 64 83 65 48 66
REMARK SMILES IDX 49 67 63 69 84 70 51 71 35 72 36 73 44 74 37 75 38 76 42 77
REMARK SMILES IDX 45 78 39 79 40 80 43 81 41 82 67 83 68 84 76 85 69 86 70 87
REMARK SMILES IDX 74 88 77 89 71 90 72 91 75 92 73 93 52 94 53 95 61 96 54 97
REMARK SMILES IDX 55 98 59 99 62 100 56 101 57 102 60 103 58 104
REMARK H PARENT 18 6 13 17 23 38 82 57 50 68
REMARK Flexibility Score: inf
ROOT
ATOM      1  C   UNL A   1      36.010  21.124  24.772  1.00  0.00     0.023 C 
ENDROOT
BRANCH   1   2
ATOM      2  C   UNL A   1      34.791  20.345  25.287  1.00  0.00     0.116 C 
BRANCH   2   3
ATOM      3  N   UNL A   1      33.768  20.217  24.281  1.00  0.00    -0.352 N 
ATOM      4  C   UNL A   1      32.815  21.057  23.775  1.00  0.00     0.254 C 
ATOM      5  O   UNL A   1      32.164  20.570  22.842  1.00  0.00    -0.269 OA
ATOM      6  H   UNL A   1      33.753  19.326  23.862  1.00  0.00     0.163 HD
BRANCH   4   7
ATOM      7  C   UNL A   1      32.519  22.423  24.243  1.00  0.00     0.081 A 
ATOM      8  C   UNL A   1      30.922  25.473  25.736  1.00  0.00     0.078 C 
ATOM      9  C   UNL A   1      29.743  24.806  26.455  1.00  0.00     0.115 C 
ATOM     10  C   UNL A   1      31.794  24.445  25.052  1.00  0.00     0.055 A 
ATOM     11  C   UNL A   1      29.991  23.397  26.911  1.00  0.00     0.225 C 
ATOM     12  C   UNL A   1      31.663  23.074  25.187  1.00  0.00     0.076 A 
ATOM     13  N   UNL A   1      32.847  24.688  24.187  1.00  0.00    -0.317 N 
ATOM     14  O   UNL A   1      29.393  22.908  27.869  1.00  0.00    -0.275 OA
ATOM     15  N   UNL A   1      30.796  22.609  26.143  1.00  0.00    -0.324 N 
ATOM     16  C   UNL A   1      33.186  23.484  23.622  1.00  0.00     0.107 A 
ATOM     17  H   UNL A   1      30.753  21.637  26.286  1.00  0.00     0.170 HD
BRANCH   8  18
ATOM     18  C   UNL A   1      30.330  26.569  24.844  1.00  0.00    -0.038 A 
ATOM     19  C   UNL A   1      29.070  28.554  23.287  1.00  0.00     0.060 A 
ATOM     20  C   UNL A   1      28.659  27.222  23.194  1.00  0.00     0.016 A 
ATOM     21  C   UNL A   1      30.157  28.882  24.100  1.00  0.00     0.016 A 
ATOM     22  C   UNL A   1      29.275  26.241  23.975  1.00  0.00     0.005 A 
ATOM     23  C   UNL A   1      30.808  27.889  24.833  1.00  0.00     0.005 A 
BRANCH  19  24
ATOM     24  C   UNL A   1      28.301  29.585  22.540  1.00  0.00     0.337 C 
ATOM     25  O   UNL A   1      28.381  29.748  21.341  1.00  0.00    -0.246 OA
BRANCH  24  26
ATOM     26  O   UNL A   1      27.502  30.281  23.393  1.00  0.00    -0.465 OA
ATOM     27  C   UNL A   1      27.583  31.696  23.241  1.00  0.00     0.282 C 
ENDBRANCH  24  26
ENDBRANCH  19  24
ENDBRANCH   8  18
BRANCH  13  28
ATOM     28  C   UNL A   1      33.389  25.945  23.817  1.00  0.00     0.045 A 
ATOM     29  C   UNL A   1      33.951  26.782  24.785  1.00  0.00     0.026 A 
ATOM     30  C   UNL A   1      33.224  26.398  22.501  1.00  0.00     0.026 A 
ATOM     31  C   UNL A   1      34.276  28.098  24.457  1.00  0.00     0.002 A 
ATOM     32  C   UNL A   1      33.519  27.727  22.191  1.00  0.00     0.002 A 
ATOM     33  C   UNL A   1      34.030  28.578  23.170  1.00  0.00     0.000 A 
ENDBRANCH  13  28
ENDBRANCH   4   7
ENDBRANCH   2   3
ENDBRANCH   1   2
BRANCH   1  34
ATOM     34  C   UNL A   1      36.348  22.391  25.572  1.00  0.00     0.023 C 
BRANCH  34  35
ATOM     35  C   UNL A   1      37.825  22.773  25.553  1.00  0.00     0.116 C 
BRANCH  35  36
ATOM     36  N   UNL A   1      38.653  21.971  26.462  1.00  0.00    -0.352 N 
ATOM     37  C   UNL A   1      39.827  22.353  27.095  1.00  0.00     0.251 C 
ATOM     38  H   UNL A   1      38.340  21.055  26.642  1.00  0.00     0.163 HD
ATOM     39  O   UNL A   1      40.660  21.540  27.469  1.00  0.00    -0.269 OA
BRANCH  37  40
ATOM     40  C   UNL A   1      40.018  23.788  27.346  1.00  0.00     0.039 A 
ATOM     41  C   UNL A   1      38.983  24.725  27.265  1.00  0.00     0.014 A 
ATOM     42  C   UNL A   1      41.290  24.149  27.773  1.00  0.00     0.014 A 
ATOM     43  C   UNL A   1      39.236  26.028  27.690  1.00  0.00     0.010 A 
ATOM     44  C   UNL A   1      41.457  25.344  28.404  1.00  0.00     0.010 A 
ATOM     45  C   UNL A   1      40.480  26.320  28.270  1.00  0.00    -0.014 A 
BRANCH  45  46
ATOM     46  C   UNL A   1      40.806  27.625  28.824  1.00  0.00     0.031 A 
ATOM     47  C   UNL A   1      42.011  28.266  28.240  1.00  0.00     0.074 A 
ATOM     48  C   UNL A   1      39.923  28.289  29.605  1.00  0.00     0.049 A 
ATOM     49  N   UNL A   1      43.124  28.538  28.837  1.00  0.00    -0.248 NA
ATOM     50  C   UNL A   1      42.042  28.517  26.790  1.00  0.00     0.031 C 
ATOM     51  C   UNL A   1      38.558  27.898  29.993  1.00  0.00     0.029 A 
ATOM     52  N   UNL A   1      40.028  29.530  30.144  1.00  0.00    -0.354 N 
ATOM     53  C   UNL A   1      43.925  29.176  27.893  1.00  0.00     0.074 A 
ATOM     54  C   UNL A   1      43.287  28.966  26.620  1.00  0.00     0.031 C 
ATOM     55  C   UNL A   1      37.896  28.966  30.488  1.00  0.00     0.029 A 
ATOM     56  C   UNL A   1      38.836  30.057  30.630  1.00  0.00     0.049 A 
ATOM     57  H   UNL A   1      40.883  30.020  30.186  1.00  0.00     0.167 HD
ATOM     58  C   UNL A   1      44.911  30.032  28.284  1.00  0.00     0.037 A 
ATOM     59  C   UNL A   1      38.645  31.315  31.098  1.00  0.00     0.037 A 
ATOM     60  C   UNL A   1      45.206  29.861  29.687  1.00  0.00     0.049 A 
ATOM     61  C   UNL A   1      39.985  31.852  31.449  1.00  0.00     0.074 A 
ATOM     62  C   UNL A   1      45.671  28.815  30.458  1.00  0.00     0.029 A 
ATOM     63  N   UNL A   1      44.637  30.749  30.568  1.00  0.00    -0.354 N 
ATOM     64  N   UNL A   1      40.721  31.367  32.413  1.00  0.00    -0.248 NA
ATOM     65  C   UNL A   1      40.708  32.569  30.410  1.00  0.00     0.031 C 
ATOM     66  C   UNL A   1      44.917  28.890  31.668  1.00  0.00     0.029 A 
ATOM     67  C   UNL A   1      44.105  30.023  31.601  1.00  0.00     0.049 A 
ATOM     68  H   UNL A   1      44.617  31.729  30.475  1.00  0.00     0.167 HD
ATOM     69  C   UNL A   1      42.007  31.337  31.896  1.00  0.00     0.074 A 
ATOM     70  C   UNL A   1      41.948  32.149  30.680  1.00  0.00     0.031 C 
ATOM     71  C   UNL A   1      42.920  30.417  32.329  1.00  0.00     0.037 A 
BRANCH  58  72
ATOM     72  C   UNL A   1      45.333  31.274  27.534  1.00  0.00     0.064 A 
ATOM     73  C   UNL A   1      46.666  31.374  27.082  1.00  0.00     0.173 A 
ATOM     74  C   UNL A   1      44.600  32.480  27.521  1.00  0.00     0.173 A 
ATOM     75  F   UNL A   1      47.459  30.291  27.048  1.00  0.00    -0.203 F 
ATOM     76  C   UNL A   1      47.247  32.600  26.752  1.00  0.00     0.198 A 
ATOM     77  C   UNL A   1      45.169  33.695  27.141  1.00  0.00     0.198 A 
ATOM     78  F   UNL A   1      43.346  32.563  27.978  1.00  0.00    -0.203 F 
ATOM     79  F   UNL A   1      48.555  32.661  26.466  1.00  0.00    -0.200 F 
ATOM     80  C   UNL A   1      46.501  33.762  26.794  1.00  0.00     0.200 A 
ATOM     81  F   UNL A   1      44.432  34.813  27.200  1.00  0.00    -0.200 F 
ATOM     82  F   UNL A   1      47.072  34.949  26.550  1.00  0.00    -0.200 F 
ENDBRANCH  58  72
BRANCH  59  83
ATOM     83  C   UNL A   1      37.451  32.175  30.913  1.00  0.00     0.064 A 
ATOM     84  C   UNL A   1      37.185  32.811  29.690  1.00  0.00     0.173 A 
ATOM     85  C   UNL A   1      36.402  32.167  31.855  1.00  0.00     0.173 A 
ATOM     86  F   UNL A   1      38.111  32.816  28.721  1.00  0.00    -0.203 F 
ATOM     87  C   UNL A   1      35.939  33.392  29.421  1.00  0.00     0.198 A 
ATOM     88  C   UNL A   1      35.161  32.749  31.586  1.00  0.00     0.198 A 
ATOM     89  F   UNL A   1      36.531  31.512  33.018  1.00  0.00    -0.203 F 
ATOM     90  F   UNL A   1      35.703  33.945  28.222  1.00  0.00    -0.200 F 
ATOM     91  C   UNL A   1      34.926  33.352  30.366  1.00  0.00     0.200 A 
ATOM     92  F   UNL A   1      34.178  32.664  32.493  1.00  0.00    -0.200 F 
ATOM     93  F   UNL A   1      33.716  33.856  30.086  1.00  0.00    -0.200 F 
ENDBRANCH  59  83
BRANCH  71  94
ATOM     94  C   UNL A   1      42.572  29.592  33.537  1.00  0.00     0.064 A 
ATOM     95  C   UNL A   1      41.984  28.315  33.480  1.00  0.00     0.173 A 
ATOM     96  C   UNL A   1      43.012  30.037  34.790  1.00  0.00     0.173 A 
ATOM     97  F   UNL A   1      41.623  27.775  32.313  1.00  0.00    -0.203 F 
ATOM     98  C   UNL A   1      41.819  27.538  34.627  1.00  0.00     0.198 A 
ATOM     99  C   UNL A   1      42.877  29.247  35.927  1.00  0.00     0.198 A 
ATOM    100  F   UNL A   1      43.631  31.223  34.898  1.00  0.00    -0.203 F 
ATOM    101  F   UNL A   1      41.256  26.323  34.542  1.00  0.00    -0.200 F 
ATOM    102  C   UNL A   1      42.276  28.002  35.849  1.00  0.00     0.200 A 
ATOM    103  F   UNL A   1      43.366  29.681  37.098  1.00  0.00    -0.200 F 
ATOM    104  F   UNL A   1      42.161  27.239  36.944  1.00  0.00    -0.200 F 
ENDBRANCH  71  94
ENDBRANCH  45  46
ENDBRANCH  37  40
ENDBRANCH  35  36
ENDBRANCH  34  35
ENDBRANCH   1  34
TORSDOF 15
ENDMDL
MODEL 2
REMARK VINA RESULT:     -14.4      2.359      6.913
REMARK SMILES COC(=O)c1ccc([C@H]2CC(=O)Nc3c(C(=O)NCCCCNC(=O)c4ccc(-c5c6nc(c(-c7c(F)c(F)c(F)c(F)c7F)c7ccc([nH]7)c(-c7c(F)c(F)c(F)c(F)c7F)c7nc(c(-c8c(F)c(F)c(F)c(F)c8F)c8ccc5[nH]8)C=C7)C=C6)cc4)cn(-c4ccccc4)c32)cc1
REMARK SMILES IDX 20 1 19 2 18 3 16 4 17 5 15 7 9 8 10 9 97 10 11 11 14 12
REMARK SMILES IDX 90 13 12 14 13 15 89 16 8 18 5 19 6 20 99 21 7 22 98 23 3 24
REMARK SMILES IDX 4 25 2 26 1 27 91 28 92 29 96 30 93 31 95 32 94 33 21 34
REMARK SMILES IDX 22 35 23 36 24 37 25 39 26 40 27 41 88 42 28 43 87 44 29 45
REMARK SMILES IDX 30 46 31 47 81 48 32 49 86 50 80 51 82 52 33 53 85 54 79 55
REMARK SMILES IDX 78 56 34 58 66 59 46 60 65 61 47 62 50 63 64 64 83 65 48 66
REMARK SMILES IDX 49 67 63 69 84 70 51 71 35 72 36 73 44 74 37 75 38 76 42 77
REMARK SMILES IDX 45 78 39 79 40 80 43 81 41 82 67 83 68 84 76 85 69 86 70 87
REMARK SMILES IDX 74 88 77 89 71 90 72 91 75 92 73 93 52 94 53 95 61 96 54 97
REMARK SMILES IDX 55 98 59 99 62 100 56 101 57 102 60 103 58 104
REMARK H PARENT 18 6 13 17 23 38 82 57 50 68
REMARK Flexibility Score: inf
ROOT
ATOM      1  C   UNL A   1      36.381  19.617  25.004  1.00  0.00     0.023 C 
ENDROOT
BRANCH   1   2
ATOM      2  C   UNL A   1      35.360  20.765  25.022  1.00  0.00     0.116 C 
BRANCH   2   3
ATOM      3  N   UNL A   1      34.165  20.435  24.289  1.00  0.00    -0.352 N 
ATOM      4  C   UNL A   1      33.023  21.116  23.968  1.00  0.00     0.254 C 
ATOM      5  O   UNL A   1      32.249  20.478  23.243  1.00  0.00    -0.269 OA
ATOM      6  H   UNL A   1      34.171  19.514  23.942  1.00  0.00     0.163 HD
BRANCH   4   7
ATOM      7  C   UNL A   1      32.666  22.477  24.407  1.00  0.00     0.081 A 
ATOM      8  C   UNL A   1      30.914  25.492  25.792  1.00  0.00     0.078 C 
ATOM      9  C   UNL A   1      29.724  24.797  26.465  1.00  0.00     0.115 C 
ATOM     10  C   UNL A   1      31.846  24.484  25.159  1.00  0.00     0.055 A 
ATOM     11  C   UNL A   1      29.993  23.400  26.948  1.00  0.00     0.225 C 
ATOM     12  C   UNL A   1      31.750  23.111  25.304  1.00  0.00     0.076 A 
ATOM     13  N   UNL A   1      32.928  24.750  24.339  1.00  0.00    -0.317 N 
ATOM     14  O   UNL A   1      29.368  22.903  27.885  1.00  0.00    -0.275 OA
ATOM     15  N   UNL A   1      30.855  22.630  26.226  1.00  0.00    -0.324 N 
ATOM     16  C   UNL A   1      33.328  23.551  23.804  1.00  0.00     0.107 A 
ATOM     17  H   UNL A   1      30.834  21.658  26.378  1.00  0.00     0.170 HD
BRANCH   8  18
ATOM     18  C   UNL A   1      30.330  26.560  24.862  1.00  0.00    -0.038 A 
ATOM     19  C   UNL A   1      29.084  28.498  23.235  1.00  0.00     0.060 A 
ATOM     20  C   UNL A   1      28.671  27.164  23.181  1.00  0.00     0.016 A 
ATOM     21  C   UNL A   1      30.166  28.849  24.045  1.00  0.00     0.016 A 
ATOM     22  C   UNL A   1      29.279  26.207  23.997  1.00  0.00     0.005 A 
ATOM     23  C   UNL A   1      30.810  27.878  24.813  1.00  0.00     0.005 A 
BRANCH  19  24
ATOM     24  C   UNL A   1      28.322  29.506  22.451  1.00  0.00     0.337 C 
ATOM     25  O   UNL A   1      28.562  29.783  21.295  1.00  0.00    -0.246 OA
BRANCH  24  26
ATOM     26  O   UNL A   1      27.327  30.036  23.212  1.00  0.00    -0.465 OA
ATOM     27  C   UNL A   1      27.528  31.403  23.562  1.00  0.00     0.282 C 
ENDBRANCH  24  26
ENDBRANCH  19  24
ENDBRANCH   8  18
BRANCH  13  28
ATOM     28  C   UNL A   1      33.448  26.019  23.979  1.00  0.00     0.045 A 
ATOM     29  C   UNL A   1      33.963  26.874  24.959  1.00  0.00     0.026 A 
ATOM     30  C   UNL A   1      33.309  26.463  22.657  1.00  0.00     0.026 A 
ATOM     31  C   UNL A   1      34.263  28.196  24.635  1.00  0.00     0.002 A 
ATOM     32  C   UNL A   1      33.579  27.798  22.350  1.00  0.00     0.002 A 
ATOM     33  C   UNL A   1      34.041  28.665  23.340  1.00  0.00     0.000 A 
ENDBRANCH  13  28
ENDBRANCH   4   7
ENDBRANCH   2   3
ENDBRANCH   1   2
BRANCH   1  34
ATOM     34  C   UNL A   1      37.783  20.012  24.517  1.00  0.00     0.023 C 
BRANCH  34  35
ATOM     35  C   UNL A   1      38.786  20.281  25.635  1.00  0.00     0.116 C 
BRANCH  35  36
ATOM     36  N   UNL A   1      39.788  19.221  25.796  1.00  0.00    -0.352 N 
ATOM     37  C   UNL A   1      41.162  19.369  25.924  1.00  0.00     0.251 C 
ATOM     38  H   UNL A   1      39.447  18.297  25.815  1.00  0.00     0.163 HD
ATOM     39  O   UNL A   1      41.944  18.476  25.627  1.00  0.00    -0.269 OA
BRANCH  37  40
ATOM     40  C   UNL A   1      41.653  20.637  26.479  1.00  0.00     0.039 A 
ATOM     41  C   UNL A   1      42.141  21.682  25.687  1.00  0.00     0.014 A 
ATOM     42  C   UNL A   1      41.507  20.776  27.853  1.00  0.00     0.014 A 
ATOM     43  C   UNL A   1      42.418  22.902  26.301  1.00  0.00     0.010 A 
ATOM     44  C   UNL A   1      41.548  22.026  28.395  1.00  0.00     0.010 A 
ATOM     45  C   UNL A   1      42.104  23.062  27.659  1.00  0.00    -0.014 A 
BRANCH  45  46
ATOM     46  C   UNL A   1      42.273  24.322  28.365  1.00  0.00     0.031 A 
ATOM     47  C   UNL A   1      41.151  25.282  28.204  1.00  0.00     0.074 A 
ATOM     48  C   UNL A   1      43.246  24.475  29.293  1.00  0.00     0.049 A 
ATOM     49  N   UNL A   1      41.180  26.434  27.623  1.00  0.00    -0.248 NA
ATOM     50  C   UNL A   1      39.802  24.862  28.617  1.00  0.00     0.031 C 
ATOM     51  C   UNL A   1      44.222  23.486  29.777  1.00  0.00     0.029 A 
ATOM     52  N   UNL A   1      43.502  25.543  30.090  1.00  0.00    -0.354 N 
ATOM     53  C   UNL A   1      39.905  26.976  27.771  1.00  0.00     0.074 A 
ATOM     54  C   UNL A   1      39.062  25.898  28.216  1.00  0.00     0.031 C 
ATOM     55  C   UNL A   1      44.787  23.919  30.925  1.00  0.00     0.029 A 
ATOM     56  C   UNL A   1      44.360  25.284  31.154  1.00  0.00     0.049 A 
ATOM     57  H   UNL A   1      43.111  26.433  29.928  1.00  0.00     0.167 HD
ATOM     58  C   UNL A   1      39.716  28.326  27.749  1.00  0.00     0.037 A 
ATOM     59  C   UNL A   1      44.675  26.136  32.160  1.00  0.00     0.037 A 
ATOM     60  C   UNL A   1      40.875  28.992  27.205  1.00  0.00     0.049 A 
ATOM     61  C   UNL A   1      44.349  27.504  31.681  1.00  0.00     0.074 A 
ATOM     62  C   UNL A   1      41.525  28.964  25.987  1.00  0.00     0.029 A 
ATOM     63  N   UNL A   1      41.773  29.534  28.092  1.00  0.00    -0.354 N 
ATOM     64  N   UNL A   1      44.977  28.086  30.694  1.00  0.00    -0.248 NA
ATOM     65  C   UNL A   1      43.010  28.004  31.953  1.00  0.00     0.031 C 
ATOM     66  C   UNL A   1      42.914  29.010  26.313  1.00  0.00     0.029 A 
ATOM     67  C   UNL A   1      43.028  29.153  27.696  1.00  0.00     0.049 A 
ATOM     68  H   UNL A   1      41.555  30.095  28.872  1.00  0.00     0.167 HD
ATOM     69  C   UNL A   1      43.978  28.706  29.957  1.00  0.00     0.074 A 
ATOM     70  C   UNL A   1      42.795  28.675  30.816  1.00  0.00     0.031 C 
ATOM     71  C   UNL A   1      44.119  28.914  28.614  1.00  0.00     0.037 A 
BRANCH  58  72
ATOM     72  C   UNL A   1      38.686  29.073  28.564  1.00  0.00     0.064 A 
ATOM     73  C   UNL A   1      37.823  29.973  27.903  1.00  0.00     0.173 A 
ATOM     74  C   UNL A   1      38.718  29.190  29.970  1.00  0.00     0.173 A 
ATOM     75  F   UNL A   1      37.709  29.954  26.566  1.00  0.00    -0.203 F 
ATOM     76  C   UNL A   1      37.136  30.979  28.587  1.00  0.00     0.198 A 
ATOM     77  C   UNL A   1      37.990  30.162  30.654  1.00  0.00     0.198 A 
ATOM     78  F   UNL A   1      39.531  28.452  30.733  1.00  0.00    -0.203 F 
ATOM     79  F   UNL A   1      36.443  31.897  27.899  1.00  0.00    -0.200 F 
ATOM     80  C   UNL A   1      37.230  31.081  29.961  1.00  0.00     0.200 A 
ATOM     81  F   UNL A   1      38.104  30.252  31.987  1.00  0.00    -0.200 F 
ATOM     82  F   UNL A   1      36.634  32.087  30.614  1.00  0.00    -0.200 F 
ENDBRANCH  58  72
BRANCH  59  83
ATOM     83  C   UNL A   1      44.884  25.807  33.590  1.00  0.00     0.064 A 
ATOM     84  C   UNL A   1      43.803  25.566  34.455  1.00  0.00     0.173 A 
ATOM     85  C   UNL A   1      46.160  25.453  34.072  1.00  0.00     0.173 A 
ATOM     86  F   UNL A   1      42.551  25.825  34.053  1.00  0.00    -0.203 F 
ATOM     87  C   UNL A   1      43.989  24.994  35.719  1.00  0.00     0.198 A 
ATOM     88  C   UNL A   1      46.344  24.884  35.334  1.00  0.00     0.198 A 
ATOM     89  F   UNL A   1      47.243  25.566  33.289  1.00  0.00    -0.203 F 
ATOM     90  F   UNL A   1      42.929  24.730  36.497  1.00  0.00    -0.200 F 
ATOM     91  C   UNL A   1      45.258  24.644  36.153  1.00  0.00     0.200 A 
ATOM     92  F   UNL A   1      47.572  24.512  35.722  1.00  0.00    -0.200 F 
ATOM     93  F   UNL A   1      45.429  24.042  37.339  1.00  0.00    -0.200 F 
ENDBRANCH  59  83
BRANCH  71  94
ATOM     94  C   UNL A   1      45.469  28.665  27.998  1.00  0.00     0.064 A 
ATOM     95  C   UNL A   1      45.863  27.442  27.425  1.00  0.00     0.173 A 
ATOM     96  C   UNL A   1      46.327  29.758  27.826  1.00  0.00     0.173 A 
ATOM     97  F   UNL A   1      45.061  26.374  27.462  1.00  0.00    -0.203 F 
ATOM     98  C   UNL A   1      47.071  27.316  26.741  1.00  0.00     0.198 A 
ATOM     99  C   UNL A   1      47.516  29.639  27.114  1.00  0.00     0.198 A 
ATOM    100  F   UNL A   1      45.978  30.964  28.302  1.00  0.00    -0.203 F 
ATOM    101  F   UNL A   1      47.422  26.137  26.204  1.00  0.00    -0.200 F 
ATOM    102  C   UNL A   1      47.893  28.419  26.577  1.00  0.00     0.200 A 
ATOM    103  F   UNL A   1      48.283  30.721  26.916  1.00  0.00    -0.200 F 
ATOM    104  F   UNL A   1      49.032  28.312  25.880  1.00  0.00    -0.200 F 
ENDBRANCH  71  94
ENDBRANCH  45  46
ENDBRANCH  37  40
ENDBRANCH  35  36
ENDBRANCH  34  35
ENDBRANCH   1  34
TORSDOF 15
ENDMDL
MODEL 3
REMARK VINA RESULT:     -13.8      6.212     10.478
REMARK SMILES COC(=O)c1ccc([C@H]2CC(=O)Nc3c(C(=O)NCCCCNC(=O)c4ccc(-c5c6nc(c(-c7c(F)c(F)c(F)c(F)c7F)c7ccc([nH]7)c(-c7c(F)c(F)c(F)c(F)c7F)c7nc(c(-c8c(F)c(F)c(F)c(F)c8F)c8ccc5[nH]8)C=C7)C=C6)cc4)cn(-c4ccccc4)c32)cc1
REMARK SMILES IDX 20 1 19 2 18 3 16 4 17 5 15 7 9 8 10 9 97 10 11 11 14 12
REMARK SMILES IDX 90 13 12 14 13 15 89 16 8 18 5 19 6 20 99 21 7 22 98 23 3 24
REMARK SMILES IDX 4 25 2 26 1 27 91 28 92 29 96 30 93 31 95 32 94 33 21 34
REMARK SMILES IDX 22 35 23 36 24 37 25 39 26 40 27 41 88 42 28 43 87 44 29 45
REMARK SMILES IDX 30 46 31 47 81 48 32 49 86 50 80 51 82 52 33 53 85 54 79 55
REMARK SMILES IDX 78 56 34 58 66 59 46 60 65 61 47 62 50 63 64 64 83 65 48 66
REMARK SMILES IDX 49 67 63 69 84 70 51 71 35 72 36 73 44 74 37 75 38 76 42 77
REMARK SMILES IDX 45 78 39 79 40 80 43 81 41 82 67 83 68 84 76 85 69 86 70 87
REMARK SMILES IDX 74 88 77 89 71 90 72 91 75 92 73 93 52 94 53 95 61 96 54 97
REMARK SMILES IDX 55 98 59 99 62 100 56 101 57 102 60 103 58 104
REMARK H PARENT 18 6 13 17 23 38 82 57 50 68
REMARK Flexibility Score: inf
ROOT
ATOM      1  C   UNL A   1      42.345  27.495  35.809  1.00  0.00     0.023 C 
ENDROOT
BRANCH   1   2
ATOM      2  C   UNL A   1      42.011  28.065  34.423  1.00  0.00     0.116 C 
BRANCH   2   3
ATOM      3  N   UNL A   1      40.803  27.495  33.883  1.00  0.00    -0.352 N 
ATOM      4  C   UNL A   1      39.638  28.017  33.390  1.00  0.00     0.254 C 
ATOM      5  O   UNL A   1      38.858  27.165  32.946  1.00  0.00    -0.269 OA
ATOM      6  H   UNL A   1      40.819  26.511  33.864  1.00  0.00     0.163 HD
BRANCH   4   7
ATOM      7  C   UNL A   1      39.265  29.442  33.359  1.00  0.00     0.081 A 
ATOM      8  C   UNL A   1      37.876  32.840  34.138  1.00  0.00     0.078 C 
ATOM      9  C   UNL A   1      37.429  32.596  35.585  1.00  0.00     0.115 C 
ATOM     10  C   UNL A   1      38.532  31.608  33.557  1.00  0.00     0.055 A 
ATOM     11  C   UNL A   1      38.230  31.570  36.335  1.00  0.00     0.225 C 
ATOM     12  C   UNL A   1      38.850  30.465  34.269  1.00  0.00     0.076 A 
ATOM     13  N   UNL A   1      38.914  31.409  32.242  1.00  0.00    -0.317 N 
ATOM     14  O   UNL A   1      38.336  31.595  37.561  1.00  0.00    -0.275 OA
ATOM     15  N   UNL A   1      38.725  30.511  35.635  1.00  0.00    -0.324 N 
ATOM     16  C   UNL A   1      39.233  30.081  32.114  1.00  0.00     0.107 A 
ATOM     17  H   UNL A   1      39.016  29.722  36.146  1.00  0.00     0.170 HD
BRANCH   8  18
ATOM     18  C   UNL A   1      36.657  33.384  33.387  1.00  0.00    -0.038 A 
ATOM     19  C   UNL A   1      34.533  34.462  31.876  1.00  0.00     0.060 A 
ATOM     20  C   UNL A   1      35.479  35.307  32.464  1.00  0.00     0.016 A 
ATOM     21  C   UNL A   1      34.607  33.086  32.106  1.00  0.00     0.016 A 
ATOM     22  C   UNL A   1      36.537  34.772  33.201  1.00  0.00     0.005 A 
ATOM     23  C   UNL A   1      35.633  32.561  32.893  1.00  0.00     0.005 A 
BRANCH  19  24
ATOM     24  C   UNL A   1      33.501  35.063  30.990  1.00  0.00     0.337 C 
ATOM     25  O   UNL A   1      32.877  36.065  31.266  1.00  0.00    -0.246 OA
BRANCH  24  26
ATOM     26  O   UNL A   1      33.389  34.338  29.845  1.00  0.00    -0.465 OA
ATOM     27  C   UNL A   1      34.197  34.817  28.773  1.00  0.00     0.282 C 
ENDBRANCH  24  26
ENDBRANCH  19  24
ENDBRANCH   8  18
BRANCH  13  28
ATOM     28  C   UNL A   1      38.850  32.340  31.173  1.00  0.00     0.045 A 
ATOM     29  C   UNL A   1      39.559  33.543  31.244  1.00  0.00     0.026 A 
ATOM     30  C   UNL A   1      37.958  32.106  30.118  1.00  0.00     0.026 A 
ATOM     31  C   UNL A   1      39.319  34.544  30.302  1.00  0.00     0.002 A 
ATOM     32  C   UNL A   1      37.698  33.126  29.202  1.00  0.00     0.002 A 
ATOM     33  C   UNL A   1      38.366  34.346  29.302  1.00  0.00     0.000 A 
ENDBRANCH  13  28
ENDBRANCH   4   7
ENDBRANCH   2   3
ENDBRANCH   1   2
BRANCH   1  34
ATOM     34  C   UNL A   1      41.418  26.362  36.279  1.00  0.00     0.023 C 
BRANCH  34  35
ATOM     35  C   UNL A   1      42.052  24.974  36.244  1.00  0.00     0.116 C 
BRANCH  35  36
ATOM     36  N   UNL A   1      43.280  24.867  37.042  1.00  0.00    -0.352 N 
ATOM     37  C   UNL A   1      44.516  24.391  36.629  1.00  0.00     0.251 C 
ATOM     38  H   UNL A   1      43.219  25.166  37.978  1.00  0.00     0.163 HD
ATOM     39  O   UNL A   1      45.336  23.939  37.417  1.00  0.00    -0.269 OA
BRANCH  37  40
ATOM     40  C   UNL A   1      44.832  24.492  35.198  1.00  0.00     0.039 A 
ATOM     41  C   UNL A   1      44.817  23.395  34.331  1.00  0.00     0.014 A 
ATOM     42  C   UNL A   1      45.054  25.782  34.732  1.00  0.00     0.014 A 
ATOM     43  C   UNL A   1      44.962  23.631  32.965  1.00  0.00     0.010 A 
ATOM     44  C   UNL A   1      44.952  26.023  33.395  1.00  0.00     0.010 A 
ATOM     45  C   UNL A   1      45.018  24.957  32.510  1.00  0.00    -0.014 A 
BRANCH  45  46
ATOM     46  C   UNL A   1      45.079  25.305  31.099  1.00  0.00     0.031 A 
ATOM     47  C   UNL A   1      46.129  26.295  30.746  1.00  0.00     0.074 A 
ATOM     48  C   UNL A   1      44.409  24.580  30.173  1.00  0.00     0.049 A 
ATOM     49  N   UNL A   1      45.960  27.492  30.293  1.00  0.00    -0.248 NA
ATOM     50  C   UNL A   1      47.531  25.973  31.057  1.00  0.00     0.031 C 
ATOM     51  C   UNL A   1      43.590  23.373  30.365  1.00  0.00     0.029 A 
ATOM     52  N   UNL A   1      44.408  24.716  28.823  1.00  0.00    -0.354 N 
ATOM     53  C   UNL A   1      47.235  28.006  30.070  1.00  0.00     0.074 A 
ATOM     54  C   UNL A   1      48.148  27.110  30.729  1.00  0.00     0.031 C 
ATOM     55  C   UNL A   1      43.379  22.766  29.176  1.00  0.00     0.029 A 
ATOM     56  C   UNL A   1      43.878  23.632  28.129  1.00  0.00     0.049 A 
ATOM     57  H   UNL A   1      44.755  25.519  28.370  1.00  0.00     0.167 HD
ATOM     58  C   UNL A   1      47.436  28.991  29.149  1.00  0.00     0.037 A 
ATOM     59  C   UNL A   1      43.876  23.462  26.785  1.00  0.00     0.037 A 
ATOM     60  C   UNL A   1      46.183  29.611  28.787  1.00  0.00     0.049 A 
ATOM     61  C   UNL A   1      44.080  24.804  26.181  1.00  0.00     0.074 A 
ATOM     62  C   UNL A   1      45.217  30.316  29.477  1.00  0.00     0.029 A 
ATOM     63  N   UNL A   1      45.582  29.198  27.623  1.00  0.00    -0.354 N 
ATOM     64  N   UNL A   1      43.212  25.775  26.283  1.00  0.00    -0.248 NA
ATOM     65  C   UNL A   1      45.451  25.216  25.920  1.00  0.00     0.031 C 
ATOM     66  C   UNL A   1      43.977  29.857  28.939  1.00  0.00     0.029 A 
ATOM     67  C   UNL A   1      44.259  28.971  27.898  1.00  0.00     0.049 A 
ATOM     68  H   UNL A   1      46.021  29.085  26.749  1.00  0.00     0.167 HD
ATOM     69  C   UNL A   1      43.974  26.907  26.530  1.00  0.00     0.074 A 
ATOM     70  C   UNL A   1      45.351  26.512  26.232  1.00  0.00     0.031 C 
ATOM     71  C   UNL A   1      43.466  27.959  27.238  1.00  0.00     0.037 A 
BRANCH  58  72
ATOM     72  C   UNL A   1      48.668  29.138  28.287  1.00  0.00     0.064 A 
ATOM     73  C   UNL A   1      49.063  28.050  27.479  1.00  0.00     0.173 A 
ATOM     74  C   UNL A   1      49.639  30.148  28.455  1.00  0.00     0.173 A 
ATOM     75  F   UNL A   1      48.221  27.030  27.246  1.00  0.00    -0.203 F 
ATOM     76  C   UNL A   1      50.360  27.933  26.975  1.00  0.00     0.198 A 
ATOM     77  C   UNL A   1      50.917  30.053  27.907  1.00  0.00     0.198 A 
ATOM     78  F   UNL A   1      49.439  31.211  29.241  1.00  0.00    -0.203 F 
ATOM     79  F   UNL A   1      50.727  26.814  26.335  1.00  0.00    -0.200 F 
ATOM     80  C   UNL A   1      51.291  28.929  27.201  1.00  0.00     0.200 A 
ATOM     81  F   UNL A   1      51.809  31.024  28.147  1.00  0.00    -0.200 F 
ATOM     82  F   UNL A   1      52.555  28.788  26.784  1.00  0.00    -0.200 F 
ENDBRANCH  58  72
BRANCH  59  83
ATOM     83  C   UNL A   1      44.071  22.199  26.034  1.00  0.00     0.064 A 
ATOM     84  C   UNL A   1      45.349  21.765  25.645  1.00  0.00     0.173 A 
ATOM     85  C   UNL A   1      43.030  21.254  25.923  1.00  0.00     0.173 A 
ATOM     86  F   UNL A   1      46.403  22.584  25.769  1.00  0.00    -0.203 F 
ATOM     87  C   UNL A   1      45.572  20.461  25.185  1.00  0.00     0.198 A 
ATOM     88  C   UNL A   1      43.254  19.955  25.463  1.00  0.00     0.198 A 
ATOM     89  F   UNL A   1      41.793  21.547  26.349  1.00  0.00    -0.203 F 
ATOM     90  F   UNL A   1      46.815  20.065  24.872  1.00  0.00    -0.200 F 
ATOM     91  C   UNL A   1      44.527  19.555  25.104  1.00  0.00     0.200 A 
ATOM     92  F   UNL A   1      42.241  19.078  25.432  1.00  0.00    -0.200 F 
ATOM     93  F   UNL A   1      44.751  18.290  24.721  1.00  0.00    -0.200 F 
ENDBRANCH  59  83
BRANCH  71  94
ATOM     94  C   UNL A   1      41.993  27.959  27.544  1.00  0.00     0.064 A 
ATOM     95  C   UNL A   1      41.425  27.390  28.698  1.00  0.00     0.173 A 
ATOM     96  C   UNL A   1      41.148  28.717  26.723  1.00  0.00     0.173 A 
ATOM     97  F   UNL A   1      42.179  26.731  29.583  1.00  0.00    -0.203 F 
ATOM     98  C   UNL A   1      40.072  27.549  28.997  1.00  0.00     0.198 A 
ATOM     99  C   UNL A   1      39.807  28.903  27.040  1.00  0.00     0.198 A 
ATOM    100  F   UNL A   1      41.646  29.331  25.638  1.00  0.00    -0.203 F 
ATOM    101  F   UNL A   1      39.558  26.995  30.106  1.00  0.00    -0.200 F 
ATOM    102  C   UNL A   1      39.266  28.314  28.172  1.00  0.00     0.200 A 
ATOM    103  F   UNL A   1      39.044  29.686  26.265  1.00  0.00    -0.200 F 
ATOM    104  F   UNL A   1      37.976  28.507  28.480  1.00  0.00    -0.200 F 
ENDBRANCH  71  94
ENDBRANCH  45  46
ENDBRANCH  37  40
ENDBRANCH  35  36
ENDBRANCH  34  35
ENDBRANCH   1  34
TORSDOF 15
ENDMDL
