MODEL 1
REMARK VINA RESULT:     -10.6      0.000      0.000
REMARK SMILES C=CCS(=O)(=O)N[C@H](CC(N)=O)C(=O)NCCCCNC(=O)c1ccc(-c2c3nc(c(-c4c(F)c(F)c(F)c(F)c4F)c4ccc([nH]4)c(-c4c(F)c(F)c(F)c(F)c4F)c4nc(c(-c5c(F)c(F)c(F)c(F)c5F)c5ccc2[nH]5)C=C4)C=C3)cc1
REMARK SMILES IDX 16 1 15 2 13 3 14 4 8 6 7 7 4 9 5 10 6 11 3 12 2 13 1 14
REMARK SMILES IDX 9 15 10 16 11 17 12 18 17 21 18 22 19 23 20 24 21 25 22 27
REMARK SMILES IDX 23 28 24 29 85 30 25 31 84 32 26 33 27 34 28 35 78 36 29 37
REMARK SMILES IDX 83 38 77 39 79 40 30 41 82 42 76 43 75 44 31 46 63 47 43 48
REMARK SMILES IDX 62 49 44 50 47 51 61 52 80 53 45 54 46 55 60 57 81 58 48 59
REMARK SMILES IDX 32 60 33 61 41 62 34 63 35 64 39 65 42 66 36 67 37 68 40 69
REMARK SMILES IDX 38 70 64 71 65 72 73 73 66 74 67 75 71 76 74 77 68 78 69 79
REMARK SMILES IDX 72 80 70 81 49 82 50 83 58 84 51 85 52 86 56 87 59 88 53 89
REMARK SMILES IDX 54 90 57 91 55 92
REMARK H PARENT 15 5 7 8 11 19 11 20 20 26 79 45 47 56
REMARK Flexibility Score: inf
ROOT
ATOM      1  C   UNL A   1      32.744  30.161  26.279  1.00  0.00     0.116 C 
ENDROOT
BRANCH   1   2
ATOM      2  N   UNL A   1      33.431  29.869  25.040  1.00  0.00    -0.355 N 
ATOM      3  C   UNL A   1      33.200  28.904  24.111  1.00  0.00     0.238 C 
ATOM      4  O   UNL A   1      33.923  28.889  23.109  1.00  0.00    -0.273 OA
ATOM      5  H   UNL A   1      34.188  30.464  24.836  1.00  0.00     0.163 HD
BRANCH   3   6
ATOM      6  C   UNL A   1      32.097  27.860  24.276  1.00  0.00     0.168 C 
BRANCH   6   7
ATOM      7  N   UNL A   1      30.694  28.332  24.202  1.00  0.00    -0.202 NA
ATOM      8  H   UNL A   1      30.244  28.010  25.058  1.00  0.00     0.141 HD
BRANCH   7   9
ATOM      9  S   UNL A   1      29.654  27.926  22.956  1.00  0.00     0.215 S 
ATOM     10  O   UNL A   1      28.573  27.121  23.484  1.00  0.00    -0.212 OA
ATOM     11  O   UNL A   1      30.536  27.364  21.956  1.00  0.00    -0.212 OA
BRANCH   9  12
ATOM     12  C   UNL A   1      29.012  29.491  22.312  1.00  0.00     0.180 C 
BRANCH  12  13
ATOM     13  C   UNL A   1      28.364  30.302  23.396  1.00  0.00    -0.017 C 
ATOM     14  C   UNL A   1      28.691  31.568  23.691  1.00  0.00     0.005 C 
ENDBRANCH  12  13
ENDBRANCH   9  12
ENDBRANCH   7   9
ENDBRANCH   6   7
BRANCH   6  15
ATOM     15  C   UNL A   1      32.281  26.891  25.451  1.00  0.00     0.129 C 
BRANCH  15  16
ATOM     16  C   UNL A   1      31.127  26.778  26.414  1.00  0.00     0.219 C 
ATOM     17  N   UNL A   1      30.167  25.866  26.086  1.00  0.00    -0.370 N 
ATOM     18  O   UNL A   1      31.036  27.440  27.440  1.00  0.00    -0.275 OA
ATOM     19  H   UNL A   1      30.250  25.339  25.259  1.00  0.00     0.159 HD
ATOM     20  H   UNL A   1      29.391  25.735  26.676  1.00  0.00     0.159 HD
ENDBRANCH  15  16
ENDBRANCH   6  15
ENDBRANCH   3   6
ENDBRANCH   1   2
BRANCH   1  21
ATOM     21  C   UNL A   1      31.483  30.983  26.024  1.00  0.00     0.023 C 
BRANCH  21  22
ATOM     22  C   UNL A   1      31.343  32.202  26.930  1.00  0.00     0.023 C 
BRANCH  22  23
ATOM     23  C   UNL A   1      32.612  33.029  27.059  1.00  0.00     0.116 C 
BRANCH  23  24
ATOM     24  N   UNL A   1      32.373  34.326  27.678  1.00  0.00    -0.352 N 
ATOM     25  C   UNL A   1      33.037  34.892  28.739  1.00  0.00     0.251 C 
ATOM     26  H   UNL A   1      31.645  34.864  27.289  1.00  0.00     0.163 HD
ATOM     27  O   UNL A   1      32.636  35.922  29.268  1.00  0.00    -0.269 OA
BRANCH  25  28
ATOM     28  C   UNL A   1      34.241  34.208  29.243  1.00  0.00     0.039 A 
ATOM     29  C   UNL A   1      35.500  34.617  28.800  1.00  0.00     0.014 A 
ATOM     30  C   UNL A   1      34.107  33.229  30.230  1.00  0.00     0.014 A 
ATOM     31  C   UNL A   1      36.640  34.085  29.404  1.00  0.00     0.010 A 
ATOM     32  C   UNL A   1      35.237  32.766  30.885  1.00  0.00     0.010 A 
ATOM     33  C   UNL A   1      36.514  33.183  30.473  1.00  0.00    -0.014 A 
BRANCH  33  34
ATOM     34  C   UNL A   1      37.694  32.607  31.161  1.00  0.00     0.031 A 
ATOM     35  C   UNL A   1      38.448  31.493  30.490  1.00  0.00     0.074 A 
ATOM     36  C   UNL A   1      38.023  33.005  32.404  1.00  0.00     0.049 A 
ATOM     37  N   UNL A   1      39.379  30.710  30.973  1.00  0.00    -0.248 NA
ATOM     38  C   UNL A   1      38.070  31.190  29.099  1.00  0.00     0.031 C 
ATOM     39  C   UNL A   1      37.347  34.054  33.168  1.00  0.00     0.029 A 
ATOM     40  N   UNL A   1      39.003  32.556  33.252  1.00  0.00    -0.354 N 
ATOM     41  C   UNL A   1      39.666  29.805  29.960  1.00  0.00     0.074 A 
ATOM     42  C   UNL A   1      38.779  30.099  28.857  1.00  0.00     0.031 C 
ATOM     43  C   UNL A   1      37.943  34.179  34.366  1.00  0.00     0.029 A 
ATOM     44  C   UNL A   1      39.012  33.191  34.470  1.00  0.00     0.049 A 
ATOM     45  H   UNL A   1      39.639  31.844  33.011  1.00  0.00     0.167 HD
ATOM     46  C   UNL A   1      40.606  28.832  29.942  1.00  0.00     0.037 A 
ATOM     47  C   UNL A   1      39.791  32.984  35.550  1.00  0.00     0.037 A 
ATOM     48  C   UNL A   1      41.518  28.578  31.024  1.00  0.00     0.049 A 
ATOM     49  C   UNL A   1      40.840  31.904  35.498  1.00  0.00     0.074 A 
ATOM     50  C   UNL A   1      42.532  27.640  31.097  1.00  0.00     0.029 A 
ATOM     51  N   UNL A   1      41.532  29.282  32.218  1.00  0.00    -0.354 N 
ATOM     52  N   UNL A   1      41.126  31.074  34.525  1.00  0.00    -0.248 NA
ATOM     53  C   UNL A   1      41.678  31.736  36.694  1.00  0.00     0.031 C 
ATOM     54  C   UNL A   1      43.148  27.763  32.347  1.00  0.00     0.029 A 
ATOM     55  C   UNL A   1      42.542  28.803  33.034  1.00  0.00     0.049 A 
ATOM     56  H   UNL A   1      40.915  30.014  32.452  1.00  0.00     0.167 HD
ATOM     57  C   UNL A   1      42.199  30.316  34.972  1.00  0.00     0.074 A 
ATOM     58  C   UNL A   1      42.516  30.786  36.305  1.00  0.00     0.031 C 
ATOM     59  C   UNL A   1      42.863  29.319  34.339  1.00  0.00     0.037 A 
BRANCH  46  60
ATOM     60  C   UNL A   1      40.704  27.987  28.706  1.00  0.00     0.064 A 
ATOM     61  C   UNL A   1      41.523  28.357  27.629  1.00  0.00     0.173 A 
ATOM     62  C   UNL A   1      39.988  26.786  28.604  1.00  0.00     0.173 A 
ATOM     63  F   UNL A   1      42.215  29.506  27.671  1.00  0.00    -0.203 F 
ATOM     64  C   UNL A   1      41.599  27.572  26.483  1.00  0.00     0.198 A 
ATOM     65  C   UNL A   1      40.090  25.986  27.468  1.00  0.00     0.198 A 
ATOM     66  F   UNL A   1      39.192  26.384  29.606  1.00  0.00    -0.203 F 
ATOM     67  F   UNL A   1      42.347  27.973  25.446  1.00  0.00    -0.200 F 
ATOM     68  C   UNL A   1      40.888  26.383  26.407  1.00  0.00     0.200 A 
ATOM     69  F   UNL A   1      39.412  24.832  27.400  1.00  0.00    -0.200 F 
ATOM     70  F   UNL A   1      40.968  25.624  25.305  1.00  0.00    -0.200 F 
ENDBRANCH  46  60
BRANCH  47  71
ATOM     71  C   UNL A   1      39.637  33.833  36.760  1.00  0.00     0.064 A 
ATOM     72  C   UNL A   1      38.838  33.409  37.832  1.00  0.00     0.173 A 
ATOM     73  C   UNL A   1      40.257  35.087  36.865  1.00  0.00     0.173 A 
ATOM     74  F   UNL A   1      38.207  32.227  37.769  1.00  0.00    -0.203 F 
ATOM     75  C   UNL A   1      38.641  34.219  38.949  1.00  0.00     0.198 A 
ATOM     76  C   UNL A   1      40.082  35.883  37.995  1.00  0.00     0.198 A 
ATOM     77  F   UNL A   1      41.035  35.537  35.870  1.00  0.00    -0.203 F 
ATOM     78  F   UNL A   1      37.830  33.810  39.934  1.00  0.00    -0.200 F 
ATOM     79  C   UNL A   1      39.266  35.453  39.032  1.00  0.00     0.200 A 
ATOM     80  F   UNL A   1      40.695  37.072  38.076  1.00  0.00    -0.200 F 
ATOM     81  F   UNL A   1      39.074  36.232  40.104  1.00  0.00    -0.200 F 
ENDBRANCH  47  71
BRANCH  59  82
ATOM     82  C   UNL A   1      44.044  28.720  35.042  1.00  0.00     0.064 A 
ATOM     83  C   UNL A   1      43.917  27.603  35.878  1.00  0.00     0.173 A 
ATOM     84  C   UNL A   1      45.330  29.237  34.818  1.00  0.00     0.173 A 
ATOM     85  F   UNL A   1      42.707  27.085  36.132  1.00  0.00    -0.203 F 
ATOM     86  C   UNL A   1      45.036  27.034  36.480  1.00  0.00     0.198 A 
ATOM     87  C   UNL A   1      46.448  28.648  35.400  1.00  0.00     0.198 A 
ATOM     88  F   UNL A   1      45.502  30.300  34.018  1.00  0.00    -0.203 F 
ATOM     89  F   UNL A   1      44.889  25.987  37.304  1.00  0.00    -0.200 F 
ATOM     90  C   UNL A   1      46.300  27.551  36.234  1.00  0.00     0.200 A 
ATOM     91  F   UNL A   1      47.669  29.140  35.150  1.00  0.00    -0.200 F 
ATOM     92  F   UNL A   1      47.375  26.991  36.804  1.00  0.00    -0.200 F 
ENDBRANCH  59  82
ENDBRANCH  33  34
ENDBRANCH  25  28
ENDBRANCH  23  24
ENDBRANCH  22  23
ENDBRANCH  21  22
ENDBRANCH   1  21
TORSDOF 17
ENDMDL
MODEL 2
REMARK VINA RESULT:     -10.4      1.249      2.425
REMARK SMILES C=CCS(=O)(=O)N[C@H](CC(N)=O)C(=O)NCCCCNC(=O)c1ccc(-c2c3nc(c(-c4c(F)c(F)c(F)c(F)c4F)c4ccc([nH]4)c(-c4c(F)c(F)c(F)c(F)c4F)c4nc(c(-c5c(F)c(F)c(F)c(F)c5F)c5ccc2[nH]5)C=C4)C=C3)cc1
REMARK SMILES IDX 16 1 15 2 13 3 14 4 8 6 7 7 4 9 5 10 6 11 3 12 2 13 1 14
REMARK SMILES IDX 9 15 10 16 11 17 12 18 17 21 18 22 19 23 20 24 21 25 22 27
REMARK SMILES IDX 23 28 24 29 85 30 25 31 84 32 26 33 27 34 28 35 78 36 29 37
REMARK SMILES IDX 83 38 77 39 79 40 30 41 82 42 76 43 75 44 31 46 63 47 43 48
REMARK SMILES IDX 62 49 44 50 47 51 61 52 80 53 45 54 46 55 60 57 81 58 48 59
REMARK SMILES IDX 32 60 33 61 41 62 34 63 35 64 39 65 42 66 36 67 37 68 40 69
REMARK SMILES IDX 38 70 64 71 65 72 73 73 66 74 67 75 71 76 74 77 68 78 69 79
REMARK SMILES IDX 72 80 70 81 49 82 50 83 58 84 51 85 52 86 56 87 59 88 53 89
REMARK SMILES IDX 54 90 57 91 55 92
REMARK H PARENT 15 5 7 8 11 19 11 20 20 26 79 45 47 56
REMARK Flexibility Score: inf
ROOT
ATOM      1  C   UNL A   1      32.663  29.765  26.028  1.00  0.00     0.116 C 
ENDROOT
BRANCH   1   2
ATOM      2  N   UNL A   1      33.528  29.637  24.876  1.00  0.00    -0.355 N 
ATOM      3  C   UNL A   1      33.545  28.705  23.886  1.00  0.00     0.238 C 
ATOM      4  O   UNL A   1      34.378  28.844  22.984  1.00  0.00    -0.273 OA
ATOM      5  H   UNL A   1      34.213  30.338  24.794  1.00  0.00     0.163 HD
BRANCH   3   6
ATOM      6  C   UNL A   1      32.585  27.518  23.867  1.00  0.00     0.168 C 
BRANCH   6   7
ATOM      7  N   UNL A   1      33.002  26.292  24.589  1.00  0.00    -0.202 NA
ATOM      8  H   UNL A   1      33.124  25.574  23.875  1.00  0.00     0.141 HD
BRANCH   7   9
ATOM      9  S   UNL A   1      32.089  25.585  25.799  1.00  0.00     0.215 S 
ATOM     10  O   UNL A   1      31.753  26.588  26.788  1.00  0.00    -0.212 OA
ATOM     11  O   UNL A   1      32.882  24.440  26.190  1.00  0.00    -0.212 OA
BRANCH   9  12
ATOM     12  C   UNL A   1      30.587  24.971  24.997  1.00  0.00     0.180 C 
BRANCH  12  13
ATOM     13  C   UNL A   1      29.494  26.000  25.025  1.00  0.00    -0.017 C 
ATOM     14  C   UNL A   1      28.772  26.366  23.957  1.00  0.00     0.005 C 
ENDBRANCH  12  13
ENDBRANCH   9  12
ENDBRANCH   7   9
ENDBRANCH   6   7
BRANCH   6  15
ATOM     15  C   UNL A   1      32.004  27.164  22.492  1.00  0.00     0.129 C 
BRANCH  15  16
ATOM     16  C   UNL A   1      32.580  25.950  21.812  1.00  0.00     0.219 C 
ATOM     17  N   UNL A   1      31.778  24.847  21.787  1.00  0.00    -0.370 N 
ATOM     18  O   UNL A   1      33.690  25.928  21.294  1.00  0.00    -0.275 OA
ATOM     19  H   UNL A   1      30.888  24.875  22.206  1.00  0.00     0.159 HD
ATOM     20  H   UNL A   1      32.090  24.021  21.350  1.00  0.00     0.159 HD
ENDBRANCH  15  16
ENDBRANCH   6  15
ENDBRANCH   3   6
ENDBRANCH   1   2
BRANCH   1  21
ATOM     21  C   UNL A   1      31.399  30.547  25.680  1.00  0.00     0.023 C 
BRANCH  21  22
ATOM     22  C   UNL A   1      31.201  31.810  26.512  1.00  0.00     0.023 C 
BRANCH  22  23
ATOM     23  C   UNL A   1      32.496  32.506  26.901  1.00  0.00     0.116 C 
BRANCH  23  24
ATOM     24  N   UNL A   1      32.273  33.849  27.421  1.00  0.00    -0.352 N 
ATOM     25  C   UNL A   1      32.976  34.504  28.403  1.00  0.00     0.251 C 
ATOM     26  H   UNL A   1      31.526  34.350  27.019  1.00  0.00     0.163 HD
ATOM     27  O   UNL A   1      32.590  35.572  28.861  1.00  0.00    -0.269 OA
BRANCH  25  28
ATOM     28  C   UNL A   1      34.204  33.867  28.911  1.00  0.00     0.039 A 
ATOM     29  C   UNL A   1      35.447  34.406  28.574  1.00  0.00     0.014 A 
ATOM     30  C   UNL A   1      34.100  32.798  29.803  1.00  0.00     0.014 A 
ATOM     31  C   UNL A   1      36.595  33.907  29.191  1.00  0.00     0.010 A 
ATOM     32  C   UNL A   1      35.230  32.363  30.476  1.00  0.00     0.010 A 
ATOM     33  C   UNL A   1      36.489  32.907  30.172  1.00  0.00    -0.014 A 
BRANCH  33  34
ATOM     34  C   UNL A   1      37.676  32.361  30.871  1.00  0.00     0.031 A 
ATOM     35  C   UNL A   1      38.460  31.260  30.212  1.00  0.00     0.074 A 
ATOM     36  C   UNL A   1      37.986  32.771  32.115  1.00  0.00     0.049 A 
ATOM     37  N   UNL A   1      39.404  30.500  30.705  1.00  0.00    -0.248 NA
ATOM     38  C   UNL A   1      38.099  30.943  28.819  1.00  0.00     0.031 C 
ATOM     39  C   UNL A   1      37.281  33.808  32.869  1.00  0.00     0.029 A 
ATOM     40  N   UNL A   1      38.970  32.348  32.973  1.00  0.00    -0.354 N 
ATOM     41  C   UNL A   1      39.719  29.598  29.699  1.00  0.00     0.074 A 
ATOM     42  C   UNL A   1      38.834  29.867  28.588  1.00  0.00     0.031 C 
ATOM     43  C   UNL A   1      37.865  33.953  34.071  1.00  0.00     0.029 A 
ATOM     44  C   UNL A   1      38.955  32.989  34.188  1.00  0.00     0.049 A 
ATOM     45  H   UNL A   1      39.623  31.649  32.740  1.00  0.00     0.167 HD
ATOM     46  C   UNL A   1      40.680  28.645  29.692  1.00  0.00     0.037 A 
ATOM     47  C   UNL A   1      39.730  32.804  35.274  1.00  0.00     0.037 A 
ATOM     48  C   UNL A   1      41.589  28.417  30.782  1.00  0.00     0.049 A 
ATOM     49  C   UNL A   1      40.803  31.747  35.236  1.00  0.00     0.074 A 
ATOM     50  C   UNL A   1      42.622  27.502  30.868  1.00  0.00     0.029 A 
ATOM     51  N   UNL A   1      41.578  29.127  31.973  1.00  0.00    -0.354 N 
ATOM     52  N   UNL A   1      41.114  30.919  34.269  1.00  0.00    -0.248 NA
ATOM     53  C   UNL A   1      41.635  31.603  36.438  1.00  0.00     0.031 C 
ATOM     54  C   UNL A   1      43.227  27.644  32.122  1.00  0.00     0.029 A 
ATOM     55  C   UNL A   1      42.592  28.674  32.799  1.00  0.00     0.049 A 
ATOM     56  H   UNL A   1      40.944  29.845  32.199  1.00  0.00     0.167 HD
ATOM     57  C   UNL A   1      42.201  30.187  34.728  1.00  0.00     0.074 A 
ATOM     58  C   UNL A   1      42.497  30.670  36.060  1.00  0.00     0.031 C 
ATOM     59  C   UNL A   1      42.892  29.202  34.104  1.00  0.00     0.037 A 
BRANCH  46  60
ATOM     60  C   UNL A   1      40.806  27.797  28.461  1.00  0.00     0.064 A 
ATOM     61  C   UNL A   1      40.119  26.581  28.337  1.00  0.00     0.173 A 
ATOM     62  C   UNL A   1      41.603  28.214  27.386  1.00  0.00     0.173 A 
ATOM     63  F   UNL A   1      39.356  26.131  29.345  1.00  0.00    -0.203 F 
ATOM     64  C   UNL A   1      40.249  25.797  27.195  1.00  0.00     0.198 A 
ATOM     65  C   UNL A   1      41.707  27.442  26.231  1.00  0.00     0.198 A 
ATOM     66  F   UNL A   1      42.280  29.371  27.451  1.00  0.00    -0.203 F 
ATOM     67  F   UNL A   1      39.625  24.613  27.121  1.00  0.00    -0.200 F 
ATOM     68  C   UNL A   1      41.037  26.232  26.140  1.00  0.00     0.200 A 
ATOM     69  F   UNL A   1      42.460  27.869  25.207  1.00  0.00    -0.200 F 
ATOM     70  F   UNL A   1      41.157  25.480  25.037  1.00  0.00    -0.200 F 
ENDBRANCH  46  60
BRANCH  47  71
ATOM     71  C   UNL A   1      39.548  33.655  36.480  1.00  0.00     0.064 A 
ATOM     72  C   UNL A   1      38.762  33.212  37.554  1.00  0.00     0.173 A 
ATOM     73  C   UNL A   1      40.126  34.929  36.576  1.00  0.00     0.173 A 
ATOM     74  F   UNL A   1      38.170  32.009  37.497  1.00  0.00    -0.203 F 
ATOM     75  C   UNL A   1      38.539  34.021  38.666  1.00  0.00     0.198 A 
ATOM     76  C   UNL A   1      39.925  35.726  37.702  1.00  0.00     0.198 A 
ATOM     77  F   UNL A   1      40.890  35.398  35.579  1.00  0.00    -0.203 F 
ATOM     78  F   UNL A   1      37.741  33.592  39.653  1.00  0.00    -0.200 F 
ATOM     79  C   UNL A   1      39.123  35.275  38.741  1.00  0.00     0.200 A 
ATOM     80  F   UNL A   1      40.499  36.934  37.776  1.00  0.00    -0.200 F 
ATOM     81  F   UNL A   1      38.905  36.054  39.809  1.00  0.00    -0.200 F 
ENDBRANCH  47  71
BRANCH  59  82
ATOM     82  C   UNL A   1      44.080  28.633  34.819  1.00  0.00     0.064 A 
ATOM     83  C   UNL A   1      45.349  29.219  34.722  1.00  0.00     0.173 A 
ATOM     84  C   UNL A   1      43.925  27.523  35.664  1.00  0.00     0.173 A 
ATOM     85  F   UNL A   1      45.547  30.271  33.917  1.00  0.00    -0.203 F 
ATOM     86  C   UNL A   1      46.428  28.702  35.435  1.00  0.00     0.198 A 
ATOM     87  C   UNL A   1      45.000  27.026  36.395  1.00  0.00     0.198 A 
ATOM     88  F   UNL A   1      42.727  26.933  35.794  1.00  0.00    -0.203 F 
ATOM     89  F   UNL A   1      47.641  29.255  35.304  1.00  0.00    -0.200 F 
ATOM     90  C   UNL A   1      46.250  27.613  36.277  1.00  0.00     0.200 A 
ATOM     91  F   UNL A   1      44.823  25.983  37.217  1.00  0.00    -0.200 F 
ATOM     92  F   UNL A   1      47.287  27.127  36.972  1.00  0.00    -0.200 F 
ENDBRANCH  59  82
ENDBRANCH  33  34
ENDBRANCH  25  28
ENDBRANCH  23  24
ENDBRANCH  22  23
ENDBRANCH  21  22
ENDBRANCH   1  21
TORSDOF 17
ENDMDL
MODEL 3
REMARK VINA RESULT:     -10.4      6.240     10.262
REMARK SMILES C=CCS(=O)(=O)N[C@H](CC(N)=O)C(=O)NCCCCNC(=O)c1ccc(-c2c3nc(c(-c4c(F)c(F)c(F)c(F)c4F)c4ccc([nH]4)c(-c4c(F)c(F)c(F)c(F)c4F)c4nc(c(-c5c(F)c(F)c(F)c(F)c5F)c5ccc2[nH]5)C=C4)C=C3)cc1
REMARK SMILES IDX 16 1 15 2 13 3 14 4 8 6 7 7 4 9 5 10 6 11 3 12 2 13 1 14
REMARK SMILES IDX 9 15 10 16 11 17 12 18 17 21 18 22 19 23 20 24 21 25 22 27
REMARK SMILES IDX 23 28 24 29 85 30 25 31 84 32 26 33 27 34 28 35 78 36 29 37
REMARK SMILES IDX 83 38 77 39 79 40 30 41 82 42 76 43 75 44 31 46 63 47 43 48
REMARK SMILES IDX 62 49 44 50 47 51 61 52 80 53 45 54 46 55 60 57 81 58 48 59
REMARK SMILES IDX 32 60 33 61 41 62 34 63 35 64 39 65 42 66 36 67 37 68 40 69
REMARK SMILES IDX 38 70 64 71 65 72 73 73 66 74 67 75 71 76 74 77 68 78 69 79
REMARK SMILES IDX 72 80 70 81 49 82 50 83 58 84 51 85 52 86 56 87 59 88 53 89
REMARK SMILES IDX 54 90 57 91 55 92
REMARK H PARENT 15 5 7 8 11 19 11 20 20 26 79 45 47 56
REMARK Flexibility Score: inf
ROOT
ATOM      1  C   UNL A   1      36.883  21.725  25.071  1.00  0.00     0.116 C 
ENDROOT
BRANCH   1   2
ATOM      2  N   UNL A   1      36.156  22.133  26.253  1.00  0.00    -0.355 N 
ATOM      3  C   UNL A   1      34.828  22.356  26.437  1.00  0.00     0.238 C 
ATOM      4  O   UNL A   1      34.452  22.669  27.572  1.00  0.00    -0.273 OA
ATOM      5  H   UNL A   1      36.712  22.271  27.053  1.00  0.00     0.163 HD
BRANCH   3   6
ATOM      6  C   UNL A   1      33.815  22.235  25.300  1.00  0.00     0.168 C 
BRANCH   6   7
ATOM      7  N   UNL A   1      33.854  21.001  24.480  1.00  0.00    -0.202 NA
ATOM      8  H   UNL A   1      34.085  21.302  23.533  1.00  0.00     0.141 HD
BRANCH   7   9
ATOM      9  S   UNL A   1      32.554  19.960  24.327  1.00  0.00     0.215 S 
ATOM     10  O   UNL A   1      32.208  19.835  22.927  1.00  0.00    -0.212 OA
ATOM     11  O   UNL A   1      31.582  20.502  25.253  1.00  0.00    -0.212 OA
BRANCH   9  12
ATOM     12  C   UNL A   1      33.111  18.367  24.979  1.00  0.00     0.180 C 
BRANCH  12  13
ATOM     13  C   UNL A   1      34.239  17.807  24.161  1.00  0.00    -0.017 C 
ATOM     14  C   UNL A   1      34.098  16.854  23.231  1.00  0.00     0.005 C 
ENDBRANCH  12  13
ENDBRANCH   9  12
ENDBRANCH   7   9
ENDBRANCH   6   7
BRANCH   6  15
ATOM     15  C   UNL A   1      33.680  23.475  24.406  1.00  0.00     0.129 C 
BRANCH  15  16
ATOM     16  C   UNL A   1      33.794  23.247  22.922  1.00  0.00     0.219 C 
ATOM     17  N   UNL A   1      32.621  23.021  22.264  1.00  0.00    -0.370 N 
ATOM     18  O   UNL A   1      34.857  23.271  22.314  1.00  0.00    -0.275 OA
ATOM     19  H   UNL A   1      31.772  23.003  22.763  1.00  0.00     0.159 HD
ATOM     20  H   UNL A   1      32.622  22.873  21.291  1.00  0.00     0.159 HD
ENDBRANCH  15  16
ENDBRANCH   6  15
ENDBRANCH   3   6
ENDBRANCH   1   2
BRANCH   1  21
ATOM     21  C   UNL A   1      37.093  20.214  25.052  1.00  0.00     0.023 C 
BRANCH  21  22
ATOM     22  C   UNL A   1      38.536  19.790  24.795  1.00  0.00     0.023 C 
BRANCH  22  23
ATOM     23  C   UNL A   1      39.492  20.124  25.929  1.00  0.00     0.116 C 
BRANCH  23  24
ATOM     24  N   UNL A   1      40.501  19.092  26.131  1.00  0.00    -0.352 N 
ATOM     25  C   UNL A   1      41.850  19.256  26.329  1.00  0.00     0.251 C 
ATOM     26  H   UNL A   1      40.176  18.163  26.124  1.00  0.00     0.163 HD
ATOM     27  O   UNL A   1      42.618  18.301  26.327  1.00  0.00    -0.269 OA
BRANCH  25  28
ATOM     28  C   UNL A   1      42.357  20.627  26.520  1.00  0.00     0.039 A 
ATOM     29  C   UNL A   1      42.646  21.416  25.406  1.00  0.00     0.014 A 
ATOM     30  C   UNL A   1      42.443  21.148  27.814  1.00  0.00     0.014 A 
ATOM     31  C   UNL A   1      42.961  22.762  25.588  1.00  0.00     0.010 A 
ATOM     32  C   UNL A   1      42.673  22.504  27.985  1.00  0.00     0.010 A 
ATOM     33  C   UNL A   1      42.941  23.322  26.875  1.00  0.00    -0.014 A 
BRANCH  33  34
ATOM     34  C   UNL A   1      43.247  24.752  27.118  1.00  0.00     0.031 A 
ATOM     35  C   UNL A   1      44.640  25.249  26.847  1.00  0.00     0.074 A 
ATOM     36  C   UNL A   1      42.325  25.566  27.663  1.00  0.00     0.049 A 
ATOM     37  N   UNL A   1      45.192  26.393  27.162  1.00  0.00    -0.248 NA
ATOM     38  C   UNL A   1      45.550  24.309  26.169  1.00  0.00     0.031 C 
ATOM     39  C   UNL A   1      40.951  25.190  27.999  1.00  0.00     0.029 A 
ATOM     40  N   UNL A   1      42.414  26.879  28.051  1.00  0.00    -0.354 N 
ATOM     41  C   UNL A   1      46.515  26.293  26.754  1.00  0.00     0.074 A 
ATOM     42  C   UNL A   1      46.700  24.963  26.218  1.00  0.00     0.031 C 
ATOM     43  C   UNL A   1      40.320  26.253  28.526  1.00  0.00     0.029 A 
ATOM     44  C   UNL A   1      41.257  27.369  28.607  1.00  0.00     0.049 A 
ATOM     45  H   UNL A   1      43.230  27.419  27.942  1.00  0.00     0.167 HD
ATOM     46  C   UNL A   1      47.483  27.237  26.798  1.00  0.00     0.037 A 
ATOM     47  C   UNL A   1      40.995  28.582  29.132  1.00  0.00     0.037 A 
ATOM     48  C   UNL A   1      47.278  28.573  27.288  1.00  0.00     0.049 A 
ATOM     49  C   UNL A   1      42.086  29.620  29.156  1.00  0.00     0.074 A 
ATOM     50  C   UNL A   1      48.180  29.620  27.346  1.00  0.00     0.029 A 
ATOM     51  N   UNL A   1      46.075  29.048  27.789  1.00  0.00    -0.354 N 
ATOM     52  N   UNL A   1      43.325  29.528  28.739  1.00  0.00    -0.248 NA
ATOM     53  C   UNL A   1      41.739  30.933  29.718  1.00  0.00     0.031 C 
ATOM     54  C   UNL A   1      47.528  30.725  27.902  1.00  0.00     0.029 A 
ATOM     55  C   UNL A   1      46.210  30.376  28.154  1.00  0.00     0.049 A 
ATOM     56  H   UNL A   1      45.249  28.519  27.873  1.00  0.00     0.167 HD
ATOM     57  C   UNL A   1      43.893  30.777  28.950  1.00  0.00     0.074 A 
ATOM     58  C   UNL A   1      42.862  31.613  29.529  1.00  0.00     0.031 C 
ATOM     59  C   UNL A   1      45.155  31.196  28.688  1.00  0.00     0.037 A 
BRANCH  46  60
ATOM     60  C   UNL A   1      48.842  26.859  26.287  1.00  0.00     0.064 A 
ATOM     61  C   UNL A   1      49.811  26.295  27.130  1.00  0.00     0.173 A 
ATOM     62  C   UNL A   1      49.173  27.043  24.937  1.00  0.00     0.173 A 
ATOM     63  F   UNL A   1      49.548  26.114  28.433  1.00  0.00    -0.203 F 
ATOM     64  C   UNL A   1      51.071  25.956  26.647  1.00  0.00     0.198 A 
ATOM     65  C   UNL A   1      50.424  26.675  24.450  1.00  0.00     0.198 A 
ATOM     66  F   UNL A   1      48.282  27.576  24.087  1.00  0.00    -0.203 F 
ATOM     67  F   UNL A   1      51.998  25.468  27.483  1.00  0.00    -0.200 F 
ATOM     68  C   UNL A   1      51.374  26.140  25.306  1.00  0.00     0.200 A 
ATOM     69  F   UNL A   1      50.713  26.841  23.151  1.00  0.00    -0.200 F 
ATOM     70  F   UNL A   1      52.586  25.807  24.841  1.00  0.00    -0.200 F 
ENDBRANCH  46  60
BRANCH  47  71
ATOM     71  C   UNL A   1      39.637  28.898  29.650  1.00  0.00     0.064 A 
ATOM     72  C   UNL A   1      39.302  28.627  30.984  1.00  0.00     0.173 A 
ATOM     73  C   UNL A   1      38.645  29.449  28.826  1.00  0.00     0.173 A 
ATOM     74  F   UNL A   1      40.211  28.079  31.804  1.00  0.00    -0.203 F 
ATOM     75  C   UNL A   1      38.017  28.867  31.468  1.00  0.00     0.198 A 
ATOM     76  C   UNL A   1      37.368  29.716  29.319  1.00  0.00     0.198 A 
ATOM     77  F   UNL A   1      38.915  29.732  27.544  1.00  0.00    -0.203 F 
ATOM     78  F   UNL A   1      37.710  28.549  32.732  1.00  0.00    -0.200 F 
ATOM     79  C   UNL A   1      37.053  29.414  30.637  1.00  0.00     0.200 A 
ATOM     80  F   UNL A   1      36.441  30.254  28.516  1.00  0.00    -0.200 F 
ATOM     81  F   UNL A   1      35.817  29.643  31.101  1.00  0.00    -0.200 F 
ENDBRANCH  47  71
BRANCH  59  82
ATOM     82  C   UNL A   1      45.473  32.637  28.953  1.00  0.00     0.064 A 
ATOM     83  C   UNL A   1      46.035  33.058  30.165  1.00  0.00     0.173 A 
ATOM     84  C   UNL A   1      45.270  33.596  27.948  1.00  0.00     0.173 A 
ATOM     85  F   UNL A   1      46.234  32.180  31.158  1.00  0.00    -0.203 F 
ATOM     86  C   UNL A   1      46.369  34.395  30.369  1.00  0.00     0.198 A 
ATOM     87  C   UNL A   1      45.629  34.925  28.146  1.00  0.00     0.198 A 
ATOM     88  F   UNL A   1      44.741  33.238  26.768  1.00  0.00    -0.203 F 
ATOM     89  F   UNL A   1      46.874  34.784  31.547  1.00  0.00    -0.200 F 
ATOM     90  C   UNL A   1      46.174  35.324  29.357  1.00  0.00     0.200 A 
ATOM     91  F   UNL A   1      45.453  35.819  27.164  1.00  0.00    -0.200 F 
ATOM     92  F   UNL A   1      46.509  36.607  29.552  1.00  0.00    -0.200 F 
ENDBRANCH  59  82
ENDBRANCH  33  34
ENDBRANCH  25  28
ENDBRANCH  23  24
ENDBRANCH  22  23
ENDBRANCH  21  22
ENDBRANCH   1  21
TORSDOF 17
ENDMDL
