MODEL 1
REMARK VINA RESULT:     -12.1      0.000      0.000
REMARK SMILES CC1(C(=O)N2CC(CC(=O)NCCCCNC(=O)c3ccc(-c4c5nc(c(-c6c(F)c(F)c(F)c(F)c6F)c6ccc([nH]6)c(-c6c(F)c(F)c(F)c(F)c6F)c6nc(c(-c7c(F)c(F)c(F)c(F)c7F)c7ccc4[nH]7)C=C6)C=C5)cc3)C2)CCCC1
REMARK SMILES IDX 13 1 12 2 11 3 9 4 10 5 8 7 7 8 3 9 4 10 5 11 6 12 82 13
REMARK SMILES IDX 2 14 1 15 83 16 86 17 84 18 85 19 14 20 15 21 16 22 17 23
REMARK SMILES IDX 18 25 19 26 20 27 81 28 21 29 80 30 22 31 23 32 24 33 74 34
REMARK SMILES IDX 25 35 79 36 73 37 75 38 26 39 78 40 72 41 71 42 27 44 59 45
REMARK SMILES IDX 39 46 58 47 40 48 43 49 57 50 76 51 41 52 42 53 56 55 77 56
REMARK SMILES IDX 44 57 28 58 29 59 37 60 30 61 31 62 35 63 38 64 32 65 33 66
REMARK SMILES IDX 36 67 34 68 60 69 61 70 69 71 62 72 63 73 67 74 70 75 64 76
REMARK SMILES IDX 65 77 68 78 66 79 45 80 46 81 54 82 47 83 48 84 52 85 55 86
REMARK SMILES IDX 49 87 50 88 53 89 51 90
REMARK H PARENT 11 6 16 24 75 43 43 54
REMARK Flexibility Score: inf
ROOT
ATOM      1  C   UNL A   1      31.751  30.544  26.636  1.00  0.00     0.023 C 
ENDROOT
BRANCH   1   2
ATOM      2  C   UNL A   1      33.185  30.075  26.385  1.00  0.00     0.116 C 
BRANCH   2   3
ATOM      3  N   UNL A   1      33.307  29.474  25.073  1.00  0.00    -0.356 N 
ATOM      4  C   UNL A   1      33.523  28.174  24.729  1.00  0.00     0.220 C 
ATOM      5  O   UNL A   1      33.733  27.916  23.542  1.00  0.00    -0.275 OA
ATOM      6  H   UNL A   1      33.219  30.099  24.316  1.00  0.00     0.163 HD
BRANCH   4   7
ATOM      7  C   UNL A   1      33.515  27.075  25.774  1.00  0.00     0.107 C 
BRANCH   7   8
ATOM      8  C   UNL A   1      33.435  25.670  25.188  1.00  0.00     0.037 C 
ATOM      9  C   UNL A   1      34.625  22.532  25.167  1.00  0.00     0.228 C 
ATOM     10  O   UNL A   1      33.790  21.673  25.453  1.00  0.00    -0.274 OA
ATOM     11  N   UNL A   1      34.377  23.850  25.432  1.00  0.00    -0.342 N 
ATOM     12  C   UNL A   1      33.288  24.480  26.159  1.00  0.00     0.125 C 
ATOM     13  C   UNL A   1      34.778  25.056  24.763  1.00  0.00     0.125 C 
BRANCH   9  14
ATOM     14  C   UNL A   1      36.049  22.154  24.676  1.00  0.00     0.047 C 
ATOM     15  C   UNL A   1      36.421  22.614  23.256  1.00  0.00     0.022 C 
ATOM     16  C   UNL A   1      36.288  20.633  24.784  1.00  0.00     0.016 C 
ATOM     17  C   UNL A   1      37.055  22.695  25.709  1.00  0.00     0.016 C 
ATOM     18  C   UNL A   1      37.790  20.473  25.005  1.00  0.00     0.001 C 
ATOM     19  C   UNL A   1      38.265  21.768  25.654  1.00  0.00     0.001 C 
ENDBRANCH   9  14
ENDBRANCH   7   8
ENDBRANCH   4   7
ENDBRANCH   2   3
ENDBRANCH   1   2
BRANCH   1  20
ATOM     20  C   UNL A   1      31.546  32.051  26.701  1.00  0.00     0.023 C 
BRANCH  20  21
ATOM     21  C   UNL A   1      32.724  32.840  27.246  1.00  0.00     0.116 C 
BRANCH  21  22
ATOM     22  N   UNL A   1      32.396  34.207  27.627  1.00  0.00    -0.352 N 
ATOM     23  C   UNL A   1      32.977  34.981  28.604  1.00  0.00     0.251 C 
ATOM     24  H   UNL A   1      31.664  34.630  27.122  1.00  0.00     0.163 HD
ATOM     25  O   UNL A   1      32.538  36.098  28.860  1.00  0.00    -0.269 OA
BRANCH  23  26
ATOM     26  C   UNL A   1      34.108  34.429  29.379  1.00  0.00     0.039 A 
ATOM     27  C   UNL A   1      33.840  33.690  30.533  1.00  0.00     0.014 A 
ATOM     28  C   UNL A   1      35.419  34.575  28.919  1.00  0.00     0.014 A 
ATOM     29  C   UNL A   1      34.883  33.021  31.177  1.00  0.00     0.010 A 
ATOM     30  C   UNL A   1      36.437  33.838  29.507  1.00  0.00     0.010 A 
ATOM     31  C   UNL A   1      36.179  33.051  30.641  1.00  0.00    -0.014 A 
BRANCH  31  32
ATOM     32  C   UNL A   1      37.291  32.274  31.244  1.00  0.00     0.031 A 
ATOM     33  C   UNL A   1      37.785  32.625  32.618  1.00  0.00     0.074 A 
ATOM     34  C   UNL A   1      37.910  31.320  30.522  1.00  0.00     0.049 A 
ATOM     35  N   UNL A   1      38.811  32.148  33.276  1.00  0.00    -0.248 NA
ATOM     36  C   UNL A   1      37.051  33.681  33.334  1.00  0.00     0.031 C 
ATOM     37  C   UNL A   1      37.561  30.929  29.155  1.00  0.00     0.029 A 
ATOM     38  N   UNL A   1      38.977  30.515  30.834  1.00  0.00    -0.354 N 
ATOM     39  C   UNL A   1      38.863  32.867  34.462  1.00  0.00     0.074 A 
ATOM     40  C   UNL A   1      37.798  33.844  34.416  1.00  0.00     0.031 C 
ATOM     41  C   UNL A   1      38.380  29.942  28.757  1.00  0.00     0.029 A 
ATOM     42  C   UNL A   1      39.334  29.655  29.824  1.00  0.00     0.049 A 
ATOM     43  H   UNL A   1      39.443  30.551  31.700  1.00  0.00     0.167 HD
ATOM     44  C   UNL A   1      39.710  32.711  35.507  1.00  0.00     0.037 A 
ATOM     45  C   UNL A   1      40.322  28.742  29.768  1.00  0.00     0.037 A 
ATOM     46  C   UNL A   1      40.731  31.700  35.574  1.00  0.00     0.049 A 
ATOM     47  C   UNL A   1      41.228  28.567  30.956  1.00  0.00     0.074 A 
ATOM     48  C   UNL A   1      41.580  31.400  36.625  1.00  0.00     0.029 A 
ATOM     49  N   UNL A   1      41.036  30.821  34.546  1.00  0.00    -0.354 N 
ATOM     50  N   UNL A   1      41.221  29.202  32.102  1.00  0.00    -0.248 NA
ATOM     51  C   UNL A   1      42.277  27.544  30.843  1.00  0.00     0.031 C 
ATOM     52  C   UNL A   1      42.421  30.358  36.220  1.00  0.00     0.029 A 
ATOM     53  C   UNL A   1      42.072  29.987  34.933  1.00  0.00     0.049 A 
ATOM     54  H   UNL A   1      40.583  30.794  33.672  1.00  0.00     0.167 HD
ATOM     55  C   UNL A   1      42.239  28.638  32.857  1.00  0.00     0.074 A 
ATOM     56  C   UNL A   1      42.839  27.601  32.042  1.00  0.00     0.031 C 
ATOM     57  C   UNL A   1      42.642  28.950  34.113  1.00  0.00     0.037 A 
BRANCH  44  58
ATOM     58  C   UNL A   1      39.560  33.648  36.669  1.00  0.00     0.064 A 
ATOM     59  C   UNL A   1      40.189  34.901  36.689  1.00  0.00     0.173 A 
ATOM     60  C   UNL A   1      38.749  33.301  37.760  1.00  0.00     0.173 A 
ATOM     61  F   UNL A   1      40.987  35.273  35.677  1.00  0.00    -0.203 F 
ATOM     62  C   UNL A   1      40.036  35.762  37.773  1.00  0.00     0.198 A 
ATOM     63  C   UNL A   1      38.575  34.176  38.828  1.00  0.00     0.198 A 
ATOM     64  F   UNL A   1      38.123  32.115  37.788  1.00  0.00    -0.203 F 
ATOM     65  F   UNL A   1      40.686  36.933  37.793  1.00  0.00    -0.200 F 
ATOM     66  C   UNL A   1      39.224  35.401  38.838  1.00  0.00     0.200 A 
ATOM     67  F   UNL A   1      37.782  33.831  39.853  1.00  0.00    -0.200 F 
ATOM     68  F   UNL A   1      39.072  36.234  39.878  1.00  0.00    -0.200 F 
ENDBRANCH  44  58
BRANCH  45  69
ATOM     69  C   UNL A   1      40.486  27.894  28.559  1.00  0.00     0.064 A 
ATOM     70  C   UNL A   1      41.263  28.334  27.478  1.00  0.00     0.173 A 
ATOM     71  C   UNL A   1      39.868  26.641  28.451  1.00  0.00     0.173 A 
ATOM     72  F   UNL A   1      41.857  29.537  27.528  1.00  0.00    -0.203 F 
ATOM     73  C   UNL A   1      41.398  27.563  26.326  1.00  0.00     0.198 A 
ATOM     74  C   UNL A   1      40.023  25.859  27.308  1.00  0.00     0.198 A 
ATOM     75  F   UNL A   1      39.117  26.173  29.459  1.00  0.00    -0.203 F 
ATOM     76  F   UNL A   1      42.110  28.028  25.291  1.00  0.00    -0.200 F 
ATOM     77  C   UNL A   1      40.782  26.324  26.243  1.00  0.00     0.200 A 
ATOM     78  F   UNL A   1      39.435  24.657  27.235  1.00  0.00    -0.200 F 
ATOM     79  F   UNL A   1      40.912  25.582  25.136  1.00  0.00    -0.200 F 
ENDBRANCH  45  69
BRANCH  57  80
ATOM     80  C   UNL A   1      43.756  28.136  34.699  1.00  0.00     0.064 A 
ATOM     81  C   UNL A   1      43.507  26.940  35.388  1.00  0.00     0.173 A 
ATOM     82  C   UNL A   1      45.090  28.534  34.528  1.00  0.00     0.173 A 
ATOM     83  F   UNL A   1      42.246  26.528  35.589  1.00  0.00    -0.203 F 
ATOM     84  C   UNL A   1      44.555  26.181  35.902  1.00  0.00     0.198 A 
ATOM     85  C   UNL A   1      46.136  27.759  35.021  1.00  0.00     0.198 A 
ATOM     86  F   UNL A   1      45.379  29.667  33.872  1.00  0.00    -0.203 F 
ATOM     87  F   UNL A   1      44.293  25.062  36.591  1.00  0.00    -0.200 F 
ATOM     88  C   UNL A   1      45.868  26.588  35.711  1.00  0.00     0.200 A 
ATOM     89  F   UNL A   1      47.405  28.146  34.826  1.00  0.00    -0.200 F 
ATOM     90  F   UNL A   1      46.875  25.851  36.200  1.00  0.00    -0.200 F 
ENDBRANCH  57  80
ENDBRANCH  31  32
ENDBRANCH  23  26
ENDBRANCH  21  22
ENDBRANCH  20  21
ENDBRANCH   1  20
TORSDOF 13
ENDMDL
MODEL 2
REMARK VINA RESULT:     -12.1      3.696      5.274
REMARK SMILES CC1(C(=O)N2CC(CC(=O)NCCCCNC(=O)c3ccc(-c4c5nc(c(-c6c(F)c(F)c(F)c(F)c6F)c6ccc([nH]6)c(-c6c(F)c(F)c(F)c(F)c6F)c6nc(c(-c7c(F)c(F)c(F)c(F)c7F)c7ccc4[nH]7)C=C6)C=C5)cc3)C2)CCCC1
REMARK SMILES IDX 13 1 12 2 11 3 9 4 10 5 8 7 7 8 3 9 4 10 5 11 6 12 82 13
REMARK SMILES IDX 2 14 1 15 83 16 86 17 84 18 85 19 14 20 15 21 16 22 17 23
REMARK SMILES IDX 18 25 19 26 20 27 81 28 21 29 80 30 22 31 23 32 24 33 74 34
REMARK SMILES IDX 25 35 79 36 73 37 75 38 26 39 78 40 72 41 71 42 27 44 59 45
REMARK SMILES IDX 39 46 58 47 40 48 43 49 57 50 76 51 41 52 42 53 56 55 77 56
REMARK SMILES IDX 44 57 28 58 29 59 37 60 30 61 31 62 35 63 38 64 32 65 33 66
REMARK SMILES IDX 36 67 34 68 60 69 61 70 69 71 62 72 63 73 67 74 70 75 64 76
REMARK SMILES IDX 65 77 68 78 66 79 45 80 46 81 54 82 47 83 48 84 52 85 55 86
REMARK SMILES IDX 49 87 50 88 53 89 51 90
REMARK H PARENT 11 6 16 24 75 43 43 54
REMARK Flexibility Score: inf
ROOT
ATOM      1  C   UNL A   1      31.564  27.877  25.950  1.00  0.00     0.023 C 
ENDROOT
BRANCH   1   2
ATOM      2  C   UNL A   1      31.353  26.455  25.430  1.00  0.00     0.116 C 
BRANCH   2   3
ATOM      3  N   UNL A   1      31.548  25.486  26.489  1.00  0.00    -0.356 N 
ATOM      4  C   UNL A   1      31.292  24.148  26.502  1.00  0.00     0.220 C 
ATOM      5  O   UNL A   1      31.407  23.547  27.571  1.00  0.00    -0.275 OA
ATOM      6  H   UNL A   1      31.924  25.849  27.324  1.00  0.00     0.163 HD
BRANCH   4   7
ATOM      7  C   UNL A   1      30.869  23.419  25.242  1.00  0.00     0.107 C 
BRANCH   7   8
ATOM      8  C   UNL A   1      31.973  22.569  24.623  1.00  0.00     0.037 C 
ATOM      9  C   UNL A   1      35.103  21.379  24.848  1.00  0.00     0.228 C 
ATOM     10  O   UNL A   1      35.174  20.149  24.876  1.00  0.00    -0.274 OA
ATOM     11  N   UNL A   1      33.907  22.005  25.067  1.00  0.00    -0.342 N 
ATOM     12  C   UNL A   1      32.622  21.470  25.489  1.00  0.00     0.125 C 
ATOM     13  C   UNL A   1      33.358  23.231  24.560  1.00  0.00     0.125 C 
BRANCH   9  14
ATOM     14  C   UNL A   1      36.371  22.268  24.750  1.00  0.00     0.047 C 
ATOM     15  C   UNL A   1      36.650  22.902  23.377  1.00  0.00     0.022 C 
ATOM     16  C   UNL A   1      37.627  21.496  25.205  1.00  0.00     0.016 C 
ATOM     17  C   UNL A   1      36.266  23.348  25.842  1.00  0.00     0.016 C 
ATOM     18  C   UNL A   1      38.576  22.554  25.762  1.00  0.00     0.001 C 
ATOM     19  C   UNL A   1      37.697  23.710  26.226  1.00  0.00     0.001 C 
ENDBRANCH   9  14
ENDBRANCH   7   8
ENDBRANCH   4   7
ENDBRANCH   2   3
ENDBRANCH   1   2
BRANCH   1  20
ATOM     20  C   UNL A   1      32.278  27.996  27.289  1.00  0.00     0.023 C 
BRANCH  20  21
ATOM     21  C   UNL A   1      33.630  28.687  27.241  1.00  0.00     0.116 C 
BRANCH  21  22
ATOM     22  N   UNL A   1      33.605  30.071  27.694  1.00  0.00    -0.352 N 
ATOM     23  C   UNL A   1      34.615  30.789  28.292  1.00  0.00     0.251 C 
ATOM     24  H   UNL A   1      32.757  30.553  27.557  1.00  0.00     0.163 HD
ATOM     25  O   UNL A   1      34.417  31.933  28.689  1.00  0.00    -0.269 OA
BRANCH  23  26
ATOM     26  C   UNL A   1      35.929  30.146  28.495  1.00  0.00     0.039 A 
ATOM     27  C   UNL A   1      36.876  30.204  27.471  1.00  0.00     0.014 A 
ATOM     28  C   UNL A   1      36.248  29.563  29.723  1.00  0.00     0.014 A 
ATOM     29  C   UNL A   1      38.176  29.753  27.711  1.00  0.00     0.010 A 
ATOM     30  C   UNL A   1      37.561  29.198  29.989  1.00  0.00     0.010 A 
ATOM     31  C   UNL A   1      38.539  29.292  28.986  1.00  0.00    -0.014 A 
BRANCH  31  32
ATOM     32  C   UNL A   1      39.934  28.896  29.304  1.00  0.00     0.031 A 
ATOM     33  C   UNL A   1      40.817  29.835  30.076  1.00  0.00     0.074 A 
ATOM     34  C   UNL A   1      40.429  27.740  28.821  1.00  0.00     0.049 A 
ATOM     35  N   UNL A   1      42.090  29.731  30.359  1.00  0.00    -0.248 NA
ATOM     36  C   UNL A   1      40.194  31.076  30.563  1.00  0.00     0.031 C 
ATOM     37  C   UNL A   1      39.689  26.774  28.008  1.00  0.00     0.029 A 
ATOM     38  N   UNL A   1      41.682  27.190  28.931  1.00  0.00    -0.354 N 
ATOM     39  C   UNL A   1      42.425  30.903  31.023  1.00  0.00     0.074 A 
ATOM     40  C   UNL A   1      41.236  31.725  31.063  1.00  0.00     0.031 C 
ATOM     41  C   UNL A   1      40.493  25.737  27.716  1.00  0.00     0.029 A 
ATOM     42  C   UNL A   1      41.812  25.982  28.289  1.00  0.00     0.049 A 
ATOM     43  H   UNL A   1      42.417  27.620  29.424  1.00  0.00     0.167 HD
ATOM     44  C   UNL A   1      43.612  31.251  31.573  1.00  0.00     0.037 A 
ATOM     45  C   UNL A   1      42.880  25.169  28.176  1.00  0.00     0.037 A 
ATOM     46  C   UNL A   1      44.776  30.406  31.583  1.00  0.00     0.049 A 
ATOM     47  C   UNL A   1      44.177  25.567  28.824  1.00  0.00     0.074 A 
ATOM     48  C   UNL A   1      45.997  30.629  32.193  1.00  0.00     0.029 A 
ATOM     49  N   UNL A   1      44.857  29.172  30.957  1.00  0.00    -0.354 N 
ATOM     50  N   UNL A   1      44.462  26.643  29.515  1.00  0.00    -0.248 NA
ATOM     51  C   UNL A   1      45.302  24.632  28.681  1.00  0.00     0.031 C 
ATOM     52  C   UNL A   1      46.831  29.542  31.908  1.00  0.00     0.029 A 
ATOM     53  C   UNL A   1      46.115  28.627  31.152  1.00  0.00     0.049 A 
ATOM     54  H   UNL A   1      44.129  28.746  30.449  1.00  0.00     0.167 HD
ATOM     55  C   UNL A   1      45.783  26.503  29.913  1.00  0.00     0.074 A 
ATOM     56  C   UNL A   1      46.244  25.231  29.396  1.00  0.00     0.031 C 
ATOM     57  C   UNL A   1      46.548  27.352  30.643  1.00  0.00     0.037 A 
BRANCH  44  58
ATOM     58  C   UNL A   1      43.707  32.601  32.220  1.00  0.00     0.064 A 
ATOM     59  C   UNL A   1      43.393  32.792  33.574  1.00  0.00     0.173 A 
ATOM     60  C   UNL A   1      44.151  33.710  31.485  1.00  0.00     0.173 A 
ATOM     61  F   UNL A   1      42.950  31.765  34.315  1.00  0.00    -0.203 F 
ATOM     62  C   UNL A   1      43.491  34.050  34.161  1.00  0.00     0.198 A 
ATOM     63  C   UNL A   1      44.275  34.961  32.083  1.00  0.00     0.198 A 
ATOM     64  F   UNL A   1      44.467  33.581  30.188  1.00  0.00    -0.203 F 
ATOM     65  F   UNL A   1      43.138  34.219  35.443  1.00  0.00    -0.200 F 
ATOM     66  C   UNL A   1      43.938  35.132  33.417  1.00  0.00     0.200 A 
ATOM     67  F   UNL A   1      44.717  36.004  31.367  1.00  0.00    -0.200 F 
ATOM     68  F   UNL A   1      44.038  36.342  33.986  1.00  0.00    -0.200 F 
ENDBRANCH  44  58
BRANCH  45  69
ATOM     69  C   UNL A   1      42.759  23.879  27.450  1.00  0.00     0.064 A 
ATOM     70  C   UNL A   1      43.085  23.792  26.089  1.00  0.00     0.173 A 
ATOM     71  C   UNL A   1      42.311  22.715  28.089  1.00  0.00     0.173 A 
ATOM     72  F   UNL A   1      43.499  24.885  25.430  1.00  0.00    -0.203 F 
ATOM     73  C   UNL A   1      42.946  22.595  25.390  1.00  0.00     0.198 A 
ATOM     74  C   UNL A   1      42.196  21.512  27.394  1.00  0.00     0.198 A 
ATOM     75  F   UNL A   1      41.991  22.744  29.391  1.00  0.00    -0.203 F 
ATOM     76  F   UNL A   1      43.222  22.552  24.079  1.00  0.00    -0.200 F 
ATOM     77  C   UNL A   1      42.506  21.455  26.043  1.00  0.00     0.200 A 
ATOM     78  F   UNL A   1      41.780  20.410  28.032  1.00  0.00    -0.200 F 
ATOM     79  F   UNL A   1      42.372  20.304  25.371  1.00  0.00    -0.200 F 
ENDBRANCH  45  69
BRANCH  57  80
ATOM     80  C   UNL A   1      47.947  26.916  30.960  1.00  0.00     0.064 A 
ATOM     81  C   UNL A   1      48.223  26.070  32.043  1.00  0.00     0.173 A 
ATOM     82  C   UNL A   1      49.015  27.313  30.143  1.00  0.00     0.173 A 
ATOM     83  F   UNL A   1      47.236  25.678  32.862  1.00  0.00    -0.203 F 
ATOM     84  C   UNL A   1      49.525  25.652  32.308  1.00  0.00     0.198 A 
ATOM     85  C   UNL A   1      50.310  26.872  30.395  1.00  0.00     0.198 A 
ATOM     86  F   UNL A   1      48.799  28.118  29.091  1.00  0.00    -0.203 F 
ATOM     87  F   UNL A   1      49.773  24.874  33.371  1.00  0.00    -0.200 F 
ATOM     88  C   UNL A   1      50.565  26.047  31.479  1.00  0.00     0.200 A 
ATOM     89  F   UNL A   1      51.313  27.244  29.587  1.00  0.00    -0.200 F 
ATOM     90  F   UNL A   1      51.815  25.636  31.731  1.00  0.00    -0.200 F 
ENDBRANCH  57  80
ENDBRANCH  31  32
ENDBRANCH  23  26
ENDBRANCH  21  22
ENDBRANCH  20  21
ENDBRANCH   1  20
TORSDOF 13
ENDMDL
MODEL 3
REMARK VINA RESULT:     -12.1      1.918      3.296
REMARK SMILES CC1(C(=O)N2CC(CC(=O)NCCCCNC(=O)c3ccc(-c4c5nc(c(-c6c(F)c(F)c(F)c(F)c6F)c6ccc([nH]6)c(-c6c(F)c(F)c(F)c(F)c6F)c6nc(c(-c7c(F)c(F)c(F)c(F)c7F)c7ccc4[nH]7)C=C6)C=C5)cc3)C2)CCCC1
REMARK SMILES IDX 13 1 12 2 11 3 9 4 10 5 8 7 7 8 3 9 4 10 5 11 6 12 82 13
REMARK SMILES IDX 2 14 1 15 83 16 86 17 84 18 85 19 14 20 15 21 16 22 17 23
REMARK SMILES IDX 18 25 19 26 20 27 81 28 21 29 80 30 22 31 23 32 24 33 74 34
REMARK SMILES IDX 25 35 79 36 73 37 75 38 26 39 78 40 72 41 71 42 27 44 59 45
REMARK SMILES IDX 39 46 58 47 40 48 43 49 57 50 76 51 41 52 42 53 56 55 77 56
REMARK SMILES IDX 44 57 28 58 29 59 37 60 30 61 31 62 35 63 38 64 32 65 33 66
REMARK SMILES IDX 36 67 34 68 60 69 61 70 69 71 62 72 63 73 67 74 70 75 64 76
REMARK SMILES IDX 65 77 68 78 66 79 45 80 46 81 54 82 47 83 48 84 52 85 55 86
REMARK SMILES IDX 49 87 50 88 53 89 51 90
REMARK H PARENT 11 6 16 24 75 43 43 54
REMARK Flexibility Score: inf
ROOT
ATOM      1  C   UNL A   1      32.180  27.743  26.811  1.00  0.00     0.023 C 
ENDROOT
BRANCH   1   2
ATOM      2  C   UNL A   1      31.754  26.534  25.978  1.00  0.00     0.116 C 
BRANCH   2   3
ATOM      3  N   UNL A   1      31.565  25.371  26.820  1.00  0.00    -0.356 N 
ATOM      4  C   UNL A   1      31.113  24.127  26.497  1.00  0.00     0.220 C 
ATOM      5  O   UNL A   1      30.900  23.331  27.413  1.00  0.00    -0.275 OA
ATOM      6  H   UNL A   1      31.800  25.498  27.768  1.00  0.00     0.163 HD
BRANCH   4   7
ATOM      7  C   UNL A   1      30.870  23.733  25.053  1.00  0.00     0.107 C 
BRANCH   7   8
ATOM      8  C   UNL A   1      31.946  22.819  24.475  1.00  0.00     0.037 C 
ATOM      9  C   UNL A   1      35.010  21.486  24.795  1.00  0.00     0.228 C 
ATOM     10  O   UNL A   1      35.022  20.255  24.849  1.00  0.00    -0.274 OA
ATOM     11  N   UNL A   1      33.840  22.172  24.975  1.00  0.00    -0.342 N 
ATOM     12  C   UNL A   1      32.523  21.708  25.377  1.00  0.00     0.125 C 
ATOM     13  C   UNL A   1      33.362  23.413  24.432  1.00  0.00     0.125 C 
BRANCH   9  14
ATOM     14  C   UNL A   1      36.321  22.312  24.709  1.00  0.00     0.047 C 
ATOM     15  C   UNL A   1      36.652  22.918  23.334  1.00  0.00     0.022 C 
ATOM     16  C   UNL A   1      37.531  21.485  25.192  1.00  0.00     0.016 C 
ATOM     17  C   UNL A   1      36.251  23.408  25.789  1.00  0.00     0.016 C 
ATOM     18  C   UNL A   1      38.521  22.502  25.754  1.00  0.00     0.001 C 
ATOM     19  C   UNL A   1      37.692  23.704  26.192  1.00  0.00     0.001 C 
ENDBRANCH   9  14
ENDBRANCH   7   8
ENDBRANCH   4   7
ENDBRANCH   2   3
ENDBRANCH   1   2
BRANCH   1  20
ATOM     20  C   UNL A   1      31.749  29.102  26.278  1.00  0.00     0.023 C 
BRANCH  20  21
ATOM     21  C   UNL A   1      32.882  30.073  25.995  1.00  0.00     0.116 C 
BRANCH  21  22
ATOM     22  N   UNL A   1      32.655  31.416  26.511  1.00  0.00    -0.352 N 
ATOM     23  C   UNL A   1      33.432  32.133  27.391  1.00  0.00     0.251 C 
ATOM     24  H   UNL A   1      31.841  31.868  26.190  1.00  0.00     0.163 HD
ATOM     25  O   UNL A   1      33.068  33.233  27.794  1.00  0.00    -0.269 OA
BRANCH  23  26
ATOM     26  C   UNL A   1      34.690  31.537  27.888  1.00  0.00     0.039 A 
ATOM     27  C   UNL A   1      35.800  32.362  28.079  1.00  0.00     0.014 A 
ATOM     28  C   UNL A   1      34.742  30.186  28.238  1.00  0.00     0.014 A 
ATOM     29  C   UNL A   1      36.937  31.849  28.705  1.00  0.00     0.010 A 
ATOM     30  C   UNL A   1      35.837  29.702  28.940  1.00  0.00     0.010 A 
ATOM     31  C   UNL A   1      36.945  30.529  29.184  1.00  0.00    -0.014 A 
BRANCH  31  32
ATOM     32  C   UNL A   1      38.099  29.981  29.940  1.00  0.00     0.031 A 
ATOM     33  C   UNL A   1      38.341  30.425  31.354  1.00  0.00     0.074 A 
ATOM     34  C   UNL A   1      38.973  29.161  29.326  1.00  0.00     0.049 A 
ATOM     35  N   UNL A   1      39.347  30.155  32.146  1.00  0.00    -0.248 NA
ATOM     36  C   UNL A   1      37.336  31.323  31.946  1.00  0.00     0.031 C 
ATOM     37  C   UNL A   1      38.880  28.705  27.937  1.00  0.00     0.029 A 
ATOM     38  N   UNL A   1      40.126  28.576  29.789  1.00  0.00    -0.354 N 
ATOM     39  C   UNL A   1      39.112  30.875  33.310  1.00  0.00     0.074 A 
ATOM     40  C   UNL A   1      37.895  31.630  33.106  1.00  0.00     0.031 C 
ATOM     41  C   UNL A   1      39.915  27.892  27.670  1.00  0.00     0.029 A 
ATOM     42  C   UNL A   1      40.763  27.796  28.854  1.00  0.00     0.049 A 
ATOM     43  H   UNL A   1      40.463  28.703  30.705  1.00  0.00     0.167 HD
ATOM     44  C   UNL A   1      39.835  30.887  34.455  1.00  0.00     0.037 A 
ATOM     45  C   UNL A   1      41.905  27.089  28.945  1.00  0.00     0.037 A 
ATOM     46  C   UNL A   1      41.012  30.091  34.675  1.00  0.00     0.049 A 
ATOM     47  C   UNL A   1      42.671  27.095  30.240  1.00  0.00     0.074 A 
ATOM     48  C   UNL A   1      41.763  29.962  35.829  1.00  0.00     0.029 A 
ATOM     49  N   UNL A   1      41.605  29.283  33.716  1.00  0.00    -0.354 N 
ATOM     50  N   UNL A   1      42.399  27.720  31.359  1.00  0.00    -0.248 NA
ATOM     51  C   UNL A   1      43.900  26.291  30.285  1.00  0.00     0.031 C 
ATOM     52  C   UNL A   1      42.831  29.100  35.560  1.00  0.00     0.029 A 
ATOM     53  C   UNL A   1      42.723  28.664  34.250  1.00  0.00     0.049 A 
ATOM     54  H   UNL A   1      41.280  29.166  32.794  1.00  0.00     0.167 HD
ATOM     55  C   UNL A   1      43.403  27.364  32.248  1.00  0.00     0.074 A 
ATOM     56  C   UNL A   1      44.286  26.458  31.542  1.00  0.00     0.031 C 
ATOM     57  C   UNL A   1      43.578  27.752  33.535  1.00  0.00     0.037 A 
BRANCH  44  58
ATOM     58  C   UNL A   1      39.365  31.782  35.563  1.00  0.00     0.064 A 
ATOM     59  C   UNL A   1      38.459  31.334  36.536  1.00  0.00     0.173 A 
ATOM     60  C   UNL A   1      39.852  33.093  35.671  1.00  0.00     0.173 A 
ATOM     61  F   UNL A   1      37.953  30.094  36.467  1.00  0.00    -0.203 F 
ATOM     62  C   UNL A   1      38.035  32.176  37.561  1.00  0.00     0.198 A 
ATOM     63  C   UNL A   1      39.448  33.922  36.714  1.00  0.00     0.198 A 
ATOM     64  F   UNL A   1      40.722  33.569  34.768  1.00  0.00    -0.203 F 
ATOM     65  F   UNL A   1      37.132  31.742  38.451  1.00  0.00    -0.200 F 
ATOM     66  C   UNL A   1      38.535  33.466  37.653  1.00  0.00     0.200 A 
ATOM     67  F   UNL A   1      39.939  35.166  36.808  1.00  0.00    -0.200 F 
ATOM     68  F   UNL A   1      38.131  34.273  38.644  1.00  0.00    -0.200 F 
ENDBRANCH  44  58
BRANCH  45  69
ATOM     69  C   UNL A   1      42.377  26.284  27.789  1.00  0.00     0.064 A 
ATOM     70  C   UNL A   1      41.854  25.006  27.548  1.00  0.00     0.173 A 
ATOM     71  C   UNL A   1      43.360  26.763  26.912  1.00  0.00     0.173 A 
ATOM     72  F   UNL A   1      40.926  24.497  28.373  1.00  0.00    -0.203 F 
ATOM     73  C   UNL A   1      42.311  24.228  26.487  1.00  0.00     0.198 A 
ATOM     74  C   UNL A   1      43.799  25.994  25.836  1.00  0.00     0.198 A 
ATOM     75  F   UNL A   1      43.889  27.981  27.097  1.00  0.00    -0.203 F 
ATOM     76  F   UNL A   1      41.825  22.992  26.307  1.00  0.00    -0.200 F 
ATOM     77  C   UNL A   1      43.280  24.724  25.629  1.00  0.00     0.200 A 
ATOM     78  F   UNL A   1      44.729  26.481  25.003  1.00  0.00    -0.200 F 
ATOM     79  F   UNL A   1      43.720  23.976  24.608  1.00  0.00    -0.200 F 
ENDBRANCH  45  69
BRANCH  57  80
ATOM     80  C   UNL A   1      44.743  27.168  34.276  1.00  0.00     0.064 A 
ATOM     81  C   UNL A   1      45.984  27.819  34.322  1.00  0.00     0.173 A 
ATOM     82  C   UNL A   1      44.601  25.967  34.985  1.00  0.00     0.173 A 
ATOM     83  F   UNL A   1      46.171  28.963  33.646  1.00  0.00    -0.203 F 
ATOM     84  C   UNL A   1      47.048  27.278  35.038  1.00  0.00     0.198 A 
ATOM     85  C   UNL A   1      45.660  25.442  35.721  1.00  0.00     0.198 A 
ATOM     86  F   UNL A   1      43.433  25.309  34.975  1.00  0.00    -0.203 F 
ATOM     87  F   UNL A   1      48.237  27.896  35.038  1.00  0.00    -0.200 F 
ATOM     88  C   UNL A   1      46.882  26.094  35.743  1.00  0.00     0.200 A 
ATOM     89  F   UNL A   1      45.495  24.304  36.411  1.00  0.00    -0.200 F 
ATOM     90  F   UNL A   1      47.906  25.579  36.438  1.00  0.00    -0.200 F 
ENDBRANCH  57  80
ENDBRANCH  31  32
ENDBRANCH  23  26
ENDBRANCH  21  22
ENDBRANCH  20  21
ENDBRANCH   1  20
TORSDOF 13
ENDMDL
