MODEL 1
REMARK VINA RESULT:     -11.9      0.000      0.000
REMARK SMILES O=C(NCCCCNC(=O)[C@@H](Cc1ccccc1Br)CC(F)(F)F)c1ccc(-c2c3nc(c(-c4c(F)c(F)c(F)c(F)c4F)c4ccc([nH]4)c(-c4c(F)c(F)c(F)c(F)c4F)c4nc(c(-c5c(F)c(F)c(F)c(F)c5F)c5ccc2[nH]5)C=C4)C=C3)cc1
REMARK SMILES IDX 5 1 4 2 3 3 1 4 2 5 25 7 26 8 87 9 27 10 86 11 28 12 29 13
REMARK SMILES IDX 30 14 80 15 31 16 85 17 79 18 81 19 32 20 84 21 78 22 77 23
REMARK SMILES IDX 33 25 65 26 45 27 64 28 46 29 49 30 63 31 82 32 47 33 48 34
REMARK SMILES IDX 62 36 83 37 50 38 34 39 35 40 43 41 36 42 37 43 41 44 44 45
REMARK SMILES IDX 38 46 39 47 42 48 40 49 66 50 67 51 75 52 68 53 69 54 73 55
REMARK SMILES IDX 76 56 70 57 71 58 74 59 72 60 51 61 52 62 60 63 53 64 54 65
REMARK SMILES IDX 58 66 61 67 55 68 56 69 59 70 57 71 6 72 7 73 8 74 9 75
REMARK SMILES IDX 10 77 11 78 12 79 13 80 14 81 18 82 15 83 17 84 19 85 16 86
REMARK SMILES IDX 20 87 21 88 22 89 23 90 24 91
REMARK H PARENT 3 6 81 24 49 35 8 76
REMARK Flexibility Score: inf
ROOT
ATOM      1  C   UNL A   1      35.325  21.744  24.848  1.00  0.00     0.023 C 
ENDROOT
BRANCH   1   2
ATOM      2  C   UNL A   1      36.555  21.944  25.712  1.00  0.00     0.116 C 
BRANCH   2   3
ATOM      3  N   UNL A   1      37.612  20.955  25.505  1.00  0.00    -0.352 N 
ATOM      4  O   UNL A   1      39.729  20.136  25.577  1.00  0.00    -0.269 OA
ATOM      5  C   UNL A   1      38.939  21.024  25.875  1.00  0.00     0.251 C 
ATOM      6  H   UNL A   1      37.341  20.130  25.040  1.00  0.00     0.163 HD
BRANCH   5   7
ATOM      7  C   UNL A   1      39.397  22.228  26.595  1.00  0.00     0.039 A 
ATOM      8  C   UNL A   1      38.948  23.478  26.174  1.00  0.00     0.014 A 
ATOM      9  C   UNL A   1      40.390  22.120  27.570  1.00  0.00     0.014 A 
ATOM     10  C   UNL A   1      39.677  24.599  26.525  1.00  0.00     0.010 A 
ATOM     11  C   UNL A   1      41.020  23.277  28.039  1.00  0.00     0.010 A 
ATOM     12  C   UNL A   1      40.716  24.522  27.471  1.00  0.00    -0.014 A 
BRANCH  12  13
ATOM     13  C   UNL A   1      41.423  25.778  27.834  1.00  0.00     0.031 A 
ATOM     14  C   UNL A   1      42.788  26.108  27.293  1.00  0.00     0.074 A 
ATOM     15  C   UNL A   1      40.754  26.682  28.579  1.00  0.00     0.049 A 
ATOM     16  N   UNL A   1      43.497  27.198  27.465  1.00  0.00    -0.248 NA
ATOM     17  C   UNL A   1      43.457  25.091  26.467  1.00  0.00     0.031 C 
ATOM     18  C   UNL A   1      39.431  26.464  29.169  1.00  0.00     0.029 A 
ATOM     19  N   UNL A   1      41.053  27.979  28.909  1.00  0.00    -0.354 N 
ATOM     20  C   UNL A   1      44.701  26.982  26.807  1.00  0.00     0.074 A 
ATOM     21  C   UNL A   1      44.636  25.655  26.236  1.00  0.00     0.031 C 
ATOM     22  C   UNL A   1      38.983  27.614  29.687  1.00  0.00     0.029 A 
ATOM     23  C   UNL A   1      40.026  28.624  29.555  1.00  0.00     0.049 A 
ATOM     24  H   UNL A   1      41.916  28.404  28.704  1.00  0.00     0.167 HD
ATOM     25  C   UNL A   1      45.761  27.819  26.694  1.00  0.00     0.037 A 
ATOM     26  C   UNL A   1      39.932  29.887  30.005  1.00  0.00     0.037 A 
ATOM     27  C   UNL A   1      45.803  29.156  27.235  1.00  0.00     0.049 A 
ATOM     28  C   UNL A   1      41.101  30.805  29.820  1.00  0.00     0.074 A 
ATOM     29  C   UNL A   1      46.834  30.078  27.187  1.00  0.00     0.029 A 
ATOM     30  N   UNL A   1      44.756  29.766  27.911  1.00  0.00    -0.354 N 
ATOM     31  N   UNL A   1      42.248  30.569  29.229  1.00  0.00    -0.248 NA
ATOM     32  C   UNL A   1      40.973  32.156  30.378  1.00  0.00     0.031 C 
ATOM     33  C   UNL A   1      46.420  31.238  27.852  1.00  0.00     0.029 A 
ATOM     34  C   UNL A   1      45.117  31.051  28.284  1.00  0.00     0.049 A 
ATOM     35  H   UNL A   1      43.884  29.348  28.098  1.00  0.00     0.167 HD
ATOM     36  C   UNL A   1      42.987  31.733  29.362  1.00  0.00     0.074 A 
ATOM     37  C   UNL A   1      42.140  32.691  30.044  1.00  0.00     0.031 C 
ATOM     38  C   UNL A   1      44.262  31.980  28.977  1.00  0.00     0.037 A 
BRANCH  25  39
ATOM     39  C   UNL A   1      46.980  27.318  25.975  1.00  0.00     0.064 A 
ATOM     40  C   UNL A   1      47.196  27.583  24.615  1.00  0.00     0.173 A 
ATOM     41  C   UNL A   1      47.978  26.618  26.673  1.00  0.00     0.173 A 
ATOM     42  F   UNL A   1      46.268  28.237  23.900  1.00  0.00    -0.203 F 
ATOM     43  C   UNL A   1      48.361  27.158  23.978  1.00  0.00     0.198 A 
ATOM     44  C   UNL A   1      49.150  26.214  26.038  1.00  0.00     0.198 A 
ATOM     45  F   UNL A   1      47.823  26.342  27.976  1.00  0.00    -0.203 F 
ATOM     46  F   UNL A   1      48.533  27.398  22.671  1.00  0.00    -0.200 F 
ATOM     47  C   UNL A   1      49.339  26.482  24.691  1.00  0.00     0.200 A 
ATOM     48  F   UNL A   1      50.099  25.571  26.732  1.00  0.00    -0.200 F 
ATOM     49  F   UNL A   1      50.464  26.085  24.079  1.00  0.00    -0.200 F 
ENDBRANCH  25  39
BRANCH  26  50
ATOM     50  C   UNL A   1      38.691  30.332  30.689  1.00  0.00     0.064 A 
ATOM     51  C   UNL A   1      38.597  30.340  32.086  1.00  0.00     0.173 A 
ATOM     52  C   UNL A   1      37.590  30.796  29.955  1.00  0.00     0.173 A 
ATOM     53  F   UNL A   1      39.618  29.890  32.830  1.00  0.00    -0.203 F 
ATOM     54  C   UNL A   1      37.444  30.793  32.723  1.00  0.00     0.198 A 
ATOM     55  C   UNL A   1      36.452  31.281  30.593  1.00  0.00     0.198 A 
ATOM     56  F   UNL A   1      37.636  30.816  28.615  1.00  0.00    -0.203 F 
ATOM     57  F   UNL A   1      37.365  30.762  34.061  1.00  0.00    -0.200 F 
ATOM     58  C   UNL A   1      36.377  31.273  31.978  1.00  0.00     0.200 A 
ATOM     59  F   UNL A   1      35.436  31.766  29.868  1.00  0.00    -0.200 F 
ATOM     60  F   UNL A   1      35.277  31.727  32.592  1.00  0.00    -0.200 F 
ENDBRANCH  26  50
BRANCH  38  61
ATOM     61  C   UNL A   1      44.807  33.336  29.303  1.00  0.00     0.064 A 
ATOM     62  C   UNL A   1      45.494  33.572  30.504  1.00  0.00     0.173 A 
ATOM     63  C   UNL A   1      44.638  34.407  28.415  1.00  0.00     0.173 A 
ATOM     64  F   UNL A   1      45.661  32.580  31.392  1.00  0.00    -0.203 F 
ATOM     65  C   UNL A   1      45.964  34.843  30.818  1.00  0.00     0.198 A 
ATOM     66  C   UNL A   1      45.132  35.671  28.722  1.00  0.00     0.198 A 
ATOM     67  F   UNL A   1      43.991  34.227  27.254  1.00  0.00    -0.203 F 
ATOM     68  F   UNL A   1      46.569  35.059  31.994  1.00  0.00    -0.200 F 
ATOM     69  C   UNL A   1      45.785  35.891  29.927  1.00  0.00     0.200 A 
ATOM     70  F   UNL A   1      44.963  36.682  27.859  1.00  0.00    -0.200 F 
ATOM     71  F   UNL A   1      46.231  37.116  30.234  1.00  0.00    -0.200 F 
ENDBRANCH  38  61
ENDBRANCH  12  13
ENDBRANCH   5   7
ENDBRANCH   2   3
ENDBRANCH   1   2
BRANCH   1  72
ATOM     72  C   UNL A   1      34.096  21.333  25.630  1.00  0.00     0.023 C 
BRANCH  72  73
ATOM     73  C   UNL A   1      32.761  21.664  24.979  1.00  0.00     0.116 C 
BRANCH  73  74
ATOM     74  N   UNL A   1      31.798  22.018  25.997  1.00  0.00    -0.356 N 
ATOM     75  C   UNL A   1      31.490  23.214  26.550  1.00  0.00     0.223 C 
ATOM     76  H   UNL A   1      31.278  21.259  26.348  1.00  0.00     0.163 HD
ATOM     77  O   UNL A   1      30.817  23.192  27.584  1.00  0.00    -0.275 OA
BRANCH  75  78
ATOM     78  C   UNL A   1      31.892  24.555  25.938  1.00  0.00     0.092 C 
BRANCH  78  79
ATOM     79  C   UNL A   1      30.854  25.700  26.079  1.00  0.00     0.050 C 
BRANCH  79  80
ATOM     80  C   UNL A   1      31.213  27.168  25.955  1.00  0.00    -0.033 A 
ATOM     81  C   UNL A   1      31.537  27.868  27.137  1.00  0.00     0.005 A 
ATOM     82  C   UNL A   1      31.147  27.922  24.769  1.00  0.00     0.021 A 
ATOM     83  C   UNL A   1      31.874  29.228  27.124  1.00  0.00     0.000 A 
ATOM     84  C   UNL A   1      31.520  29.275  24.751  1.00  0.00     0.016 A 
ATOM     85  Br  UNL A   1      30.441  27.248  23.141  1.00  0.00    -0.051 Br
ATOM     86  C   UNL A   1      31.896  29.925  25.924  1.00  0.00     0.001 A 
ENDBRANCH  79  80
ENDBRANCH  78  79
BRANCH  78  87
ATOM     87  C   UNL A   1      33.367  24.935  26.099  1.00  0.00     0.129 C 
BRANCH  87  88
ATOM     88  C   UNL A   1      34.054  25.317  24.803  1.00  0.00     0.389 C 
ATOM     89  F   UNL A   1      35.307  24.826  24.741  1.00  0.00    -0.171 F 
ATOM     90  F   UNL A   1      33.366  24.808  23.754  1.00  0.00    -0.171 F 
ATOM     91  F   UNL A   1      34.109  26.652  24.628  1.00  0.00    -0.171 F 
ENDBRANCH  87  88
ENDBRANCH  78  87
ENDBRANCH  75  78
ENDBRANCH  73  74
ENDBRANCH  72  73
ENDBRANCH   1  72
TORSDOF 15
ENDMDL
MODEL 2
REMARK VINA RESULT:     -11.9      4.323      9.754
REMARK SMILES O=C(NCCCCNC(=O)[C@@H](Cc1ccccc1Br)CC(F)(F)F)c1ccc(-c2c3nc(c(-c4c(F)c(F)c(F)c(F)c4F)c4ccc([nH]4)c(-c4c(F)c(F)c(F)c(F)c4F)c4nc(c(-c5c(F)c(F)c(F)c(F)c5F)c5ccc2[nH]5)C=C4)C=C3)cc1
REMARK SMILES IDX 5 1 4 2 3 3 1 4 2 5 25 7 26 8 87 9 27 10 86 11 28 12 29 13
REMARK SMILES IDX 30 14 80 15 31 16 85 17 79 18 81 19 32 20 84 21 78 22 77 23
REMARK SMILES IDX 33 25 65 26 45 27 64 28 46 29 49 30 63 31 82 32 47 33 48 34
REMARK SMILES IDX 62 36 83 37 50 38 34 39 35 40 43 41 36 42 37 43 41 44 44 45
REMARK SMILES IDX 38 46 39 47 42 48 40 49 66 50 67 51 75 52 68 53 69 54 73 55
REMARK SMILES IDX 76 56 70 57 71 58 74 59 72 60 51 61 52 62 60 63 53 64 54 65
REMARK SMILES IDX 58 66 61 67 55 68 56 69 59 70 57 71 6 72 7 73 8 74 9 75
REMARK SMILES IDX 10 77 11 78 12 79 13 80 14 81 18 82 15 83 17 84 19 85 16 86
REMARK SMILES IDX 20 87 21 88 22 89 23 90 24 91
REMARK H PARENT 3 6 81 24 49 35 8 76
REMARK Flexibility Score: inf
ROOT
ATOM      1  C   UNL A   1      31.672  29.358  25.898  1.00  0.00     0.023 C 
ENDROOT
BRANCH   1   2
ATOM      2  C   UNL A   1      32.885  30.192  26.262  1.00  0.00     0.116 C 
BRANCH   2   3
ATOM      3  N   UNL A   1      32.576  31.532  26.757  1.00  0.00    -0.352 N 
ATOM      4  O   UNL A   1      32.947  33.454  27.907  1.00  0.00    -0.269 OA
ATOM      5  C   UNL A   1      33.367  32.375  27.509  1.00  0.00     0.251 C 
ATOM      6  H   UNL A   1      31.684  31.879  26.524  1.00  0.00     0.163 HD
BRANCH   5   7
ATOM      7  C   UNL A   1      34.723  31.915  27.870  1.00  0.00     0.039 A 
ATOM      8  C   UNL A   1      34.905  30.590  28.258  1.00  0.00     0.014 A 
ATOM      9  C   UNL A   1      35.764  32.838  27.979  1.00  0.00     0.014 A 
ATOM     10  C   UNL A   1      36.025  30.262  28.999  1.00  0.00     0.010 A 
ATOM     11  C   UNL A   1      36.961  32.454  28.592  1.00  0.00     0.010 A 
ATOM     12  C   UNL A   1      37.077  31.181  29.168  1.00  0.00    -0.014 A 
BRANCH  12  13
ATOM     13  C   UNL A   1      38.271  30.741  29.937  1.00  0.00     0.031 A 
ATOM     14  C   UNL A   1      38.451  31.079  31.392  1.00  0.00     0.074 A 
ATOM     15  C   UNL A   1      39.146  29.920  29.321  1.00  0.00     0.049 A 
ATOM     16  N   UNL A   1      39.405  30.705  32.210  1.00  0.00    -0.248 NA
ATOM     17  C   UNL A   1      37.450  31.960  32.015  1.00  0.00     0.031 C 
ATOM     18  C   UNL A   1      39.080  29.536  27.908  1.00  0.00     0.029 A 
ATOM     19  N   UNL A   1      40.213  29.209  29.806  1.00  0.00    -0.354 N 
ATOM     20  C   UNL A   1      39.143  31.330  33.422  1.00  0.00     0.074 A 
ATOM     21  C   UNL A   1      37.943  32.117  33.237  1.00  0.00     0.031 C 
ATOM     22  C   UNL A   1      39.983  28.578  27.668  1.00  0.00     0.029 A 
ATOM     23  C   UNL A   1      40.759  28.353  28.881  1.00  0.00     0.049 A 
ATOM     24  H   UNL A   1      40.554  29.303  30.724  1.00  0.00     0.167 HD
ATOM     25  C   UNL A   1      39.843  31.251  34.579  1.00  0.00     0.037 A 
ATOM     26  C   UNL A   1      41.781  27.485  28.987  1.00  0.00     0.037 A 
ATOM     27  C   UNL A   1      41.017  30.435  34.766  1.00  0.00     0.049 A 
ATOM     28  C   UNL A   1      42.503  27.383  30.296  1.00  0.00     0.074 A 
ATOM     29  C   UNL A   1      41.805  30.296  35.895  1.00  0.00     0.029 A 
ATOM     30  N   UNL A   1      41.560  29.602  33.798  1.00  0.00    -0.354 N 
ATOM     31  N   UNL A   1      42.263  28.013  31.420  1.00  0.00    -0.248 NA
ATOM     32  C   UNL A   1      43.647  26.465  30.347  1.00  0.00     0.031 C 
ATOM     33  C   UNL A   1      42.839  29.398  35.604  1.00  0.00     0.029 A 
ATOM     34  C   UNL A   1      42.672  28.949  34.303  1.00  0.00     0.049 A 
ATOM     35  H   UNL A   1      41.208  29.493  32.884  1.00  0.00     0.167 HD
ATOM     36  C   UNL A   1      43.238  27.586  32.307  1.00  0.00     0.074 A 
ATOM     37  C   UNL A   1      44.040  26.604  31.605  1.00  0.00     0.031 C 
ATOM     38  C   UNL A   1      43.465  27.989  33.580  1.00  0.00     0.037 A 
BRANCH  25  39
ATOM     39  C   UNL A   1      39.378  32.082  35.741  1.00  0.00     0.064 A 
ATOM     40  C   UNL A   1      38.447  31.597  36.670  1.00  0.00     0.173 A 
ATOM     41  C   UNL A   1      39.922  33.358  35.962  1.00  0.00     0.173 A 
ATOM     42  F   UNL A   1      37.889  30.390  36.498  1.00  0.00    -0.203 F 
ATOM     43  C   UNL A   1      38.070  32.362  37.773  1.00  0.00     0.198 A 
ATOM     44  C   UNL A   1      39.559  34.111  37.077  1.00  0.00     0.198 A 
ATOM     45  F   UNL A   1      40.819  33.868  35.106  1.00  0.00    -0.203 F 
ATOM     46  F   UNL A   1      37.158  31.889  38.634  1.00  0.00    -0.200 F 
ATOM     47  C   UNL A   1      38.632  33.613  37.980  1.00  0.00     0.200 A 
ATOM     48  F   UNL A   1      40.113  35.314  37.281  1.00  0.00    -0.200 F 
ATOM     49  F   UNL A   1      38.278  34.341  39.049  1.00  0.00    -0.200 F 
ENDBRANCH  25  39
BRANCH  26  50
ATOM     50  C   UNL A   1      42.180  26.673  27.810  1.00  0.00     0.064 A 
ATOM     51  C   UNL A   1      43.197  27.099  26.946  1.00  0.00     0.173 A 
ATOM     52  C   UNL A   1      41.577  25.433  27.551  1.00  0.00     0.173 A 
ATOM     53  F   UNL A   1      43.791  28.285  27.144  1.00  0.00    -0.203 F 
ATOM     54  C   UNL A   1      43.592  26.316  25.864  1.00  0.00     0.198 A 
ATOM     55  C   UNL A   1      41.997  24.636  26.490  1.00  0.00     0.198 A 
ATOM     56  F   UNL A   1      40.604  24.978  28.354  1.00  0.00    -0.203 F 
ATOM     57  F   UNL A   1      44.546  26.759  25.033  1.00  0.00    -0.200 F 
ATOM     58  C   UNL A   1      43.000  25.082  25.643  1.00  0.00     0.200 A 
ATOM     59  F   UNL A   1      41.438  23.434  26.297  1.00  0.00    -0.200 F 
ATOM     60  F   UNL A   1      43.395  24.321  24.613  1.00  0.00    -0.200 F 
ENDBRANCH  26  50
BRANCH  38  61
ATOM     61  C   UNL A   1      44.636  27.369  34.277  1.00  0.00     0.064 A 
ATOM     62  C   UNL A   1      45.907  27.964  34.230  1.00  0.00     0.173 A 
ATOM     63  C   UNL A   1      44.493  26.172  34.991  1.00  0.00     0.173 A 
ATOM     64  F   UNL A   1      46.094  29.101  33.542  1.00  0.00    -0.203 F 
ATOM     65  C   UNL A   1      46.999  27.363  34.847  1.00  0.00     0.198 A 
ATOM     66  C   UNL A   1      45.583  25.586  35.628  1.00  0.00     0.198 A 
ATOM     67  F   UNL A   1      43.297  25.568  35.066  1.00  0.00    -0.203 F 
ATOM     68  F   UNL A   1      48.213  27.920  34.744  1.00  0.00    -0.200 F 
ATOM     69  C   UNL A   1      46.836  26.177  35.547  1.00  0.00     0.200 A 
ATOM     70  F   UNL A   1      45.424  24.443  36.309  1.00  0.00    -0.200 F 
ATOM     71  F   UNL A   1      47.891  25.595  36.134  1.00  0.00    -0.200 F 
ENDBRANCH  38  61
ENDBRANCH  12  13
ENDBRANCH   5   7
ENDBRANCH   2   3
ENDBRANCH   1   2
BRANCH   1  72
ATOM     72  C   UNL A   1      31.596  28.042  26.643  1.00  0.00     0.023 C 
BRANCH  72  73
ATOM     73  C   UNL A   1      31.355  26.811  25.781  1.00  0.00     0.116 C 
BRANCH  73  74
ATOM     74  N   UNL A   1      31.122  25.663  26.627  1.00  0.00    -0.356 N 
ATOM     75  C   UNL A   1      31.694  24.437  26.638  1.00  0.00     0.223 C 
ATOM     76  H   UNL A   1      30.429  25.796  27.314  1.00  0.00     0.163 HD
ATOM     77  O   UNL A   1      31.123  23.561  27.293  1.00  0.00    -0.275 OA
BRANCH  75  78
ATOM     78  C   UNL A   1      33.007  24.112  25.927  1.00  0.00     0.092 C 
BRANCH  78  79
ATOM     79  C   UNL A   1      33.980  23.181  26.698  1.00  0.00     0.050 C 
BRANCH  79  80
ATOM     80  C   UNL A   1      35.307  22.714  26.132  1.00  0.00    -0.033 A 
ATOM     81  C   UNL A   1      36.408  23.595  26.223  1.00  0.00     0.005 A 
ATOM     82  C   UNL A   1      35.511  21.515  25.424  1.00  0.00     0.021 A 
ATOM     83  C   UNL A   1      37.671  23.255  25.721  1.00  0.00     0.000 A 
ATOM     84  C   UNL A   1      36.786  21.160  24.955  1.00  0.00     0.016 A 
ATOM     85  Br  UNL A   1      34.102  20.345  24.926  1.00  0.00    -0.051 Br
ATOM     86  C   UNL A   1      37.868  22.022  25.114  1.00  0.00     0.001 A 
ENDBRANCH  79  80
ENDBRANCH  78  79
BRANCH  78  87
ATOM     87  C   UNL A   1      32.900  23.901  24.414  1.00  0.00     0.129 C 
BRANCH  87  88
ATOM     88  C   UNL A   1      33.849  24.758  23.599  1.00  0.00     0.389 C 
ATOM     89  F   UNL A   1      33.226  25.329  22.550  1.00  0.00    -0.171 F 
ATOM     90  F   UNL A   1      34.340  25.756  24.372  1.00  0.00    -0.171 F 
ATOM     91  F   UNL A   1      34.905  24.059  23.141  1.00  0.00    -0.171 F 
ENDBRANCH  87  88
ENDBRANCH  78  87
ENDBRANCH  75  78
ENDBRANCH  73  74
ENDBRANCH  72  73
ENDBRANCH   1  72
TORSDOF 15
ENDMDL
MODEL 3
REMARK VINA RESULT:     -11.8      4.151      9.482
REMARK SMILES O=C(NCCCCNC(=O)[C@@H](Cc1ccccc1Br)CC(F)(F)F)c1ccc(-c2c3nc(c(-c4c(F)c(F)c(F)c(F)c4F)c4ccc([nH]4)c(-c4c(F)c(F)c(F)c(F)c4F)c4nc(c(-c5c(F)c(F)c(F)c(F)c5F)c5ccc2[nH]5)C=C4)C=C3)cc1
REMARK SMILES IDX 5 1 4 2 3 3 1 4 2 5 25 7 26 8 87 9 27 10 86 11 28 12 29 13
REMARK SMILES IDX 30 14 80 15 31 16 85 17 79 18 81 19 32 20 84 21 78 22 77 23
REMARK SMILES IDX 33 25 65 26 45 27 64 28 46 29 49 30 63 31 82 32 47 33 48 34
REMARK SMILES IDX 62 36 83 37 50 38 34 39 35 40 43 41 36 42 37 43 41 44 44 45
REMARK SMILES IDX 38 46 39 47 42 48 40 49 66 50 67 51 75 52 68 53 69 54 73 55
REMARK SMILES IDX 76 56 70 57 71 58 74 59 72 60 51 61 52 62 60 63 53 64 54 65
REMARK SMILES IDX 58 66 61 67 55 68 56 69 59 70 57 71 6 72 7 73 8 74 9 75
REMARK SMILES IDX 10 77 11 78 12 79 13 80 14 81 18 82 15 83 17 84 19 85 16 86
REMARK SMILES IDX 20 87 21 88 22 89 23 90 24 91
REMARK H PARENT 3 6 81 24 49 35 8 76
REMARK Flexibility Score: inf
ROOT
ATOM      1  C   UNL A   1      32.874  27.923  25.566  1.00  0.00     0.023 C 
ENDROOT
BRANCH   1   2
ATOM      2  C   UNL A   1      33.261  29.339  25.185  1.00  0.00     0.116 C 
BRANCH   2   3
ATOM      3  N   UNL A   1      32.617  30.382  25.982  1.00  0.00    -0.352 N 
ATOM      4  O   UNL A   1      32.461  31.922  27.643  1.00  0.00    -0.269 OA
ATOM      5  C   UNL A   1      33.145  31.118  27.022  1.00  0.00     0.251 C 
ATOM      6  H   UNL A   1      31.683  30.585  25.746  1.00  0.00     0.163 HD
BRANCH   5   7
ATOM      7  C   UNL A   1      34.548  30.869  27.406  1.00  0.00     0.039 A 
ATOM      8  C   UNL A   1      34.941  29.571  27.724  1.00  0.00     0.014 A 
ATOM      9  C   UNL A   1      35.415  31.944  27.606  1.00  0.00     0.014 A 
ATOM     10  C   UNL A   1      36.081  29.389  28.486  1.00  0.00     0.010 A 
ATOM     11  C   UNL A   1      36.643  31.728  28.240  1.00  0.00     0.010 A 
ATOM     12  C   UNL A   1      36.957  30.459  28.746  1.00  0.00    -0.014 A 
BRANCH  12  13
ATOM     13  C   UNL A   1      38.188  30.177  29.532  1.00  0.00     0.031 A 
ATOM     14  C   UNL A   1      38.337  30.618  30.963  1.00  0.00     0.074 A 
ATOM     15  C   UNL A   1      39.134  29.404  28.960  1.00  0.00     0.049 A 
ATOM     16  N   UNL A   1      39.323  30.382  31.795  1.00  0.00    -0.248 NA
ATOM     17  C   UNL A   1      37.260  31.439  31.538  1.00  0.00     0.031 C 
ATOM     18  C   UNL A   1      39.101  28.931  27.574  1.00  0.00     0.029 A 
ATOM     19  N   UNL A   1      40.262  28.824  29.480  1.00  0.00    -0.354 N 
ATOM     20  C   UNL A   1      39.006  31.054  32.969  1.00  0.00     0.074 A 
ATOM     21  C   UNL A   1      37.739  31.715  32.745  1.00  0.00     0.031 C 
ATOM     22  C   UNL A   1      40.088  28.047  27.385  1.00  0.00     0.029 A 
ATOM     23  C   UNL A   1      40.883  27.967  28.604  1.00  0.00     0.049 A 
ATOM     24  H   UNL A   1      40.593  29.005  30.388  1.00  0.00     0.167 HD
ATOM     25  C   UNL A   1      39.712  31.109  34.124  1.00  0.00     0.037 A 
ATOM     26  C   UNL A   1      41.980  27.205  28.756  1.00  0.00     0.037 A 
ATOM     27  C   UNL A   1      40.956  30.416  34.352  1.00  0.00     0.049 A 
ATOM     28  C   UNL A   1      42.710  27.248  30.063  1.00  0.00     0.074 A 
ATOM     29  C   UNL A   1      41.755  30.419  35.482  1.00  0.00     0.029 A 
ATOM     30  N   UNL A   1      41.572  29.580  33.431  1.00  0.00    -0.354 N 
ATOM     31  N   UNL A   1      42.415  27.921  31.149  1.00  0.00    -0.248 NA
ATOM     32  C   UNL A   1      43.933  26.443  30.162  1.00  0.00     0.031 C 
ATOM     33  C   UNL A   1      42.866  29.603  35.238  1.00  0.00     0.029 A 
ATOM     34  C   UNL A   1      42.740  29.063  33.968  1.00  0.00     0.049 A 
ATOM     35  H   UNL A   1      41.230  29.383  32.529  1.00  0.00     0.167 HD
ATOM     36  C   UNL A   1      43.426  27.639  32.053  1.00  0.00     0.074 A 
ATOM     37  C   UNL A   1      44.314  26.694  31.407  1.00  0.00     0.031 C 
ATOM     38  C   UNL A   1      43.617  28.137  33.299  1.00  0.00     0.037 A 
BRANCH  25  39
ATOM     39  C   UNL A   1      39.174  31.963  35.237  1.00  0.00     0.064 A 
ATOM     40  C   UNL A   1      38.416  31.421  36.284  1.00  0.00     0.173 A 
ATOM     41  C   UNL A   1      39.478  33.334  35.289  1.00  0.00     0.173 A 
ATOM     42  F   UNL A   1      38.087  30.120  36.275  1.00  0.00    -0.203 F 
ATOM     43  C   UNL A   1      37.973  32.219  37.337  1.00  0.00     0.198 A 
ATOM     44  C   UNL A   1      39.053  34.124  36.355  1.00  0.00     0.198 A 
ATOM     45  F   UNL A   1      40.204  33.902  34.315  1.00  0.00    -0.203 F 
ATOM     46  F   UNL A   1      37.226  31.685  38.312  1.00  0.00    -0.200 F 
ATOM     47  C   UNL A   1      38.299  33.567  37.376  1.00  0.00     0.200 A 
ATOM     48  F   UNL A   1      39.379  35.423  36.395  1.00  0.00    -0.200 F 
ATOM     49  F   UNL A   1      37.883  34.330  38.397  1.00  0.00    -0.200 F 
ENDBRANCH  25  39
BRANCH  26  50
ATOM     50  C   UNL A   1      42.450  26.363  27.627  1.00  0.00     0.064 A 
ATOM     51  C   UNL A   1      43.440  26.817  26.747  1.00  0.00     0.173 A 
ATOM     52  C   UNL A   1      41.945  25.068  27.433  1.00  0.00     0.173 A 
ATOM     53  F   UNL A   1      43.942  28.053  26.882  1.00  0.00    -0.203 F 
ATOM     54  C   UNL A   1      43.904  26.009  25.711  1.00  0.00     0.198 A 
ATOM     55  C   UNL A   1      42.434  24.249  26.419  1.00  0.00     0.198 A 
ATOM     56  F   UNL A   1      41.002  24.585  28.255  1.00  0.00    -0.203 F 
ATOM     57  F   UNL A   1      44.829  26.478  24.862  1.00  0.00    -0.200 F 
ATOM     58  C   UNL A   1      43.409  24.723  25.554  1.00  0.00     0.200 A 
ATOM     59  F   UNL A   1      41.969  23.000  26.289  1.00  0.00    -0.200 F 
ATOM     60  F   UNL A   1      43.870  23.940  24.570  1.00  0.00    -0.200 F 
ENDBRANCH  26  50
BRANCH  38  61
ATOM     61  C   UNL A   1      44.841  27.670  34.024  1.00  0.00     0.064 A 
ATOM     62  C   UNL A   1      44.804  26.542  34.858  1.00  0.00     0.173 A 
ATOM     63  C   UNL A   1      46.056  28.354  33.890  1.00  0.00     0.173 A 
ATOM     64  F   UNL A   1      43.656  25.868  35.030  1.00  0.00    -0.203 F 
ATOM     65  C   UNL A   1      45.934  26.135  35.558  1.00  0.00     0.198 A 
ATOM     66  C   UNL A   1      47.192  27.930  34.574  1.00  0.00     0.198 A 
ATOM     67  F   UNL A   1      46.140  29.436  33.102  1.00  0.00    -0.203 F 
ATOM     68  F   UNL A   1      45.863  25.088  36.391  1.00  0.00    -0.200 F 
ATOM     69  C   UNL A   1      47.128  26.828  35.414  1.00  0.00     0.200 A 
ATOM     70  F   UNL A   1      48.346  28.596  34.430  1.00  0.00    -0.200 F 
ATOM     71  F   UNL A   1      48.214  26.440  36.096  1.00  0.00    -0.200 F 
ENDBRANCH  38  61
ENDBRANCH  12  13
ENDBRANCH   5   7
ENDBRANCH   2   3
ENDBRANCH   1   2
BRANCH   1  72
ATOM     72  C   UNL A   1      31.406  27.766  25.903  1.00  0.00     0.023 C 
BRANCH  72  73
ATOM     73  C   UNL A   1      30.721  26.544  25.307  1.00  0.00     0.116 C 
BRANCH  73  74
ATOM     74  N   UNL A   1      30.584  25.523  26.319  1.00  0.00    -0.356 N 
ATOM     75  C   UNL A   1      31.151  24.299  26.429  1.00  0.00     0.223 C 
ATOM     76  H   UNL A   1      29.973  25.757  27.056  1.00  0.00     0.163 HD
ATOM     77  O   UNL A   1      30.655  23.527  27.255  1.00  0.00    -0.275 OA
BRANCH  75  78
ATOM     78  C   UNL A   1      32.373  23.860  25.625  1.00  0.00     0.092 C 
BRANCH  78  79
ATOM     79  C   UNL A   1      33.436  23.041  26.403  1.00  0.00     0.050 C 
BRANCH  79  80
ATOM     80  C   UNL A   1      34.818  22.739  25.856  1.00  0.00    -0.033 A 
ATOM     81  C   UNL A   1      35.758  23.791  25.827  1.00  0.00     0.005 A 
ATOM     82  C   UNL A   1      35.211  21.520  25.273  1.00  0.00     0.021 A 
ATOM     83  C   UNL A   1      37.057  23.610  25.333  1.00  0.00     0.000 A 
ATOM     84  C   UNL A   1      36.523  21.330  24.812  1.00  0.00     0.016 A 
ATOM     85  Br  UNL A   1      34.011  20.089  24.936  1.00  0.00    -0.051 Br
ATOM     86  C   UNL A   1      37.449  22.368  24.853  1.00  0.00     0.001 A 
ENDBRANCH  79  80
ENDBRANCH  78  79
BRANCH  78  87
ATOM     87  C   UNL A   1      32.091  23.432  24.181  1.00  0.00     0.129 C 
BRANCH  87  88
ATOM     88  C   UNL A   1      32.947  24.137  23.146  1.00  0.00     0.389 C 
ATOM     89  F   UNL A   1      32.218  24.530  22.084  1.00  0.00    -0.171 F 
ATOM     90  F   UNL A   1      33.502  25.244  23.692  1.00  0.00    -0.171 F 
ATOM     91  F   UNL A   1      33.959  23.363  22.708  1.00  0.00    -0.171 F 
ENDBRANCH  87  88
ENDBRANCH  78  87
ENDBRANCH  75  78
ENDBRANCH  73  74
ENDBRANCH  72  73
ENDBRANCH   1  72
TORSDOF 15
ENDMDL
