MODEL 1
REMARK VINA RESULT:     -11.3      0.000      0.000
REMARK SMILES C[C@@]1(C[NH2+]CC(=O)NCCCCNC(=O)c2ccc(-c3c4nc(c(-c5c(F)c(F)c(F)c(F)c5F)c5ccc([nH]5)c(-c5c(F)c(F)c(F)c(F)c5F)c5nc(c(-c6c(F)c(F)c(F)c(F)c6F)c6ccc3[nH]6)C=C5)C=C4)cc2)CCCO1
REMARK SMILES IDX 10 1 9 2 8 3 6 4 7 5 5 7 4 8 3 11 2 12 1 13 79 14 82 15
REMARK SMILES IDX 80 16 81 17 11 18 12 19 13 20 14 21 15 23 16 24 17 25 78 26
REMARK SMILES IDX 18 27 77 28 19 29 20 30 21 31 71 32 22 33 76 34 70 35 72 36
REMARK SMILES IDX 23 37 75 38 69 39 68 40 24 42 56 43 36 44 55 45 37 46 40 47
REMARK SMILES IDX 54 48 73 49 38 50 39 51 53 53 74 54 41 55 25 56 26 57 34 58
REMARK SMILES IDX 27 59 28 60 32 61 35 62 29 63 30 64 33 65 31 66 57 67 58 68
REMARK SMILES IDX 66 69 59 70 60 71 64 72 67 73 61 74 62 75 65 76 63 77 42 78
REMARK SMILES IDX 43 79 51 80 44 81 45 82 49 83 52 84 46 85 47 86 50 87 48 88
REMARK H PARENT 8 6 4 9 4 10 13 22 72 41 40 52
REMARK Flexibility Score: inf
ROOT
ATOM      1  C   UNL A   1      31.885  30.565  25.870  1.00  0.00     0.023 C 
ENDROOT
BRANCH   1   2
ATOM      2  C   UNL A   1      32.665  29.280  25.579  1.00  0.00     0.116 C 
BRANCH   2   3
ATOM      3  N   UNL A   1      33.373  29.384  24.315  1.00  0.00    -0.351 N 
ATOM      4  C   UNL A   1      33.020  28.930  23.073  1.00  0.00     0.275 C 
ATOM      5  O   UNL A   1      33.879  28.960  22.187  1.00  0.00    -0.269 OA
ATOM      6  H   UNL A   1      34.238  29.851  24.359  1.00  0.00     0.163 HD
BRANCH   4   7
ATOM      7  C   UNL A   1      31.604  28.406  22.791  1.00  0.00     0.361 C 
BRANCH   7   8
ATOM      8  N   UNL A   1      30.688  29.438  22.260  1.00  0.00    -0.336 N 
ATOM      9  H   UNL A   1      31.236  30.255  21.987  1.00  0.00     0.346 HD
ATOM     10  H   UNL A   1      30.196  29.042  21.459  1.00  0.00     0.346 HD
BRANCH   8  11
ATOM     11  C   UNL A   1      29.690  29.846  23.250  1.00  0.00     0.296 C 
BRANCH  11  12
ATOM     12  C   UNL A   1      28.234  30.065  22.762  1.00  0.00     0.114 C 
ATOM     13  C   UNL A   1      27.355  28.849  23.033  1.00  0.00     0.048 C 
ATOM     14  C   UNL A   1      28.215  30.439  21.275  1.00  0.00     0.043 C 
ATOM     15  O   UNL A   1      27.679  31.220  23.424  1.00  0.00    -0.369 OA
ATOM     16  C   UNL A   1      28.444  31.931  21.271  1.00  0.00     0.032 C 
ATOM     17  C   UNL A   1      27.947  32.385  22.629  1.00  0.00     0.161 C 
ENDBRANCH  11  12
ENDBRANCH   8  11
ENDBRANCH   7   8
ENDBRANCH   4   7
ENDBRANCH   2   3
ENDBRANCH   1   2
BRANCH   1  18
ATOM     18  C   UNL A   1      32.101  31.165  27.249  1.00  0.00     0.023 C 
BRANCH  18  19
ATOM     19  C   UNL A   1      33.177  32.233  27.300  1.00  0.00     0.116 C 
BRANCH  19  20
ATOM     20  N   UNL A   1      32.647  33.580  27.513  1.00  0.00    -0.352 N 
ATOM     21  C   UNL A   1      33.038  34.556  28.398  1.00  0.00     0.251 C 
ATOM     22  H   UNL A   1      31.891  33.824  26.933  1.00  0.00     0.163 HD
ATOM     23  O   UNL A   1      32.391  35.590  28.505  1.00  0.00    -0.269 OA
BRANCH  21  24
ATOM     24  C   UNL A   1      34.218  34.328  29.262  1.00  0.00     0.039 A 
ATOM     25  C   UNL A   1      34.034  33.773  30.531  1.00  0.00     0.014 A 
ATOM     26  C   UNL A   1      35.503  34.582  28.784  1.00  0.00     0.014 A 
ATOM     27  C   UNL A   1      35.146  33.346  31.260  1.00  0.00     0.010 A 
ATOM     28  C   UNL A   1      36.595  34.054  29.457  1.00  0.00     0.010 A 
ATOM     29  C   UNL A   1      36.428  33.413  30.694  1.00  0.00    -0.014 A 
BRANCH  29  30
ATOM     30  C   UNL A   1      37.612  32.789  31.341  1.00  0.00     0.031 A 
ATOM     31  C   UNL A   1      38.290  31.617  30.689  1.00  0.00     0.074 A 
ATOM     32  C   UNL A   1      37.987  33.191  32.572  1.00  0.00     0.049 A 
ATOM     33  N   UNL A   1      39.208  30.819  31.171  1.00  0.00    -0.248 NA
ATOM     34  C   UNL A   1      37.841  31.266  29.332  1.00  0.00     0.031 C 
ATOM     35  C   UNL A   1      37.363  34.268  33.344  1.00  0.00     0.029 A 
ATOM     36  N   UNL A   1      38.973  32.718  33.405  1.00  0.00    -0.354 N 
ATOM     37  C   UNL A   1      39.414  29.853  30.197  1.00  0.00     0.074 A 
ATOM     38  C   UNL A   1      38.498  30.135  29.114  1.00  0.00     0.031 C 
ATOM     39  C   UNL A   1      37.989  34.386  34.526  1.00  0.00     0.029 A 
ATOM     40  C   UNL A   1      39.027  33.365  34.617  1.00  0.00     0.049 A 
ATOM     41  H   UNL A   1      39.582  31.986  33.158  1.00  0.00     0.167 HD
ATOM     42  C   UNL A   1      40.305  28.833  30.196  1.00  0.00     0.037 A 
ATOM     43  C   UNL A   1      39.814  33.148  35.688  1.00  0.00     0.037 A 
ATOM     44  C   UNL A   1      41.262  28.596  31.242  1.00  0.00     0.049 A 
ATOM     45  C   UNL A   1      40.825  32.035  35.642  1.00  0.00     0.074 A 
ATOM     46  C   UNL A   1      42.285  27.666  31.279  1.00  0.00     0.029 A 
ATOM     47  N   UNL A   1      41.319  29.305  32.433  1.00  0.00    -0.354 N 
ATOM     48  N   UNL A   1      41.061  31.174  34.682  1.00  0.00    -0.248 NA
ATOM     49  C   UNL A   1      41.674  31.861  36.829  1.00  0.00     0.031 C 
ATOM     50  C   UNL A   1      42.941  27.789  32.508  1.00  0.00     0.029 A 
ATOM     51  C   UNL A   1      42.346  28.817  33.222  1.00  0.00     0.049 A 
ATOM     52  H   UNL A   1      40.718  30.045  32.680  1.00  0.00     0.167 HD
ATOM     53  C   UNL A   1      42.091  30.366  35.142  1.00  0.00     0.074 A 
ATOM     54  C   UNL A   1      42.449  30.851  36.458  1.00  0.00     0.031 C 
ATOM     55  C   UNL A   1      42.684  29.313  34.530  1.00  0.00     0.037 A 
BRANCH  42  56
ATOM     56  C   UNL A   1      40.299  27.905  29.019  1.00  0.00     0.064 A 
ATOM     57  C   UNL A   1      41.040  28.183  27.861  1.00  0.00     0.173 A 
ATOM     58  C   UNL A   1      39.579  26.703  29.066  1.00  0.00     0.173 A 
ATOM     59  F   UNL A   1      41.733  29.328  27.762  1.00  0.00    -0.203 F 
ATOM     60  C   UNL A   1      41.039  27.303  26.782  1.00  0.00     0.198 A 
ATOM     61  C   UNL A   1      39.602  25.812  27.996  1.00  0.00     0.198 A 
ATOM     62  F   UNL A   1      38.856  26.389  30.152  1.00  0.00    -0.203 F 
ATOM     63  F   UNL A   1      41.719  27.610  25.669  1.00  0.00    -0.200 F 
ATOM     64  C   UNL A   1      40.327  26.115  26.854  1.00  0.00     0.200 A 
ATOM     65  F   UNL A   1      38.919  24.661  28.070  1.00  0.00    -0.200 F 
ATOM     66  F   UNL A   1      40.333  25.266  25.817  1.00  0.00    -0.200 F 
ENDBRANCH  42  56
BRANCH  43  67
ATOM     67  C   UNL A   1      39.684  34.004  36.894  1.00  0.00     0.064 A 
ATOM     68  C   UNL A   1      38.884  33.604  37.974  1.00  0.00     0.173 A 
ATOM     69  C   UNL A   1      40.344  35.238  36.991  1.00  0.00     0.173 A 
ATOM     70  F   UNL A   1      38.216  32.442  37.916  1.00  0.00    -0.203 F 
ATOM     71  C   UNL A   1      38.734  34.413  39.098  1.00  0.00     0.198 A 
ATOM     72  C   UNL A   1      40.213  36.035  38.126  1.00  0.00     0.198 A 
ATOM     73  F   UNL A   1      41.125  35.662  35.987  1.00  0.00    -0.203 F 
ATOM     74  F   UNL A   1      37.931  34.026  40.098  1.00  0.00    -0.200 F 
ATOM     75  C   UNL A   1      39.403  35.626  39.175  1.00  0.00     0.200 A 
ATOM     76  F   UNL A   1      40.870  37.200  38.203  1.00  0.00    -0.200 F 
ATOM     77  F   UNL A   1      39.260  36.403  40.258  1.00  0.00    -0.200 F 
ENDBRANCH  43  67
BRANCH  55  78
ATOM     78  C   UNL A   1      43.783  28.619  35.274  1.00  0.00     0.064 A 
ATOM     79  C   UNL A   1      45.122  29.003  35.118  1.00  0.00     0.173 A 
ATOM     80  C   UNL A   1      43.492  27.596  36.188  1.00  0.00     0.173 A 
ATOM     81  F   UNL A   1      45.450  29.965  34.242  1.00  0.00    -0.203 F 
ATOM     82  C   UNL A   1      46.134  28.377  35.840  1.00  0.00     0.198 A 
ATOM     83  C   UNL A   1      44.503  26.989  36.927  1.00  0.00     0.198 A 
ATOM     84  F   UNL A   1      42.224  27.198  36.376  1.00  0.00    -0.203 F 
ATOM     85  F   UNL A   1      47.410  28.736  35.650  1.00  0.00    -0.200 F 
ATOM     86  C   UNL A   1      45.822  27.376  36.749  1.00  0.00     0.200 A 
ATOM     87  F   UNL A   1      44.200  26.029  37.812  1.00  0.00    -0.200 F 
ATOM     88  F   UNL A   1      46.796  26.781  37.450  1.00  0.00    -0.200 F 
ENDBRANCH  55  78
ENDBRANCH  29  30
ENDBRANCH  21  24
ENDBRANCH  19  20
ENDBRANCH  18  19
ENDBRANCH   1  18
TORSDOF 14
ENDMDL
MODEL 2
REMARK VINA RESULT:     -11.2      1.666      3.042
REMARK SMILES C[C@@]1(C[NH2+]CC(=O)NCCCCNC(=O)c2ccc(-c3c4nc(c(-c5c(F)c(F)c(F)c(F)c5F)c5ccc([nH]5)c(-c5c(F)c(F)c(F)c(F)c5F)c5nc(c(-c6c(F)c(F)c(F)c(F)c6F)c6ccc3[nH]6)C=C5)C=C4)cc2)CCCO1
REMARK SMILES IDX 10 1 9 2 8 3 6 4 7 5 5 7 4 8 3 11 2 12 1 13 79 14 82 15
REMARK SMILES IDX 80 16 81 17 11 18 12 19 13 20 14 21 15 23 16 24 17 25 78 26
REMARK SMILES IDX 18 27 77 28 19 29 20 30 21 31 71 32 22 33 76 34 70 35 72 36
REMARK SMILES IDX 23 37 75 38 69 39 68 40 24 42 56 43 36 44 55 45 37 46 40 47
REMARK SMILES IDX 54 48 73 49 38 50 39 51 53 53 74 54 41 55 25 56 26 57 34 58
REMARK SMILES IDX 27 59 28 60 32 61 35 62 29 63 30 64 33 65 31 66 57 67 58 68
REMARK SMILES IDX 66 69 59 70 60 71 64 72 67 73 61 74 62 75 65 76 63 77 42 78
REMARK SMILES IDX 43 79 51 80 44 81 45 82 49 83 52 84 46 85 47 86 50 87 48 88
REMARK H PARENT 8 6 4 9 4 10 13 22 72 41 40 52
REMARK Flexibility Score: inf
ROOT
ATOM      1  C   UNL A   1      32.053  27.787  26.750  1.00  0.00     0.023 C 
ENDROOT
BRANCH   1   2
ATOM      2  C   UNL A   1      31.155  27.157  25.681  1.00  0.00     0.116 C 
BRANCH   2   3
ATOM      3  N   UNL A   1      31.945  26.697  24.552  1.00  0.00    -0.351 N 
ATOM      4  C   UNL A   1      32.183  27.297  23.345  1.00  0.00     0.275 C 
ATOM      5  O   UNL A   1      32.722  26.620  22.465  1.00  0.00    -0.269 OA
ATOM      6  H   UNL A   1      32.374  25.820  24.674  1.00  0.00     0.163 HD
BRANCH   4   7
ATOM      7  C   UNL A   1      31.794  28.762  23.096  1.00  0.00     0.361 C 
BRANCH   7   8
ATOM      8  N   UNL A   1      30.450  28.922  22.501  1.00  0.00    -0.336 N 
ATOM      9  H   UNL A   1      30.531  29.476  21.648  1.00  0.00     0.346 HD
ATOM     10  H   UNL A   1      30.080  27.992  22.301  1.00  0.00     0.346 HD
BRANCH   8  11
ATOM     11  C   UNL A   1      29.523  29.594  23.415  1.00  0.00     0.296 C 
BRANCH  11  12
ATOM     12  C   UNL A   1      28.085  29.878  22.906  1.00  0.00     0.114 C 
ATOM     13  C   UNL A   1      27.160  28.687  23.124  1.00  0.00     0.048 C 
ATOM     14  C   UNL A   1      28.108  30.298  21.432  1.00  0.00     0.043 C 
ATOM     15  O   UNL A   1      27.558  31.032  23.593  1.00  0.00    -0.369 OA
ATOM     16  C   UNL A   1      28.390  31.781  21.478  1.00  0.00     0.032 C 
ATOM     17  C   UNL A   1      27.882  32.210  22.840  1.00  0.00     0.161 C 
ENDBRANCH  11  12
ENDBRANCH   8  11
ENDBRANCH   7   8
ENDBRANCH   4   7
ENDBRANCH   2   3
ENDBRANCH   1   2
BRANCH   1  18
ATOM     18  C   UNL A   1      31.789  29.253  27.045  1.00  0.00     0.023 C 
BRANCH  18  19
ATOM     19  C   UNL A   1      32.776  30.205  26.397  1.00  0.00     0.116 C 
BRANCH  19  20
ATOM     20  N   UNL A   1      32.612  31.592  26.830  1.00  0.00    -0.352 N 
ATOM     21  C   UNL A   1      33.456  32.400  27.554  1.00  0.00     0.251 C 
ATOM     22  H   UNL A   1      31.764  32.013  26.561  1.00  0.00     0.163 HD
ATOM     23  O   UNL A   1      33.090  33.510  27.918  1.00  0.00    -0.269 OA
BRANCH  21  24
ATOM     24  C   UNL A   1      34.794  31.899  27.940  1.00  0.00     0.039 A 
ATOM     25  C   UNL A   1      35.864  32.795  28.003  1.00  0.00     0.014 A 
ATOM     26  C   UNL A   1      34.967  30.569  28.320  1.00  0.00     0.014 A 
ATOM     27  C   UNL A   1      37.069  32.385  28.580  1.00  0.00     0.010 A 
ATOM     28  C   UNL A   1      36.122  30.198  28.994  1.00  0.00     0.010 A 
ATOM     29  C   UNL A   1      37.178  31.108  29.150  1.00  0.00    -0.014 A 
BRANCH  29  30
ATOM     30  C   UNL A   1      38.362  30.698  29.950  1.00  0.00     0.031 A 
ATOM     31  C   UNL A   1      39.339  29.705  29.386  1.00  0.00     0.074 A 
ATOM     32  C   UNL A   1      38.481  31.116  31.226  1.00  0.00     0.049 A 
ATOM     33  N   UNL A   1      40.321  29.081  29.982  1.00  0.00    -0.248 NA
ATOM     34  C   UNL A   1      39.156  29.328  27.975  1.00  0.00     0.031 C 
ATOM     35  C   UNL A   1      37.559  32.021  31.916  1.00  0.00     0.029 A 
ATOM     36  N   UNL A   1      39.417  30.809  32.184  1.00  0.00    -0.354 N 
ATOM     37  C   UNL A   1      40.843  28.211  29.035  1.00  0.00     0.074 A 
ATOM     38  C   UNL A   1      40.045  28.355  27.838  1.00  0.00     0.031 C 
ATOM     39  C   UNL A   1      37.983  32.211  33.175  1.00  0.00     0.029 A 
ATOM     40  C   UNL A   1      39.179  31.406  33.399  1.00  0.00     0.049 A 
ATOM     41  H   UNL A   1      40.186  30.218  32.016  1.00  0.00     0.167 HD
ATOM     42  C   UNL A   1      41.908  27.382  29.147  1.00  0.00     0.037 A 
ATOM     43  C   UNL A   1      39.840  31.302  34.568  1.00  0.00     0.037 A 
ATOM     44  C   UNL A   1      42.742  27.293  30.315  1.00  0.00     0.049 A 
ATOM     45  C   UNL A   1      41.046  30.407  34.651  1.00  0.00     0.074 A 
ATOM     46  C   UNL A   1      43.913  26.577  30.484  1.00  0.00     0.029 A 
ATOM     47  N   UNL A   1      42.497  27.952  31.510  1.00  0.00    -0.354 N 
ATOM     48  N   UNL A   1      41.575  29.646  33.724  1.00  0.00    -0.248 NA
ATOM     49  C   UNL A   1      41.743  30.352  35.944  1.00  0.00     0.031 C 
ATOM     50  C   UNL A   1      44.359  26.775  31.795  1.00  0.00     0.029 A 
ATOM     51  C   UNL A   1      43.483  27.640  32.430  1.00  0.00     0.049 A 
ATOM     52  H   UNL A   1      41.735  28.552  31.680  1.00  0.00     0.167 HD
ATOM     53  C   UNL A   1      42.670  29.034  34.314  1.00  0.00     0.074 A 
ATOM     54  C   UNL A   1      42.744  29.526  35.674  1.00  0.00     0.031 C 
ATOM     55  C   UNL A   1      43.536  28.139  33.779  1.00  0.00     0.037 A 
BRANCH  42  56
ATOM     56  C   UNL A   1      42.244  26.518  27.970  1.00  0.00     0.064 A 
ATOM     57  C   UNL A   1      41.608  25.286  27.757  1.00  0.00     0.173 A 
ATOM     58  C   UNL A   1      43.183  26.947  27.021  1.00  0.00     0.173 A 
ATOM     59  F   UNL A   1      40.714  24.826  28.645  1.00  0.00    -0.203 F 
ATOM     60  C   UNL A   1      41.919  24.503  26.649  1.00  0.00     0.198 A 
ATOM     61  C   UNL A   1      43.472  26.173  25.899  1.00  0.00     0.198 A 
ATOM     62  F   UNL A   1      43.817  28.118  27.177  1.00  0.00    -0.203 F 
ATOM     63  F   UNL A   1      41.330  23.309  26.488  1.00  0.00    -0.200 F 
ATOM     64  C   UNL A   1      42.844  24.950  25.718  1.00  0.00     0.200 A 
ATOM     65  F   UNL A   1      44.360  26.610  24.996  1.00  0.00    -0.200 F 
ATOM     66  F   UNL A   1      43.136  24.198  24.648  1.00  0.00    -0.200 F 
ENDBRANCH  42  56
BRANCH  43  67
ATOM     67  C   UNL A   1      39.381  32.069  35.754  1.00  0.00     0.064 A 
ATOM     68  C   UNL A   1      39.900  33.342  36.028  1.00  0.00     0.173 A 
ATOM     69  C   UNL A   1      38.426  31.547  36.639  1.00  0.00     0.173 A 
ATOM     70  F   UNL A   1      40.831  33.872  35.222  1.00  0.00    -0.203 F 
ATOM     71  C   UNL A   1      39.495  34.057  37.153  1.00  0.00     0.198 A 
ATOM     72  C   UNL A   1      38.004  32.273  37.750  1.00  0.00     0.198 A 
ATOM     73  F   UNL A   1      37.897  30.335  36.417  1.00  0.00    -0.203 F 
ATOM     74  F   UNL A   1      40.038  35.254  37.415  1.00  0.00    -0.200 F 
ATOM     75  C   UNL A   1      38.543  33.524  38.011  1.00  0.00     0.200 A 
ATOM     76  F   UNL A   1      37.076  31.761  38.570  1.00  0.00    -0.200 F 
ATOM     77  F   UNL A   1      38.153  34.214  39.092  1.00  0.00    -0.200 F 
ENDBRANCH  43  67
BRANCH  55  78
ATOM     78  C   UNL A   1      44.638  27.641  34.662  1.00  0.00     0.064 A 
ATOM     79  C   UNL A   1      44.492  26.470  35.419  1.00  0.00     0.173 A 
ATOM     80  C   UNL A   1      45.869  28.313  34.715  1.00  0.00     0.173 A 
ATOM     81  F   UNL A   1      43.327  25.805  35.412  1.00  0.00    -0.203 F 
ATOM     82  C   UNL A   1      45.535  25.996  36.209  1.00  0.00     0.198 A 
ATOM     83  C   UNL A   1      46.917  27.822  35.487  1.00  0.00     0.198 A 
ATOM     84  F   UNL A   1      46.057  29.436  34.005  1.00  0.00    -0.203 F 
ATOM     85  F   UNL A   1      45.362  24.894  36.950  1.00  0.00    -0.200 F 
ATOM     86  C   UNL A   1      46.748  26.668  36.236  1.00  0.00     0.200 A 
ATOM     87  F   UNL A   1      48.093  28.467  35.506  1.00  0.00    -0.200 F 
ATOM     88  F   UNL A   1      47.754  26.204  36.990  1.00  0.00    -0.200 F 
ENDBRANCH  55  78
ENDBRANCH  29  30
ENDBRANCH  21  24
ENDBRANCH  19  20
ENDBRANCH  18  19
ENDBRANCH   1  18
TORSDOF 14
ENDMDL
MODEL 3
REMARK VINA RESULT:     -11.1      7.117     12.167
REMARK SMILES C[C@@]1(C[NH2+]CC(=O)NCCCCNC(=O)c2ccc(-c3c4nc(c(-c5c(F)c(F)c(F)c(F)c5F)c5ccc([nH]5)c(-c5c(F)c(F)c(F)c(F)c5F)c5nc(c(-c6c(F)c(F)c(F)c(F)c6F)c6ccc3[nH]6)C=C5)C=C4)cc2)CCCO1
REMARK SMILES IDX 10 1 9 2 8 3 6 4 7 5 5 7 4 8 3 11 2 12 1 13 79 14 82 15
REMARK SMILES IDX 80 16 81 17 11 18 12 19 13 20 14 21 15 23 16 24 17 25 78 26
REMARK SMILES IDX 18 27 77 28 19 29 20 30 21 31 71 32 22 33 76 34 70 35 72 36
REMARK SMILES IDX 23 37 75 38 69 39 68 40 24 42 56 43 36 44 55 45 37 46 40 47
REMARK SMILES IDX 54 48 73 49 38 50 39 51 53 53 74 54 41 55 25 56 26 57 34 58
REMARK SMILES IDX 27 59 28 60 32 61 35 62 29 63 30 64 33 65 31 66 57 67 58 68
REMARK SMILES IDX 66 69 59 70 60 71 64 72 67 73 61 74 62 75 65 76 63 77 42 78
REMARK SMILES IDX 43 79 51 80 44 81 45 82 49 83 52 84 46 85 47 86 50 87 48 88
REMARK H PARENT 8 6 4 9 4 10 13 22 72 41 40 52
REMARK Flexibility Score: inf
ROOT
ATOM      1  C   UNL A   1      36.740  20.900  25.438  1.00  0.00     0.023 C 
ENDROOT
BRANCH   1   2
ATOM      2  C   UNL A   1      35.964  22.210  25.606  1.00  0.00     0.116 C 
BRANCH   2   3
ATOM      3  N   UNL A   1      35.128  22.163  26.793  1.00  0.00    -0.351 N 
ATOM      4  C   UNL A   1      33.809  21.823  26.924  1.00  0.00     0.275 C 
ATOM      5  O   UNL A   1      33.262  22.054  28.006  1.00  0.00    -0.269 OA
ATOM      6  H   UNL A   1      35.579  22.415  27.631  1.00  0.00     0.163 HD
BRANCH   4   7
ATOM      7  C   UNL A   1      33.037  21.175  25.764  1.00  0.00     0.361 C 
BRANCH   7   8
ATOM      8  N   UNL A   1      33.054  19.697  25.799  1.00  0.00    -0.336 N 
ATOM      9  H   UNL A   1      33.465  19.392  26.682  1.00  0.00     0.346 HD
ATOM     10  H   UNL A   1      32.093  19.368  25.708  1.00  0.00     0.346 HD
BRANCH   8  11
ATOM     11  C   UNL A   1      33.833  19.133  24.695  1.00  0.00     0.296 C 
BRANCH  11  12
ATOM     12  C   UNL A   1      33.296  17.847  24.013  1.00  0.00     0.114 C 
ATOM     13  C   UNL A   1      32.505  18.161  22.749  1.00  0.00     0.048 C 
ATOM     14  C   UNL A   1      32.458  17.025  24.999  1.00  0.00     0.043 C 
ATOM     15  O   UNL A   1      34.405  16.984  23.687  1.00  0.00    -0.369 OA
ATOM     16  C   UNL A   1      33.478  16.205  25.751  1.00  0.00     0.032 C 
ATOM     17  C   UNL A   1      34.648  16.100  24.792  1.00  0.00     0.161 C 
ENDBRANCH  11  12
ENDBRANCH   8  11
ENDBRANCH   7   8
ENDBRANCH   4   7
ENDBRANCH   2   3
ENDBRANCH   1   2
BRANCH   1  18
ATOM     18  C   UNL A   1      38.187  21.047  25.000  1.00  0.00     0.023 C 
BRANCH  18  19
ATOM     19  C   UNL A   1      39.194  20.914  26.126  1.00  0.00     0.116 C 
BRANCH  19  20
ATOM     20  N   UNL A   1      40.018  19.709  26.026  1.00  0.00    -0.352 N 
ATOM     21  C   UNL A   1      41.382  19.559  26.111  1.00  0.00     0.251 C 
ATOM     22  H   UNL A   1      39.517  18.876  25.874  1.00  0.00     0.163 HD
ATOM     23  O   UNL A   1      41.900  18.473  25.887  1.00  0.00    -0.269 OA
BRANCH  21  24
ATOM     24  C   UNL A   1      42.228  20.733  26.421  1.00  0.00     0.039 A 
ATOM     25  C   UNL A   1      42.664  21.552  25.376  1.00  0.00     0.014 A 
ATOM     26  C   UNL A   1      42.514  21.067  27.744  1.00  0.00     0.014 A 
ATOM     27  C   UNL A   1      43.266  22.777  25.671  1.00  0.00     0.010 A 
ATOM     28  C   UNL A   1      43.006  22.332  28.034  1.00  0.00     0.010 A 
ATOM     29  C   UNL A   1      43.369  23.210  27.002  1.00  0.00    -0.014 A 
BRANCH  29  30
ATOM     30  C   UNL A   1      43.813  24.583  27.354  1.00  0.00     0.031 A 
ATOM     31  C   UNL A   1      42.808  25.597  27.824  1.00  0.00     0.074 A 
ATOM     32  C   UNL A   1      45.089  24.952  27.123  1.00  0.00     0.049 A 
ATOM     33  N   UNL A   1      42.952  26.885  28.001  1.00  0.00    -0.248 NA
ATOM     34  C   UNL A   1      41.445  25.103  28.084  1.00  0.00     0.031 C 
ATOM     35  C   UNL A   1      46.144  24.083  26.598  1.00  0.00     0.029 A 
ATOM     36  N   UNL A   1      45.710  26.167  27.275  1.00  0.00    -0.354 N 
ATOM     37  C   UNL A   1      41.695  27.359  28.350  1.00  0.00     0.074 A 
ATOM     38  C   UNL A   1      40.790  26.231  28.319  1.00  0.00     0.031 C 
ATOM     39  C   UNL A   1      47.283  24.785  26.489  1.00  0.00     0.029 A 
ATOM     40  C   UNL A   1      47.030  26.164  26.891  1.00  0.00     0.049 A 
ATOM     41  H   UNL A   1      45.254  26.966  27.626  1.00  0.00     0.167 HD
ATOM     42  C   UNL A   1      41.332  28.619  28.687  1.00  0.00     0.037 A 
ATOM     43  C   UNL A   1      47.930  27.166  26.850  1.00  0.00     0.037 A 
ATOM     44  C   UNL A   1      42.247  29.723  28.785  1.00  0.00     0.049 A 
ATOM     45  C   UNL A   1      47.511  28.547  27.272  1.00  0.00     0.074 A 
ATOM     46  C   UNL A   1      42.002  31.008  29.235  1.00  0.00     0.029 A 
ATOM     47  N   UNL A   1      43.588  29.668  28.434  1.00  0.00    -0.354 N 
ATOM     48  N   UNL A   1      46.335  28.966  27.673  1.00  0.00    -0.248 NA
ATOM     49  C   UNL A   1      48.541  29.594  27.232  1.00  0.00     0.031 C 
ATOM     50  C   UNL A   1      43.188  31.741  29.125  1.00  0.00     0.029 A 
ATOM     51  C   UNL A   1      44.178  30.904  28.637  1.00  0.00     0.049 A 
ATOM     52  H   UNL A   1      44.052  28.870  28.092  1.00  0.00     0.167 HD
ATOM     53  C   UNL A   1      46.487  30.318  27.944  1.00  0.00     0.074 A 
ATOM     54  C   UNL A   1      47.872  30.646  27.682  1.00  0.00     0.031 C 
ATOM     55  C   UNL A   1      45.559  31.210  28.367  1.00  0.00     0.037 A 
BRANCH  42  56
ATOM     56  C   UNL A   1      39.887  28.869  28.995  1.00  0.00     0.064 A 
ATOM     57  C   UNL A   1      39.376  28.724  30.293  1.00  0.00     0.173 A 
ATOM     58  C   UNL A   1      39.011  29.299  27.988  1.00  0.00     0.173 A 
ATOM     59  F   UNL A   1      40.171  28.301  31.287  1.00  0.00    -0.203 F 
ATOM     60  C   UNL A   1      38.035  28.977  30.567  1.00  0.00     0.198 A 
ATOM     61  C   UNL A   1      37.676  29.577  28.270  1.00  0.00     0.198 A 
ATOM     62  F   UNL A   1      39.451  29.455  26.729  1.00  0.00    -0.203 F 
ATOM     63  F   UNL A   1      37.559  28.791  31.806  1.00  0.00    -0.200 F 
ATOM     64  C   UNL A   1      37.189  29.411  29.557  1.00  0.00     0.200 A 
ATOM     65  F   UNL A   1      36.861  30.003  27.295  1.00  0.00    -0.200 F 
ATOM     66  F   UNL A   1      35.899  29.660  29.824  1.00  0.00    -0.200 F 
ENDBRANCH  42  56
BRANCH  43  67
ATOM     67  C   UNL A   1      49.320  26.900  26.397  1.00  0.00     0.064 A 
ATOM     68  C   UNL A   1      49.664  27.008  25.043  1.00  0.00     0.173 A 
ATOM     69  C   UNL A   1      50.325  26.527  27.301  1.00  0.00     0.173 A 
ATOM     70  F   UNL A   1      48.730  27.340  24.139  1.00  0.00    -0.203 F 
ATOM     71  C   UNL A   1      50.959  26.734  24.605  1.00  0.00     0.198 A 
ATOM     72  C   UNL A   1      51.626  26.278  26.866  1.00  0.00     0.198 A 
ATOM     73  F   UNL A   1      50.046  26.415  28.608  1.00  0.00    -0.203 F 
ATOM     74  F   UNL A   1      51.252  26.803  23.300  1.00  0.00    -0.200 F 
ATOM     75  C   UNL A   1      51.940  26.374  25.518  1.00  0.00     0.200 A 
ATOM     76  F   UNL A   1      52.573  25.942  27.752  1.00  0.00    -0.200 F 
ATOM     77  F   UNL A   1      53.185  26.113  25.097  1.00  0.00    -0.200 F 
ENDBRANCH  43  67
BRANCH  55  78
ATOM     78  C   UNL A   1      46.013  32.621  28.579  1.00  0.00     0.064 A 
ATOM     79  C   UNL A   1      45.904  33.581  27.563  1.00  0.00     0.173 A 
ATOM     80  C   UNL A   1      46.515  33.030  29.823  1.00  0.00     0.173 A 
ATOM     81  F   UNL A   1      45.445  33.231  26.352  1.00  0.00    -0.203 F 
ATOM     82  C   UNL A   1      46.295  34.899  27.781  1.00  0.00     0.198 A 
ATOM     83  C   UNL A   1      46.883  34.354  30.045  1.00  0.00     0.198 A 
ATOM     84  F   UNL A   1      46.634  32.148  30.828  1.00  0.00    -0.203 F 
ATOM     85  F   UNL A   1      46.215  35.792  26.786  1.00  0.00    -0.200 F 
ATOM     86  C   UNL A   1      46.777  35.285  29.023  1.00  0.00     0.200 A 
ATOM     87  F   UNL A   1      47.339  34.728  31.249  1.00  0.00    -0.200 F 
ATOM     88  F   UNL A   1      47.144  36.556  29.233  1.00  0.00    -0.200 F 
ENDBRANCH  55  78
ENDBRANCH  29  30
ENDBRANCH  21  24
ENDBRANCH  19  20
ENDBRANCH  18  19
ENDBRANCH   1  18
TORSDOF 14
ENDMDL
