MODEL 1
REMARK VINA RESULT:     -12.8      0.000      0.000
REMARK SMILES CSc1nc2nnc(C(=O)NCCCCNC(=O)c3ccc(-c4c5nc(c(-c6c(F)c(F)c(F)c(F)c6F)c6ccc([nH]6)c(-c6c(F)c(F)c(F)c(F)c6F)c6nc(c(-c7c(F)c(F)c(F)c(F)c7F)c7ccc4[nH]7)C=C6)C=C5)cc3)c(O)n2n1
REMARK SMILES IDX 14 1 13 2 12 3 11 4 9 5 10 6 8 8 3 9 4 10 85 11 5 12 84 13
REMARK SMILES IDX 6 14 82 15 7 16 2 17 1 18 83 19 15 21 16 22 17 23 18 25
REMARK SMILES IDX 19 26 20 27 81 28 21 29 80 30 22 31 23 32 24 33 74 34 25 35
REMARK SMILES IDX 79 36 73 37 75 38 26 39 78 40 72 41 71 42 27 44 59 45 39 46
REMARK SMILES IDX 58 47 40 48 43 49 57 50 76 51 41 52 42 53 56 55 77 56 44 57
REMARK SMILES IDX 28 58 29 59 37 60 30 61 31 62 35 63 38 64 32 65 33 66 36 67
REMARK SMILES IDX 34 68 60 69 61 70 69 71 62 72 63 73 67 74 70 75 64 76 65 77
REMARK SMILES IDX 68 78 66 79 45 80 46 81 54 82 47 83 48 84 52 85 55 86 49 87
REMARK SMILES IDX 50 88 53 89 51 90
REMARK H PARENT 11 7 83 20 16 24 75 43 43 54
REMARK Flexibility Score: inf
ROOT
ATOM      1  C   UNL A   1      43.182  39.354  26.853  1.00  0.00     0.023 C 
ENDROOT
BRANCH   1   2
ATOM      2  C   UNL A   1      41.855  40.011  26.435  1.00  0.00     0.023 C 
BRANCH   2   3
ATOM      3  C   UNL A   1      41.940  41.077  25.336  1.00  0.00     0.116 C 
BRANCH   3   4
ATOM      4  N   UNL A   1      42.989  42.055  25.587  1.00  0.00    -0.350 N 
ATOM      5  C   UNL A   1      43.711  42.882  24.780  1.00  0.00     0.277 C 
ATOM      6  O   UNL A   1      44.549  43.603  25.337  1.00  0.00    -0.267 OA
ATOM      7  H   UNL A   1      43.227  42.134  26.539  1.00  0.00     0.163 HD
BRANCH   5   8
ATOM      8  C   UNL A   1      43.534  42.971  23.287  1.00  0.00     0.212 A 
ATOM      9  C   UNL A   1      41.686  43.736  19.415  1.00  0.00     0.210 A 
ATOM     10  N   UNL A   1      42.873  43.074  19.346  1.00  0.00    -0.182 NA
ATOM     11  N   UNL A   1      41.305  44.120  20.632  1.00  0.00    -0.134 NA
ATOM     12  C   UNL A   1      43.240  42.992  20.608  1.00  0.00     0.275 A 
ATOM     13  N   UNL A   1      42.290  43.609  21.412  1.00  0.00    -0.159 N 
ATOM     14  N   UNL A   1      44.329  42.408  21.184  1.00  0.00    -0.108 NA
ATOM     15  C   UNL A   1      42.436  43.604  22.804  1.00  0.00     0.249 A 
ATOM     16  N   UNL A   1      44.464  42.402  22.437  1.00  0.00    -0.136 NA
BRANCH   9  17
ATOM     17  S   UNL A   1      40.675  44.002  18.023  1.00  0.00    -0.088 SA
ATOM     18  C   UNL A   1      41.872  44.780  16.924  1.00  0.00     0.094 C 
ENDBRANCH   9  17
BRANCH  15  19
ATOM     19  O   UNL A   1      41.454  44.217  23.572  1.00  0.00    -0.491 OA
ATOM     20  H   UNL A   1      41.370  44.005  24.481  1.00  0.00     0.295 HD
ENDBRANCH  15  19
ENDBRANCH   5   8
ENDBRANCH   3   4
ENDBRANCH   2   3
ENDBRANCH   1   2
BRANCH   1  21
ATOM     21  C   UNL A   1      43.186  37.832  26.820  1.00  0.00     0.116 C 
BRANCH  21  22
ATOM     22  N   UNL A   1      44.526  37.240  26.820  1.00  0.00    -0.352 N 
ATOM     23  C   UNL A   1      45.129  36.515  27.833  1.00  0.00     0.251 C 
ATOM     24  H   UNL A   1      45.059  37.373  26.004  1.00  0.00     0.163 HD
ATOM     25  O   UNL A   1      46.354  36.399  27.888  1.00  0.00    -0.269 OA
BRANCH  23  26
ATOM     26  C   UNL A   1      44.279  35.876  28.851  1.00  0.00     0.039 A 
ATOM     27  C   UNL A   1      44.047  36.449  30.103  1.00  0.00     0.014 A 
ATOM     28  C   UNL A   1      43.674  34.674  28.502  1.00  0.00     0.014 A 
ATOM     29  C   UNL A   1      43.134  35.834  30.957  1.00  0.00     0.010 A 
ATOM     30  C   UNL A   1      42.628  34.196  29.243  1.00  0.00     0.010 A 
ATOM     31  C   UNL A   1      42.409  34.715  30.507  1.00  0.00    -0.014 A 
BRANCH  31  32
ATOM     32  C   UNL A   1      41.363  34.108  31.317  1.00  0.00     0.031 A 
ATOM     33  C   UNL A   1      41.781  33.767  32.699  1.00  0.00     0.074 A 
ATOM     34  C   UNL A   1      40.076  33.995  30.920  1.00  0.00     0.049 A 
ATOM     35  N   UNL A   1      41.973  32.585  33.178  1.00  0.00    -0.248 NA
ATOM     36  C   UNL A   1      42.168  34.853  33.612  1.00  0.00     0.031 C 
ATOM     37  C   UNL A   1      39.424  34.526  29.716  1.00  0.00     0.029 A 
ATOM     38  N   UNL A   1      39.041  33.405  31.577  1.00  0.00    -0.354 N 
ATOM     39  C   UNL A   1      42.330  32.758  34.510  1.00  0.00     0.074 A 
ATOM     40  C   UNL A   1      42.593  34.164  34.675  1.00  0.00     0.031 C 
ATOM     41  C   UNL A   1      38.080  34.419  29.836  1.00  0.00     0.029 A 
ATOM     42  C   UNL A   1      37.787  33.648  31.028  1.00  0.00     0.049 A 
ATOM     43  H   UNL A   1      39.170  32.849  32.378  1.00  0.00     0.167 HD
ATOM     44  C   UNL A   1      42.151  31.748  35.406  1.00  0.00     0.037 A 
ATOM     45  C   UNL A   1      36.594  33.227  31.515  1.00  0.00     0.037 A 
ATOM     46  C   UNL A   1      41.969  30.488  34.727  1.00  0.00     0.049 A 
ATOM     47  C   UNL A   1      36.878  32.058  32.383  1.00  0.00     0.074 A 
ATOM     48  C   UNL A   1      42.744  29.725  33.873  1.00  0.00     0.029 A 
ATOM     49  N   UNL A   1      40.685  30.026  34.568  1.00  0.00    -0.354 N 
ATOM     50  N   UNL A   1      37.321  30.917  31.935  1.00  0.00    -0.248 NA
ATOM     51  C   UNL A   1      37.108  32.313  33.796  1.00  0.00     0.031 C 
ATOM     52  C   UNL A   1      41.830  29.205  32.908  1.00  0.00     0.029 A 
ATOM     53  C   UNL A   1      40.545  29.616  33.268  1.00  0.00     0.049 A 
ATOM     54  H   UNL A   1      39.989  29.995  35.264  1.00  0.00     0.167 HD
ATOM     55  C   UNL A   1      38.257  30.514  32.875  1.00  0.00     0.074 A 
ATOM     56  C   UNL A   1      38.022  31.369  34.037  1.00  0.00     0.031 C 
ATOM     57  C   UNL A   1      39.314  29.726  32.521  1.00  0.00     0.037 A 
BRANCH  44  58
ATOM     58  C   UNL A   1      41.756  31.941  36.851  1.00  0.00     0.064 A 
ATOM     59  C   UNL A   1      40.546  32.605  37.143  1.00  0.00     0.173 A 
ATOM     60  C   UNL A   1      42.640  31.789  37.941  1.00  0.00     0.173 A 
ATOM     61  F   UNL A   1      39.632  32.815  36.183  1.00  0.00    -0.203 F 
ATOM     62  C   UNL A   1      40.290  33.159  38.399  1.00  0.00     0.198 A 
ATOM     63  C   UNL A   1      42.357  32.297  39.207  1.00  0.00     0.198 A 
ATOM     64  F   UNL A   1      43.855  31.247  37.808  1.00  0.00    -0.203 F 
ATOM     65  F   UNL A   1      39.189  33.899  38.587  1.00  0.00    -0.200 F 
ATOM     66  C   UNL A   1      41.200  33.013  39.429  1.00  0.00     0.200 A 
ATOM     67  F   UNL A   1      43.261  32.160  40.187  1.00  0.00    -0.200 F 
ATOM     68  F   UNL A   1      40.990  33.601  40.613  1.00  0.00    -0.200 F 
ENDBRANCH  44  58
BRANCH  45  69
ATOM     69  C   UNL A   1      35.304  33.956  31.571  1.00  0.00     0.064 A 
ATOM     70  C   UNL A   1      35.066  34.917  32.568  1.00  0.00     0.173 A 
ATOM     71  C   UNL A   1      34.420  33.959  30.475  1.00  0.00     0.173 A 
ATOM     72  F   UNL A   1      35.884  35.004  33.628  1.00  0.00    -0.203 F 
ATOM     73  C   UNL A   1      34.039  35.860  32.452  1.00  0.00     0.198 A 
ATOM     74  C   UNL A   1      33.392  34.898  30.362  1.00  0.00     0.198 A 
ATOM     75  F   UNL A   1      34.599  33.120  29.445  1.00  0.00    -0.203 F 
ATOM     76  F   UNL A   1      33.894  36.810  33.386  1.00  0.00    -0.200 F 
ATOM     77  C   UNL A   1      33.213  35.860  31.340  1.00  0.00     0.200 A 
ATOM     78  F   UNL A   1      32.623  34.913  29.263  1.00  0.00    -0.200 F 
ATOM     79  F   UNL A   1      32.280  36.809  31.190  1.00  0.00    -0.200 F 
ENDBRANCH  45  69
BRANCH  57  80
ATOM     80  C   UNL A   1      39.294  29.096  31.153  1.00  0.00     0.064 A 
ATOM     81  C   UNL A   1      39.805  29.704  29.993  1.00  0.00     0.173 A 
ATOM     82  C   UNL A   1      38.883  27.760  31.049  1.00  0.00     0.173 A 
ATOM     83  F   UNL A   1      40.299  30.948  30.024  1.00  0.00    -0.203 F 
ATOM     84  C   UNL A   1      39.874  29.014  28.782  1.00  0.00     0.198 A 
ATOM     85  C   UNL A   1      38.986  27.062  29.849  1.00  0.00     0.198 A 
ATOM     86  F   UNL A   1      38.430  27.113  32.134  1.00  0.00    -0.203 F 
ATOM     87  F   UNL A   1      40.364  29.618  27.690  1.00  0.00    -0.200 F 
ATOM     88  C   UNL A   1      39.474  27.690  28.715  1.00  0.00     0.200 A 
ATOM     89  F   UNL A   1      38.639  25.769  29.801  1.00  0.00    -0.200 F 
ATOM     90  F   UNL A   1      39.584  27.011  27.565  1.00  0.00    -0.200 F 
ENDBRANCH  57  80
ENDBRANCH  31  32
ENDBRANCH  23  26
ENDBRANCH  21  22
ENDBRANCH   1  21
TORSDOF 13
ENDMDL
MODEL 2
REMARK VINA RESULT:     -12.7      7.954     12.256
REMARK SMILES CSc1nc2nnc(C(=O)NCCCCNC(=O)c3ccc(-c4c5nc(c(-c6c(F)c(F)c(F)c(F)c6F)c6ccc([nH]6)c(-c6c(F)c(F)c(F)c(F)c6F)c6nc(c(-c7c(F)c(F)c(F)c(F)c7F)c7ccc4[nH]7)C=C6)C=C5)cc3)c(O)n2n1
REMARK SMILES IDX 14 1 13 2 12 3 11 4 9 5 10 6 8 8 3 9 4 10 85 11 5 12 84 13
REMARK SMILES IDX 6 14 82 15 7 16 2 17 1 18 83 19 15 21 16 22 17 23 18 25
REMARK SMILES IDX 19 26 20 27 81 28 21 29 80 30 22 31 23 32 24 33 74 34 25 35
REMARK SMILES IDX 79 36 73 37 75 38 26 39 78 40 72 41 71 42 27 44 59 45 39 46
REMARK SMILES IDX 58 47 40 48 43 49 57 50 76 51 41 52 42 53 56 55 77 56 44 57
REMARK SMILES IDX 28 58 29 59 37 60 30 61 31 62 35 63 38 64 32 65 33 66 36 67
REMARK SMILES IDX 34 68 60 69 61 70 69 71 62 72 63 73 67 74 70 75 64 76 65 77
REMARK SMILES IDX 68 78 66 79 45 80 46 81 54 82 47 83 48 84 52 85 55 86 49 87
REMARK SMILES IDX 50 88 53 89 51 90
REMARK H PARENT 11 7 83 20 16 24 75 43 43 54
REMARK Flexibility Score: inf
ROOT
ATOM      1  C   UNL A   1      35.343  33.398  31.923  1.00  0.00     0.023 C 
ENDROOT
BRANCH   1   2
ATOM      2  C   UNL A   1      36.284  33.009  33.076  1.00  0.00     0.023 C 
BRANCH   2   3
ATOM      3  C   UNL A   1      36.992  31.655  32.950  1.00  0.00     0.116 C 
BRANCH   3   4
ATOM      4  N   UNL A   1      38.439  31.769  33.071  1.00  0.00    -0.350 N 
ATOM      5  C   UNL A   1      39.271  32.082  34.103  1.00  0.00     0.277 C 
ATOM      6  O   UNL A   1      40.484  32.089  33.852  1.00  0.00    -0.267 OA
ATOM      7  H   UNL A   1      38.915  31.582  32.229  1.00  0.00     0.163 HD
BRANCH   5   8
ATOM      8  C   UNL A   1      38.803  32.394  35.500  1.00  0.00     0.212 A 
ATOM      9  C   UNL A   1      36.885  31.919  39.385  1.00  0.00     0.210 A 
ATOM     10  N   UNL A   1      37.342  33.176  39.137  1.00  0.00    -0.182 NA
ATOM     11  N   UNL A   1      37.157  31.008  38.452  1.00  0.00    -0.134 NA
ATOM     12  C   UNL A   1      37.895  33.062  37.948  1.00  0.00     0.275 A 
ATOM     13  N   UNL A   1      37.780  31.751  37.502  1.00  0.00    -0.159 N 
ATOM     14  N   UNL A   1      38.496  33.991  37.151  1.00  0.00    -0.108 NA
ATOM     15  C   UNL A   1      38.250  31.396  36.234  1.00  0.00     0.249 A 
ATOM     16  N   UNL A   1      38.921  33.674  36.007  1.00  0.00    -0.136 NA
BRANCH   9  17
ATOM     17  S   UNL A   1      35.933  31.522  40.786  1.00  0.00    -0.088 SA
ATOM     18  C   UNL A   1      35.050  33.077  41.004  1.00  0.00     0.094 C 
ENDBRANCH   9  17
BRANCH  15  19
ATOM     19  O   UNL A   1      38.099  30.078  35.820  1.00  0.00    -0.491 OA
ATOM     20  H   UNL A   1      37.997  29.397  36.455  1.00  0.00     0.295 HD
ENDBRANCH  15  19
ENDBRANCH   5   8
ENDBRANCH   3   4
ENDBRANCH   2   3
ENDBRANCH   1   2
BRANCH   1  21
ATOM     21  C   UNL A   1      34.808  32.231  31.105  1.00  0.00     0.116 C 
BRANCH  21  22
ATOM     22  N   UNL A   1      34.496  32.571  29.715  1.00  0.00    -0.352 N 
ATOM     23  C   UNL A   1      35.365  32.606  28.638  1.00  0.00     0.251 C 
ATOM     24  H   UNL A   1      33.559  32.802  29.524  1.00  0.00     0.163 HD
ATOM     25  O   UNL A   1      35.099  33.257  27.627  1.00  0.00    -0.269 OA
BRANCH  23  26
ATOM     26  C   UNL A   1      36.622  31.844  28.717  1.00  0.00     0.039 A 
ATOM     27  C   UNL A   1      37.778  32.361  29.305  1.00  0.00     0.014 A 
ATOM     28  C   UNL A   1      36.608  30.550  28.206  1.00  0.00     0.014 A 
ATOM     29  C   UNL A   1      38.885  31.525  29.443  1.00  0.00     0.010 A 
ATOM     30  C   UNL A   1      37.607  29.676  28.535  1.00  0.00     0.010 A 
ATOM     31  C   UNL A   1      38.782  30.172  29.073  1.00  0.00    -0.014 A 
BRANCH  31  32
ATOM     32  C   UNL A   1      39.871  29.233  29.304  1.00  0.00     0.031 A 
ATOM     33  C   UNL A   1      40.165  28.979  30.736  1.00  0.00     0.074 A 
ATOM     34  C   UNL A   1      40.473  28.525  28.322  1.00  0.00     0.049 A 
ATOM     35  N   UNL A   1      41.199  29.378  31.394  1.00  0.00    -0.248 NA
ATOM     36  C   UNL A   1      39.136  28.338  31.569  1.00  0.00     0.031 C 
ATOM     37  C   UNL A   1      40.131  28.432  26.898  1.00  0.00     0.029 A 
ATOM     38  N   UNL A   1      41.523  27.666  28.427  1.00  0.00    -0.354 N 
ATOM     39  C   UNL A   1      41.052  28.886  32.686  1.00  0.00     0.074 A 
ATOM     40  C   UNL A   1      39.700  28.400  32.778  1.00  0.00     0.031 C 
ATOM     41  C   UNL A   1      40.814  27.415  26.326  1.00  0.00     0.029 A 
ATOM     42  C   UNL A   1      41.774  26.910  27.288  1.00  0.00     0.049 A 
ATOM     43  H   UNL A   1      42.063  27.586  29.246  1.00  0.00     0.167 HD
ATOM     44  C   UNL A   1      42.142  28.720  33.486  1.00  0.00     0.037 A 
ATOM     45  C   UNL A   1      42.719  25.950  27.146  1.00  0.00     0.037 A 
ATOM     46  C   UNL A   1      43.268  29.468  32.978  1.00  0.00     0.049 A 
ATOM     47  C   UNL A   1      43.750  26.210  28.179  1.00  0.00     0.074 A 
ATOM     48  C   UNL A   1      43.518  30.808  32.749  1.00  0.00     0.029 A 
ATOM     49  N   UNL A   1      44.211  28.788  32.247  1.00  0.00    -0.354 N 
ATOM     50  N   UNL A   1      44.530  27.255  28.173  1.00  0.00    -0.248 NA
ATOM     51  C   UNL A   1      43.594  25.548  29.464  1.00  0.00     0.031 C 
ATOM     52  C   UNL A   1      44.258  30.843  31.529  1.00  0.00     0.029 A 
ATOM     53  C   UNL A   1      44.481  29.526  31.124  1.00  0.00     0.049 A 
ATOM     54  H   UNL A   1      44.619  27.925  32.486  1.00  0.00     0.167 HD
ATOM     55  C   UNL A   1      44.605  27.641  29.503  1.00  0.00     0.074 A 
ATOM     56  C   UNL A   1      44.079  26.505  30.259  1.00  0.00     0.031 C 
ATOM     57  C   UNL A   1      44.817  28.945  29.845  1.00  0.00     0.037 A 
BRANCH  44  58
ATOM     58  C   UNL A   1      42.312  27.601  34.486  1.00  0.00     0.064 A 
ATOM     59  C   UNL A   1      42.823  26.363  34.041  1.00  0.00     0.173 A 
ATOM     60  C   UNL A   1      41.716  27.585  35.765  1.00  0.00     0.173 A 
ATOM     61  F   UNL A   1      43.404  26.255  32.837  1.00  0.00    -0.203 F 
ATOM     62  C   UNL A   1      42.658  25.188  34.777  1.00  0.00     0.198 A 
ATOM     63  C   UNL A   1      41.601  26.418  36.519  1.00  0.00     0.198 A 
ATOM     64  F   UNL A   1      41.122  28.660  36.293  1.00  0.00    -0.203 F 
ATOM     65  F   UNL A   1      43.037  24.016  34.250  1.00  0.00    -0.200 F 
ATOM     66  C   UNL A   1      42.038  25.214  36.012  1.00  0.00     0.200 A 
ATOM     67  F   UNL A   1      40.980  26.463  37.707  1.00  0.00    -0.200 F 
ATOM     68  F   UNL A   1      41.817  24.080  36.689  1.00  0.00    -0.200 F 
ENDBRANCH  44  58
BRANCH  45  69
ATOM     69  C   UNL A   1      42.624  24.649  26.438  1.00  0.00     0.064 A 
ATOM     70  C   UNL A   1      43.448  24.371  25.334  1.00  0.00     0.173 A 
ATOM     71  C   UNL A   1      41.964  23.550  27.020  1.00  0.00     0.173 A 
ATOM     72  F   UNL A   1      44.140  25.357  24.746  1.00  0.00    -0.203 F 
ATOM     73  C   UNL A   1      43.643  23.065  24.872  1.00  0.00     0.198 A 
ATOM     74  C   UNL A   1      42.156  22.247  26.555  1.00  0.00     0.198 A 
ATOM     75  F   UNL A   1      41.203  23.704  28.112  1.00  0.00    -0.203 F 
ATOM     76  F   UNL A   1      44.498  22.832  23.867  1.00  0.00    -0.200 F 
ATOM     77  C   UNL A   1      43.010  22.002  25.494  1.00  0.00     0.200 A 
ATOM     78  F   UNL A   1      41.568  21.222  27.189  1.00  0.00    -0.200 F 
ATOM     79  F   UNL A   1      43.255  20.744  25.103  1.00  0.00    -0.200 F 
ENDBRANCH  45  69
BRANCH  57  80
ATOM     80  C   UNL A   1      45.226  29.900  28.755  1.00  0.00     0.064 A 
ATOM     81  C   UNL A   1      44.323  30.622  27.953  1.00  0.00     0.173 A 
ATOM     82  C   UNL A   1      46.586  30.212  28.627  1.00  0.00     0.173 A 
ATOM     83  F   UNL A   1      43.001  30.449  28.074  1.00  0.00    -0.203 F 
ATOM     84  C   UNL A   1      44.766  31.588  27.050  1.00  0.00     0.198 A 
ATOM     85  C   UNL A   1      47.023  31.201  27.751  1.00  0.00     0.198 A 
ATOM     86  F   UNL A   1      47.491  29.589  29.399  1.00  0.00    -0.203 F 
ATOM     87  F   UNL A   1      43.884  32.261  26.296  1.00  0.00    -0.200 F 
ATOM     88  C   UNL A   1      46.115  31.884  26.958  1.00  0.00     0.200 A 
ATOM     89  F   UNL A   1      48.325  31.514  27.699  1.00  0.00    -0.200 F 
ATOM     90  F   UNL A   1      46.540  32.845  26.125  1.00  0.00    -0.200 F 
ENDBRANCH  57  80
ENDBRANCH  31  32
ENDBRANCH  23  26
ENDBRANCH  21  22
ENDBRANCH   1  21
TORSDOF 13
ENDMDL
MODEL 3
REMARK VINA RESULT:     -12.7      6.958     11.981
REMARK SMILES CSc1nc2nnc(C(=O)NCCCCNC(=O)c3ccc(-c4c5nc(c(-c6c(F)c(F)c(F)c(F)c6F)c6ccc([nH]6)c(-c6c(F)c(F)c(F)c(F)c6F)c6nc(c(-c7c(F)c(F)c(F)c(F)c7F)c7ccc4[nH]7)C=C6)C=C5)cc3)c(O)n2n1
REMARK SMILES IDX 14 1 13 2 12 3 11 4 9 5 10 6 8 8 3 9 4 10 85 11 5 12 84 13
REMARK SMILES IDX 6 14 82 15 7 16 2 17 1 18 83 19 15 21 16 22 17 23 18 25
REMARK SMILES IDX 19 26 20 27 81 28 21 29 80 30 22 31 23 32 24 33 74 34 25 35
REMARK SMILES IDX 79 36 73 37 75 38 26 39 78 40 72 41 71 42 27 44 59 45 39 46
REMARK SMILES IDX 58 47 40 48 43 49 57 50 76 51 41 52 42 53 56 55 77 56 44 57
REMARK SMILES IDX 28 58 29 59 37 60 30 61 31 62 35 63 38 64 32 65 33 66 36 67
REMARK SMILES IDX 34 68 60 69 61 70 69 71 62 72 63 73 67 74 70 75 64 76 65 77
REMARK SMILES IDX 68 78 66 79 45 80 46 81 54 82 47 83 48 84 52 85 55 86 49 87
REMARK SMILES IDX 50 88 53 89 51 90
REMARK H PARENT 11 7 83 20 16 24 75 43 43 54
REMARK Flexibility Score: inf
ROOT
ATOM      1  C   UNL A   1      43.422  24.134  24.811  1.00  0.00     0.023 C 
ENDROOT
BRANCH   1   2
ATOM      2  C   UNL A   1      43.163  25.559  25.330  1.00  0.00     0.023 C 
BRANCH   2   3
ATOM      3  C   UNL A   1      44.260  26.175  26.206  1.00  0.00     0.116 C 
BRANCH   3   4
ATOM      4  N   UNL A   1      45.464  25.357  26.249  1.00  0.00    -0.350 N 
ATOM      5  C   UNL A   1      46.027  24.568  27.206  1.00  0.00     0.277 C 
ATOM      6  O   UNL A   1      47.085  24.001  26.902  1.00  0.00    -0.267 OA
ATOM      7  H   UNL A   1      45.980  25.380  25.410  1.00  0.00     0.163 HD
BRANCH   5   8
ATOM      8  C   UNL A   1      45.434  24.344  28.572  1.00  0.00     0.212 A 
ATOM      9  C   UNL A   1      44.483  24.962  32.780  1.00  0.00     0.210 A 
ATOM     10  N   UNL A   1      44.076  23.761  32.286  1.00  0.00    -0.182 NA
ATOM     11  N   UNL A   1      45.033  25.796  31.900  1.00  0.00    -0.134 NA
ATOM     12  C   UNL A   1      44.439  23.822  31.022  1.00  0.00     0.275 A 
ATOM     13  N   UNL A   1      45.040  25.049  30.767  1.00  0.00    -0.159 N 
ATOM     14  N   UNL A   1      44.332  22.906  30.017  1.00  0.00    -0.108 NA
ATOM     15  C   UNL A   1      45.558  25.329  29.498  1.00  0.00     0.249 A 
ATOM     16  N   UNL A   1      44.797  23.156  28.873  1.00  0.00    -0.136 NA
BRANCH   9  17
ATOM     17  S   UNL A   1      44.374  25.369  34.469  1.00  0.00    -0.088 SA
ATOM     18  C   UNL A   1      43.130  24.175  34.990  1.00  0.00     0.094 C 
ENDBRANCH   9  17
BRANCH  15  19
ATOM     19  O   UNL A   1      46.166  26.560  29.291  1.00  0.00    -0.491 OA
ATOM     20  H   UNL A   1      47.099  26.616  29.226  1.00  0.00     0.295 HD
ENDBRANCH  15  19
ENDBRANCH   5   8
ENDBRANCH   3   4
ENDBRANCH   2   3
ENDBRANCH   1   2
BRANCH   1  21
ATOM     21  C   UNL A   1      43.147  23.022  25.813  1.00  0.00     0.116 C 
BRANCH  21  22
ATOM     22  N   UNL A   1      41.808  22.439  25.705  1.00  0.00    -0.352 N 
ATOM     23  C   UNL A   1      40.697  22.725  26.479  1.00  0.00     0.251 C 
ATOM     24  H   UNL A   1      41.684  21.766  24.998  1.00  0.00     0.163 HD
ATOM     25  O   UNL A   1      39.759  21.931  26.562  1.00  0.00    -0.269 OA
BRANCH  23  26
ATOM     26  C   UNL A   1      40.649  24.004  27.206  1.00  0.00     0.039 A 
ATOM     27  C   UNL A   1      41.508  24.296  28.268  1.00  0.00     0.014 A 
ATOM     28  C   UNL A   1      39.725  24.945  26.767  1.00  0.00     0.014 A 
ATOM     29  C   UNL A   1      41.472  25.576  28.819  1.00  0.00     0.010 A 
ATOM     30  C   UNL A   1      39.842  26.251  27.157  1.00  0.00     0.010 A 
ATOM     31  C   UNL A   1      40.648  26.558  28.239  1.00  0.00    -0.014 A 
BRANCH  31  32
ATOM     32  C   UNL A   1      40.662  27.937  28.704  1.00  0.00     0.031 A 
ATOM     33  C   UNL A   1      41.770  28.756  28.154  1.00  0.00     0.074 A 
ATOM     34  C   UNL A   1      39.677  28.489  29.448  1.00  0.00     0.049 A 
ATOM     35  N   UNL A   1      42.804  29.185  28.794  1.00  0.00    -0.248 NA
ATOM     36  C   UNL A   1      41.815  29.007  26.705  1.00  0.00     0.031 C 
ATOM     37  C   UNL A   1      38.382  27.923  29.844  1.00  0.00     0.029 A 
ATOM     38  N   UNL A   1      39.619  29.744  29.969  1.00  0.00    -0.354 N 
ATOM     39  C   UNL A   1      43.550  29.921  27.880  1.00  0.00     0.074 A 
ATOM     40  C   UNL A   1      42.985  29.642  26.585  1.00  0.00     0.031 C 
ATOM     41  C   UNL A   1      37.590  28.895  30.352  1.00  0.00     0.029 A 
ATOM     42  C   UNL A   1      38.382  30.102  30.492  1.00  0.00     0.049 A 
ATOM     43  H   UNL A   1      40.394  30.351  29.976  1.00  0.00     0.167 HD
ATOM     44  C   UNL A   1      44.422  30.873  28.313  1.00  0.00     0.037 A 
ATOM     45  C   UNL A   1      38.042  31.304  31.018  1.00  0.00     0.037 A 
ATOM     46  C   UNL A   1      44.722  30.692  29.714  1.00  0.00     0.049 A 
ATOM     47  C   UNL A   1      39.306  31.964  31.425  1.00  0.00     0.074 A 
ATOM     48  C   UNL A   1      45.301  29.682  30.459  1.00  0.00     0.029 A 
ATOM     49  N   UNL A   1      44.051  31.478  30.619  1.00  0.00    -0.354 N 
ATOM     50  N   UNL A   1      40.065  31.533  32.394  1.00  0.00    -0.248 NA
ATOM     51  C   UNL A   1      39.956  32.827  30.453  1.00  0.00     0.031 C 
ATOM     52  C   UNL A   1      44.548  29.637  31.670  1.00  0.00     0.029 A 
ATOM     53  C   UNL A   1      43.604  30.665  31.628  1.00  0.00     0.049 A 
ATOM     54  H   UNL A   1      43.915  32.451  30.554  1.00  0.00     0.167 HD
ATOM     55  C   UNL A   1      41.359  31.698  31.922  1.00  0.00     0.074 A 
ATOM     56  C   UNL A   1      41.231  32.575  30.760  1.00  0.00     0.031 C 
ATOM     57  C   UNL A   1      42.369  30.883  32.344  1.00  0.00     0.037 A 
BRANCH  44  58
ATOM     58  C   UNL A   1      44.699  32.174  27.598  1.00  0.00     0.064 A 
ATOM     59  C   UNL A   1      45.899  32.307  26.868  1.00  0.00     0.173 A 
ATOM     60  C   UNL A   1      44.007  33.378  27.850  1.00  0.00     0.173 A 
ATOM     61  F   UNL A   1      46.646  31.231  26.577  1.00  0.00    -0.203 F 
ATOM     62  C   UNL A   1      46.412  33.556  26.510  1.00  0.00     0.198 A 
ATOM     63  C   UNL A   1      44.498  34.618  27.443  1.00  0.00     0.198 A 
ATOM     64  F   UNL A   1      42.895  33.426  28.591  1.00  0.00    -0.203 F 
ATOM     65  F   UNL A   1      47.622  33.638  25.940  1.00  0.00    -0.200 F 
ATOM     66  C   UNL A   1      45.716  34.712  26.806  1.00  0.00     0.200 A 
ATOM     67  F   UNL A   1      43.814  35.728  27.756  1.00  0.00    -0.200 F 
ATOM     68  F   UNL A   1      46.236  35.913  26.525  1.00  0.00    -0.200 F 
ENDBRANCH  44  58
BRANCH  45  69
ATOM     69  C   UNL A   1      36.772  32.057  30.872  1.00  0.00     0.064 A 
ATOM     70  C   UNL A   1      35.922  32.251  31.974  1.00  0.00     0.173 A 
ATOM     71  C   UNL A   1      36.529  32.865  29.745  1.00  0.00     0.173 A 
ATOM     72  F   UNL A   1      36.110  31.546  33.101  1.00  0.00    -0.203 F 
ATOM     73  C   UNL A   1      34.923  33.230  31.970  1.00  0.00     0.198 A 
ATOM     74  C   UNL A   1      35.529  33.840  29.740  1.00  0.00     0.198 A 
ATOM     75  F   UNL A   1      37.322  32.797  28.666  1.00  0.00    -0.203 F 
ATOM     76  F   UNL A   1      34.185  33.437  33.070  1.00  0.00    -0.200 F 
ATOM     77  C   UNL A   1      34.738  34.035  30.860  1.00  0.00     0.200 A 
ATOM     78  F   UNL A   1      35.384  34.639  28.673  1.00  0.00    -0.200 F 
ATOM     79  F   UNL A   1      33.835  35.024  30.882  1.00  0.00    -0.200 F 
ENDBRANCH  45  69
BRANCH  57  80
ATOM     80  C   UNL A   1      42.100  29.980  33.519  1.00  0.00     0.064 A 
ATOM     81  C   UNL A   1      41.611  28.666  33.412  1.00  0.00     0.173 A 
ATOM     82  C   UNL A   1      42.505  30.412  34.789  1.00  0.00     0.173 A 
ATOM     83  F   UNL A   1      41.284  28.144  32.224  1.00  0.00    -0.203 F 
ATOM     84  C   UNL A   1      41.508  27.837  34.530  1.00  0.00     0.198 A 
ATOM     85  C   UNL A   1      42.435  29.572  35.896  1.00  0.00     0.198 A 
ATOM     86  F   UNL A   1      43.024  31.640  34.944  1.00  0.00    -0.203 F 
ATOM     87  F   UNL A   1      41.036  26.588  34.401  1.00  0.00    -0.200 F 
ATOM     88  C   UNL A   1      41.930  28.288  35.769  1.00  0.00     0.200 A 
ATOM     89  F   UNL A   1      42.887  29.999  37.083  1.00  0.00    -0.200 F 
ATOM     90  F   UNL A   1      41.877  27.478  36.835  1.00  0.00    -0.200 F 
ENDBRANCH  57  80
ENDBRANCH  31  32
ENDBRANCH  23  26
ENDBRANCH  21  22
ENDBRANCH   1  21
TORSDOF 13
ENDMDL
