MODEL 1
REMARK VINA RESULT:     -11.8      0.000      0.000
REMARK SMILES Cn1cc(S(=O)(=O)NC[C@H]2CC[C@@H](C(=O)NCCCCNC(=O)c3ccc(-c4c5nc(c(-c6c(F)c(F)c(F)c(F)c6F)c6ccc([nH]6)c(-c6c(F)c(F)c(F)c(F)c6F)c6nc(c(-c7c(F)c(F)c(F)c(F)c7F)c7ccc4[nH]7)C=C6)C=C5)cc3)CC2)cn1
REMARK SMILES IDX 17 1 16 2 14 3 15 4 13 6 10 7 11 8 88 9 12 10 87 11 9 12
REMARK SMILES IDX 8 13 5 15 6 16 7 17 4 18 1 19 2 20 3 21 90 22 89 23 18 24
REMARK SMILES IDX 19 25 20 26 21 27 22 28 23 30 24 31 25 32 86 33 26 34 85 35
REMARK SMILES IDX 27 36 28 37 29 38 79 39 30 40 84 41 78 42 80 43 31 44 83 45
REMARK SMILES IDX 77 46 76 47 32 49 64 50 44 51 63 52 45 53 48 54 62 55 81 56
REMARK SMILES IDX 46 57 47 58 61 60 82 61 49 62 33 63 34 64 42 65 35 66 36 67
REMARK SMILES IDX 40 68 43 69 37 70 38 71 41 72 39 73 65 74 66 75 74 76 67 77
REMARK SMILES IDX 68 78 72 79 75 80 69 81 70 82 73 83 71 84 50 85 51 86 59 87
REMARK SMILES IDX 52 88 53 89 57 90 60 91 54 92 55 93 58 94 56 95
REMARK H PARENT 16 5 8 14 21 29 80 48 48 59
REMARK Flexibility Score: inf
ROOT
ATOM      1  C   UNL A   1      47.719  26.692  30.046  1.00  0.00     0.116 C 
ENDROOT
BRANCH   1   2
ATOM      2  N   UNL A   1      48.341  25.604  29.325  1.00  0.00    -0.356 N 
ATOM      3  C   UNL A   1      48.109  25.088  28.092  1.00  0.00     0.223 C 
ATOM      4  O   UNL A   1      49.038  24.427  27.608  1.00  0.00    -0.275 OA
ATOM      5  H   UNL A   1      49.065  25.156  29.819  1.00  0.00     0.163 HD
BRANCH   3   6
ATOM      6  C   UNL A   1      46.811  25.245  27.278  1.00  0.00     0.078 C 
ATOM      7  C   UNL A   1      45.851  23.146  25.336  1.00  0.00     0.004 C 
ATOM      8  C   UNL A   1      45.698  22.996  26.850  1.00  0.00     0.006 C 
ATOM      9  C   UNL A   1      46.773  24.277  24.861  1.00  0.00     0.006 C 
ATOM     10  C   UNL A   1      45.677  24.291  27.635  1.00  0.00     0.014 C 
ATOM     11  C   UNL A   1      46.921  25.490  25.777  1.00  0.00     0.014 C 
BRANCH   7  12
ATOM     12  C   UNL A   1      46.170  21.793  24.651  1.00  0.00     0.102 C 
BRANCH  12  13
ATOM     13  N   UNL A   1      45.913  20.566  25.458  1.00  0.00    -0.211 NA
ATOM     14  H   UNL A   1      46.809  20.088  25.552  1.00  0.00     0.141 HD
BRANCH  13  15
ATOM     15  S   UNL A   1      44.790  19.392  24.946  1.00  0.00     0.243 S 
ATOM     16  O   UNL A   1      45.206  18.078  25.376  1.00  0.00    -0.207 OA
ATOM     17  O   UNL A   1      44.527  19.655  23.552  1.00  0.00    -0.207 OA
BRANCH  15  18
ATOM     18  C   UNL A   1      43.290  19.650  25.705  1.00  0.00     0.120 A 
ATOM     19  C   UNL A   1      40.596  21.437  27.253  1.00  0.00     0.173 C 
ATOM     20  N   UNL A   1      41.548  20.524  26.668  1.00  0.00    -0.274 N 
ATOM     21  C   UNL A   1      42.718  20.853  26.051  1.00  0.00     0.130 A 
ATOM     22  N   UNL A   1      41.321  19.197  26.727  1.00  0.00    -0.180 NA
ATOM     23  C   UNL A   1      42.389  18.664  26.124  1.00  0.00     0.156 A 
ENDBRANCH  15  18
ENDBRANCH  13  15
ENDBRANCH  12  13
ENDBRANCH   7  12
ENDBRANCH   3   6
ENDBRANCH   1   2
BRANCH   1  24
ATOM     24  C   UNL A   1      47.235  26.313  31.449  1.00  0.00     0.023 C 
BRANCH  24  25
ATOM     25  C   UNL A   1      48.292  25.685  32.360  1.00  0.00     0.023 C 
BRANCH  25  26
ATOM     26  C   UNL A   1      47.765  24.656  33.361  1.00  0.00     0.116 C 
BRANCH  26  27
ATOM     27  N   UNL A   1      48.245  24.834  34.724  1.00  0.00    -0.352 N 
ATOM     28  C   UNL A   1      47.610  25.478  35.767  1.00  0.00     0.251 C 
ATOM     29  H   UNL A   1      49.129  24.448  34.926  1.00  0.00     0.163 HD
ATOM     30  O   UNL A   1      48.122  25.493  36.883  1.00  0.00    -0.269 OA
BRANCH  28  31
ATOM     31  C   UNL A   1      46.372  26.251  35.488  1.00  0.00     0.039 A 
ATOM     32  C   UNL A   1      46.505  27.566  35.032  1.00  0.00     0.014 A 
ATOM     33  C   UNL A   1      45.111  25.653  35.538  1.00  0.00     0.014 A 
ATOM     34  C   UNL A   1      45.396  28.231  34.504  1.00  0.00     0.010 A 
ATOM     35  C   UNL A   1      44.018  26.292  34.951  1.00  0.00     0.010 A 
ATOM     36  C   UNL A   1      44.160  27.573  34.395  1.00  0.00    -0.014 A 
BRANCH  36  37
ATOM     37  C   UNL A   1      43.035  28.178  33.633  1.00  0.00     0.031 A 
ATOM     38  C   UNL A   1      42.853  27.890  32.171  1.00  0.00     0.074 A 
ATOM     39  C   UNL A   1      42.218  29.056  34.249  1.00  0.00     0.049 A 
ATOM     40  N   UNL A   1      41.952  28.359  31.342  1.00  0.00    -0.248 NA
ATOM     41  C   UNL A   1      43.821  26.973  31.554  1.00  0.00     0.031 C 
ATOM     42  C   UNL A   1      42.326  29.472  35.650  1.00  0.00     0.029 A 
ATOM     43  N   UNL A   1      41.141  29.765  33.777  1.00  0.00    -0.354 N 
ATOM     44  C   UNL A   1      42.248  27.799  30.108  1.00  0.00     0.074 A 
ATOM     45  C   UNL A   1      43.440  26.995  30.284  1.00  0.00     0.031 C 
ATOM     46  C   UNL A   1      41.342  30.342  35.928  1.00  0.00     0.029 A 
ATOM     47  C   UNL A   1      40.552  30.569  34.722  1.00  0.00     0.049 A 
ATOM     48  H   UNL A   1      40.821  29.703  32.849  1.00  0.00     0.167 HD
ATOM     49  C   UNL A   1      41.576  27.926  28.939  1.00  0.00     0.037 A 
ATOM     50  C   UNL A   1      39.493  31.398  34.630  1.00  0.00     0.037 A 
ATOM     51  C   UNL A   1      40.384  28.715  28.764  1.00  0.00     0.049 A 
ATOM     52  C   UNL A   1      38.764  31.519  33.320  1.00  0.00     0.074 A 
ATOM     53  C   UNL A   1      39.601  28.860  27.631  1.00  0.00     0.029 A 
ATOM     54  N   UNL A   1      39.805  29.498  29.751  1.00  0.00    -0.354 N 
ATOM     55  N   UNL A   1      39.006  30.921  32.180  1.00  0.00    -0.248 NA
ATOM     56  C   UNL A   1      37.608  32.428  33.287  1.00  0.00     0.031 C 
ATOM     57  C   UNL A   1      38.570  29.760  27.921  1.00  0.00     0.029 A 
ATOM     58  C   UNL A   1      38.684  30.142  29.248  1.00  0.00     0.049 A 
ATOM     59  H   UNL A   1      40.139  29.585  30.673  1.00  0.00     0.167 HD
ATOM     60  C   UNL A   1      38.021  31.355  31.305  1.00  0.00     0.074 A 
ATOM     61  C   UNL A   1      37.169  32.260  32.048  1.00  0.00     0.031 C 
ATOM     62  C   UNL A   1      37.839  31.032  30.002  1.00  0.00     0.037 A 
BRANCH  49  63
ATOM     63  C   UNL A   1      42.113  27.181  27.753  1.00  0.00     0.064 A 
ATOM     64  C   UNL A   1      41.657  25.895  27.430  1.00  0.00     0.173 A 
ATOM     65  C   UNL A   1      43.073  27.769  26.914  1.00  0.00     0.173 A 
ATOM     66  F   UNL A   1      40.748  25.287  28.206  1.00  0.00    -0.203 F 
ATOM     67  C   UNL A   1      42.162  25.211  26.327  1.00  0.00     0.198 A 
ATOM     68  C   UNL A   1      43.556  27.092  25.797  1.00  0.00     0.198 A 
ATOM     69  F   UNL A   1      43.537  29.000  27.174  1.00  0.00    -0.203 F 
ATOM     70  F   UNL A   1      41.746  23.964  26.066  1.00  0.00    -0.200 F 
ATOM     71  C   UNL A   1      43.107  25.811  25.510  1.00  0.00     0.200 A 
ATOM     72  F   UNL A   1      44.460  27.678  24.999  1.00  0.00    -0.200 F 
ATOM     73  F   UNL A   1      43.591  25.154  24.447  1.00  0.00    -0.200 F 
ENDBRANCH  49  63
BRANCH  50  74
ATOM     74  C   UNL A   1      39.032  32.152  35.824  1.00  0.00     0.064 A 
ATOM     75  C   UNL A   1      39.434  33.479  36.032  1.00  0.00     0.173 A 
ATOM     76  C   UNL A   1      38.193  31.565  36.782  1.00  0.00     0.173 A 
ATOM     77  F   UNL A   1      40.254  34.075  35.154  1.00  0.00    -0.203 F 
ATOM     78  C   UNL A   1      39.029  34.185  37.162  1.00  0.00     0.198 A 
ATOM     79  C   UNL A   1      37.769  32.280  37.900  1.00  0.00     0.198 A 
ATOM     80  F   UNL A   1      37.779  30.299  36.627  1.00  0.00    -0.203 F 
ATOM     81  F   UNL A   1      39.463  35.438  37.358  1.00  0.00    -0.200 F 
ATOM     82  C   UNL A   1      38.194  33.587  38.093  1.00  0.00     0.200 A 
ATOM     83  F   UNL A   1      36.952  31.703  38.792  1.00  0.00    -0.200 F 
ATOM     84  F   UNL A   1      37.803  34.267  39.181  1.00  0.00    -0.200 F 
ENDBRANCH  50  74
BRANCH  62  85
ATOM     85  C   UNL A   1      36.652  31.631  29.304  1.00  0.00     0.064 A 
ATOM     86  C   UNL A   1      35.534  30.858  28.960  1.00  0.00     0.173 A 
ATOM     87  C   UNL A   1      36.622  33.002  29.009  1.00  0.00     0.173 A 
ATOM     88  F   UNL A   1      35.524  29.539  29.205  1.00  0.00    -0.203 F 
ATOM     89  C   UNL A   1      34.437  31.433  28.325  1.00  0.00     0.198 A 
ATOM     90  C   UNL A   1      35.512  33.579  28.397  1.00  0.00     0.198 A 
ATOM     91  F   UNL A   1      37.665  33.785  29.322  1.00  0.00    -0.203 F 
ATOM     92  F   UNL A   1      33.397  30.668  27.965  1.00  0.00    -0.200 F 
ATOM     93  C   UNL A   1      34.423  32.792  28.050  1.00  0.00     0.200 A 
ATOM     94  F   UNL A   1      35.497  34.894  28.143  1.00  0.00    -0.200 F 
ATOM     95  F   UNL A   1      33.364  33.345  27.443  1.00  0.00    -0.200 F 
ENDBRANCH  62  85
ENDBRANCH  36  37
ENDBRANCH  28  31
ENDBRANCH  26  27
ENDBRANCH  25  26
ENDBRANCH  24  25
ENDBRANCH   1  24
TORSDOF 15
ENDMDL
MODEL 2
REMARK VINA RESULT:     -11.0      0.516      7.363
REMARK SMILES Cn1cc(S(=O)(=O)NC[C@H]2CC[C@@H](C(=O)NCCCCNC(=O)c3ccc(-c4c5nc(c(-c6c(F)c(F)c(F)c(F)c6F)c6ccc([nH]6)c(-c6c(F)c(F)c(F)c(F)c6F)c6nc(c(-c7c(F)c(F)c(F)c(F)c7F)c7ccc4[nH]7)C=C6)C=C5)cc3)CC2)cn1
REMARK SMILES IDX 17 1 16 2 14 3 15 4 13 6 10 7 11 8 88 9 12 10 87 11 9 12
REMARK SMILES IDX 8 13 5 15 6 16 7 17 4 18 1 19 2 20 3 21 90 22 89 23 18 24
REMARK SMILES IDX 19 25 20 26 21 27 22 28 23 30 24 31 25 32 86 33 26 34 85 35
REMARK SMILES IDX 27 36 28 37 29 38 79 39 30 40 84 41 78 42 80 43 31 44 83 45
REMARK SMILES IDX 77 46 76 47 32 49 64 50 44 51 63 52 45 53 48 54 62 55 81 56
REMARK SMILES IDX 46 57 47 58 61 60 82 61 49 62 33 63 34 64 42 65 35 66 36 67
REMARK SMILES IDX 40 68 43 69 37 70 38 71 41 72 39 73 65 74 66 75 74 76 67 77
REMARK SMILES IDX 68 78 72 79 75 80 69 81 70 82 73 83 71 84 50 85 51 86 59 87
REMARK SMILES IDX 52 88 53 89 57 90 60 91 54 92 55 93 58 94 56 95
REMARK H PARENT 16 5 8 14 21 29 80 48 48 59
REMARK Flexibility Score: inf
ROOT
ATOM      1  C   UNL A   1      48.021  26.543  30.092  1.00  0.00     0.116 C 
ENDROOT
BRANCH   1   2
ATOM      2  N   UNL A   1      48.593  25.500  29.271  1.00  0.00    -0.356 N 
ATOM      3  C   UNL A   1      48.285  25.058  28.025  1.00  0.00     0.223 C 
ATOM      4  O   UNL A   1      49.180  24.426  27.448  1.00  0.00    -0.275 OA
ATOM      5  H   UNL A   1      49.344  25.022  29.692  1.00  0.00     0.163 HD
BRANCH   3   6
ATOM      6  C   UNL A   1      46.940  25.264  27.303  1.00  0.00     0.078 C 
ATOM      7  C   UNL A   1      45.809  23.241  25.373  1.00  0.00     0.004 C 
ATOM      8  C   UNL A   1      45.752  23.051  26.889  1.00  0.00     0.006 C 
ATOM      9  C   UNL A   1      46.724  24.366  24.869  1.00  0.00     0.006 C 
ATOM     10  C   UNL A   1      45.810  24.324  27.708  1.00  0.00     0.014 C 
ATOM     11  C   UNL A   1      46.958  25.549  25.805  1.00  0.00     0.014 C 
BRANCH   7  12
ATOM     12  C   UNL A   1      46.053  21.902  24.632  1.00  0.00     0.102 C 
BRANCH  12  13
ATOM     13  N   UNL A   1      45.914  20.660  25.447  1.00  0.00    -0.211 NA
ATOM     14  H   UNL A   1      46.853  20.278  25.555  1.00  0.00     0.141 HD
BRANCH  13  15
ATOM     15  S   UNL A   1      44.925  19.373  24.932  1.00  0.00     0.243 S 
ATOM     16  O   UNL A   1      45.394  18.126  25.487  1.00  0.00    -0.207 OA
ATOM     17  O   UNL A   1      44.764  19.522  23.505  1.00  0.00    -0.207 OA
BRANCH  15  18
ATOM     18  C   UNL A   1      43.351  19.565  25.546  1.00  0.00     0.120 A 
ATOM     19  C   UNL A   1      40.521  21.194  27.025  1.00  0.00     0.173 C 
ATOM     20  N   UNL A   1      41.521  20.345  26.424  1.00  0.00    -0.274 N 
ATOM     21  C   UNL A   1      42.759  20.723  25.998  1.00  0.00     0.130 A 
ATOM     22  N   UNL A   1      41.270  19.031  26.262  1.00  0.00    -0.180 NA
ATOM     23  C   UNL A   1      42.394  18.558  25.711  1.00  0.00     0.156 A 
ENDBRANCH  15  18
ENDBRANCH  13  15
ENDBRANCH  12  13
ENDBRANCH   7  12
ENDBRANCH   3   6
ENDBRANCH   1   2
BRANCH   1  24
ATOM     24  C   UNL A   1      47.539  26.063  31.464  1.00  0.00     0.023 C 
BRANCH  24  25
ATOM     25  C   UNL A   1      48.646  25.737  32.469  1.00  0.00     0.023 C 
BRANCH  25  26
ATOM     26  C   UNL A   1      48.177  25.088  33.773  1.00  0.00     0.116 C 
BRANCH  26  27
ATOM     27  N   UNL A   1      48.819  25.602  34.973  1.00  0.00    -0.352 N 
ATOM     28  C   UNL A   1      48.309  26.507  35.884  1.00  0.00     0.251 C 
ATOM     29  H   UNL A   1      49.726  25.265  35.157  1.00  0.00     0.163 HD
ATOM     30  O   UNL A   1      48.956  26.799  36.886  1.00  0.00    -0.269 OA
BRANCH  28  31
ATOM     31  C   UNL A   1      47.037  27.205  35.570  1.00  0.00     0.039 A 
ATOM     32  C   UNL A   1      47.104  28.417  34.876  1.00  0.00     0.014 A 
ATOM     33  C   UNL A   1      45.797  26.614  35.825  1.00  0.00     0.014 A 
ATOM     34  C   UNL A   1      45.943  28.966  34.326  1.00  0.00     0.010 A 
ATOM     35  C   UNL A   1      44.649  27.127  35.221  1.00  0.00     0.010 A 
ATOM     36  C   UNL A   1      44.718  28.287  34.435  1.00  0.00    -0.014 A 
BRANCH  36  37
ATOM     37  C   UNL A   1      43.525  28.734  33.667  1.00  0.00     0.031 A 
ATOM     38  C   UNL A   1      42.466  29.579  34.311  1.00  0.00     0.074 A 
ATOM     39  C   UNL A   1      43.360  28.306  32.398  1.00  0.00     0.049 A 
ATOM     40  N   UNL A   1      41.344  30.028  33.804  1.00  0.00    -0.248 NA
ATOM     41  C   UNL A   1      42.685  29.953  35.715  1.00  0.00     0.031 C 
ATOM     42  C   UNL A   1      44.283  27.428  31.675  1.00  0.00     0.029 A 
ATOM     43  N   UNL A   1      42.355  28.543  31.494  1.00  0.00    -0.354 N 
ATOM     44  C   UNL A   1      40.723  30.731  34.826  1.00  0.00     0.074 A 
ATOM     45  C   UNL A   1      41.566  30.607  35.996  1.00  0.00     0.031 C 
ATOM     46  C   UNL A   1      43.813  27.221  30.434  1.00  0.00     0.029 A 
ATOM     47  C   UNL A   1      42.545  27.926  30.281  1.00  0.00     0.049 A 
ATOM     48  H   UNL A   1      41.571  29.104  31.695  1.00  0.00     0.167 HD
ATOM     49  C   UNL A   1      39.564  31.432  34.788  1.00  0.00     0.037 A 
ATOM     50  C   UNL A   1      41.783  27.926  29.170  1.00  0.00     0.037 A 
ATOM     51  C   UNL A   1      38.729  31.565  33.622  1.00  0.00     0.049 A 
ATOM     52  C   UNL A   1      40.502  28.713  29.154  1.00  0.00     0.074 A 
ATOM     53  C   UNL A   1      37.565  32.301  33.472  1.00  0.00     0.029 A 
ATOM     54  N   UNL A   1      38.966  30.942  32.406  1.00  0.00    -0.354 N 
ATOM     55  N   UNL A   1      39.966  29.440  30.102  1.00  0.00    -0.248 NA
ATOM     56  C   UNL A   1      39.724  28.686  27.906  1.00  0.00     0.031 C 
ATOM     57  C   UNL A   1      37.079  32.094  32.176  1.00  0.00     0.029 A 
ATOM     58  C   UNL A   1      37.962  31.264  31.505  1.00  0.00     0.049 A 
ATOM     59  H   UNL A   1      39.734  30.358  32.211  1.00  0.00     0.167 HD
ATOM     60  C   UNL A   1      38.807  29.978  29.562  1.00  0.00     0.074 A 
ATOM     61  C   UNL A   1      38.722  29.504  28.196  1.00  0.00     0.031 C 
ATOM     62  C   UNL A   1      37.895  30.793  30.146  1.00  0.00     0.037 A 
BRANCH  49  63
ATOM     63  C   UNL A   1      39.136  32.121  36.049  1.00  0.00     0.064 A 
ATOM     64  C   UNL A   1      39.603  33.402  36.377  1.00  0.00     0.173 A 
ATOM     65  C   UNL A   1      38.229  31.507  36.927  1.00  0.00     0.173 A 
ATOM     66  F   UNL A   1      40.479  34.026  35.575  1.00  0.00    -0.203 F 
ATOM     67  C   UNL A   1      39.200  34.033  37.550  1.00  0.00     0.198 A 
ATOM     68  C   UNL A   1      37.808  32.153  38.087  1.00  0.00     0.198 A 
ATOM     69  F   UNL A   1      37.746  30.285  36.656  1.00  0.00    -0.203 F 
ATOM     70  F   UNL A   1      39.697  35.238  37.865  1.00  0.00    -0.200 F 
ATOM     71  C   UNL A   1      38.300  33.411  38.402  1.00  0.00     0.200 A 
ATOM     72  F   UNL A   1      36.927  31.557  38.903  1.00  0.00    -0.200 F 
ATOM     73  F   UNL A   1      37.911  34.021  39.529  1.00  0.00    -0.200 F 
ENDBRANCH  49  63
BRANCH  50  74
ATOM     74  C   UNL A   1      42.230  27.184  27.962  1.00  0.00     0.064 A 
ATOM     75  C   UNL A   1      43.097  27.781  27.036  1.00  0.00     0.173 A 
ATOM     76  C   UNL A   1      41.797  25.875  27.704  1.00  0.00     0.173 A 
ATOM     77  F   UNL A   1      43.519  29.038  27.229  1.00  0.00    -0.203 F 
ATOM     78  C   UNL A   1      43.499  27.104  25.887  1.00  0.00     0.198 A 
ATOM     79  C   UNL A   1      42.221  25.190  26.568  1.00  0.00     0.198 A 
ATOM     80  F   UNL A   1      40.971  25.260  28.562  1.00  0.00    -0.203 F 
ATOM     81  F   UNL A   1      44.294  27.714  24.996  1.00  0.00    -0.200 F 
ATOM     82  C   UNL A   1      43.065  25.808  25.656  1.00  0.00     0.200 A 
ATOM     83  F   UNL A   1      41.808  23.934  26.352  1.00  0.00    -0.200 F 
ATOM     84  F   UNL A   1      43.454  25.156  24.551  1.00  0.00    -0.200 F 
ENDBRANCH  50  74
BRANCH  62  85
ATOM     85  C   UNL A   1      36.745  31.255  29.300  1.00  0.00     0.064 A 
ATOM     86  C   UNL A   1      36.676  32.565  28.804  1.00  0.00     0.173 A 
ATOM     87  C   UNL A   1      35.717  30.365  28.953  1.00  0.00     0.173 A 
ATOM     88  F   UNL A   1      37.625  33.458  29.122  1.00  0.00    -0.203 F 
ATOM     89  C   UNL A   1      35.608  32.973  28.009  1.00  0.00     0.198 A 
ATOM     90  C   UNL A   1      34.664  30.769  28.137  1.00  0.00     0.198 A 
ATOM     91  F   UNL A   1      35.739  29.100  29.399  1.00  0.00    -0.203 F 
ATOM     92  F   UNL A   1      35.540  34.241  27.582  1.00  0.00    -0.200 F 
ATOM     93  C   UNL A   1      34.607  32.074  27.672  1.00  0.00     0.200 A 
ATOM     94  F   UNL A   1      33.704  29.896  27.803  1.00  0.00    -0.200 F 
ATOM     95  F   UNL A   1      33.583  32.467  26.902  1.00  0.00    -0.200 F 
ENDBRANCH  62  85
ENDBRANCH  36  37
ENDBRANCH  28  31
ENDBRANCH  26  27
ENDBRANCH  25  26
ENDBRANCH  24  25
ENDBRANCH   1  24
TORSDOF 15
ENDMDL
MODEL 3
REMARK VINA RESULT:     -10.8      5.373     12.645
REMARK SMILES Cn1cc(S(=O)(=O)NC[C@H]2CC[C@@H](C(=O)NCCCCNC(=O)c3ccc(-c4c5nc(c(-c6c(F)c(F)c(F)c(F)c6F)c6ccc([nH]6)c(-c6c(F)c(F)c(F)c(F)c6F)c6nc(c(-c7c(F)c(F)c(F)c(F)c7F)c7ccc4[nH]7)C=C6)C=C5)cc3)CC2)cn1
REMARK SMILES IDX 17 1 16 2 14 3 15 4 13 6 10 7 11 8 88 9 12 10 87 11 9 12
REMARK SMILES IDX 8 13 5 15 6 16 7 17 4 18 1 19 2 20 3 21 90 22 89 23 18 24
REMARK SMILES IDX 19 25 20 26 21 27 22 28 23 30 24 31 25 32 86 33 26 34 85 35
REMARK SMILES IDX 27 36 28 37 29 38 79 39 30 40 84 41 78 42 80 43 31 44 83 45
REMARK SMILES IDX 77 46 76 47 32 49 64 50 44 51 63 52 45 53 48 54 62 55 81 56
REMARK SMILES IDX 46 57 47 58 61 60 82 61 49 62 33 63 34 64 42 65 35 66 36 67
REMARK SMILES IDX 40 68 43 69 37 70 38 71 41 72 39 73 65 74 66 75 74 76 67 77
REMARK SMILES IDX 68 78 72 79 75 80 69 81 70 82 73 83 71 84 50 85 51 86 59 87
REMARK SMILES IDX 52 88 53 89 57 90 60 91 54 92 55 93 58 94 56 95
REMARK H PARENT 16 5 8 14 21 29 80 48 48 59
REMARK Flexibility Score: inf
ROOT
ATOM      1  C   UNL A   1      34.387  29.413  27.562  1.00  0.00     0.116 C 
ENDROOT
BRANCH   1   2
ATOM      2  N   UNL A   1      34.368  29.194  26.134  1.00  0.00    -0.356 N 
ATOM      3  C   UNL A   1      33.354  29.206  25.232  1.00  0.00     0.223 C 
ATOM      4  O   UNL A   1      33.695  29.362  24.051  1.00  0.00    -0.275 OA
ATOM      5  H   UNL A   1      35.251  29.001  25.744  1.00  0.00     0.163 HD
BRANCH   3   6
ATOM      6  C   UNL A   1      31.859  29.029  25.553  1.00  0.00     0.078 C 
ATOM      7  C   UNL A   1      30.435  26.388  25.243  1.00  0.00     0.004 C 
ATOM      8  C   UNL A   1      31.360  26.688  26.423  1.00  0.00     0.006 C 
ATOM      9  C   UNL A   1      30.489  27.381  24.074  1.00  0.00     0.006 C 
ATOM     10  C   UNL A   1      31.531  28.155  26.759  1.00  0.00     0.014 C 
ATOM     11  C   UNL A   1      30.888  28.819  24.396  1.00  0.00     0.014 C 
BRANCH   7  12
ATOM     12  C   UNL A   1      30.555  24.915  24.776  1.00  0.00     0.102 C 
BRANCH  12  13
ATOM     13  N   UNL A   1      30.330  23.871  25.818  1.00  0.00    -0.211 NA
ATOM     14  H   UNL A   1      30.094  24.366  26.678  1.00  0.00     0.141 HD
BRANCH  13  15
ATOM     15  S   UNL A   1      31.550  22.753  26.224  1.00  0.00     0.243 S 
ATOM     16  O   UNL A   1      31.267  21.465  25.638  1.00  0.00    -0.207 OA
ATOM     17  O   UNL A   1      31.765  22.878  27.646  1.00  0.00    -0.207 OA
BRANCH  15  18
ATOM     18  C   UNL A   1      33.031  23.233  25.539  1.00  0.00     0.120 A 
ATOM     19  C   UNL A   1      35.868  23.181  23.350  1.00  0.00     0.173 C 
ATOM     20  N   UNL A   1      34.829  23.393  24.328  1.00  0.00    -0.274 N 
ATOM     21  C   UNL A   1      33.664  22.696  24.441  1.00  0.00     0.130 A 
ATOM     22  N   UNL A   1      34.981  24.350  25.264  1.00  0.00    -0.180 NA
ATOM     23  C   UNL A   1      33.868  24.255  26.000  1.00  0.00     0.156 A 
ENDBRANCH  15  18
ENDBRANCH  13  15
ENDBRANCH  12  13
ENDBRANCH   7  12
ENDBRANCH   3   6
ENDBRANCH   1   2
BRANCH   1  24
ATOM     24  C   UNL A   1      34.644  30.869  27.965  1.00  0.00     0.023 C 
BRANCH  24  25
ATOM     25  C   UNL A   1      33.399  31.755  28.044  1.00  0.00     0.023 C 
BRANCH  25  26
ATOM     26  C   UNL A   1      33.435  33.014  27.175  1.00  0.00     0.116 C 
BRANCH  26  27
ATOM     27  N   UNL A   1      32.696  34.146  27.715  1.00  0.00    -0.352 N 
ATOM     28  C   UNL A   1      33.082  35.004  28.726  1.00  0.00     0.251 C 
ATOM     29  H   UNL A   1      31.816  34.320  27.310  1.00  0.00     0.163 HD
ATOM     30  O   UNL A   1      32.367  35.955  29.030  1.00  0.00    -0.269 OA
BRANCH  28  31
ATOM     31  C   UNL A   1      34.300  34.686  29.513  1.00  0.00     0.039 A 
ATOM     32  C   UNL A   1      34.136  34.186  30.808  1.00  0.00     0.014 A 
ATOM     33  C   UNL A   1      35.575  34.743  28.943  1.00  0.00     0.014 A 
ATOM     34  C   UNL A   1      35.226  33.623  31.477  1.00  0.00     0.010 A 
ATOM     35  C   UNL A   1      36.648  34.124  29.583  1.00  0.00     0.010 A 
ATOM     36  C   UNL A   1      36.475  33.525  30.841  1.00  0.00    -0.014 A 
BRANCH  36  37
ATOM     37  C   UNL A   1      37.579  32.730  31.441  1.00  0.00     0.031 A 
ATOM     38  C   UNL A   1      38.126  33.072  32.796  1.00  0.00     0.074 A 
ATOM     39  C   UNL A   1      38.145  31.739  30.721  1.00  0.00     0.049 A 
ATOM     40  N   UNL A   1      39.110  32.512  33.456  1.00  0.00    -0.248 NA
ATOM     41  C   UNL A   1      37.501  34.205  33.493  1.00  0.00     0.031 C 
ATOM     42  C   UNL A   1      37.751  31.348  29.366  1.00  0.00     0.029 A 
ATOM     43  N   UNL A   1      39.178  30.887  31.024  1.00  0.00    -0.354 N 
ATOM     44  C   UNL A   1      39.224  33.226  34.641  1.00  0.00     0.074 A 
ATOM     45  C   UNL A   1      38.244  34.290  34.588  1.00  0.00     0.031 C 
ATOM     46  C   UNL A   1      38.515  30.319  28.966  1.00  0.00     0.029 A 
ATOM     47  C   UNL A   1      39.471  29.996  30.020  1.00  0.00     0.049 A 
ATOM     48  H   UNL A   1      39.663  30.911  31.880  1.00  0.00     0.167 HD
ATOM     49  C   UNL A   1      40.055  33.002  35.686  1.00  0.00     0.037 A 
ATOM     50  C   UNL A   1      40.405  29.027  29.954  1.00  0.00     0.037 A 
ATOM     51  C   UNL A   1      41.023  31.937  35.746  1.00  0.00     0.049 A 
ATOM     52  C   UNL A   1      41.315  28.799  31.130  1.00  0.00     0.074 A 
ATOM     53  C   UNL A   1      41.872  31.597  36.786  1.00  0.00     0.029 A 
ATOM     54  N   UNL A   1      41.275  31.041  34.718  1.00  0.00    -0.354 N 
ATOM     55  N   UNL A   1      41.358  29.429  32.277  1.00  0.00    -0.248 NA
ATOM     56  C   UNL A   1      42.302  27.717  31.002  1.00  0.00     0.031 C 
ATOM     57  C   UNL A   1      42.663  30.519  36.374  1.00  0.00     0.029 A 
ATOM     58  C   UNL A   1      42.277  30.159  35.093  1.00  0.00     0.049 A 
ATOM     59  H   UNL A   1      40.811  31.032  33.850  1.00  0.00     0.167 HD
ATOM     60  C   UNL A   1      42.352  28.807  33.017  1.00  0.00     0.074 A 
ATOM     61  C   UNL A   1      42.881  27.739  32.195  1.00  0.00     0.031 C 
ATOM     62  C   UNL A   1      42.787  29.094  34.268  1.00  0.00     0.037 A 
BRANCH  49  63
ATOM     63  C   UNL A   1      39.947  33.927  36.861  1.00  0.00     0.064 A 
ATOM     64  C   UNL A   1      40.672  35.127  36.916  1.00  0.00     0.173 A 
ATOM     65  C   UNL A   1      39.089  33.628  37.931  1.00  0.00     0.173 A 
ATOM     66  F   UNL A   1      41.512  35.454  35.923  1.00  0.00    -0.203 F 
ATOM     67  C   UNL A   1      40.565  35.979  38.012  1.00  0.00     0.198 A 
ATOM     68  C   UNL A   1      38.966  34.496  39.013  1.00  0.00     0.198 A 
ATOM     69  F   UNL A   1      38.368  32.497  37.924  1.00  0.00    -0.203 F 
ATOM     70  F   UNL A   1      41.304  37.097  38.063  1.00  0.00    -0.200 F 
ATOM     71  C   UNL A   1      39.709  35.666  39.056  1.00  0.00     0.200 A 
ATOM     72  F   UNL A   1      38.128  34.199  40.016  1.00  0.00    -0.200 F 
ATOM     73  F   UNL A   1      39.605  36.489  40.108  1.00  0.00    -0.200 F 
ENDBRANCH  49  63
BRANCH  50  74
ATOM     74  C   UNL A   1      40.503  28.170  28.744  1.00  0.00     0.064 A 
ATOM     75  C   UNL A   1      39.815  26.951  28.672  1.00  0.00     0.173 A 
ATOM     76  C   UNL A   1      41.288  28.543  27.644  1.00  0.00     0.173 A 
ATOM     77  F   UNL A   1      39.069  26.542  29.709  1.00  0.00    -0.203 F 
ATOM     78  C   UNL A   1      39.922  26.128  27.554  1.00  0.00     0.198 A 
ATOM     79  C   UNL A   1      41.375  27.731  26.516  1.00  0.00     0.198 A 
ATOM     80  F   UNL A   1      41.964  29.701  27.663  1.00  0.00    -0.203 F 
ATOM     81  F   UNL A   1      39.288  24.947  27.530  1.00  0.00    -0.200 F 
ATOM     82  C   UNL A   1      40.699  26.520  26.475  1.00  0.00     0.200 A 
ATOM     83  F   UNL A   1      42.118  28.118  25.470  1.00  0.00    -0.200 F 
ATOM     84  F   UNL A   1      40.802  25.729  25.398  1.00  0.00    -0.200 F 
ENDBRANCH  50  74
BRANCH  62  85
ATOM     85  C   UNL A   1      43.864  28.219  34.840  1.00  0.00     0.064 A 
ATOM     86  C   UNL A   1      43.562  27.036  35.529  1.00  0.00     0.173 A 
ATOM     87  C   UNL A   1      45.216  28.552  34.663  1.00  0.00     0.173 A 
ATOM     88  F   UNL A   1      42.284  26.684  35.739  1.00  0.00    -0.203 F 
ATOM     89  C   UNL A   1      44.574  26.229  36.041  1.00  0.00     0.198 A 
ATOM     90  C   UNL A   1      46.226  27.729  35.154  1.00  0.00     0.198 A 
ATOM     91  F   UNL A   1      45.557  29.671  34.007  1.00  0.00    -0.203 F 
ATOM     92  F   UNL A   1      44.262  25.126  36.735  1.00  0.00    -0.200 F 
ATOM     93  C   UNL A   1      45.904  26.572  35.848  1.00  0.00     0.200 A 
ATOM     94  F   UNL A   1      47.510  28.057  34.957  1.00  0.00    -0.200 F 
ATOM     95  F   UNL A   1      46.877  25.792  36.337  1.00  0.00    -0.200 F 
ENDBRANCH  62  85
ENDBRANCH  36  37
ENDBRANCH  28  31
ENDBRANCH  26  27
ENDBRANCH  25  26
ENDBRANCH  24  25
ENDBRANCH   1  24
TORSDOF 15
ENDMDL
