MODEL 1
REMARK VINA RESULT:     -12.6      0.000      0.000
REMARK SMILES Cc1nsc(N(C)S(=O)(=O)c2cn[nH]c2C)c1C(=O)NCCCCNC(=O)c1ccc(-c2c3nc(c(-c4c(F)c(F)c(F)c(F)c4F)c4ccc([nH]4)c(-c4c(F)c(F)c(F)c(F)c4F)c4nc(c(-c5c(F)c(F)c(F)c(F)c5F)c5ccc2[nH]5)C=C4)C=C3)cc1
REMARK SMILES IDX 22 1 21 2 20 3 18 4 19 5 17 7 1 8 2 9 3 10 4 11 5 12 6 13
REMARK SMILES IDX 7 14 8 15 9 16 10 17 11 18 12 19 15 20 13 21 14 22 16 23
REMARK SMILES IDX 23 25 24 26 25 27 26 28 27 30 28 31 29 32 90 33 30 34 89 35
REMARK SMILES IDX 31 36 32 37 33 38 83 39 34 40 88 41 82 42 84 43 35 44 87 45
REMARK SMILES IDX 81 46 80 47 36 49 68 50 48 51 67 52 49 53 52 54 66 55 85 56
REMARK SMILES IDX 50 57 51 58 65 60 86 61 53 62 37 63 38 64 46 65 39 66 40 67
REMARK SMILES IDX 44 68 47 69 41 70 42 71 45 72 43 73 69 74 70 75 78 76 71 77
REMARK SMILES IDX 72 78 76 79 79 80 73 81 74 82 77 83 75 84 54 85 55 86 63 87
REMARK SMILES IDX 56 88 57 89 61 90 64 91 58 92 59 93 62 94 60 95
REMARK H PARENT 20 6 14 24 25 29 84 48 52 59
REMARK Flexibility Score: inf
ROOT
ATOM      1  C   UNL A   1      37.630  20.502  24.578  1.00  0.00     0.023 C 
ENDROOT
BRANCH   1   2
ATOM      2  C   UNL A   1      36.420  21.047  25.359  1.00  0.00     0.116 C 
BRANCH   2   3
ATOM      3  N   UNL A   1      35.258  20.175  25.329  1.00  0.00    -0.352 N 
ATOM      4  C   UNL A   1      33.947  20.584  25.466  1.00  0.00     0.256 C 
ATOM      5  O   UNL A   1      33.387  20.350  26.534  1.00  0.00    -0.269 OA
ATOM      6  H   UNL A   1      35.420  19.212  25.200  1.00  0.00     0.163 HD
BRANCH   4   7
ATOM      7  C   UNL A   1      33.245  21.191  24.337  1.00  0.00     0.098 A 
ATOM      8  C   UNL A   1      32.225  18.975  23.232  1.00  0.00     0.069 C 
ATOM      9  C   UNL A   1      32.474  20.440  23.338  1.00  0.00     0.066 A 
ATOM     10  N   UNL A   1      31.932  21.142  22.351  1.00  0.00    -0.195 NA
ATOM     11  S   UNL A   1      32.334  22.703  22.517  1.00  0.00    -0.017 S 
ATOM     12  C   UNL A   1      33.325  22.544  23.937  1.00  0.00     0.138 A 
BRANCH  12  13
ATOM     13  N   UNL A   1      33.979  23.764  24.470  1.00  0.00    -0.258 N 
ATOM     14  C   UNL A   1      35.361  24.066  24.022  1.00  0.00     0.165 C 
BRANCH  13  15
ATOM     15  S   UNL A   1      33.593  24.325  26.031  1.00  0.00     0.268 S 
ATOM     16  O   UNL A   1      34.263  23.462  26.990  1.00  0.00    -0.201 OA
ATOM     17  O   UNL A   1      33.713  25.769  26.043  1.00  0.00    -0.201 OA
BRANCH  15  18
ATOM     18  C   UNL A   1      31.914  24.144  26.456  1.00  0.00     0.128 A 
ATOM     19  C   UNL A   1      31.349  23.112  27.232  1.00  0.00     0.157 A 
ATOM     20  C   UNL A   1      30.808  24.805  25.937  1.00  0.00     0.053 A 
ATOM     21  N   UNL A   1      30.019  23.185  27.312  1.00  0.00    -0.183 NA
ATOM     22  N   UNL A   1      29.713  24.206  26.501  1.00  0.00    -0.281 N 
ATOM     23  C   UNL A   1      30.638  25.876  24.929  1.00  0.00     0.067 C 
ATOM     24  H   UNL A   1      28.789  24.498  26.328  1.00  0.00     0.190 HD
ENDBRANCH  15  18
ENDBRANCH  13  15
ENDBRANCH  12  13
ENDBRANCH   4   7
ENDBRANCH   2   3
ENDBRANCH   1   2
BRANCH   1  25
ATOM     25  C   UNL A   1      38.430  19.380  25.250  1.00  0.00     0.023 C 
BRANCH  25  26
ATOM     26  C   UNL A   1      39.663  19.830  26.027  1.00  0.00     0.116 C 
BRANCH  26  27
ATOM     27  N   UNL A   1      40.844  19.010  25.759  1.00  0.00    -0.352 N 
ATOM     28  C   UNL A   1      42.171  19.388  25.779  1.00  0.00     0.251 C 
ATOM     29  H   UNL A   1      40.670  18.068  25.535  1.00  0.00     0.163 HD
ATOM     30  O   UNL A   1      43.032  18.727  25.214  1.00  0.00    -0.269 OA
BRANCH  28  31
ATOM     31  C   UNL A   1      42.540  20.614  26.502  1.00  0.00     0.039 A 
ATOM     32  C   UNL A   1      43.100  21.702  25.829  1.00  0.00     0.014 A 
ATOM     33  C   UNL A   1      42.249  20.683  27.862  1.00  0.00     0.014 A 
ATOM     34  C   UNL A   1      43.266  22.905  26.512  1.00  0.00     0.010 A 
ATOM     35  C   UNL A   1      42.311  21.899  28.505  1.00  0.00     0.010 A 
ATOM     36  C   UNL A   1      42.837  23.011  27.844  1.00  0.00    -0.014 A 
BRANCH  36  37
ATOM     37  C   UNL A   1      42.771  24.326  28.492  1.00  0.00     0.031 A 
ATOM     38  C   UNL A   1      41.594  25.164  28.106  1.00  0.00     0.074 A 
ATOM     39  C   UNL A   1      43.540  24.651  29.556  1.00  0.00     0.049 A 
ATOM     40  N   UNL A   1      41.587  26.380  27.665  1.00  0.00    -0.248 NA
ATOM     41  C   UNL A   1      40.256  24.547  28.150  1.00  0.00     0.031 C 
ATOM     42  C   UNL A   1      44.500  23.774  30.240  1.00  0.00     0.029 A 
ATOM     43  N   UNL A   1      43.530  25.765  30.350  1.00  0.00    -0.354 N 
ATOM     44  C   UNL A   1      40.242  26.747  27.559  1.00  0.00     0.074 A 
ATOM     45  C   UNL A   1      39.478  25.541  27.716  1.00  0.00     0.031 C 
ATOM     46  C   UNL A   1      44.771  24.271  31.464  1.00  0.00     0.029 A 
ATOM     47  C   UNL A   1      44.158  25.581  31.577  1.00  0.00     0.049 A 
ATOM     48  H   UNL A   1      43.117  26.616  30.078  1.00  0.00     0.167 HD
ATOM     49  C   UNL A   1      39.873  28.058  27.629  1.00  0.00     0.037 A 
ATOM     50  C   UNL A   1      44.174  26.423  32.636  1.00  0.00     0.037 A 
ATOM     51  C   UNL A   1      41.008  28.918  27.432  1.00  0.00     0.049 A 
ATOM     52  C   UNL A   1      43.854  27.782  32.152  1.00  0.00     0.074 A 
ATOM     53  C   UNL A   1      41.744  29.407  26.377  1.00  0.00     0.029 A 
ATOM     54  N   UNL A   1      41.729  29.141  28.572  1.00  0.00    -0.354 N 
ATOM     55  N   UNL A   1      44.635  28.470  31.366  1.00  0.00    -0.248 NA
ATOM     56  C   UNL A   1      42.500  28.303  32.303  1.00  0.00     0.031 C 
ATOM     57  C   UNL A   1      43.002  29.810  26.919  1.00  0.00     0.029 A 
ATOM     58  C   UNL A   1      42.993  29.574  28.290  1.00  0.00     0.049 A 
ATOM     59  H   UNL A   1      41.379  29.005  29.482  1.00  0.00     0.167 HD
ATOM     60  C   UNL A   1      43.765  29.223  30.609  1.00  0.00     0.074 A 
ATOM     61  C   UNL A   1      42.512  29.236  31.347  1.00  0.00     0.031 C 
ATOM     62  C   UNL A   1      44.025  29.465  29.293  1.00  0.00     0.037 A 
BRANCH  49  63
ATOM     63  C   UNL A   1      38.653  28.587  28.372  1.00  0.00     0.064 A 
ATOM     64  C   UNL A   1      37.921  29.652  27.795  1.00  0.00     0.173 A 
ATOM     65  C   UNL A   1      38.396  28.359  29.739  1.00  0.00     0.173 A 
ATOM     66  F   UNL A   1      38.072  29.965  26.498  1.00  0.00    -0.203 F 
ATOM     67  C   UNL A   1      37.092  30.485  28.555  1.00  0.00     0.198 A 
ATOM     68  C   UNL A   1      37.530  29.164  30.484  1.00  0.00     0.198 A 
ATOM     69  F   UNL A   1      39.045  27.427  30.445  1.00  0.00    -0.203 F 
ATOM     70  F   UNL A   1      36.531  31.563  27.990  1.00  0.00    -0.200 F 
ATOM     71  C   UNL A   1      36.909  30.248  29.903  1.00  0.00     0.200 A 
ATOM     72  F   UNL A   1      37.377  28.927  31.794  1.00  0.00    -0.200 F 
ATOM     73  F   UNL A   1      36.176  31.085  30.650  1.00  0.00    -0.200 F 
ENDBRANCH  49  63
BRANCH  50  74
ATOM     74  C   UNL A   1      44.299  26.106  34.076  1.00  0.00     0.064 A 
ATOM     75  C   UNL A   1      43.173  25.780  34.848  1.00  0.00     0.173 A 
ATOM     76  C   UNL A   1      45.556  25.857  34.659  1.00  0.00     0.173 A 
ATOM     77  F   UNL A   1      41.940  25.957  34.351  1.00  0.00    -0.203 F 
ATOM     78  C   UNL A   1      43.297  25.203  36.115  1.00  0.00     0.198 A 
ATOM     79  C   UNL A   1      45.678  25.289  35.927  1.00  0.00     0.198 A 
ATOM     80  F   UNL A   1      46.686  26.074  33.970  1.00  0.00    -0.203 F 
ATOM     81  F   UNL A   1      42.200  24.842  36.794  1.00  0.00    -0.200 F 
ATOM     82  C   UNL A   1      44.549  24.946  36.648  1.00  0.00     0.200 A 
ATOM     83  F   UNL A   1      46.896  25.017  36.419  1.00  0.00    -0.200 F 
ATOM     84  F   UNL A   1      44.668  24.332  37.833  1.00  0.00    -0.200 F 
ENDBRANCH  50  74
BRANCH  62  85
ATOM     85  C   UNL A   1      45.450  29.415  28.852  1.00  0.00     0.064 A 
ATOM     86  C   UNL A   1      46.376  30.453  29.040  1.00  0.00     0.173 A 
ATOM     87  C   UNL A   1      45.909  28.232  28.259  1.00  0.00     0.173 A 
ATOM     88  F   UNL A   1      46.027  31.581  29.670  1.00  0.00    -0.203 F 
ATOM     89  C   UNL A   1      47.693  30.324  28.608  1.00  0.00     0.198 A 
ATOM     90  C   UNL A   1      47.234  28.093  27.862  1.00  0.00     0.198 A 
ATOM     91  F   UNL A   1      45.073  27.195  28.094  1.00  0.00    -0.203 F 
ATOM     92  F   UNL A   1      48.557  31.338  28.774  1.00  0.00    -0.200 F 
ATOM     93  C   UNL A   1      48.123  29.143  28.025  1.00  0.00     0.200 A 
ATOM     94  F   UNL A   1      47.652  26.934  27.336  1.00  0.00    -0.200 F 
ATOM     95  F   UNL A   1      49.398  29.008  27.635  1.00  0.00    -0.200 F 
ENDBRANCH  62  85
ENDBRANCH  36  37
ENDBRANCH  28  31
ENDBRANCH  26  27
ENDBRANCH  25  26
ENDBRANCH   1  25
TORSDOF 14
ENDMDL
MODEL 2
REMARK VINA RESULT:     -12.5      2.870      7.754
REMARK SMILES Cc1nsc(N(C)S(=O)(=O)c2cn[nH]c2C)c1C(=O)NCCCCNC(=O)c1ccc(-c2c3nc(c(-c4c(F)c(F)c(F)c(F)c4F)c4ccc([nH]4)c(-c4c(F)c(F)c(F)c(F)c4F)c4nc(c(-c5c(F)c(F)c(F)c(F)c5F)c5ccc2[nH]5)C=C4)C=C3)cc1
REMARK SMILES IDX 22 1 21 2 20 3 18 4 19 5 17 7 1 8 2 9 3 10 4 11 5 12 6 13
REMARK SMILES IDX 7 14 8 15 9 16 10 17 11 18 12 19 15 20 13 21 14 22 16 23
REMARK SMILES IDX 23 25 24 26 25 27 26 28 27 30 28 31 29 32 90 33 30 34 89 35
REMARK SMILES IDX 31 36 32 37 33 38 83 39 34 40 88 41 82 42 84 43 35 44 87 45
REMARK SMILES IDX 81 46 80 47 36 49 68 50 48 51 67 52 49 53 52 54 66 55 85 56
REMARK SMILES IDX 50 57 51 58 65 60 86 61 53 62 37 63 38 64 46 65 39 66 40 67
REMARK SMILES IDX 44 68 47 69 41 70 42 71 45 72 43 73 69 74 70 75 78 76 71 77
REMARK SMILES IDX 72 78 76 79 79 80 73 81 74 82 77 83 75 84 54 85 55 86 63 87
REMARK SMILES IDX 56 88 57 89 61 90 64 91 58 92 59 93 62 94 60 95
REMARK H PARENT 20 6 14 24 25 29 84 48 52 59
REMARK Flexibility Score: inf
ROOT
ATOM      1  C   UNL A   1      32.795  28.690  27.552  1.00  0.00     0.023 C 
ENDROOT
BRANCH   1   2
ATOM      2  C   UNL A   1      31.400  28.182  27.147  1.00  0.00     0.116 C 
BRANCH   2   3
ATOM      3  N   UNL A   1      31.311  26.737  27.028  1.00  0.00    -0.352 N 
ATOM      4  C   UNL A   1      30.560  26.056  26.091  1.00  0.00     0.256 C 
ATOM      5  O   UNL A   1      29.524  25.519  26.473  1.00  0.00    -0.269 OA
ATOM      6  H   UNL A   1      31.829  26.198  27.669  1.00  0.00     0.163 HD
BRANCH   4   7
ATOM      7  C   UNL A   1      31.047  25.918  24.720  1.00  0.00     0.098 A 
ATOM      8  C   UNL A   1      29.720  27.954  23.593  1.00  0.00     0.069 C 
ATOM      9  C   UNL A   1      30.649  26.789  23.606  1.00  0.00     0.066 A 
ATOM     10  N   UNL A   1      31.154  26.501  22.413  1.00  0.00    -0.195 NA
ATOM     11  S   UNL A   1      32.078  25.174  22.526  1.00  0.00    -0.017 S 
ATOM     12  C   UNL A   1      31.830  24.854  24.217  1.00  0.00     0.138 A 
BRANCH  12  13
ATOM     13  N   UNL A   1      32.479  23.655  24.801  1.00  0.00    -0.258 N 
ATOM     14  C   UNL A   1      31.606  22.559  25.289  1.00  0.00     0.165 C 
BRANCH  13  15
ATOM     15  S   UNL A   1      33.967  23.804  25.617  1.00  0.00     0.268 S 
ATOM     16  O   UNL A   1      34.097  25.185  26.052  1.00  0.00    -0.201 OA
ATOM     17  O   UNL A   1      34.114  22.673  26.511  1.00  0.00    -0.201 OA
BRANCH  15  18
ATOM     18  C   UNL A   1      35.362  23.585  24.599  1.00  0.00     0.128 A 
ATOM     19  C   UNL A   1      35.364  23.152  23.258  1.00  0.00     0.157 A 
ATOM     20  C   UNL A   1      36.704  23.552  24.956  1.00  0.00     0.053 A 
ATOM     21  N   UNL A   1      36.593  22.988  22.762  1.00  0.00    -0.183 NA
ATOM     22  N   UNL A   1      37.387  23.214  23.817  1.00  0.00    -0.281 N 
ATOM     23  C   UNL A   1      37.425  23.724  26.237  1.00  0.00     0.067 C 
ATOM     24  H   UNL A   1      38.368  23.145  23.777  1.00  0.00     0.190 HD
ENDBRANCH  15  18
ENDBRANCH  13  15
ENDBRANCH  12  13
ENDBRANCH   4   7
ENDBRANCH   2   3
ENDBRANCH   1   2
BRANCH   1  25
ATOM     25  C   UNL A   1      33.893  28.602  26.486  1.00  0.00     0.023 C 
BRANCH  25  26
ATOM     26  C   UNL A   1      34.994  29.653  26.591  1.00  0.00     0.116 C 
BRANCH  26  27
ATOM     27  N   UNL A   1      34.569  30.865  27.290  1.00  0.00    -0.352 N 
ATOM     28  C   UNL A   1      34.992  31.340  28.515  1.00  0.00     0.251 C 
ATOM     29  H   UNL A   1      33.893  31.412  26.829  1.00  0.00     0.163 HD
ATOM     30  O   UNL A   1      34.334  32.156  29.147  1.00  0.00    -0.269 OA
BRANCH  28  31
ATOM     31  C   UNL A   1      36.267  30.845  29.056  1.00  0.00     0.039 A 
ATOM     32  C   UNL A   1      36.404  29.516  29.462  1.00  0.00     0.014 A 
ATOM     33  C   UNL A   1      37.349  31.721  29.083  1.00  0.00     0.014 A 
ATOM     34  C   UNL A   1      37.671  29.041  29.797  1.00  0.00     0.010 A 
ATOM     35  C   UNL A   1      38.614  31.224  29.308  1.00  0.00     0.010 A 
ATOM     36  C   UNL A   1      38.782  29.890  29.684  1.00  0.00    -0.014 A 
BRANCH  36  37
ATOM     37  C   UNL A   1      40.140  29.341  29.786  1.00  0.00     0.031 A 
ATOM     38  C   UNL A   1      40.665  29.206  31.180  1.00  0.00     0.074 A 
ATOM     39  C   UNL A   1      40.762  28.744  28.745  1.00  0.00     0.049 A 
ATOM     40  N   UNL A   1      41.778  29.653  31.664  1.00  0.00    -0.248 NA
ATOM     41  C   UNL A   1      39.812  28.545  32.185  1.00  0.00     0.031 C 
ATOM     42  C   UNL A   1      40.200  28.515  27.407  1.00  0.00     0.029 A 
ATOM     43  N   UNL A   1      41.957  28.080  28.688  1.00  0.00    -0.354 N 
ATOM     44  C   UNL A   1      41.855  29.171  32.973  1.00  0.00     0.074 A 
ATOM     45  C   UNL A   1      40.559  28.636  33.286  1.00  0.00     0.031 C 
ATOM     46  C   UNL A   1      40.915  27.562  26.775  1.00  0.00     0.029 A 
ATOM     47  C   UNL A   1      42.081  27.250  27.579  1.00  0.00     0.049 A 
ATOM     48  H   UNL A   1      42.661  28.180  29.369  1.00  0.00     0.167 HD
ATOM     49  C   UNL A   1      43.064  29.006  33.582  1.00  0.00     0.037 A 
ATOM     50  C   UNL A   1      43.057  26.347  27.323  1.00  0.00     0.037 A 
ATOM     51  C   UNL A   1      44.092  29.724  32.878  1.00  0.00     0.049 A 
ATOM     52  C   UNL A   1      44.240  26.703  28.132  1.00  0.00     0.074 A 
ATOM     53  C   UNL A   1      44.554  31.017  32.794  1.00  0.00     0.029 A 
ATOM     54  N   UNL A   1      44.616  29.033  31.822  1.00  0.00    -0.354 N 
ATOM     55  N   UNL A   1      44.944  27.784  27.944  1.00  0.00    -0.248 NA
ATOM     56  C   UNL A   1      44.502  25.992  29.380  1.00  0.00     0.031 C 
ATOM     57  C   UNL A   1      45.271  31.107  31.562  1.00  0.00     0.029 A 
ATOM     58  C   UNL A   1      45.242  29.864  30.938  1.00  0.00     0.049 A 
ATOM     59  H   UNL A   1      44.549  28.056  31.714  1.00  0.00     0.167 HD
ATOM     60  C   UNL A   1      45.393  28.113  29.204  1.00  0.00     0.074 A 
ATOM     61  C   UNL A   1      45.269  26.897  29.995  1.00  0.00     0.031 C 
ATOM     62  C   UNL A   1      45.486  29.417  29.588  1.00  0.00     0.037 A 
BRANCH  49  63
ATOM     63  C   UNL A   1      43.448  27.826  34.465  1.00  0.00     0.064 A 
ATOM     64  C   UNL A   1      43.461  26.532  33.893  1.00  0.00     0.173 A 
ATOM     65  C   UNL A   1      43.443  27.855  35.875  1.00  0.00     0.173 A 
ATOM     66  F   UNL A   1      43.473  26.370  32.561  1.00  0.00    -0.203 F 
ATOM     67  C   UNL A   1      43.362  25.372  34.670  1.00  0.00     0.198 A 
ATOM     68  C   UNL A   1      43.392  26.693  36.649  1.00  0.00     0.198 A 
ATOM     69  F   UNL A   1      43.375  28.996  36.568  1.00  0.00    -0.203 F 
ATOM     70  F   UNL A   1      43.239  24.178  34.074  1.00  0.00    -0.200 F 
ATOM     71  C   UNL A   1      43.313  25.455  36.048  1.00  0.00     0.200 A 
ATOM     72  F   UNL A   1      43.331  26.794  37.984  1.00  0.00    -0.200 F 
ATOM     73  F   UNL A   1      43.144  24.354  36.793  1.00  0.00    -0.200 F 
ENDBRANCH  49  63
BRANCH  50  74
ATOM     74  C   UNL A   1      42.984  25.098  26.533  1.00  0.00     0.064 A 
ATOM     75  C   UNL A   1      43.808  24.899  25.414  1.00  0.00     0.173 A 
ATOM     76  C   UNL A   1      42.296  23.970  27.016  1.00  0.00     0.173 A 
ATOM     77  F   UNL A   1      44.523  25.917  24.913  1.00  0.00    -0.203 F 
ATOM     78  C   UNL A   1      43.964  23.636  24.837  1.00  0.00     0.198 A 
ATOM     79  C   UNL A   1      42.444  22.712  26.433  1.00  0.00     0.198 A 
ATOM     80  F   UNL A   1      41.538  24.051  28.121  1.00  0.00    -0.203 F 
ATOM     81  F   UNL A   1      44.812  23.470  23.812  1.00  0.00    -0.200 F 
ATOM     82  C   UNL A   1      43.292  22.541  25.354  1.00  0.00     0.200 A 
ATOM     83  F   UNL A   1      41.813  21.655  26.963  1.00  0.00    -0.200 F 
ATOM     84  F   UNL A   1      43.493  21.319  24.843  1.00  0.00    -0.200 F 
ENDBRANCH  50  74
BRANCH  62  85
ATOM     85  C   UNL A   1      45.651  30.440  28.513  1.00  0.00     0.064 A 
ATOM     86  C   UNL A   1      44.588  31.104  27.881  1.00  0.00     0.173 A 
ATOM     87  C   UNL A   1      46.953  30.803  28.150  1.00  0.00     0.173 A 
ATOM     88  F   UNL A   1      43.319  30.865  28.233  1.00  0.00    -0.203 F 
ATOM     89  C   UNL A   1      44.825  32.056  26.893  1.00  0.00     0.198 A 
ATOM     90  C   UNL A   1      47.188  31.779  27.190  1.00  0.00     0.198 A 
ATOM     91  F   UNL A   1      48.004  30.226  28.755  1.00  0.00    -0.203 F 
ATOM     92  F   UNL A   1      43.795  32.662  26.281  1.00  0.00    -0.200 F 
ATOM     93  C   UNL A   1      46.124  32.397  26.552  1.00  0.00     0.200 A 
ATOM     94  F   UNL A   1      48.445  32.133  26.894  1.00  0.00    -0.200 F 
ATOM     95  F   UNL A   1      46.353  33.334  25.622  1.00  0.00    -0.200 F 
ENDBRANCH  62  85
ENDBRANCH  36  37
ENDBRANCH  28  31
ENDBRANCH  26  27
ENDBRANCH  25  26
ENDBRANCH   1  25
TORSDOF 14
ENDMDL
MODEL 3
REMARK VINA RESULT:     -12.4      3.600      5.233
REMARK SMILES Cc1nsc(N(C)S(=O)(=O)c2cn[nH]c2C)c1C(=O)NCCCCNC(=O)c1ccc(-c2c3nc(c(-c4c(F)c(F)c(F)c(F)c4F)c4ccc([nH]4)c(-c4c(F)c(F)c(F)c(F)c4F)c4nc(c(-c5c(F)c(F)c(F)c(F)c5F)c5ccc2[nH]5)C=C4)C=C3)cc1
REMARK SMILES IDX 22 1 21 2 20 3 18 4 19 5 17 7 1 8 2 9 3 10 4 11 5 12 6 13
REMARK SMILES IDX 7 14 8 15 9 16 10 17 11 18 12 19 15 20 13 21 14 22 16 23
REMARK SMILES IDX 23 25 24 26 25 27 26 28 27 30 28 31 29 32 90 33 30 34 89 35
REMARK SMILES IDX 31 36 32 37 33 38 83 39 34 40 88 41 82 42 84 43 35 44 87 45
REMARK SMILES IDX 81 46 80 47 36 49 68 50 48 51 67 52 49 53 52 54 66 55 85 56
REMARK SMILES IDX 50 57 51 58 65 60 86 61 53 62 37 63 38 64 46 65 39 66 40 67
REMARK SMILES IDX 44 68 47 69 41 70 42 71 45 72 43 73 69 74 70 75 78 76 71 77
REMARK SMILES IDX 72 78 76 79 79 80 73 81 74 82 77 83 75 84 54 85 55 86 63 87
REMARK SMILES IDX 56 88 57 89 61 90 64 91 58 92 59 93 62 94 60 95
REMARK H PARENT 20 6 14 24 25 29 84 48 52 59
REMARK Flexibility Score: inf
ROOT
ATOM      1  C   UNL A   1      35.744  22.439  25.497  1.00  0.00     0.023 C 
ENDROOT
BRANCH   1   2
ATOM      2  C   UNL A   1      34.933  22.949  26.702  1.00  0.00     0.116 C 
BRANCH   2   3
ATOM      3  N   UNL A   1      33.687  22.233  26.918  1.00  0.00    -0.352 N 
ATOM      4  C   UNL A   1      32.504  22.465  26.246  1.00  0.00     0.256 C 
ATOM      5  O   UNL A   1      31.612  23.053  26.850  1.00  0.00    -0.269 OA
ATOM      6  H   UNL A   1      33.686  21.524  27.602  1.00  0.00     0.163 HD
BRANCH   4   7
ATOM      7  C   UNL A   1      32.313  21.942  24.894  1.00  0.00     0.098 A 
ATOM      8  C   UNL A   1      32.824  19.355  25.367  1.00  0.00     0.069 C 
ATOM      9  C   UNL A   1      32.466  20.530  24.522  1.00  0.00     0.066 A 
ATOM     10  N   UNL A   1      32.297  20.228  23.241  1.00  0.00    -0.195 NA
ATOM     11  S   UNL A   1      31.997  21.583  22.405  1.00  0.00    -0.017 S 
ATOM     12  C   UNL A   1      32.117  22.709  23.724  1.00  0.00     0.138 A 
BRANCH  12  13
ATOM     13  N   UNL A   1      31.946  24.152  23.425  1.00  0.00    -0.258 N 
ATOM     14  C   UNL A   1      30.565  24.676  23.283  1.00  0.00     0.165 C 
BRANCH  13  15
ATOM     15  S   UNL A   1      33.123  24.977  22.511  1.00  0.00     0.268 S 
ATOM     16  O   UNL A   1      34.397  24.309  22.721  1.00  0.00    -0.201 OA
ATOM     17  O   UNL A   1      32.576  25.248  21.197  1.00  0.00    -0.201 OA
BRANCH  15  18
ATOM     18  C   UNL A   1      33.442  26.599  23.059  1.00  0.00     0.128 A 
ATOM     19  C   UNL A   1      33.696  27.725  22.251  1.00  0.00     0.157 A 
ATOM     20  C   UNL A   1      33.746  27.041  24.341  1.00  0.00     0.053 A 
ATOM     21  N   UNL A   1      34.000  28.818  22.956  1.00  0.00    -0.183 NA
ATOM     22  N   UNL A   1      34.046  28.372  24.217  1.00  0.00    -0.281 N 
ATOM     23  C   UNL A   1      33.861  26.367  25.654  1.00  0.00     0.067 C 
ATOM     24  H   UNL A   1      34.273  28.947  24.983  1.00  0.00     0.190 HD
ENDBRANCH  15  18
ENDBRANCH  13  15
ENDBRANCH  12  13
ENDBRANCH   4   7
ENDBRANCH   2   3
ENDBRANCH   1   2
BRANCH   1  25
ATOM     25  C   UNL A   1      36.890  23.335  25.013  1.00  0.00     0.023 C 
BRANCH  25  26
ATOM     26  C   UNL A   1      37.658  24.065  26.111  1.00  0.00     0.116 C 
BRANCH  26  27
ATOM     27  N   UNL A   1      39.056  23.651  26.211  1.00  0.00    -0.352 N 
ATOM     28  C   UNL A   1      40.145  24.397  26.613  1.00  0.00     0.251 C 
ATOM     29  H   UNL A   1      39.246  22.718  25.959  1.00  0.00     0.163 HD
ATOM     30  O   UNL A   1      41.288  24.063  26.333  1.00  0.00    -0.269 OA
BRANCH  28  31
ATOM     31  C   UNL A   1      39.905  25.619  27.397  1.00  0.00     0.039 A 
ATOM     32  C   UNL A   1      39.378  25.549  28.688  1.00  0.00     0.014 A 
ATOM     33  C   UNL A   1      40.286  26.837  26.840  1.00  0.00     0.014 A 
ATOM     34  C   UNL A   1      39.336  26.707  29.462  1.00  0.00     0.010 A 
ATOM     35  C   UNL A   1      40.346  27.956  27.641  1.00  0.00     0.010 A 
ATOM     36  C   UNL A   1      39.855  27.905  28.947  1.00  0.00    -0.014 A 
BRANCH  36  37
ATOM     37  C   UNL A   1      40.049  29.061  29.830  1.00  0.00     0.031 A 
ATOM     38  C   UNL A   1      38.854  29.946  29.988  1.00  0.00     0.074 A 
ATOM     39  C   UNL A   1      41.115  29.174  30.655  1.00  0.00     0.049 A 
ATOM     40  N   UNL A   1      38.775  31.225  29.817  1.00  0.00    -0.248 NA
ATOM     41  C   UNL A   1      37.560  29.317  30.311  1.00  0.00     0.031 C 
ATOM     42  C   UNL A   1      42.189  28.189  30.832  1.00  0.00     0.029 A 
ATOM     43  N   UNL A   1      41.396  30.105  31.617  1.00  0.00    -0.354 N 
ATOM     44  C   UNL A   1      37.480  31.590  30.194  1.00  0.00     0.074 A 
ATOM     45  C   UNL A   1      36.738  30.368  30.335  1.00  0.00     0.031 C 
ATOM     46  C   UNL A   1      42.836  28.432  31.990  1.00  0.00     0.029 A 
ATOM     47  C   UNL A   1      42.350  29.684  32.537  1.00  0.00     0.049 A 
ATOM     48  H   UNL A   1      40.963  30.988  31.655  1.00  0.00     0.167 HD
ATOM     49  C   UNL A   1      37.214  32.855  30.628  1.00  0.00     0.037 A 
ATOM     50  C   UNL A   1      42.721  30.296  33.686  1.00  0.00     0.037 A 
ATOM     51  C   UNL A   1      38.280  33.752  30.272  1.00  0.00     0.049 A 
ATOM     52  C   UNL A   1      42.340  31.720  33.597  1.00  0.00     0.074 A 
ATOM     53  C   UNL A   1      38.693  34.451  29.162  1.00  0.00     0.029 A 
ATOM     54  N   UNL A   1      39.317  33.748  31.162  1.00  0.00    -0.354 N 
ATOM     55  N   UNL A   1      42.885  32.562  32.764  1.00  0.00    -0.248 NA
ATOM     56  C   UNL A   1      41.119  32.183  34.248  1.00  0.00     0.031 C 
ATOM     57  C   UNL A   1      40.074  34.753  29.368  1.00  0.00     0.029 A 
ATOM     58  C   UNL A   1      40.460  34.245  30.604  1.00  0.00     0.049 A 
ATOM     59  H   UNL A   1      39.247  33.427  32.090  1.00  0.00     0.167 HD
ATOM     60  C   UNL A   1      41.868  33.442  32.466  1.00  0.00     0.074 A 
ATOM     61  C   UNL A   1      40.893  33.290  33.535  1.00  0.00     0.031 C 
ATOM     62  C   UNL A   1      41.737  33.948  31.208  1.00  0.00     0.037 A 
BRANCH  49  63
ATOM     63  C   UNL A   1      36.297  33.209  31.792  1.00  0.00     0.064 A 
ATOM     64  C   UNL A   1      35.258  34.145  31.573  1.00  0.00     0.173 A 
ATOM     65  C   UNL A   1      36.605  32.965  33.147  1.00  0.00     0.173 A 
ATOM     66  F   UNL A   1      34.868  34.457  30.328  1.00  0.00    -0.203 F 
ATOM     67  C   UNL A   1      34.663  34.857  32.621  1.00  0.00     0.198 A 
ATOM     68  C   UNL A   1      35.975  33.644  34.193  1.00  0.00     0.198 A 
ATOM     69  F   UNL A   1      37.597  32.151  33.521  1.00  0.00    -0.203 F 
ATOM     70  F   UNL A   1      33.783  35.831  32.350  1.00  0.00    -0.200 F 
ATOM     71  C   UNL A   1      35.033  34.616  33.929  1.00  0.00     0.200 A 
ATOM     72  F   UNL A   1      36.357  33.407  35.455  1.00  0.00    -0.200 F 
ATOM     73  F   UNL A   1      34.520  35.345  34.930  1.00  0.00    -0.200 F 
ENDBRANCH  49  63
BRANCH  50  74
ATOM     74  C   UNL A   1      43.253  29.695  34.930  1.00  0.00     0.064 A 
ATOM     75  C   UNL A   1      42.549  28.688  35.608  1.00  0.00     0.173 A 
ATOM     76  C   UNL A   1      44.585  29.910  35.330  1.00  0.00     0.173 A 
ATOM     77  F   UNL A   1      41.285  28.400  35.265  1.00  0.00    -0.203 F 
ATOM     78  C   UNL A   1      43.154  27.915  36.603  1.00  0.00     0.198 A 
ATOM     79  C   UNL A   1      45.186  29.145  36.329  1.00  0.00     0.198 A 
ATOM     80  F   UNL A   1      45.356  30.806  34.693  1.00  0.00    -0.203 F 
ATOM     81  F   UNL A   1      42.472  26.917  37.181  1.00  0.00    -0.200 F 
ATOM     82  C   UNL A   1      44.476  28.136  36.953  1.00  0.00     0.200 A 
ATOM     83  F   UNL A   1      46.475  29.347  36.637  1.00  0.00    -0.200 F 
ATOM     84  F   UNL A   1      45.077  27.351  37.859  1.00  0.00    -0.200 F 
ENDBRANCH  50  74
BRANCH  62  85
ATOM     85  C   UNL A   1      42.962  34.005  30.357  1.00  0.00     0.064 A 
ATOM     86  C   UNL A   1      43.353  32.997  29.462  1.00  0.00     0.173 A 
ATOM     87  C   UNL A   1      43.745  35.164  30.415  1.00  0.00     0.173 A 
ATOM     88  F   UNL A   1      42.611  31.895  29.297  1.00  0.00    -0.203 F 
ATOM     89  C   UNL A   1      44.507  33.129  28.694  1.00  0.00     0.198 A 
ATOM     90  C   UNL A   1      44.876  35.309  29.620  1.00  0.00     0.198 A 
ATOM     91  F   UNL A   1      43.391  36.174  31.225  1.00  0.00    -0.203 F 
ATOM     92  F   UNL A   1      44.878  32.144  27.862  1.00  0.00    -0.200 F 
ATOM     93  C   UNL A   1      45.264  34.288  28.769  1.00  0.00     0.200 A 
ATOM     94  F   UNL A   1      45.581  36.448  29.668  1.00  0.00    -0.200 F 
ATOM     95  F   UNL A   1      46.359  34.428  28.009  1.00  0.00    -0.200 F 
ENDBRANCH  62  85
ENDBRANCH  36  37
ENDBRANCH  28  31
ENDBRANCH  26  27
ENDBRANCH  25  26
ENDBRANCH   1  25
TORSDOF 14
ENDMDL
