MODEL 1
REMARK VINA RESULT:     -13.6      0.000      0.000
REMARK SMILES O=C(Nc1ccccc1)N[C@H]1C[C@@H](C(=O)NCCCCNC(=O)c2ccc(-c3c4nc(c(-c5c(F)c(F)c(F)c(F)c5F)c5ccc([nH]5)c(-c5c(F)c(F)c(F)c(F)c5F)c5nc(c(-c6c(F)c(F)c(F)c(F)c6F)c6ccc3[nH]6)C=C5)C=C4)cc2)Nc2cc(Cl)cc(Cl)c21
REMARK SMILES IDX 18 1 17 2 16 3 14 4 15 5 13 7 11 8 12 9 95 10 88 11 93 12
REMARK SMILES IDX 87 13 89 14 92 15 94 16 90 18 91 19 10 20 1 21 2 22 3 23
REMARK SMILES IDX 4 26 5 27 9 28 6 29 8 30 7 31 19 32 20 33 21 34 22 35 23 37
REMARK SMILES IDX 24 38 25 39 86 40 26 41 85 42 27 43 28 44 29 45 79 46 30 47
REMARK SMILES IDX 84 48 78 49 80 50 31 51 83 52 77 53 76 54 32 56 64 57 44 58
REMARK SMILES IDX 63 59 45 60 48 61 62 62 81 63 46 64 47 65 61 67 82 68 49 69
REMARK SMILES IDX 33 70 34 71 42 72 35 73 36 74 40 75 43 76 37 77 38 78 41 79
REMARK SMILES IDX 39 80 65 81 66 82 74 83 67 84 68 85 72 86 75 87 69 88 70 89
REMARK SMILES IDX 73 90 71 91 50 92 51 93 59 94 52 95 53 96 57 97 60 98 54 99
REMARK SMILES IDX 55 100 58 101 56 102
REMARK H PARENT 16 6 87 17 3 24 10 25 21 36 80 55 48 66
REMARK Flexibility Score: inf
ROOT
ATOM      1  C   UNL A   1      31.748  30.977  26.216  1.00  0.00     0.023 C 
ENDROOT
BRANCH   1   2
ATOM      2  C   UNL A   1      31.981  30.071  27.430  1.00  0.00     0.116 C 
BRANCH   2   3
ATOM      3  N   UNL A   1      33.389  29.849  27.641  1.00  0.00    -0.354 N 
ATOM      4  C   UNL A   1      34.194  28.827  27.267  1.00  0.00     0.242 C 
ATOM      5  O   UNL A   1      35.337  28.853  27.755  1.00  0.00    -0.273 OA
ATOM      6  H   UNL A   1      33.844  30.564  28.143  1.00  0.00     0.163 HD
BRANCH   4   7
ATOM      7  C   UNL A   1      33.839  27.715  26.233  1.00  0.00     0.171 C 
ATOM      8  C   UNL A   1      32.857  27.343  23.843  1.00  0.00     0.120 C 
ATOM      9  C   UNL A   1      33.992  27.894  24.720  1.00  0.00     0.065 C 
ATOM     10  C   UNL A   1      32.175  26.149  24.463  1.00  0.00     0.016 A 
ATOM     11  C   UNL A   1      32.003  26.169  25.856  1.00  0.00     0.043 A 
ATOM     12  C   UNL A   1      31.657  25.076  23.725  1.00  0.00     0.049 A 
ATOM     13  N   UNL A   1      32.491  27.241  26.578  1.00  0.00    -0.373 N 
ATOM     14  C   UNL A   1      31.396  25.094  26.503  1.00  0.00     0.046 A 
ATOM     15  C   UNL A   1      31.055  23.999  24.376  1.00  0.00     0.041 A 
ATOM     16  Cl  UNL A   1      31.724  25.026  22.000  1.00  0.00    -0.084 Cl
ATOM     17  H   UNL A   1      31.961  27.668  27.290  1.00  0.00     0.161 HD
ATOM     18  C   UNL A   1      30.946  24.007  25.762  1.00  0.00     0.044 A 
ATOM     19  Cl  UNL A   1      30.262  22.651  26.572  1.00  0.00    -0.084 Cl
BRANCH   8  20
ATOM     20  N   UNL A   1      31.862  28.360  23.510  1.00  0.00    -0.331 N 
ATOM     21  O   UNL A   1      33.098  29.312  21.849  1.00  0.00    -0.248 OA
ATOM     22  C   UNL A   1      32.020  29.166  22.421  1.00  0.00     0.319 C 
ATOM     23  N   UNL A   1      30.891  29.670  21.851  1.00  0.00    -0.308 N 
ATOM     24  H   UNL A   1      30.996  29.907  20.901  1.00  0.00     0.171 HD
ATOM     25  H   UNL A   1      31.066  28.465  24.079  1.00  0.00     0.166 HD
BRANCH  23  26
ATOM     26  C   UNL A   1      29.609  29.913  22.360  1.00  0.00     0.042 A 
ATOM     27  C   UNL A   1      29.363  31.179  22.906  1.00  0.00     0.026 A 
ATOM     28  C   UNL A   1      28.623  28.928  22.436  1.00  0.00     0.026 A 
ATOM     29  C   UNL A   1      28.129  31.472  23.486  1.00  0.00     0.002 A 
ATOM     30  C   UNL A   1      27.397  29.215  23.047  1.00  0.00     0.002 A 
ATOM     31  C   UNL A   1      27.147  30.487  23.564  1.00  0.00     0.000 A 
ENDBRANCH  23  26
ENDBRANCH   8  20
ENDBRANCH   4   7
ENDBRANCH   2   3
ENDBRANCH   1   2
BRANCH   1  32
ATOM     32  C   UNL A   1      31.560  32.455  26.539  1.00  0.00     0.023 C 
BRANCH  32  33
ATOM     33  C   UNL A   1      32.675  33.085  27.355  1.00  0.00     0.116 C 
BRANCH  33  34
ATOM     34  N   UNL A   1      32.380  34.445  27.777  1.00  0.00    -0.352 N 
ATOM     35  C   UNL A   1      32.989  35.198  28.752  1.00  0.00     0.251 C 
ATOM     36  H   UNL A   1      31.642  34.887  27.299  1.00  0.00     0.163 HD
ATOM     37  O   UNL A   1      32.560  36.302  29.046  1.00  0.00    -0.269 OA
BRANCH  35  38
ATOM     38  C   UNL A   1      34.145  34.630  29.471  1.00  0.00     0.039 A 
ATOM     39  C   UNL A   1      33.924  34.005  30.699  1.00  0.00     0.014 A 
ATOM     40  C   UNL A   1      35.423  34.668  28.907  1.00  0.00     0.014 A 
ATOM     41  C   UNL A   1      34.979  33.349  31.333  1.00  0.00     0.010 A 
ATOM     42  C   UNL A   1      36.453  33.951  29.502  1.00  0.00     0.010 A 
ATOM     43  C   UNL A   1      36.240  33.285  30.717  1.00  0.00    -0.014 A 
BRANCH  43  44
ATOM     44  C   UNL A   1      37.347  32.511  31.325  1.00  0.00     0.031 A 
ATOM     45  C   UNL A   1      37.848  32.866  32.693  1.00  0.00     0.074 A 
ATOM     46  C   UNL A   1      37.954  31.548  30.605  1.00  0.00     0.049 A 
ATOM     47  N   UNL A   1      38.852  32.362  33.364  1.00  0.00    -0.248 NA
ATOM     48  C   UNL A   1      37.150  33.959  33.388  1.00  0.00     0.031 C 
ATOM     49  C   UNL A   1      37.596  31.162  29.239  1.00  0.00     0.029 A 
ATOM     50  N   UNL A   1      39.010  30.731  30.917  1.00  0.00    -0.354 N 
ATOM     51  C   UNL A   1      38.917  33.086  34.546  1.00  0.00     0.074 A 
ATOM     52  C   UNL A   1      37.885  34.097  34.481  1.00  0.00     0.031 C 
ATOM     53  C   UNL A   1      38.412  30.176  28.833  1.00  0.00     0.029 A 
ATOM     54  C   UNL A   1      39.366  29.882  29.897  1.00  0.00     0.049 A 
ATOM     55  H   UNL A   1      39.468  30.750  31.787  1.00  0.00     0.167 HD
ATOM     56  C   UNL A   1      39.749  32.907  35.597  1.00  0.00     0.037 A 
ATOM     57  C   UNL A   1      40.359  28.976  29.828  1.00  0.00     0.037 A 
ATOM     58  C   UNL A   1      40.751  31.876  35.666  1.00  0.00     0.049 A 
ATOM     59  C   UNL A   1      41.252  28.776  31.020  1.00  0.00     0.074 A 
ATOM     60  C   UNL A   1      41.580  31.548  36.724  1.00  0.00     0.029 A 
ATOM     61  N   UNL A   1      41.060  31.007  34.630  1.00  0.00    -0.354 N 
ATOM     62  N   UNL A   1      41.246  29.404  32.171  1.00  0.00    -0.248 NA
ATOM     63  C   UNL A   1      42.285  27.736  30.908  1.00  0.00     0.031 C 
ATOM     64  C   UNL A   1      42.425  30.511  36.311  1.00  0.00     0.029 A 
ATOM     65  C   UNL A   1      42.089  30.161  35.014  1.00  0.00     0.049 A 
ATOM     66  H   UNL A   1      40.615  30.993  33.752  1.00  0.00     0.167 HD
ATOM     67  C   UNL A   1      42.258  28.827  32.926  1.00  0.00     0.074 A 
ATOM     68  C   UNL A   1      42.845  27.785  32.110  1.00  0.00     0.031 C 
ATOM     69  C   UNL A   1      42.664  29.134  34.183  1.00  0.00     0.037 A 
BRANCH  56  70
ATOM     70  C   UNL A   1      39.609  33.846  36.759  1.00  0.00     0.064 A 
ATOM     71  C   UNL A   1      38.845  33.514  37.888  1.00  0.00     0.173 A 
ATOM     72  C   UNL A   1      40.264  35.086  36.751  1.00  0.00     0.173 A 
ATOM     73  F   UNL A   1      38.188  32.346  37.939  1.00  0.00    -0.203 F 
ATOM     74  C   UNL A   1      38.717  34.402  38.953  1.00  0.00     0.198 A 
ATOM     75  C   UNL A   1      40.158  35.959  37.831  1.00  0.00     0.198 A 
ATOM     76  F   UNL A   1      41.010  35.452  35.698  1.00  0.00    -0.203 F 
ATOM     77  F   UNL A   1      37.939  34.085  39.997  1.00  0.00    -0.200 F 
ATOM     78  C   UNL A   1      39.378  35.620  38.926  1.00  0.00     0.200 A 
ATOM     79  F   UNL A   1      40.807  37.132  37.809  1.00  0.00    -0.200 F 
ATOM     80  F   UNL A   1      39.256  36.473  39.953  1.00  0.00    -0.200 F 
ENDBRANCH  56  70
BRANCH  57  81
ATOM     81  C   UNL A   1      40.540  28.176  28.590  1.00  0.00     0.064 A 
ATOM     82  C   UNL A   1      41.350  28.639  27.545  1.00  0.00     0.173 A 
ATOM     83  C   UNL A   1      39.922  26.926  28.434  1.00  0.00     0.173 A 
ATOM     84  F   UNL A   1      41.947  29.836  27.641  1.00  0.00    -0.203 F 
ATOM     85  C   UNL A   1      41.526  27.888  26.384  1.00  0.00     0.198 A 
ATOM     86  C   UNL A   1      40.119  26.165  27.284  1.00  0.00     0.198 A 
ATOM     87  F   UNL A   1      39.142  26.436  29.409  1.00  0.00    -0.203 F 
ATOM     88  F   UNL A   1      42.278  28.370  25.385  1.00  0.00    -0.200 F 
ATOM     89  C   UNL A   1      40.915  26.649  26.257  1.00  0.00     0.200 A 
ATOM     90  F   UNL A   1      39.540  24.962  27.172  1.00  0.00    -0.200 F 
ATOM     91  F   UNL A   1      41.092  25.925  25.145  1.00  0.00    -0.200 F 
ENDBRANCH  57  81
BRANCH  69  92
ATOM     92  C   UNL A   1      43.790  28.324  34.755  1.00  0.00     0.064 A 
ATOM     93  C   UNL A   1      43.555  27.113  35.423  1.00  0.00     0.173 A 
ATOM     94  C   UNL A   1      45.119  28.742  34.595  1.00  0.00     0.173 A 
ATOM     95  F   UNL A   1      42.300  26.680  35.615  1.00  0.00    -0.203 F 
ATOM     96  C   UNL A   1      44.612  26.361  35.929  1.00  0.00     0.198 A 
ATOM     97  C   UNL A   1      46.174  27.973  35.078  1.00  0.00     0.198 A 
ATOM     98  F   UNL A   1      45.396  29.890  33.959  1.00  0.00    -0.203 F 
ATOM     99  F   UNL A   1      44.363  25.229  36.601  1.00  0.00    -0.200 F 
ATOM    100  C   UNL A   1      45.919  26.787  35.750  1.00  0.00     0.200 A 
ATOM    101  F   UNL A   1      47.437  28.380  34.893  1.00  0.00    -0.200 F 
ATOM    102  F   UNL A   1      46.935  26.057  36.230  1.00  0.00    -0.200 F 
ENDBRANCH  69  92
ENDBRANCH  43  44
ENDBRANCH  35  38
ENDBRANCH  33  34
ENDBRANCH  32  33
ENDBRANCH   1  32
TORSDOF 13
ENDMDL
MODEL 2
REMARK VINA RESULT:     -13.5      6.411     11.543
REMARK SMILES O=C(Nc1ccccc1)N[C@H]1C[C@@H](C(=O)NCCCCNC(=O)c2ccc(-c3c4nc(c(-c5c(F)c(F)c(F)c(F)c5F)c5ccc([nH]5)c(-c5c(F)c(F)c(F)c(F)c5F)c5nc(c(-c6c(F)c(F)c(F)c(F)c6F)c6ccc3[nH]6)C=C5)C=C4)cc2)Nc2cc(Cl)cc(Cl)c21
REMARK SMILES IDX 18 1 17 2 16 3 14 4 15 5 13 7 11 8 12 9 95 10 88 11 93 12
REMARK SMILES IDX 87 13 89 14 92 15 94 16 90 18 91 19 10 20 1 21 2 22 3 23
REMARK SMILES IDX 4 26 5 27 9 28 6 29 8 30 7 31 19 32 20 33 21 34 22 35 23 37
REMARK SMILES IDX 24 38 25 39 86 40 26 41 85 42 27 43 28 44 29 45 79 46 30 47
REMARK SMILES IDX 84 48 78 49 80 50 31 51 83 52 77 53 76 54 32 56 64 57 44 58
REMARK SMILES IDX 63 59 45 60 48 61 62 62 81 63 46 64 47 65 61 67 82 68 49 69
REMARK SMILES IDX 33 70 34 71 42 72 35 73 36 74 40 75 43 76 37 77 38 78 41 79
REMARK SMILES IDX 39 80 65 81 66 82 74 83 67 84 68 85 72 86 75 87 69 88 70 89
REMARK SMILES IDX 73 90 71 91 50 92 51 93 59 94 52 95 53 96 57 97 60 98 54 99
REMARK SMILES IDX 55 100 58 101 56 102
REMARK H PARENT 16 6 87 17 3 24 10 25 21 36 80 55 48 66
REMARK Flexibility Score: inf
ROOT
ATOM      1  C   UNL A   1      40.998  20.936  26.281  1.00  0.00     0.023 C 
ENDROOT
BRANCH   1   2
ATOM      2  C   UNL A   1      39.473  21.080  26.298  1.00  0.00     0.116 C 
BRANCH   2   3
ATOM      3  N   UNL A   1      39.090  22.456  26.489  1.00  0.00    -0.354 N 
ATOM      4  C   UNL A   1      38.160  23.216  25.865  1.00  0.00     0.242 C 
ATOM      5  O   UNL A   1      38.192  24.425  26.148  1.00  0.00    -0.273 OA
ATOM      6  H   UNL A   1      39.591  22.925  27.196  1.00  0.00     0.163 HD
BRANCH   4   7
ATOM      7  C   UNL A   1      37.032  22.690  24.925  1.00  0.00     0.171 C 
ATOM      8  C   UNL A   1      35.070  23.484  23.396  1.00  0.00     0.120 C 
ATOM      9  C   UNL A   1      36.583  23.425  23.658  1.00  0.00     0.065 C 
ATOM     10  C   UNL A   1      34.340  22.286  23.952  1.00  0.00     0.016 A 
ATOM     11  C   UNL A   1      34.793  21.782  25.182  1.00  0.00     0.043 A 
ATOM     12  C   UNL A   1      33.215  21.708  23.348  1.00  0.00     0.049 A 
ATOM     13  N   UNL A   1      35.886  22.371  25.788  1.00  0.00    -0.373 N 
ATOM     14  C   UNL A   1      34.179  20.669  25.751  1.00  0.00     0.046 A 
ATOM     15  C   UNL A   1      32.606  20.590  23.918  1.00  0.00     0.041 A 
ATOM     16  Cl  UNL A   1      32.524  22.337  21.896  1.00  0.00    -0.084 Cl
ATOM     17  H   UNL A   1      35.896  22.569  26.752  1.00  0.00     0.161 HD
ATOM     18  C   UNL A   1      33.104  20.066  25.106  1.00  0.00     0.044 A 
ATOM     19  Cl  UNL A   1      32.395  18.649  25.777  1.00  0.00    -0.084 Cl
BRANCH   8  20
ATOM     20  N   UNL A   1      34.460  24.711  23.902  1.00  0.00    -0.331 N 
ATOM     21  O   UNL A   1      33.842  25.487  21.851  1.00  0.00    -0.248 OA
ATOM     22  C   UNL A   1      33.757  25.537  23.076  1.00  0.00     0.319 C 
ATOM     23  N   UNL A   1      32.791  26.310  23.644  1.00  0.00    -0.308 N 
ATOM     24  H   UNL A   1      32.081  26.585  23.020  1.00  0.00     0.171 HD
ATOM     25  H   UNL A   1      34.559  24.945  24.853  1.00  0.00     0.166 HD
BRANCH  23  26
ATOM     26  C   UNL A   1      32.617  26.788  24.949  1.00  0.00     0.042 A 
ATOM     27  C   UNL A   1      31.377  26.559  25.558  1.00  0.00     0.026 A 
ATOM     28  C   UNL A   1      33.576  27.556  25.611  1.00  0.00     0.026 A 
ATOM     29  C   UNL A   1      31.111  27.059  26.834  1.00  0.00     0.002 A 
ATOM     30  C   UNL A   1      33.295  28.084  26.876  1.00  0.00     0.002 A 
ATOM     31  C   UNL A   1      32.068  27.828  27.490  1.00  0.00     0.000 A 
ENDBRANCH  23  26
ENDBRANCH   8  20
ENDBRANCH   4   7
ENDBRANCH   2   3
ENDBRANCH   1   2
BRANCH   1  32
ATOM     32  C   UNL A   1      41.512  19.517  26.072  1.00  0.00     0.023 C 
BRANCH  32  33
ATOM     33  C   UNL A   1      43.008  19.338  26.257  1.00  0.00     0.116 C 
BRANCH  33  34
ATOM     34  N   UNL A   1      43.683  18.871  25.057  1.00  0.00    -0.352 N 
ATOM     35  C   UNL A   1      44.539  19.553  24.226  1.00  0.00     0.251 C 
ATOM     36  H   UNL A   1      43.502  17.936  24.804  1.00  0.00     0.163 HD
ATOM     37  O   UNL A   1      44.956  19.038  23.201  1.00  0.00    -0.269 OA
BRANCH  35  38
ATOM     38  C   UNL A   1      44.912  20.938  24.572  1.00  0.00     0.039 A 
ATOM     39  C   UNL A   1      44.502  21.969  23.725  1.00  0.00     0.014 A 
ATOM     40  C   UNL A   1      45.611  21.215  25.749  1.00  0.00     0.014 A 
ATOM     41  C   UNL A   1      44.730  23.293  24.098  1.00  0.00     0.010 A 
ATOM     42  C   UNL A   1      45.771  22.533  26.155  1.00  0.00     0.010 A 
ATOM     43  C   UNL A   1      45.331  23.582  25.335  1.00  0.00    -0.014 A 
BRANCH  43  44
ATOM     44  C   UNL A   1      45.494  24.981  25.796  1.00  0.00     0.031 A 
ATOM     45  C   UNL A   1      46.846  25.629  25.761  1.00  0.00     0.074 A 
ATOM     46  C   UNL A   1      44.440  25.630  26.324  1.00  0.00     0.049 A 
ATOM     47  N   UNL A   1      47.208  26.811  26.188  1.00  0.00    -0.248 NA
ATOM     48  C   UNL A   1      47.947  24.828  25.203  1.00  0.00     0.031 C 
ATOM     49  C   UNL A   1      43.093  25.075  26.472  1.00  0.00     0.029 A 
ATOM     50  N   UNL A   1      44.340  26.892  26.851  1.00  0.00    -0.354 N 
ATOM     51  C   UNL A   1      48.576  26.888  25.968  1.00  0.00     0.074 A 
ATOM     52  C   UNL A   1      48.989  25.616  25.418  1.00  0.00     0.031 C 
ATOM     53  C   UNL A   1      42.299  25.996  27.043  1.00  0.00     0.029 A 
ATOM     54  C   UNL A   1      43.086  27.192  27.326  1.00  0.00     0.049 A 
ATOM     55  H   UNL A   1      45.094  27.523  26.887  1.00  0.00     0.167 HD
ATOM     56  C   UNL A   1      49.406  27.934  26.188  1.00  0.00     0.037 A 
ATOM     57  C   UNL A   1      42.629  28.304  27.931  1.00  0.00     0.037 A 
ATOM     58  C   UNL A   1      48.979  29.207  26.705  1.00  0.00     0.049 A 
ATOM     59  C   UNL A   1      43.564  29.462  28.138  1.00  0.00     0.074 A 
ATOM     60  C   UNL A   1      49.722  30.362  26.875  1.00  0.00     0.029 A 
ATOM     61  N   UNL A   1      47.693  29.490  27.140  1.00  0.00    -0.354 N 
ATOM     62  N   UNL A   1      44.837  29.559  27.841  1.00  0.00    -0.248 NA
ATOM     63  C   UNL A   1      42.997  30.670  28.754  1.00  0.00     0.031 C 
ATOM     64  C   UNL A   1      48.896  31.330  27.457  1.00  0.00     0.029 A 
ATOM     65  C   UNL A   1      47.627  30.794  27.605  1.00  0.00     0.049 A 
ATOM     66  H   UNL A   1      46.938  28.858  27.121  1.00  0.00     0.167 HD
ATOM     67  C   UNL A   1      45.221  30.838  28.218  1.00  0.00     0.074 A 
ATOM     68  C   UNL A   1      44.040  31.488  28.747  1.00  0.00     0.031 C 
ATOM     69  C   UNL A   1      46.442  31.421  28.134  1.00  0.00     0.037 A 
BRANCH  56  70
ATOM     70  C   UNL A   1      50.859  27.743  25.867  1.00  0.00     0.064 A 
ATOM     71  C   UNL A   1      51.356  27.914  24.565  1.00  0.00     0.173 A 
ATOM     72  C   UNL A   1      51.771  27.407  26.878  1.00  0.00     0.173 A 
ATOM     73  F   UNL A   1      50.523  28.222  23.561  1.00  0.00    -0.203 F 
ATOM     74  C   UNL A   1      52.705  27.722  24.283  1.00  0.00     0.198 A 
ATOM     75  C   UNL A   1      53.126  27.246  26.597  1.00  0.00     0.198 A 
ATOM     76  F   UNL A   1      51.350  27.236  28.140  1.00  0.00    -0.203 F 
ATOM     77  F   UNL A   1      53.147  27.838  23.023  1.00  0.00    -0.200 F 
ATOM     78  C   UNL A   1      53.590  27.396  25.299  1.00  0.00     0.200 A 
ATOM     79  F   UNL A   1      53.982  26.941  27.583  1.00  0.00    -0.200 F 
ATOM     80  F   UNL A   1      54.890  27.215  25.026  1.00  0.00    -0.200 F 
ENDBRANCH  56  70
BRANCH  57  81
ATOM     81  C   UNL A   1      41.209  28.375  28.361  1.00  0.00     0.064 A 
ATOM     82  C   UNL A   1      40.819  27.943  29.635  1.00  0.00     0.173 A 
ATOM     83  C   UNL A   1      40.218  28.894  27.515  1.00  0.00     0.173 A 
ATOM     84  F   UNL A   1      41.729  27.423  30.473  1.00  0.00    -0.203 F 
ATOM     85  C   UNL A   1      39.489  28.014  30.044  1.00  0.00     0.198 A 
ATOM     86  C   UNL A   1      38.892  28.989  27.933  1.00  0.00     0.198 A 
ATOM     87  F   UNL A   1      40.542  29.328  26.288  1.00  0.00    -0.203 F 
ATOM     88  F   UNL A   1      39.138  27.561  31.255  1.00  0.00    -0.200 F 
ATOM     89  C   UNL A   1      38.528  28.543  29.195  1.00  0.00     0.200 A 
ATOM     90  F   UNL A   1      37.970  29.514  27.117  1.00  0.00    -0.200 F 
ATOM     91  F   UNL A   1      37.251  28.620  29.592  1.00  0.00    -0.200 F 
ENDBRANCH  57  81
BRANCH  69  92
ATOM     92  C   UNL A   1      46.559  32.837  28.614  1.00  0.00     0.064 A 
ATOM     93  C   UNL A   1      46.918  33.134  29.938  1.00  0.00     0.173 A 
ATOM     94  C   UNL A   1      46.353  33.907  27.732  1.00  0.00     0.173 A 
ATOM     95  F   UNL A   1      47.111  32.146  30.823  1.00  0.00    -0.203 F 
ATOM     96  C   UNL A   1      47.045  34.454  30.364  1.00  0.00     0.198 A 
ATOM     97  C   UNL A   1      46.508  35.224  28.154  1.00  0.00     0.198 A 
ATOM     98  F   UNL A   1      46.013  33.675  26.455  1.00  0.00    -0.203 F 
ATOM     99  F   UNL A   1      47.347  34.716  31.642  1.00  0.00    -0.200 F 
ATOM    100  C   UNL A   1      46.848  35.496  29.470  1.00  0.00     0.200 A 
ATOM    101  F   UNL A   1      46.329  36.230  27.287  1.00  0.00    -0.200 F 
ATOM    102  F   UNL A   1      46.978  36.765  29.881  1.00  0.00    -0.200 F 
ENDBRANCH  69  92
ENDBRANCH  43  44
ENDBRANCH  35  38
ENDBRANCH  33  34
ENDBRANCH  32  33
ENDBRANCH   1  32
TORSDOF 13
ENDMDL
MODEL 3
REMARK VINA RESULT:     -13.4      2.050      4.012
REMARK SMILES O=C(Nc1ccccc1)N[C@H]1C[C@@H](C(=O)NCCCCNC(=O)c2ccc(-c3c4nc(c(-c5c(F)c(F)c(F)c(F)c5F)c5ccc([nH]5)c(-c5c(F)c(F)c(F)c(F)c5F)c5nc(c(-c6c(F)c(F)c(F)c(F)c6F)c6ccc3[nH]6)C=C5)C=C4)cc2)Nc2cc(Cl)cc(Cl)c21
REMARK SMILES IDX 18 1 17 2 16 3 14 4 15 5 13 7 11 8 12 9 95 10 88 11 93 12
REMARK SMILES IDX 87 13 89 14 92 15 94 16 90 18 91 19 10 20 1 21 2 22 3 23
REMARK SMILES IDX 4 26 5 27 9 28 6 29 8 30 7 31 19 32 20 33 21 34 22 35 23 37
REMARK SMILES IDX 24 38 25 39 86 40 26 41 85 42 27 43 28 44 29 45 79 46 30 47
REMARK SMILES IDX 84 48 78 49 80 50 31 51 83 52 77 53 76 54 32 56 64 57 44 58
REMARK SMILES IDX 63 59 45 60 48 61 62 62 81 63 46 64 47 65 61 67 82 68 49 69
REMARK SMILES IDX 33 70 34 71 42 72 35 73 36 74 40 75 43 76 37 77 38 78 41 79
REMARK SMILES IDX 39 80 65 81 66 82 74 83 67 84 68 85 72 86 75 87 69 88 70 89
REMARK SMILES IDX 73 90 71 91 50 92 51 93 59 94 52 95 53 96 57 97 60 98 54 99
REMARK SMILES IDX 55 100 58 101 56 102
REMARK H PARENT 16 6 87 17 3 24 10 25 21 36 80 55 48 66
REMARK Flexibility Score: inf
ROOT
ATOM      1  C   UNL A   1      34.042  33.430  28.641  1.00  0.00     0.023 C 
ENDROOT
BRANCH   1   2
ATOM      2  C   UNL A   1      33.378  32.235  27.949  1.00  0.00     0.116 C 
BRANCH   2   3
ATOM      3  N   UNL A   1      34.292  31.125  27.855  1.00  0.00    -0.354 N 
ATOM      4  C   UNL A   1      34.079  29.817  27.579  1.00  0.00     0.242 C 
ATOM      5  O   UNL A   1      35.063  29.077  27.743  1.00  0.00    -0.273 OA
ATOM      6  H   UNL A   1      35.235  31.357  28.020  1.00  0.00     0.163 HD
BRANCH   4   7
ATOM      7  C   UNL A   1      32.765  29.208  26.999  1.00  0.00     0.171 C 
ATOM      8  C   UNL A   1      31.539  26.942  26.581  1.00  0.00     0.120 C 
ATOM      9  C   UNL A   1      32.082  27.970  27.586  1.00  0.00     0.065 C 
ATOM     10  C   UNL A   1      31.111  27.576  25.280  1.00  0.00     0.016 A 
ATOM     11  C   UNL A   1      31.897  28.636  24.803  1.00  0.00     0.043 A 
ATOM     12  C   UNL A   1      30.031  27.123  24.510  1.00  0.00     0.049 A 
ATOM     13  N   UNL A   1      32.977  29.063  25.552  1.00  0.00    -0.373 N 
ATOM     14  C   UNL A   1      31.555  29.282  23.617  1.00  0.00     0.046 A 
ATOM     15  C   UNL A   1      29.689  27.776  23.325  1.00  0.00     0.041 A 
ATOM     16  Cl  UNL A   1      29.083  25.755  24.967  1.00  0.00    -0.084 Cl
ATOM     17  H   UNL A   1      33.848  29.258  25.136  1.00  0.00     0.161 HD
ATOM     18  C   UNL A   1      30.442  28.863  22.897  1.00  0.00     0.044 A 
ATOM     19  Cl  UNL A   1      29.984  29.709  21.470  1.00  0.00    -0.084 Cl
BRANCH   8  20
ATOM     20  N   UNL A   1      32.486  25.862  26.315  1.00  0.00    -0.331 N 
ATOM     21  O   UNL A   1      31.199  24.232  27.251  1.00  0.00    -0.248 OA
ATOM     22  C   UNL A   1      32.149  24.561  26.545  1.00  0.00     0.319 C 
ATOM     23  N   UNL A   1      32.787  23.613  25.805  1.00  0.00    -0.308 N 
ATOM     24  H   UNL A   1      32.283  22.773  25.712  1.00  0.00     0.171 HD
ATOM     25  H   UNL A   1      33.380  26.077  25.964  1.00  0.00     0.166 HD
BRANCH  23  26
ATOM     26  C   UNL A   1      34.026  23.608  25.150  1.00  0.00     0.042 A 
ATOM     27  C   UNL A   1      34.034  23.272  23.791  1.00  0.00     0.026 A 
ATOM     28  C   UNL A   1      35.236  23.821  25.813  1.00  0.00     0.026 A 
ATOM     29  C   UNL A   1      35.237  23.188  23.089  1.00  0.00     0.002 A 
ATOM     30  C   UNL A   1      36.443  23.703  25.115  1.00  0.00     0.002 A 
ATOM     31  C   UNL A   1      36.443  23.396  23.753  1.00  0.00     0.000 A 
ENDBRANCH  23  26
ENDBRANCH   8  20
ENDBRANCH   4   7
ENDBRANCH   2   3
ENDBRANCH   1   2
BRANCH   1  32
ATOM     32  C   UNL A   1      33.295  34.752  28.506  1.00  0.00     0.023 C 
BRANCH  32  33
ATOM     33  C   UNL A   1      33.675  35.814  29.521  1.00  0.00     0.116 C 
BRANCH  33  34
ATOM     34  N   UNL A   1      32.641  36.059  30.513  1.00  0.00    -0.352 N 
ATOM     35  C   UNL A   1      32.613  35.703  31.840  1.00  0.00     0.251 C 
ATOM     36  H   UNL A   1      31.849  36.547  30.189  1.00  0.00     0.163 HD
ATOM     37  O   UNL A   1      31.622  35.908  32.521  1.00  0.00    -0.269 OA
BRANCH  35  38
ATOM     38  C   UNL A   1      33.790  35.026  32.418  1.00  0.00     0.039 A 
ATOM     39  C   UNL A   1      33.653  33.704  32.848  1.00  0.00     0.014 A 
ATOM     40  C   UNL A   1      35.025  35.674  32.482  1.00  0.00     0.014 A 
ATOM     41  C   UNL A   1      34.780  33.004  33.277  1.00  0.00     0.010 A 
ATOM     42  C   UNL A   1      36.158  34.954  32.837  1.00  0.00     0.010 A 
ATOM     43  C   UNL A   1      36.045  33.614  33.236  1.00  0.00    -0.014 A 
BRANCH  43  44
ATOM     44  C   UNL A   1      37.268  32.858  33.593  1.00  0.00     0.031 A 
ATOM     45  C   UNL A   1      37.999  33.171  34.865  1.00  0.00     0.074 A 
ATOM     46  C   UNL A   1      37.764  31.954  32.727  1.00  0.00     0.049 A 
ATOM     47  N   UNL A   1      39.123  32.677  35.317  1.00  0.00    -0.248 NA
ATOM     48  C   UNL A   1      37.404  34.202  35.730  1.00  0.00     0.031 C 
ATOM     49  C   UNL A   1      37.176  31.617  31.429  1.00  0.00     0.029 A 
ATOM     50  N   UNL A   1      38.884  31.167  32.800  1.00  0.00    -0.354 N 
ATOM     51  C   UNL A   1      39.378  33.349  36.504  1.00  0.00     0.074 A 
ATOM     52  C   UNL A   1      38.321  34.319  36.679  1.00  0.00     0.031 C 
ATOM     53  C   UNL A   1      37.936  30.684  30.832  1.00  0.00     0.029 A 
ATOM     54  C   UNL A   1      39.076  30.380  31.690  1.00  0.00     0.049 A 
ATOM     55  H   UNL A   1      39.492  31.165  33.573  1.00  0.00     0.167 HD
ATOM     56  C   UNL A   1      40.393  33.156  37.378  1.00  0.00     0.037 A 
ATOM     57  C   UNL A   1      40.068  29.519  31.397  1.00  0.00     0.037 A 
ATOM     58  C   UNL A   1      41.423  32.164  37.212  1.00  0.00     0.049 A 
ATOM     59  C   UNL A   1      41.169  29.301  32.396  1.00  0.00     0.074 A 
ATOM     60  C   UNL A   1      42.440  31.822  38.085  1.00  0.00     0.029 A 
ATOM     61  N   UNL A   1      41.565  31.356  36.093  1.00  0.00    -0.354 N 
ATOM     62  N   UNL A   1      41.352  29.875  33.561  1.00  0.00    -0.248 NA
ATOM     63  C   UNL A   1      42.196  28.310  32.047  1.00  0.00     0.031 C 
ATOM     64  C   UNL A   1      43.228  30.840  37.474  1.00  0.00     0.029 A 
ATOM     65  C   UNL A   1      42.673  30.536  36.241  1.00  0.00     0.049 A 
ATOM     66  H   UNL A   1      40.969  31.364  35.310  1.00  0.00     0.167 HD
ATOM     67  C   UNL A   1      42.502  29.306  34.091  1.00  0.00     0.074 A 
ATOM     68  C   UNL A   1      42.963  28.327  33.129  1.00  0.00     0.031 C 
ATOM     69  C   UNL A   1      43.120  29.571  35.268  1.00  0.00     0.037 A 
BRANCH  56  70
ATOM     70  C   UNL A   1      40.437  34.035  38.593  1.00  0.00     0.064 A 
ATOM     71  C   UNL A   1      41.164  35.236  38.608  1.00  0.00     0.173 A 
ATOM     72  C   UNL A   1      39.727  33.684  39.749  1.00  0.00     0.173 A 
ATOM     73  F   UNL A   1      41.871  35.610  37.532  1.00  0.00    -0.203 F 
ATOM     74  C   UNL A   1      41.203  36.035  39.747  1.00  0.00     0.198 A 
ATOM     75  C   UNL A   1      39.744  34.500  40.878  1.00  0.00     0.198 A 
ATOM     76  F   UNL A   1      39.014  32.548  39.787  1.00  0.00    -0.203 F 
ATOM     77  F   UNL A   1      41.947  37.150  39.756  1.00  0.00    -0.200 F 
ATOM     78  C   UNL A   1      40.488  35.670  40.878  1.00  0.00     0.200 A 
ATOM     79  F   UNL A   1      39.044  34.152  41.966  1.00  0.00    -0.200 F 
ATOM     80  F   UNL A   1      40.525  36.442  41.973  1.00  0.00    -0.200 F 
ENDBRANCH  56  70
BRANCH  57  81
ATOM     81  C   UNL A   1      40.045  28.785  30.106  1.00  0.00     0.064 A 
ATOM     82  C   UNL A   1      40.641  29.325  28.959  1.00  0.00     0.173 A 
ATOM     83  C   UNL A   1      39.446  27.521  29.998  1.00  0.00     0.173 A 
ATOM     84  F   UNL A   1      41.210  30.538  29.009  1.00  0.00    -0.203 F 
ATOM     85  C   UNL A   1      40.626  28.636  27.748  1.00  0.00     0.198 A 
ATOM     86  C   UNL A   1      39.455  26.821  28.794  1.00  0.00     0.198 A 
ATOM     87  F   UNL A   1      38.870  26.957  31.071  1.00  0.00    -0.203 F 
ATOM     88  F   UNL A   1      41.172  29.191  26.657  1.00  0.00    -0.200 F 
ATOM     89  C   UNL A   1      40.039  27.382  27.668  1.00  0.00     0.200 A 
ATOM     90  F   UNL A   1      38.900  25.604  28.724  1.00  0.00    -0.200 F 
ATOM     91  F   UNL A   1      40.033  26.716  26.506  1.00  0.00    -0.200 F 
ENDBRANCH  57  81
BRANCH  69  92
ATOM     92  C   UNL A   1      44.355  28.783  35.585  1.00  0.00     0.064 A 
ATOM     93  C   UNL A   1      45.629  29.236  35.211  1.00  0.00     0.173 A 
ATOM     94  C   UNL A   1      44.268  27.584  36.308  1.00  0.00     0.173 A 
ATOM     95  F   UNL A   1      45.763  30.368  34.505  1.00  0.00    -0.203 F 
ATOM     96  C   UNL A   1      46.770  28.504  35.532  1.00  0.00     0.198 A 
ATOM     97  C   UNL A   1      45.412  26.870  36.652  1.00  0.00     0.198 A 
ATOM     98  F   UNL A   1      43.073  27.112  36.693  1.00  0.00    -0.203 F 
ATOM     99  F   UNL A   1      47.973  28.933  35.129  1.00  0.00    -0.200 F 
ATOM    100  C   UNL A   1      46.661  27.327  36.258  1.00  0.00     0.200 A 
ATOM    101  F   UNL A   1      45.307  25.740  37.364  1.00  0.00    -0.200 F 
ATOM    102  F   UNL A   1      47.761  26.630  36.573  1.00  0.00    -0.200 F 
ENDBRANCH  69  92
ENDBRANCH  43  44
ENDBRANCH  35  38
ENDBRANCH  33  34
ENDBRANCH  32  33
ENDBRANCH   1  32
TORSDOF 13
ENDMDL
