MODEL 1
REMARK VINA RESULT:     -13.0      0.000      0.000
REMARK SMILES O=C(NCCCCNC(=O)[C@@H]1[C@@H](C(=O)NCc2cc(F)cc(Br)c2)[C@@H]2C=C[C@H]1C2)c1ccc(-c2c3nc(c(-c4c(F)c(F)c(F)c(F)c4F)c4ccc([nH]4)c(-c4c(F)c(F)c(F)c(F)c4F)c4nc(c(-c5c(F)c(F)c(F)c(F)c5F)c5ccc2[nH]5)C=C4)C=C3)cc1
REMARK SMILES IDX 6 1 5 2 4 3 3 4 1 5 2 6 30 8 31 9 92 10 32 11 91 12 33 13
REMARK SMILES IDX 34 14 35 15 85 16 36 17 90 18 84 19 86 20 37 21 89 22 83 23
REMARK SMILES IDX 82 24 38 26 70 27 50 28 69 29 51 30 54 31 68 32 87 33 52 34
REMARK SMILES IDX 53 35 67 37 88 38 55 39 39 40 40 41 48 42 41 43 42 44 46 45
REMARK SMILES IDX 49 46 43 47 44 48 47 49 45 50 71 51 72 52 80 53 73 54 74 55
REMARK SMILES IDX 78 56 81 57 75 58 76 59 79 60 77 61 56 62 57 63 65 64 58 65
REMARK SMILES IDX 59 66 63 67 66 68 60 69 61 70 64 71 62 72 7 73 8 74 9 75
REMARK SMILES IDX 10 77 11 78 12 79 28 80 25 81 27 82 29 83 26 84 13 85 14 86
REMARK SMILES IDX 15 87 16 89 17 90 18 91 24 92 19 93 22 94 20 95 21 96 23 97
REMARK H PARENT 3 7 86 25 54 36 8 76 15 88
REMARK Flexibility Score: inf
ROOT
ATOM      1  C   UNL A   1      37.051  21.133  24.648  1.00  0.00     0.023 C 
ENDROOT
BRANCH   1   2
ATOM      2  C   UNL A   1      37.995  19.961  24.900  1.00  0.00     0.023 C 
BRANCH   2   3
ATOM      3  C   UNL A   1      39.156  20.262  25.840  1.00  0.00     0.116 C 
BRANCH   3   4
ATOM      4  N   UNL A   1      40.156  19.203  25.882  1.00  0.00    -0.352 N 
ATOM      5  O   UNL A   1      42.235  18.321  25.969  1.00  0.00    -0.269 OA
ATOM      6  C   UNL A   1      41.515  19.301  26.078  1.00  0.00     0.251 C 
ATOM      7  H   UNL A   1      39.812  18.291  25.750  1.00  0.00     0.163 HD
BRANCH   6   8
ATOM      8  C   UNL A   1      42.096  20.622  26.392  1.00  0.00     0.039 A 
ATOM      9  C   UNL A   1      42.277  21.012  27.719  1.00  0.00     0.014 A 
ATOM     10  C   UNL A   1      42.413  21.492  25.346  1.00  0.00     0.014 A 
ATOM     11  C   UNL A   1      42.618  22.327  28.005  1.00  0.00     0.010 A 
ATOM     12  C   UNL A   1      42.844  22.788  25.636  1.00  0.00     0.010 A 
ATOM     13  C   UNL A   1      42.909  23.228  26.967  1.00  0.00    -0.014 A 
BRANCH  13  14
ATOM     14  C   UNL A   1      43.315  24.614  27.305  1.00  0.00     0.031 A 
ATOM     15  C   UNL A   1      44.704  25.109  27.018  1.00  0.00     0.074 A 
ATOM     16  C   UNL A   1      42.399  25.438  27.846  1.00  0.00     0.049 A 
ATOM     17  N   UNL A   1      45.218  26.296  27.230  1.00  0.00    -0.248 NA
ATOM     18  C   UNL A   1      45.645  24.148  26.425  1.00  0.00     0.031 C 
ATOM     19  C   UNL A   1      41.022  25.064  28.171  1.00  0.00     0.029 A 
ATOM     20  N   UNL A   1      42.478  26.761  28.197  1.00  0.00    -0.354 N 
ATOM     21  C   UNL A   1      46.541  26.217  26.821  1.00  0.00     0.074 A 
ATOM     22  C   UNL A   1      46.763  24.859  26.369  1.00  0.00     0.031 C 
ATOM     23  C   UNL A   1      40.369  26.143  28.623  1.00  0.00     0.029 A 
ATOM     24  C   UNL A   1      41.297  27.267  28.679  1.00  0.00     0.049 A 
ATOM     25  H   UNL A   1      43.300  27.295  28.111  1.00  0.00     0.167 HD
ATOM     26  C   UNL A   1      47.483  27.193  26.818  1.00  0.00     0.037 A 
ATOM     27  C   UNL A   1      40.996  28.497  29.131  1.00  0.00     0.037 A 
ATOM     28  C   UNL A   1      47.248  28.548  27.251  1.00  0.00     0.049 A 
ATOM     29  C   UNL A   1      42.063  29.552  29.135  1.00  0.00     0.074 A 
ATOM     30  C   UNL A   1      48.123  29.620  27.247  1.00  0.00     0.029 A 
ATOM     31  N   UNL A   1      46.048  29.014  27.770  1.00  0.00    -0.354 N 
ATOM     32  N   UNL A   1      43.303  29.475  28.719  1.00  0.00    -0.248 NA
ATOM     33  C   UNL A   1      41.689  30.864  29.677  1.00  0.00     0.031 C 
ATOM     34  C   UNL A   1      47.468  30.723  27.806  1.00  0.00     0.029 A 
ATOM     35  C   UNL A   1      46.168  30.352  28.113  1.00  0.00     0.049 A 
ATOM     36  H   UNL A   1      45.232  28.475  27.879  1.00  0.00     0.167 HD
ATOM     37  C   UNL A   1      43.854  30.729  28.931  1.00  0.00     0.074 A 
ATOM     38  C   UNL A   1      42.806  31.554  29.499  1.00  0.00     0.031 C 
ATOM     39  C   UNL A   1      45.116  31.159  28.678  1.00  0.00     0.037 A 
BRANCH  26  40
ATOM     40  C   UNL A   1      48.864  26.824  26.357  1.00  0.00     0.064 A 
ATOM     41  C   UNL A   1      49.800  26.229  27.218  1.00  0.00     0.173 A 
ATOM     42  C   UNL A   1      49.248  27.042  25.025  1.00  0.00     0.173 A 
ATOM     43  F   UNL A   1      49.488  26.007  28.504  1.00  0.00    -0.203 F 
ATOM     44  C   UNL A   1      51.076  25.896  26.770  1.00  0.00     0.198 A 
ATOM     45  C   UNL A   1      50.516  26.683  24.574  1.00  0.00     0.198 A 
ATOM     46  F   UNL A   1      48.392  27.602  24.157  1.00  0.00    -0.203 F 
ATOM     47  F   UNL A   1      51.969  25.375  27.623  1.00  0.00    -0.200 F 
ATOM     48  C   UNL A   1      51.431  26.118  25.448  1.00  0.00     0.200 A 
ATOM     49  F   UNL A   1      50.852  26.888  23.293  1.00  0.00    -0.200 F 
ATOM     50  F   UNL A   1      52.659  25.796  25.019  1.00  0.00    -0.200 F 
ENDBRANCH  26  40
BRANCH  27  51
ATOM     51  C   UNL A   1      39.618  28.786  29.598  1.00  0.00     0.064 A 
ATOM     52  C   UNL A   1      39.239  28.522  30.921  1.00  0.00     0.173 A 
ATOM     53  C   UNL A   1      38.668  29.372  28.748  1.00  0.00     0.173 A 
ATOM     54  F   UNL A   1      40.109  27.950  31.765  1.00  0.00    -0.203 F 
ATOM     55  C   UNL A   1      37.958  28.828  31.375  1.00  0.00     0.198 A 
ATOM     56  C   UNL A   1      37.397  29.702  29.211  1.00  0.00     0.198 A 
ATOM     57  F   UNL A   1      38.987  29.650  27.476  1.00  0.00    -0.203 F 
ATOM     58  F   UNL A   1      37.611  28.540  32.636  1.00  0.00    -0.200 F 
ATOM     59  C   UNL A   1      37.042  29.426  30.522  1.00  0.00     0.200 A 
ATOM     60  F   UNL A   1      36.522  30.297  28.389  1.00  0.00    -0.200 F 
ATOM     61  F   UNL A   1      35.815  29.734  30.964  1.00  0.00    -0.200 F 
ENDBRANCH  27  51
BRANCH  39  62
ATOM     62  C   UNL A   1      45.419  32.594  28.990  1.00  0.00     0.064 A 
ATOM     63  C   UNL A   1      45.188  33.614  28.056  1.00  0.00     0.173 A 
ATOM     64  C   UNL A   1      45.927  32.954  30.247  1.00  0.00     0.173 A 
ATOM     65  F   UNL A   1      44.720  33.317  26.833  1.00  0.00    -0.203 F 
ATOM     66  C   UNL A   1      45.480  34.941  28.360  1.00  0.00     0.198 A 
ATOM     67  C   UNL A   1      46.192  34.285  30.557  1.00  0.00     0.198 A 
ATOM     68  F   UNL A   1      46.163  32.015  31.176  1.00  0.00    -0.203 F 
ATOM     69  F   UNL A   1      45.299  35.893  27.434  1.00  0.00    -0.200 F 
ATOM     70  C   UNL A   1      45.976  35.276  29.611  1.00  0.00     0.200 A 
ATOM     71  F   UNL A   1      46.662  34.608  31.770  1.00  0.00    -0.200 F 
ATOM     72  F   UNL A   1      46.254  36.554  29.902  1.00  0.00    -0.200 F 
ENDBRANCH  39  62
ENDBRANCH  13  14
ENDBRANCH   6   8
ENDBRANCH   3   4
ENDBRANCH   2   3
ENDBRANCH   1   2
BRANCH   1  73
ATOM     73  C   UNL A   1      36.051  21.388  25.769  1.00  0.00     0.116 C 
BRANCH  73  74
ATOM     74  N   UNL A   1      34.888  20.526  25.671  1.00  0.00    -0.356 N 
ATOM     75  C   UNL A   1      33.583  20.884  25.464  1.00  0.00     0.224 C 
ATOM     76  H   UNL A   1      35.060  19.562  25.764  1.00  0.00     0.163 HD
ATOM     77  O   UNL A   1      32.728  20.004  25.421  1.00  0.00    -0.275 OA
BRANCH  75  78
ATOM     78  C   UNL A   1      33.283  22.358  25.269  1.00  0.00     0.098 C 
ATOM     79  C   UNL A   1      31.760  22.748  25.295  1.00  0.00     0.098 C 
ATOM     80  C   UNL A   1      33.755  22.875  23.886  1.00  0.00     0.025 C 
ATOM     81  C   UNL A   1      31.617  23.520  23.969  1.00  0.00     0.025 C 
ATOM     82  C   UNL A   1      33.031  22.135  22.788  1.00  0.00    -0.027 C 
ATOM     83  C   UNL A   1      32.987  24.196  23.825  1.00  0.00     0.017 C 
ATOM     84  C   UNL A   1      31.748  22.519  22.838  1.00  0.00    -0.027 C 
BRANCH  79  85
ATOM     85  C   UNL A   1      31.511  23.402  26.650  1.00  0.00     0.224 C 
ATOM     86  O   UNL A   1      32.081  22.929  27.645  1.00  0.00    -0.275 OA
ATOM     87  N   UNL A   1      30.754  24.484  26.907  1.00  0.00    -0.352 N 
ATOM     88  H   UNL A   1      30.774  24.729  27.860  1.00  0.00     0.163 HD
BRANCH  87  89
ATOM     89  C   UNL A   1      29.918  25.377  26.138  1.00  0.00     0.151 C 
BRANCH  89  90
ATOM     90  C   UNL A   1      30.707  26.545  25.609  1.00  0.00    -0.025 A 
ATOM     91  C   UNL A   1      30.340  27.156  24.400  1.00  0.00     0.044 A 
ATOM     92  C   UNL A   1      31.810  27.056  26.309  1.00  0.00     0.021 A 
ATOM     93  C   UNL A   1      31.059  28.245  23.915  1.00  0.00     0.124 A 
ATOM     94  C   UNL A   1      32.521  28.150  25.806  1.00  0.00     0.021 A 
ATOM     95  F   UNL A   1      30.686  28.817  22.763  1.00  0.00    -0.207 F 
ATOM     96  C   UNL A   1      32.150  28.751  24.607  1.00  0.00     0.055 A 
ATOM     97  Br  UNL A   1      34.000  28.824  26.771  1.00  0.00    -0.051 Br
ENDBRANCH  89  90
ENDBRANCH  87  89
ENDBRANCH  79  85
ENDBRANCH  75  78
ENDBRANCH  73  74
ENDBRANCH   1  73
TORSDOF 14
ENDMDL
MODEL 2
REMARK VINA RESULT:     -12.9      5.469     10.898
REMARK SMILES O=C(NCCCCNC(=O)[C@@H]1[C@@H](C(=O)NCc2cc(F)cc(Br)c2)[C@@H]2C=C[C@H]1C2)c1ccc(-c2c3nc(c(-c4c(F)c(F)c(F)c(F)c4F)c4ccc([nH]4)c(-c4c(F)c(F)c(F)c(F)c4F)c4nc(c(-c5c(F)c(F)c(F)c(F)c5F)c5ccc2[nH]5)C=C4)C=C3)cc1
REMARK SMILES IDX 6 1 5 2 4 3 3 4 1 5 2 6 30 8 31 9 92 10 32 11 91 12 33 13
REMARK SMILES IDX 34 14 35 15 85 16 36 17 90 18 84 19 86 20 37 21 89 22 83 23
REMARK SMILES IDX 82 24 38 26 70 27 50 28 69 29 51 30 54 31 68 32 87 33 52 34
REMARK SMILES IDX 53 35 67 37 88 38 55 39 39 40 40 41 48 42 41 43 42 44 46 45
REMARK SMILES IDX 49 46 43 47 44 48 47 49 45 50 71 51 72 52 80 53 73 54 74 55
REMARK SMILES IDX 78 56 81 57 75 58 76 59 79 60 77 61 56 62 57 63 65 64 58 65
REMARK SMILES IDX 59 66 63 67 66 68 60 69 61 70 64 71 62 72 7 73 8 74 9 75
REMARK SMILES IDX 10 77 11 78 12 79 28 80 25 81 27 82 29 83 26 84 13 85 14 86
REMARK SMILES IDX 15 87 16 89 17 90 18 91 24 92 19 93 22 94 20 95 21 96 23 97
REMARK H PARENT 3 7 86 25 54 36 8 76 15 88
REMARK Flexibility Score: inf
ROOT
ATOM      1  C   UNL A   1      31.774  30.526  26.745  1.00  0.00     0.023 C 
ENDROOT
BRANCH   1   2
ATOM      2  C   UNL A   1      31.532  32.027  26.884  1.00  0.00     0.023 C 
BRANCH   2   3
ATOM      3  C   UNL A   1      32.759  32.842  27.273  1.00  0.00     0.116 C 
BRANCH   3   4
ATOM      4  N   UNL A   1      32.443  34.209  27.669  1.00  0.00    -0.352 N 
ATOM      5  O   UNL A   1      32.560  36.076  28.936  1.00  0.00    -0.269 OA
ATOM      6  C   UNL A   1      33.022  34.982  28.650  1.00  0.00     0.251 C 
ATOM      7  H   UNL A   1      31.715  34.637  27.165  1.00  0.00     0.163 HD
BRANCH   6   8
ATOM      8  C   UNL A   1      34.193  34.453  29.377  1.00  0.00     0.039 A 
ATOM      9  C   UNL A   1      35.477  34.620  28.857  1.00  0.00     0.014 A 
ATOM     10  C   UNL A   1      33.993  33.741  30.562  1.00  0.00     0.014 A 
ATOM     11  C   UNL A   1      36.541  33.937  29.431  1.00  0.00     0.010 A 
ATOM     12  C   UNL A   1      35.081  33.130  31.189  1.00  0.00     0.010 A 
ATOM     13  C   UNL A   1      36.355  33.188  30.605  1.00  0.00    -0.014 A 
BRANCH  13  14
ATOM     14  C   UNL A   1      37.521  32.509  31.221  1.00  0.00     0.031 A 
ATOM     15  C   UNL A   1      37.985  32.860  32.605  1.00  0.00     0.074 A 
ATOM     16  C   UNL A   1      38.139  31.537  30.524  1.00  0.00     0.049 A 
ATOM     17  N   UNL A   1      38.971  32.349  33.300  1.00  0.00    -0.248 NA
ATOM     18  C   UNL A   1      37.255  33.930  33.301  1.00  0.00     0.031 C 
ATOM     19  C   UNL A   1      37.777  31.115  29.169  1.00  0.00     0.029 A 
ATOM     20  N   UNL A   1      39.184  30.716  30.861  1.00  0.00    -0.354 N 
ATOM     21  C   UNL A   1      38.996  33.049  34.498  1.00  0.00     0.074 A 
ATOM     22  C   UNL A   1      37.941  34.038  34.430  1.00  0.00     0.031 C 
ATOM     23  C   UNL A   1      38.548  30.080  28.812  1.00  0.00     0.029 A 
ATOM     24  C   UNL A   1      39.500  29.808  29.883  1.00  0.00     0.049 A 
ATOM     25  H   UNL A   1      39.660  30.773  31.721  1.00  0.00     0.167 HD
ATOM     26  C   UNL A   1      39.822  32.875  35.560  1.00  0.00     0.037 A 
ATOM     27  C   UNL A   1      40.459  28.866  29.846  1.00  0.00     0.037 A 
ATOM     28  C   UNL A   1      40.857  31.873  35.627  1.00  0.00     0.049 A 
ATOM     29  C   UNL A   1      41.372  28.709  31.026  1.00  0.00     0.074 A 
ATOM     30  C   UNL A   1      41.717  31.588  36.673  1.00  0.00     0.029 A 
ATOM     31  N   UNL A   1      41.173  30.994  34.600  1.00  0.00    -0.354 N 
ATOM     32  N   UNL A   1      41.368  29.356  32.165  1.00  0.00    -0.248 NA
ATOM     33  C   UNL A   1      42.425  27.693  30.912  1.00  0.00     0.031 C 
ATOM     34  C   UNL A   1      42.584  30.569  36.263  1.00  0.00     0.029 A 
ATOM     35  C   UNL A   1      42.232  30.184  34.979  1.00  0.00     0.049 A 
ATOM     36  H   UNL A   1      40.713  30.953  33.731  1.00  0.00     0.167 HD
ATOM     37  C   UNL A   1      42.404  28.817  32.913  1.00  0.00     0.074 A 
ATOM     38  C   UNL A   1      43.005  27.777  32.101  1.00  0.00     0.031 C 
ATOM     39  C   UNL A   1      42.820  29.154  34.159  1.00  0.00     0.037 A 
BRANCH  26  40
ATOM     40  C   UNL A   1      39.659  33.807  36.727  1.00  0.00     0.064 A 
ATOM     41  C   UNL A   1      40.295  35.056  36.773  1.00  0.00     0.173 A 
ATOM     42  C   UNL A   1      38.829  33.455  37.803  1.00  0.00     0.173 A 
ATOM     43  F   UNL A   1      41.107  35.438  35.775  1.00  0.00    -0.203 F 
ATOM     44  C   UNL A   1      40.131  35.905  37.866  1.00  0.00     0.198 A 
ATOM     45  C   UNL A   1      38.645  34.317  38.881  1.00  0.00     0.198 A 
ATOM     46  F   UNL A   1      38.191  32.275  37.808  1.00  0.00    -0.203 F 
ATOM     47  F   UNL A   1      40.788  37.072  37.911  1.00  0.00    -0.200 F 
ATOM     48  C   UNL A   1      39.303  35.537  38.915  1.00  0.00     0.200 A 
ATOM     49  F   UNL A   1      37.835  33.965  39.889  1.00  0.00    -0.200 F 
ATOM     50  F   UNL A   1      39.146  36.355  39.966  1.00  0.00    -0.200 F 
ENDBRANCH  26  40
BRANCH  27  51
ATOM     51  C   UNL A   1      40.583  27.997  28.649  1.00  0.00     0.064 A 
ATOM     52  C   UNL A   1      39.906  26.773  28.577  1.00  0.00     0.173 A 
ATOM     53  C   UNL A   1      41.343  28.393  27.538  1.00  0.00     0.173 A 
ATOM     54  F   UNL A   1      39.179  26.348  29.621  1.00  0.00    -0.203 F 
ATOM     55  C   UNL A   1      39.988  25.973  27.440  1.00  0.00     0.198 A 
ATOM     56  C   UNL A   1      41.402  27.606  26.391  1.00  0.00     0.198 A 
ATOM     57  F   UNL A   1      42.002  29.560  27.557  1.00  0.00    -0.203 F 
ATOM     58  F   UNL A   1      39.354  24.795  27.406  1.00  0.00    -0.200 F 
ATOM     59  C   UNL A   1      40.728  26.394  26.345  1.00  0.00     0.200 A 
ATOM     60  F   UNL A   1      42.102  28.025  25.329  1.00  0.00    -0.200 F 
ATOM     61  F   UNL A   1      40.794  25.633  25.245  1.00  0.00    -0.200 F 
ENDBRANCH  27  51
BRANCH  39  62
ATOM     62  C   UNL A   1      43.963  28.368  34.728  1.00  0.00     0.064 A 
ATOM     63  C   UNL A   1      43.756  27.172  35.430  1.00  0.00     0.173 A 
ATOM     64  C   UNL A   1      45.283  28.807  34.550  1.00  0.00     0.173 A 
ATOM     65  F   UNL A   1      42.510  26.720  35.642  1.00  0.00    -0.203 F 
ATOM     66  C   UNL A   1      44.829  26.457  35.957  1.00  0.00     0.198 A 
ATOM     67  C   UNL A   1      46.355  28.076  35.054  1.00  0.00     0.198 A 
ATOM     68  F   UNL A   1      45.534  29.944  33.883  1.00  0.00    -0.203 F 
ATOM     69  F   UNL A   1      44.604  25.344  36.668  1.00  0.00    -0.200 F 
ATOM     70  C   UNL A   1      46.127  26.907  35.764  1.00  0.00     0.200 A 
ATOM     71  F   UNL A   1      47.609  28.506  34.858  1.00  0.00    -0.200 F 
ATOM     72  F   UNL A   1      47.158  26.216  36.269  1.00  0.00    -0.200 F 
ENDBRANCH  39  62
ENDBRANCH  13  14
ENDBRANCH   6   8
ENDBRANCH   3   4
ENDBRANCH   2   3
ENDBRANCH   1   2
BRANCH   1  73
ATOM     73  C   UNL A   1      32.269  30.092  25.372  1.00  0.00     0.116 C 
BRANCH  73  74
ATOM     74  N   UNL A   1      31.195  29.587  24.538  1.00  0.00    -0.356 N 
ATOM     75  C   UNL A   1      31.014  28.313  24.069  1.00  0.00     0.224 C 
ATOM     76  H   UNL A   1      30.509  30.242  24.277  1.00  0.00     0.163 HD
ATOM     77  O   UNL A   1      30.039  28.077  23.361  1.00  0.00    -0.275 OA
BRANCH  75  78
ATOM     78  C   UNL A   1      32.025  27.262  24.487  1.00  0.00     0.098 C 
ATOM     79  C   UNL A   1      31.894  25.872  23.764  1.00  0.00     0.098 C 
ATOM     80  C   UNL A   1      31.899  26.891  25.987  1.00  0.00     0.025 C 
ATOM     81  C   UNL A   1      31.819  24.907  24.963  1.00  0.00     0.025 C 
ATOM     82  C   UNL A   1      30.533  26.313  26.259  1.00  0.00    -0.027 C 
ATOM     83  C   UNL A   1      32.710  25.595  26.005  1.00  0.00     0.017 C 
ATOM     84  C   UNL A   1      30.482  25.123  25.643  1.00  0.00    -0.027 C 
BRANCH  79  85
ATOM     85  C   UNL A   1      33.025  25.816  22.742  1.00  0.00     0.224 C 
ATOM     86  O   UNL A   1      33.633  26.865  22.480  1.00  0.00    -0.275 OA
ATOM     87  N   UNL A   1      33.486  24.731  22.093  1.00  0.00    -0.352 N 
ATOM     88  H   UNL A   1      34.243  24.950  21.504  1.00  0.00     0.163 HD
BRANCH  87  89
ATOM     89  C   UNL A   1      33.149  23.327  22.042  1.00  0.00     0.151 C 
BRANCH  89  90
ATOM     90  C   UNL A   1      33.764  22.574  23.191  1.00  0.00    -0.025 A 
ATOM     91  C   UNL A   1      33.052  21.542  23.822  1.00  0.00     0.044 A 
ATOM     92  C   UNL A   1      35.056  22.873  23.650  1.00  0.00     0.021 A 
ATOM     93  C   UNL A   1      33.623  20.836  24.876  1.00  0.00     0.124 A 
ATOM     94  C   UNL A   1      35.613  22.153  24.711  1.00  0.00     0.021 A 
ATOM     95  F   UNL A   1      32.928  19.850  25.458  1.00  0.00    -0.207 F 
ATOM     96  C   UNL A   1      34.901  21.130  25.330  1.00  0.00     0.055 A 
ATOM     97  Br  UNL A   1      37.359  22.569  25.306  1.00  0.00    -0.051 Br
ENDBRANCH  89  90
ENDBRANCH  87  89
ENDBRANCH  79  85
ENDBRANCH  75  78
ENDBRANCH  73  74
ENDBRANCH   1  73
TORSDOF 14
ENDMDL
MODEL 3
REMARK VINA RESULT:     -12.9      5.388     10.757
REMARK SMILES O=C(NCCCCNC(=O)[C@@H]1[C@@H](C(=O)NCc2cc(F)cc(Br)c2)[C@@H]2C=C[C@H]1C2)c1ccc(-c2c3nc(c(-c4c(F)c(F)c(F)c(F)c4F)c4ccc([nH]4)c(-c4c(F)c(F)c(F)c(F)c4F)c4nc(c(-c5c(F)c(F)c(F)c(F)c5F)c5ccc2[nH]5)C=C4)C=C3)cc1
REMARK SMILES IDX 6 1 5 2 4 3 3 4 1 5 2 6 30 8 31 9 92 10 32 11 91 12 33 13
REMARK SMILES IDX 34 14 35 15 85 16 36 17 90 18 84 19 86 20 37 21 89 22 83 23
REMARK SMILES IDX 82 24 38 26 70 27 50 28 69 29 51 30 54 31 68 32 87 33 52 34
REMARK SMILES IDX 53 35 67 37 88 38 55 39 39 40 40 41 48 42 41 43 42 44 46 45
REMARK SMILES IDX 49 46 43 47 44 48 47 49 45 50 71 51 72 52 80 53 73 54 74 55
REMARK SMILES IDX 78 56 81 57 75 58 76 59 79 60 77 61 56 62 57 63 65 64 58 65
REMARK SMILES IDX 59 66 63 67 66 68 60 69 61 70 64 71 62 72 7 73 8 74 9 75
REMARK SMILES IDX 10 77 11 78 12 79 28 80 25 81 27 82 29 83 26 84 13 85 14 86
REMARK SMILES IDX 15 87 16 89 17 90 18 91 24 92 19 93 22 94 20 95 21 96 23 97
REMARK H PARENT 3 7 86 25 54 36 8 76 15 88
REMARK Flexibility Score: inf
ROOT
ATOM      1  C   UNL A   1      31.497  30.709  26.543  1.00  0.00     0.023 C 
ENDROOT
BRANCH   1   2
ATOM      2  C   UNL A   1      31.491  32.235  26.545  1.00  0.00     0.023 C 
BRANCH   2   3
ATOM      3  C   UNL A   1      32.615  32.881  27.347  1.00  0.00     0.116 C 
BRANCH   3   4
ATOM      4  N   UNL A   1      32.343  34.267  27.708  1.00  0.00    -0.352 N 
ATOM      5  O   UNL A   1      32.543  36.168  28.913  1.00  0.00    -0.269 OA
ATOM      6  C   UNL A   1      32.969  35.054  28.648  1.00  0.00     0.251 C 
ATOM      7  H   UNL A   1      31.612  34.698  27.212  1.00  0.00     0.163 HD
BRANCH   6   8
ATOM      8  C   UNL A   1      34.147  34.518  29.358  1.00  0.00     0.039 A 
ATOM      9  C   UNL A   1      35.418  34.628  28.793  1.00  0.00     0.014 A 
ATOM     10  C   UNL A   1      33.965  33.858  30.575  1.00  0.00     0.014 A 
ATOM     11  C   UNL A   1      36.480  33.936  29.359  1.00  0.00     0.010 A 
ATOM     12  C   UNL A   1      35.055  33.239  31.191  1.00  0.00     0.010 A 
ATOM     13  C   UNL A   1      36.311  33.238  30.566  1.00  0.00    -0.014 A 
BRANCH  13  14
ATOM     14  C   UNL A   1      37.476  32.547  31.171  1.00  0.00     0.031 A 
ATOM     15  C   UNL A   1      37.951  32.890  32.553  1.00  0.00     0.074 A 
ATOM     16  C   UNL A   1      38.083  31.575  30.466  1.00  0.00     0.049 A 
ATOM     17  N   UNL A   1      38.939  32.368  33.240  1.00  0.00    -0.248 NA
ATOM     18  C   UNL A   1      37.234  33.962  33.259  1.00  0.00     0.031 C 
ATOM     19  C   UNL A   1      37.709  31.161  29.112  1.00  0.00     0.029 A 
ATOM     20  N   UNL A   1      39.124  30.745  30.792  1.00  0.00    -0.354 N 
ATOM     21  C   UNL A   1      38.976  33.063  34.441  1.00  0.00     0.074 A 
ATOM     22  C   UNL A   1      37.928  34.060  34.384  1.00  0.00     0.031 C 
ATOM     23  C   UNL A   1      38.470  30.122  28.744  1.00  0.00     0.029 A 
ATOM     24  C   UNL A   1      39.427  29.839  29.809  1.00  0.00     0.049 A 
ATOM     25  H   UNL A   1      39.606  30.794  31.649  1.00  0.00     0.167 HD
ATOM     26  C   UNL A   1      39.808  32.878  35.496  1.00  0.00     0.037 A 
ATOM     27  C   UNL A   1      40.380  28.890  29.761  1.00  0.00     0.037 A 
ATOM     28  C   UNL A   1      40.837  31.869  35.552  1.00  0.00     0.049 A 
ATOM     29  C   UNL A   1      41.299  28.722  30.934  1.00  0.00     0.074 A 
ATOM     30  C   UNL A   1      41.702  31.573  36.590  1.00  0.00     0.029 A 
ATOM     31  N   UNL A   1      41.140  30.993  34.519  1.00  0.00    -0.354 N 
ATOM     32  N   UNL A   1      41.307  29.364  32.076  1.00  0.00    -0.248 NA
ATOM     33  C   UNL A   1      42.345  27.699  30.809  1.00  0.00     0.031 C 
ATOM     34  C   UNL A   1      42.559  30.551  36.170  1.00  0.00     0.029 A 
ATOM     35  C   UNL A   1      42.196  30.173  34.887  1.00  0.00     0.049 A 
ATOM     36  H   UNL A   1      40.674  30.958  33.653  1.00  0.00     0.167 HD
ATOM     37  C   UNL A   1      42.344  28.815  32.814  1.00  0.00     0.074 A 
ATOM     38  C   UNL A   1      42.933  27.774  31.994  1.00  0.00     0.031 C 
ATOM     39  C   UNL A   1      42.771  29.143  34.059  1.00  0.00     0.037 A 
BRANCH  26  40
ATOM     40  C   UNL A   1      39.659  33.806  36.668  1.00  0.00     0.064 A 
ATOM     41  C   UNL A   1      38.883  33.469  37.787  1.00  0.00     0.173 A 
ATOM     42  C   UNL A   1      40.329  35.040  36.684  1.00  0.00     0.173 A 
ATOM     43  F   UNL A   1      38.214  32.306  37.820  1.00  0.00    -0.203 F 
ATOM     44  C   UNL A   1      38.758  34.345  38.863  1.00  0.00     0.198 A 
ATOM     45  C   UNL A   1      40.224  35.901  37.773  1.00  0.00     0.198 A 
ATOM     46  F   UNL A   1      41.090  35.410  35.643  1.00  0.00    -0.203 F 
ATOM     47  F   UNL A   1      37.971  34.023  39.899  1.00  0.00    -0.200 F 
ATOM     48  C   UNL A   1      39.432  35.557  38.858  1.00  0.00     0.200 A 
ATOM     49  F   UNL A   1      40.885  37.066  37.771  1.00  0.00    -0.200 F 
ATOM     50  F   UNL A   1      39.310  36.398  39.895  1.00  0.00    -0.200 F 
ENDBRANCH  26  40
BRANCH  27  51
ATOM     51  C   UNL A   1      40.490  28.026  28.559  1.00  0.00     0.064 A 
ATOM     52  C   UNL A   1      41.238  28.435  27.447  1.00  0.00     0.173 A 
ATOM     53  C   UNL A   1      39.888  26.760  28.515  1.00  0.00     0.173 A 
ATOM     54  F   UNL A   1      41.818  29.644  27.439  1.00  0.00    -0.203 F 
ATOM     55  C   UNL A   1      41.375  27.611  26.333  1.00  0.00     0.198 A 
ATOM     56  C   UNL A   1      40.050  25.926  27.412  1.00  0.00     0.198 A 
ATOM     57  F   UNL A   1      39.169  26.322  29.559  1.00  0.00    -0.203 F 
ATOM     58  F   UNL A   1      42.073  28.035  25.271  1.00  0.00    -0.200 F 
ATOM     59  C   UNL A   1      40.789  26.354  26.320  1.00  0.00     0.200 A 
ATOM     60  F   UNL A   1      39.498  24.705  27.412  1.00  0.00    -0.200 F 
ATOM     61  F   UNL A   1      40.936  25.556  25.255  1.00  0.00    -0.200 F 
ENDBRANCH  27  51
BRANCH  39  62
ATOM     62  C   UNL A   1      43.913  28.347  34.617  1.00  0.00     0.064 A 
ATOM     63  C   UNL A   1      45.242  28.770  34.477  1.00  0.00     0.173 A 
ATOM     64  C   UNL A   1      43.670  27.157  35.319  1.00  0.00     0.173 A 
ATOM     65  F   UNL A   1      45.526  29.892  33.797  1.00  0.00    -0.203 F 
ATOM     66  C   UNL A   1      46.290  28.015  34.997  1.00  0.00     0.198 A 
ATOM     67  C   UNL A   1      44.719  26.420  35.862  1.00  0.00     0.198 A 
ATOM     68  F   UNL A   1      42.415  26.712  35.483  1.00  0.00    -0.203 F 
ATOM     69  F   UNL A   1      47.556  28.412  34.807  1.00  0.00    -0.200 F 
ATOM     70  C   UNL A   1      46.028  26.845  35.693  1.00  0.00     0.200 A 
ATOM     71  F   UNL A   1      44.462  25.294  36.543  1.00  0.00    -0.200 F 
ATOM     72  F   UNL A   1      47.038  26.122  36.195  1.00  0.00    -0.200 F 
ENDBRANCH  39  62
ENDBRANCH  13  14
ENDBRANCH   6   8
ENDBRANCH   3   4
ENDBRANCH   2   3
ENDBRANCH   1   2
BRANCH   1  73
ATOM     73  C   UNL A   1      32.854  30.084  26.842  1.00  0.00     0.116 C 
BRANCH  73  74
ATOM     74  N   UNL A   1      33.549  29.684  25.633  1.00  0.00    -0.356 N 
ATOM     75  C   UNL A   1      33.141  28.794  24.676  1.00  0.00     0.224 C 
ATOM     76  H   UNL A   1      34.425  30.106  25.482  1.00  0.00     0.163 HD
ATOM     77  O   UNL A   1      33.878  28.574  23.719  1.00  0.00    -0.275 OA
BRANCH  75  78
ATOM     78  C   UNL A   1      31.775  28.156  24.850  1.00  0.00     0.098 C 
ATOM     79  C   UNL A   1      31.754  26.584  24.810  1.00  0.00     0.098 C 
ATOM     80  C   UNL A   1      30.796  28.549  23.715  1.00  0.00     0.025 C 
ATOM     81  C   UNL A   1      30.686  26.318  23.731  1.00  0.00     0.025 C 
ATOM     82  C   UNL A   1      31.331  28.075  22.387  1.00  0.00    -0.027 C 
ATOM     83  C   UNL A   1      29.714  27.489  23.924  1.00  0.00     0.017 C 
ATOM     84  C   UNL A   1      31.269  26.736  22.396  1.00  0.00    -0.027 C 
BRANCH  79  85
ATOM     85  C   UNL A   1      31.584  26.124  26.254  1.00  0.00     0.224 C 
ATOM     86  O   UNL A   1      31.452  26.989  27.135  1.00  0.00    -0.275 OA
ATOM     87  N   UNL A   1      31.522  24.859  26.707  1.00  0.00    -0.352 N 
ATOM     88  H   UNL A   1      31.381  24.823  27.680  1.00  0.00     0.163 HD
BRANCH  87  89
ATOM     89  C   UNL A   1      31.611  23.540  26.125  1.00  0.00     0.151 C 
BRANCH  89  90
ATOM     90  C   UNL A   1      32.788  23.431  25.192  1.00  0.00    -0.025 A 
ATOM     91  C   UNL A   1      32.584  23.247  23.816  1.00  0.00     0.044 A 
ATOM     92  C   UNL A   1      34.105  23.522  25.668  1.00  0.00     0.021 A 
ATOM     93  C   UNL A   1      33.670  23.159  22.950  1.00  0.00     0.124 A 
ATOM     94  C   UNL A   1      35.183  23.431  24.782  1.00  0.00     0.021 A 
ATOM     95  F   UNL A   1      33.451  22.992  21.639  1.00  0.00    -0.207 F 
ATOM     96  C   UNL A   1      34.972  23.250  23.419  1.00  0.00     0.055 A 
ATOM     97  Br  UNL A   1      36.948  23.565  25.446  1.00  0.00    -0.051 Br
ENDBRANCH  89  90
ENDBRANCH  87  89
ENDBRANCH  79  85
ENDBRANCH  75  78
ENDBRANCH  73  74
ENDBRANCH   1  73
TORSDOF 14
ENDMDL
