MODEL 1
REMARK VINA RESULT:     -12.1      0.000      0.000
REMARK SMILES Nc1c(Br)cc(C(=O)NCCCCNC(=O)c2ccc(-c3c4nc(c(-c5c(F)c(F)c(F)c(F)c5F)c5ccc([nH]5)c(-c5c(F)c(F)c(F)c(F)c5F)c5nc(c(-c6c(F)c(F)c(F)c(F)c6F)c6ccc3[nH]6)C=C5)C=C4)cc2)cc1Br
REMARK SMILES IDX 12 1 11 2 10 3 9 4 7 5 8 6 6 8 2 9 3 10 81 11 4 12 5 13
REMARK SMILES IDX 80 14 82 15 1 16 13 19 14 20 15 21 16 23 17 24 18 25 79 26
REMARK SMILES IDX 19 27 78 28 20 29 21 30 22 31 72 32 23 33 77 34 71 35 73 36
REMARK SMILES IDX 24 37 76 38 70 39 69 40 25 42 57 43 37 44 56 45 38 46 41 47
REMARK SMILES IDX 55 48 74 49 39 50 40 51 54 53 75 54 42 55 26 56 27 57 35 58
REMARK SMILES IDX 28 59 29 60 33 61 36 62 30 63 31 64 34 65 32 66 58 67 59 68
REMARK SMILES IDX 67 69 60 70 61 71 65 72 68 73 62 74 63 75 66 76 64 77 43 78
REMARK SMILES IDX 44 79 52 80 45 81 46 82 50 83 53 84 47 85 48 86 51 87 49 88
REMARK H PARENT 9 7 1 17 1 18 14 22 73 41 41 52
REMARK Flexibility Score: inf
ROOT
ATOM      1  C   UNL A   1      31.633  32.030  26.539  1.00  0.00     0.023 C 
ENDROOT
BRANCH   1   2
ATOM      2  C   UNL A   1      31.619  30.506  26.709  1.00  0.00     0.023 C 
BRANCH   2   3
ATOM      3  C   UNL A   1      33.002  29.853  26.641  1.00  0.00     0.116 C 
BRANCH   3   4
ATOM      4  N   UNL A   1      33.473  29.802  25.271  1.00  0.00    -0.352 N 
ATOM      5  C   UNL A   1      33.027  29.150  24.153  1.00  0.00     0.251 C 
ATOM      6  O   UNL A   1      33.665  29.326  23.114  1.00  0.00    -0.269 OA
ATOM      7  H   UNL A   1      34.279  30.347  25.114  1.00  0.00     0.163 HD
BRANCH   5   8
ATOM      8  C   UNL A   1      31.810  28.286  24.107  1.00  0.00     0.042 A 
ATOM      9  C   UNL A   1      29.371  26.819  23.942  1.00  0.00     0.060 A 
ATOM     10  C   UNL A   1      30.542  26.245  24.463  1.00  0.00     0.042 A 
ATOM     11  C   UNL A   1      29.452  28.147  23.499  1.00  0.00     0.042 A 
ATOM     12  Br  UNL A   1      30.544  24.459  25.125  1.00  0.00    -0.049 Br
ATOM     13  C   UNL A   1      31.751  26.953  24.510  1.00  0.00     0.031 A 
ATOM     14  C   UNL A   1      30.648  28.869  23.578  1.00  0.00     0.031 A 
ATOM     15  Br  UNL A   1      27.937  29.024  22.753  1.00  0.00    -0.049 Br
BRANCH   9  16
ATOM     16  N   UNL A   1      28.160  26.133  23.957  1.00  0.00    -0.397 N 
ATOM     17  H   UNL A   1      27.433  26.428  24.554  1.00  0.00     0.156 HD
ATOM     18  H   UNL A   1      28.028  25.351  23.373  1.00  0.00     0.156 HD
ENDBRANCH   9  16
ENDBRANCH   5   8
ENDBRANCH   3   4
ENDBRANCH   2   3
ENDBRANCH   1   2
BRANCH   1  19
ATOM     19  C   UNL A   1      32.734  32.757  27.303  1.00  0.00     0.116 C 
BRANCH  19  20
ATOM     20  N   UNL A   1      32.394  34.131  27.638  1.00  0.00    -0.352 N 
ATOM     21  C   UNL A   1      32.975  34.959  28.568  1.00  0.00     0.251 C 
ATOM     22  H   UNL A   1      31.646  34.520  27.129  1.00  0.00     0.163 HD
ATOM     23  O   UNL A   1      32.503  36.065  28.796  1.00  0.00    -0.269 OA
BRANCH  21  24
ATOM     24  C   UNL A   1      34.150  34.485  29.327  1.00  0.00     0.039 A 
ATOM     25  C   UNL A   1      33.946  33.898  30.579  1.00  0.00     0.014 A 
ATOM     26  C   UNL A   1      35.438  34.591  28.796  1.00  0.00     0.014 A 
ATOM     27  C   UNL A   1      35.028  33.352  31.268  1.00  0.00     0.010 A 
ATOM     28  C   UNL A   1      36.507  33.992  29.456  1.00  0.00     0.010 A 
ATOM     29  C   UNL A   1      36.310  33.362  30.695  1.00  0.00    -0.014 A 
BRANCH  29  30
ATOM     30  C   UNL A   1      37.454  32.702  31.370  1.00  0.00     0.031 A 
ATOM     31  C   UNL A   1      38.162  31.555  30.707  1.00  0.00     0.074 A 
ATOM     32  C   UNL A   1      37.806  33.091  32.610  1.00  0.00     0.049 A 
ATOM     33  N   UNL A   1      39.138  30.811  31.164  1.00  0.00    -0.248 NA
ATOM     34  C   UNL A   1      37.695  31.177  29.365  1.00  0.00     0.031 C 
ATOM     35  C   UNL A   1      37.158  34.156  33.377  1.00  0.00     0.029 A 
ATOM     36  N   UNL A   1      38.788  32.628  33.448  1.00  0.00    -0.354 N 
ATOM     37  C   UNL A   1      39.390  29.871  30.173  1.00  0.00     0.074 A 
ATOM     38  C   UNL A   1      38.434  30.107  29.113  1.00  0.00     0.031 C 
ATOM     39  C   UNL A   1      37.772  34.278  34.564  1.00  0.00     0.029 A 
ATOM     40  C   UNL A   1      38.834  33.281  34.656  1.00  0.00     0.049 A 
ATOM     41  H   UNL A   1      39.403  31.898  33.207  1.00  0.00     0.167 HD
ATOM     42  C   UNL A   1      40.348  28.916  30.142  1.00  0.00     0.037 A 
ATOM     43  C   UNL A   1      39.638  33.091  35.718  1.00  0.00     0.037 A 
ATOM     44  C   UNL A   1      41.315  28.703  31.187  1.00  0.00     0.049 A 
ATOM     45  C   UNL A   1      40.697  32.024  35.656  1.00  0.00     0.074 A 
ATOM     46  C   UNL A   1      42.369  27.806  31.219  1.00  0.00     0.029 A 
ATOM     47  N   UNL A   1      41.343  29.397  32.387  1.00  0.00    -0.354 N 
ATOM     48  N   UNL A   1      40.975  31.191  34.683  1.00  0.00    -0.248 NA
ATOM     49  C   UNL A   1      41.557  31.874  36.838  1.00  0.00     0.031 C 
ATOM     50  C   UNL A   1      43.009  27.930  32.456  1.00  0.00     0.029 A 
ATOM     51  C   UNL A   1      42.383  28.933  33.177  1.00  0.00     0.049 A 
ATOM     52  H   UNL A   1      40.717  30.113  32.641  1.00  0.00     0.167 HD
ATOM     53  C   UNL A   1      42.054  30.437  35.123  1.00  0.00     0.074 A 
ATOM     54  C   UNL A   1      42.391  30.922  36.446  1.00  0.00     0.031 C 
ATOM     55  C   UNL A   1      42.705  29.431  34.489  1.00  0.00     0.037 A 
BRANCH  42  56
ATOM     56  C   UNL A   1      40.402  28.029  28.932  1.00  0.00     0.064 A 
ATOM     57  C   UNL A   1      39.688  26.822  28.876  1.00  0.00     0.173 A 
ATOM     58  C   UNL A   1      41.145  28.405  27.804  1.00  0.00     0.173 A 
ATOM     59  F   UNL A   1      38.972  26.412  29.934  1.00  0.00    -0.203 F 
ATOM     60  C   UNL A   1      39.741  26.011  27.746  1.00  0.00     0.198 A 
ATOM     61  C   UNL A   1      41.172  27.605  26.665  1.00  0.00     0.198 A 
ATOM     62  F   UNL A   1      41.841  29.553  27.804  1.00  0.00    -0.203 F 
ATOM     63  F   UNL A   1      39.090  24.839  27.734  1.00  0.00    -0.200 F 
ATOM     64  C   UNL A   1      40.477  26.406  26.639  1.00  0.00     0.200 A 
ATOM     65  F   UNL A   1      41.875  27.994  25.591  1.00  0.00    -0.200 F 
ATOM     66  F   UNL A   1      40.522  25.627  25.550  1.00  0.00    -0.200 F 
ENDBRANCH  42  56
BRANCH  43  67
ATOM     67  C   UNL A   1      39.493  33.948  36.923  1.00  0.00     0.064 A 
ATOM     68  C   UNL A   1      40.114  35.203  36.990  1.00  0.00     0.173 A 
ATOM     69  C   UNL A   1      38.736  33.533  38.029  1.00  0.00     0.173 A 
ATOM     70  F   UNL A   1      40.864  35.633  35.965  1.00  0.00    -0.203 F 
ATOM     71  C   UNL A   1      40.000  36.002  38.125  1.00  0.00     0.198 A 
ATOM     72  C   UNL A   1      38.602  34.345  39.153  1.00  0.00     0.198 A 
ATOM     73  F   UNL A   1      38.118  32.343  38.011  1.00  0.00    -0.203 F 
ATOM     74  F   UNL A   1      40.640  37.179  38.180  1.00  0.00    -0.200 F 
ATOM     75  C   UNL A   1      39.240  35.575  39.203  1.00  0.00     0.200 A 
ATOM     76  F   UNL A   1      37.857  33.934  40.188  1.00  0.00    -0.200 F 
ATOM     77  F   UNL A   1      39.130  36.346  40.295  1.00  0.00    -0.200 F 
ENDBRANCH  43  67
BRANCH  55  78
ATOM     78  C   UNL A   1      43.864  28.805  35.209  1.00  0.00     0.064 A 
ATOM     79  C   UNL A   1      43.693  27.693  36.046  1.00  0.00     0.173 A 
ATOM     80  C   UNL A   1      45.164  29.299  35.027  1.00  0.00     0.173 A 
ATOM     81  F   UNL A   1      42.466  27.195  36.264  1.00  0.00    -0.203 F 
ATOM     82  C   UNL A   1      44.780  27.111  36.692  1.00  0.00     0.198 A 
ATOM     83  C   UNL A   1      46.252  28.697  35.653  1.00  0.00     0.198 A 
ATOM     84  F   UNL A   1      45.381  30.358  34.232  1.00  0.00    -0.203 F 
ATOM     85  F   UNL A   1      44.588  26.076  37.522  1.00  0.00    -0.200 F 
ATOM     86  C   UNL A   1      46.059  27.609  36.489  1.00  0.00     0.200 A 
ATOM     87  F   UNL A   1      47.488  29.172  35.446  1.00  0.00    -0.200 F 
ATOM     88  F   UNL A   1      47.104  27.042  37.106  1.00  0.00    -0.200 F 
ENDBRANCH  55  78
ENDBRANCH  29  30
ENDBRANCH  21  24
ENDBRANCH  19  20
ENDBRANCH   1  19
TORSDOF 12
ENDMDL
MODEL 2
REMARK VINA RESULT:     -12.0      0.135      1.664
REMARK SMILES Nc1c(Br)cc(C(=O)NCCCCNC(=O)c2ccc(-c3c4nc(c(-c5c(F)c(F)c(F)c(F)c5F)c5ccc([nH]5)c(-c5c(F)c(F)c(F)c(F)c5F)c5nc(c(-c6c(F)c(F)c(F)c(F)c6F)c6ccc3[nH]6)C=C5)C=C4)cc2)cc1Br
REMARK SMILES IDX 12 1 11 2 10 3 9 4 7 5 8 6 6 8 2 9 3 10 81 11 4 12 5 13
REMARK SMILES IDX 80 14 82 15 1 16 13 19 14 20 15 21 16 23 17 24 18 25 79 26
REMARK SMILES IDX 19 27 78 28 20 29 21 30 22 31 72 32 23 33 77 34 71 35 73 36
REMARK SMILES IDX 24 37 76 38 70 39 69 40 25 42 57 43 37 44 56 45 38 46 41 47
REMARK SMILES IDX 55 48 74 49 39 50 40 51 54 53 75 54 42 55 26 56 27 57 35 58
REMARK SMILES IDX 28 59 29 60 33 61 36 62 30 63 31 64 34 65 32 66 58 67 59 68
REMARK SMILES IDX 67 69 60 70 61 71 65 72 68 73 62 74 63 75 66 76 64 77 43 78
REMARK SMILES IDX 44 79 52 80 45 81 46 82 50 83 53 84 47 85 48 86 51 87 49 88
REMARK H PARENT 9 7 1 17 1 18 14 22 73 41 41 52
REMARK Flexibility Score: inf
ROOT
ATOM      1  C   UNL A   1      31.662  31.854  26.569  1.00  0.00     0.023 C 
ENDROOT
BRANCH   1   2
ATOM      2  C   UNL A   1      31.709  30.332  26.743  1.00  0.00     0.023 C 
BRANCH   2   3
ATOM      3  C   UNL A   1      33.109  29.727  26.607  1.00  0.00     0.116 C 
BRANCH   3   4
ATOM      4  N   UNL A   1      33.531  29.727  25.221  1.00  0.00    -0.352 N 
ATOM      5  C   UNL A   1      33.042  29.119  24.096  1.00  0.00     0.251 C 
ATOM      6  O   UNL A   1      33.643  29.333  23.042  1.00  0.00    -0.269 OA
ATOM      7  H   UNL A   1      34.333  30.273  25.056  1.00  0.00     0.163 HD
BRANCH   5   8
ATOM      8  C   UNL A   1      31.819  28.262  24.060  1.00  0.00     0.042 A 
ATOM      9  C   UNL A   1      29.370  26.810  23.919  1.00  0.00     0.060 A 
ATOM     10  C   UNL A   1      30.545  26.226  24.418  1.00  0.00     0.042 A 
ATOM     11  C   UNL A   1      29.452  28.142  23.486  1.00  0.00     0.042 A 
ATOM     12  Br  UNL A   1      30.547  24.434  25.065  1.00  0.00    -0.049 Br
ATOM     13  C   UNL A   1      31.759  26.927  24.453  1.00  0.00     0.031 A 
ATOM     14  C   UNL A   1      30.653  28.857  23.554  1.00  0.00     0.031 A 
ATOM     15  Br  UNL A   1      27.931  29.033  22.770  1.00  0.00    -0.049 Br
BRANCH   9  16
ATOM     16  N   UNL A   1      28.155  26.131  23.947  1.00  0.00    -0.397 N 
ATOM     17  H   UNL A   1      27.324  26.596  23.693  1.00  0.00     0.156 HD
ATOM     18  H   UNL A   1      28.124  25.186  24.221  1.00  0.00     0.156 HD
ENDBRANCH   9  16
ENDBRANCH   5   8
ENDBRANCH   3   4
ENDBRANCH   2   3
ENDBRANCH   1   2
BRANCH   1  19
ATOM     19  C   UNL A   1      32.783  32.621  27.262  1.00  0.00     0.116 C 
BRANCH  19  20
ATOM     20  N   UNL A   1      32.423  33.988  27.604  1.00  0.00    -0.352 N 
ATOM     21  C   UNL A   1      32.988  34.818  28.543  1.00  0.00     0.251 C 
ATOM     22  H   UNL A   1      31.672  34.370  27.094  1.00  0.00     0.163 HD
ATOM     23  O   UNL A   1      32.500  35.915  28.775  1.00  0.00    -0.269 OA
BRANCH  21  24
ATOM     24  C   UNL A   1      34.165  34.354  29.304  1.00  0.00     0.039 A 
ATOM     25  C   UNL A   1      33.959  33.689  30.516  1.00  0.00     0.014 A 
ATOM     26  C   UNL A   1      35.459  34.548  28.814  1.00  0.00     0.014 A 
ATOM     27  C   UNL A   1      35.050  33.154  31.202  1.00  0.00     0.010 A 
ATOM     28  C   UNL A   1      36.539  33.961  29.467  1.00  0.00     0.010 A 
ATOM     29  C   UNL A   1      36.342  33.253  30.664  1.00  0.00    -0.014 A 
BRANCH  29  30
ATOM     30  C   UNL A   1      37.500  32.608  31.330  1.00  0.00     0.031 A 
ATOM     31  C   UNL A   1      38.211  31.464  30.667  1.00  0.00     0.074 A 
ATOM     32  C   UNL A   1      37.861  33.008  32.564  1.00  0.00     0.049 A 
ATOM     33  N   UNL A   1      39.199  30.732  31.118  1.00  0.00    -0.248 NA
ATOM     34  C   UNL A   1      37.734  31.073  29.332  1.00  0.00     0.031 C 
ATOM     35  C   UNL A   1      37.212  34.072  33.331  1.00  0.00     0.029 A 
ATOM     36  N   UNL A   1      38.857  32.560  33.395  1.00  0.00    -0.354 N 
ATOM     37  C   UNL A   1      39.449  29.788  30.130  1.00  0.00     0.074 A 
ATOM     38  C   UNL A   1      38.480  30.009  29.078  1.00  0.00     0.031 C 
ATOM     39  C   UNL A   1      37.837  34.207  34.512  1.00  0.00     0.029 A 
ATOM     40  C   UNL A   1      38.909  33.220  34.598  1.00  0.00     0.049 A 
ATOM     41  H   UNL A   1      39.476  31.834  33.151  1.00  0.00     0.167 HD
ATOM     42  C   UNL A   1      40.416  28.842  30.094  1.00  0.00     0.037 A 
ATOM     43  C   UNL A   1      39.726  33.044  35.652  1.00  0.00     0.037 A 
ATOM     44  C   UNL A   1      41.396  28.644  31.130  1.00  0.00     0.049 A 
ATOM     45  C   UNL A   1      40.795  31.987  35.585  1.00  0.00     0.074 A 
ATOM     46  C   UNL A   1      42.458  27.758  31.157  1.00  0.00     0.029 A 
ATOM     47  N   UNL A   1      41.430  29.346  32.326  1.00  0.00    -0.354 N 
ATOM     48  N   UNL A   1      41.070  31.150  34.614  1.00  0.00    -0.248 NA
ATOM     49  C   UNL A   1      41.668  31.852  36.759  1.00  0.00     0.031 C 
ATOM     50  C   UNL A   1      43.111  27.895  32.386  1.00  0.00     0.029 A 
ATOM     51  C   UNL A   1      42.483  28.897  33.107  1.00  0.00     0.049 A 
ATOM     52  H   UNL A   1      40.800  30.058  32.582  1.00  0.00     0.167 HD
ATOM     53  C   UNL A   1      42.160  30.409  35.048  1.00  0.00     0.074 A 
ATOM     54  C   UNL A   1      42.507  30.905  36.364  1.00  0.00     0.031 C 
ATOM     55  C   UNL A   1      42.814  29.405  34.413  1.00  0.00     0.037 A 
BRANCH  42  56
ATOM     56  C   UNL A   1      40.465  27.948  28.889  1.00  0.00     0.064 A 
ATOM     57  C   UNL A   1      41.249  28.268  27.770  1.00  0.00     0.173 A 
ATOM     58  C   UNL A   1      39.751  26.741  28.867  1.00  0.00     0.173 A 
ATOM     59  F   UNL A   1      41.940  29.417  27.738  1.00  0.00    -0.203 F 
ATOM     60  C   UNL A   1      41.291  27.429  26.661  1.00  0.00     0.198 A 
ATOM     61  C   UNL A   1      39.818  25.889  27.767  1.00  0.00     0.198 A 
ATOM     62  F   UNL A   1      38.991  26.385  29.914  1.00  0.00    -0.203 F 
ATOM     63  F   UNL A   1      42.007  27.779  25.584  1.00  0.00    -0.200 F 
ATOM     64  C   UNL A   1      40.581  26.237  26.663  1.00  0.00     0.200 A 
ATOM     65  F   UNL A   1      39.141  24.732  27.775  1.00  0.00    -0.200 F 
ATOM     66  F   UNL A   1      40.628  25.426  25.597  1.00  0.00    -0.200 F 
ENDBRANCH  42  56
BRANCH  43  67
ATOM     67  C   UNL A   1      39.585  33.907  36.854  1.00  0.00     0.064 A 
ATOM     68  C   UNL A   1      38.829  33.485  37.955  1.00  0.00     0.173 A 
ATOM     69  C   UNL A   1      40.198  35.167  36.924  1.00  0.00     0.173 A 
ATOM     70  F   UNL A   1      38.209  32.297  37.925  1.00  0.00    -0.203 F 
ATOM     71  C   UNL A   1      38.674  34.299  39.076  1.00  0.00     0.198 A 
ATOM     72  C   UNL A   1      40.063  35.968  38.056  1.00  0.00     0.198 A 
ATOM     73  F   UNL A   1      40.936  35.614  35.898  1.00  0.00    -0.203 F 
ATOM     74  F   UNL A   1      37.910  33.889  40.098  1.00  0.00    -0.200 F 
ATOM     75  C   UNL A   1      39.296  35.537  39.127  1.00  0.00     0.200 A 
ATOM     76  F   UNL A   1      40.675  37.159  38.107  1.00  0.00    -0.200 F 
ATOM     77  F   UNL A   1      39.148  36.319  40.206  1.00  0.00    -0.200 F 
ENDBRANCH  43  67
BRANCH  55  78
ATOM     78  C   UNL A   1      43.986  28.794  35.124  1.00  0.00     0.064 A 
ATOM     79  C   UNL A   1      43.830  27.705  35.993  1.00  0.00     0.173 A 
ATOM     80  C   UNL A   1      45.284  29.279  34.902  1.00  0.00     0.173 A 
ATOM     81  F   UNL A   1      42.607  27.217  36.250  1.00  0.00    -0.203 F 
ATOM     82  C   UNL A   1      44.929  27.137  36.631  1.00  0.00     0.198 A 
ATOM     83  C   UNL A   1      46.383  28.691  35.520  1.00  0.00     0.198 A 
ATOM     84  F   UNL A   1      45.486  30.317  34.076  1.00  0.00    -0.203 F 
ATOM     85  F   UNL A   1      44.753  26.124  37.491  1.00  0.00    -0.200 F 
ATOM     86  C   UNL A   1      46.205  27.625  36.388  1.00  0.00     0.200 A 
ATOM     87  F   UNL A   1      47.616  29.156  35.275  1.00  0.00    -0.200 F 
ATOM     88  F   UNL A   1      47.261  27.071  36.998  1.00  0.00    -0.200 F 
ENDBRANCH  55  78
ENDBRANCH  29  30
ENDBRANCH  21  24
ENDBRANCH  19  20
ENDBRANCH   1  19
TORSDOF 12
ENDMDL
MODEL 3
REMARK VINA RESULT:     -12.0      6.393     11.561
REMARK SMILES Nc1c(Br)cc(C(=O)NCCCCNC(=O)c2ccc(-c3c4nc(c(-c5c(F)c(F)c(F)c(F)c5F)c5ccc([nH]5)c(-c5c(F)c(F)c(F)c(F)c5F)c5nc(c(-c6c(F)c(F)c(F)c(F)c6F)c6ccc3[nH]6)C=C5)C=C4)cc2)cc1Br
REMARK SMILES IDX 12 1 11 2 10 3 9 4 7 5 8 6 6 8 2 9 3 10 81 11 4 12 5 13
REMARK SMILES IDX 80 14 82 15 1 16 13 19 14 20 15 21 16 23 17 24 18 25 79 26
REMARK SMILES IDX 19 27 78 28 20 29 21 30 22 31 72 32 23 33 77 34 71 35 73 36
REMARK SMILES IDX 24 37 76 38 70 39 69 40 25 42 57 43 37 44 56 45 38 46 41 47
REMARK SMILES IDX 55 48 74 49 39 50 40 51 54 53 75 54 42 55 26 56 27 57 35 58
REMARK SMILES IDX 28 59 29 60 33 61 36 62 30 63 31 64 34 65 32 66 58 67 59 68
REMARK SMILES IDX 67 69 60 70 61 71 65 72 68 73 62 74 63 75 66 76 64 77 43 78
REMARK SMILES IDX 44 79 52 80 45 81 46 82 50 83 53 84 47 85 48 86 51 87 49 88
REMARK H PARENT 9 7 1 17 1 18 14 22 73 41 41 52
REMARK Flexibility Score: inf
ROOT
ATOM      1  C   UNL A   1      37.970  19.982  25.041  1.00  0.00     0.023 C 
ENDROOT
BRANCH   1   2
ATOM      2  C   UNL A   1      37.279  21.215  24.447  1.00  0.00     0.023 C 
BRANCH   2   3
ATOM      3  C   UNL A   1      37.095  22.370  25.435  1.00  0.00     0.116 C 
BRANCH   3   4
ATOM      4  N   UNL A   1      36.162  22.000  26.481  1.00  0.00    -0.352 N 
ATOM      5  C   UNL A   1      34.827  21.693  26.476  1.00  0.00     0.251 C 
ATOM      6  O   UNL A   1      34.318  21.408  27.561  1.00  0.00    -0.269 OA
ATOM      7  H   UNL A   1      36.570  21.965  27.376  1.00  0.00     0.163 HD
BRANCH   5   8
ATOM      8  C   UNL A   1      33.976  21.639  25.251  1.00  0.00     0.042 A 
ATOM      9  C   UNL A   1      32.364  21.311  22.921  1.00  0.00     0.060 A 
ATOM     10  C   UNL A   1      32.748  22.581  23.378  1.00  0.00     0.042 A 
ATOM     11  C   UNL A   1      32.802  20.204  23.665  1.00  0.00     0.042 A 
ATOM     12  Br  UNL A   1      32.240  24.154  22.431  1.00  0.00    -0.049 Br
ATOM     13  C   UNL A   1      33.510  22.747  24.543  1.00  0.00     0.031 A 
ATOM     14  C   UNL A   1      33.593  20.364  24.809  1.00  0.00     0.031 A 
ATOM     15  Br  UNL A   1      32.326  18.434  23.158  1.00  0.00    -0.049 Br
BRANCH   9  16
ATOM     16  N   UNL A   1      31.663  21.150  21.729  1.00  0.00    -0.397 N 
ATOM     17  H   UNL A   1      30.810  20.658  21.722  1.00  0.00     0.156 HD
ATOM     18  H   UNL A   1      32.021  21.526  20.893  1.00  0.00     0.156 HD
ENDBRANCH   9  16
ENDBRANCH   5   8
ENDBRANCH   3   4
ENDBRANCH   2   3
ENDBRANCH   1   2
BRANCH   1  19
ATOM     19  C   UNL A   1      39.209  20.275  25.881  1.00  0.00     0.116 C 
BRANCH  19  20
ATOM     20  N   UNL A   1      40.177  19.190  25.880  1.00  0.00    -0.352 N 
ATOM     21  C   UNL A   1      41.536  19.249  26.079  1.00  0.00     0.251 C 
ATOM     22  H   UNL A   1      39.809  18.292  25.715  1.00  0.00     0.163 HD
ATOM     23  O   UNL A   1      42.226  18.247  25.951  1.00  0.00    -0.269 OA
BRANCH  21  24
ATOM     24  C   UNL A   1      42.164  20.545  26.406  1.00  0.00     0.039 A 
ATOM     25  C   UNL A   1      42.623  21.348  25.359  1.00  0.00     0.014 A 
ATOM     26  C   UNL A   1      42.275  20.975  27.731  1.00  0.00     0.014 A 
ATOM     27  C   UNL A   1      43.128  22.619  25.636  1.00  0.00     0.010 A 
ATOM     28  C   UNL A   1      42.721  22.266  28.000  1.00  0.00     0.010 A 
ATOM     29  C   UNL A   1      43.146  23.100  26.955  1.00  0.00    -0.014 A 
BRANCH  29  30
ATOM     30  C   UNL A   1      43.589  24.484  27.257  1.00  0.00     0.031 A 
ATOM     31  C   UNL A   1      42.610  25.492  27.786  1.00  0.00     0.074 A 
ATOM     32  C   UNL A   1      44.858  24.846  26.987  1.00  0.00     0.049 A 
ATOM     33  N   UNL A   1      42.792  26.762  28.049  1.00  0.00    -0.248 NA
ATOM     34  C   UNL A   1      41.239  25.018  28.027  1.00  0.00     0.031 C 
ATOM     35  C   UNL A   1      45.885  23.970  26.422  1.00  0.00     0.029 A 
ATOM     36  N   UNL A   1      45.496  26.051  27.141  1.00  0.00    -0.354 N 
ATOM     37  C   UNL A   1      41.558  27.239  28.470  1.00  0.00     0.074 A 
ATOM     38  C   UNL A   1      40.625  26.137  28.382  1.00  0.00     0.031 C 
ATOM     39  C   UNL A   1      47.029  24.660  26.294  1.00  0.00     0.029 A 
ATOM     40  C   UNL A   1      46.809  26.033  26.737  1.00  0.00     0.049 A 
ATOM     41  H   UNL A   1      45.056  26.851  27.506  1.00  0.00     0.167 HD
ATOM     42  C   UNL A   1      41.240  28.478  28.914  1.00  0.00     0.037 A 
ATOM     43  C   UNL A   1      47.728  27.016  26.722  1.00  0.00     0.037 A 
ATOM     44  C   UNL A   1      42.179  29.564  29.026  1.00  0.00     0.049 A 
ATOM     45  C   UNL A   1      47.350  28.383  27.224  1.00  0.00     0.074 A 
ATOM     46  C   UNL A   1      41.970  30.836  29.528  1.00  0.00     0.029 A 
ATOM     47  N   UNL A   1      43.505  29.503  28.627  1.00  0.00    -0.354 N 
ATOM     48  N   UNL A   1      46.199  28.803  27.691  1.00  0.00    -0.248 NA
ATOM     49  C   UNL A   1      48.399  29.412  27.200  1.00  0.00     0.031 C 
ATOM     50  C   UNL A   1      43.160  31.559  29.395  1.00  0.00     0.029 A 
ATOM     51  C   UNL A   1      44.123  30.724  28.851  1.00  0.00     0.049 A 
ATOM     52  H   UNL A   1      43.944  28.710  28.241  1.00  0.00     0.167 HD
ATOM     53  C   UNL A   1      46.392  30.133  28.039  1.00  0.00     0.074 A 
ATOM     54  C   UNL A   1      47.774  30.446  27.744  1.00  0.00     0.031 C 
ATOM     55  C   UNL A   1      45.501  31.016  28.554  1.00  0.00     0.037 A 
BRANCH  42  56
ATOM     56  C   UNL A   1      39.816  28.724  29.318  1.00  0.00     0.064 A 
ATOM     57  C   UNL A   1      39.373  28.482  30.627  1.00  0.00     0.173 A 
ATOM     58  C   UNL A   1      38.893  29.240  28.397  1.00  0.00     0.173 A 
ATOM     59  F   UNL A   1      40.215  27.977  31.541  1.00  0.00    -0.203 F 
ATOM     60  C   UNL A   1      38.051  28.720  30.991  1.00  0.00     0.198 A 
ATOM     61  C   UNL A   1      37.578  29.504  28.772  1.00  0.00     0.198 A 
ATOM     62  F   UNL A   1      39.266  29.495  27.134  1.00  0.00    -0.203 F 
ATOM     63  F   UNL A   1      37.638  28.436  32.234  1.00  0.00    -0.200 F 
ATOM     64  C   UNL A   1      37.156  29.237  30.066  1.00  0.00     0.200 A 
ATOM     65  F   UNL A   1      36.717  30.015  27.880  1.00  0.00    -0.200 F 
ATOM     66  F   UNL A   1      35.885  29.472  30.420  1.00  0.00    -0.200 F 
ENDBRANCH  42  56
BRANCH  43  67
ATOM     67  C   UNL A   1      49.106  26.738  26.240  1.00  0.00     0.064 A 
ATOM     68  C   UNL A   1      49.461  26.977  24.906  1.00  0.00     0.173 A 
ATOM     69  C   UNL A   1      50.091  26.227  27.098  1.00  0.00     0.173 A 
ATOM     70  F   UNL A   1      48.547  27.447  24.044  1.00  0.00    -0.203 F 
ATOM     71  C   UNL A   1      50.744  26.697  24.441  1.00  0.00     0.198 A 
ATOM     72  C   UNL A   1      51.381  25.972  26.638  1.00  0.00     0.198 A 
ATOM     73  F   UNL A   1      49.802  25.985  28.385  1.00  0.00    -0.203 F 
ATOM     74  F   UNL A   1      51.044  26.895  23.150  1.00  0.00    -0.200 F 
ATOM     75  C   UNL A   1      51.705  26.200  25.309  1.00  0.00     0.200 A 
ATOM     76  F   UNL A   1      52.310  25.503  27.482  1.00  0.00    -0.200 F 
ATOM     77  F   UNL A   1      52.940  25.933  24.862  1.00  0.00    -0.200 F 
ENDBRANCH  43  67
BRANCH  55  78
ATOM     78  C   UNL A   1      46.003  32.398  28.855  1.00  0.00     0.064 A 
ATOM     79  C   UNL A   1      46.589  32.713  30.089  1.00  0.00     0.173 A 
ATOM     80  C   UNL A   1      45.933  33.406  27.881  1.00  0.00     0.173 A 
ATOM     81  F   UNL A   1      46.663  31.787  31.057  1.00  0.00    -0.203 F 
ATOM     82  C   UNL A   1      47.066  33.995  30.346  1.00  0.00     0.198 A 
ATOM     83  C   UNL A   1      46.438  34.678  28.132  1.00  0.00     0.198 A 
ATOM     84  F   UNL A   1      45.386  33.153  26.682  1.00  0.00    -0.203 F 
ATOM     85  F   UNL A   1      47.584  34.287  31.547  1.00  0.00    -0.200 F 
ATOM     86  C   UNL A   1      46.998  34.974  29.365  1.00  0.00     0.200 A 
ATOM     87  F   UNL A   1      46.381  35.620  27.179  1.00  0.00    -0.200 F 
ATOM     88  F   UNL A   1      47.466  36.205  29.612  1.00  0.00    -0.200 F 
ENDBRANCH  55  78
ENDBRANCH  29  30
ENDBRANCH  21  24
ENDBRANCH  19  20
ENDBRANCH   1  19
TORSDOF 12
ENDMDL
