MODEL 1
REMARK VINA RESULT:     -12.7      0.000      0.000
REMARK SMILES CC[C@@](C)([NH3+])C(=O)Nc1cc(C(=O)NCCCCNC(=O)c2ccc(-c3c4nc(c(-c5c(F)c(F)c(F)c(F)c5F)c5ccc([nH]5)c(-c5c(F)c(F)c(F)c(F)c5F)c5nc(c(-c6c(F)c(F)c(F)c(F)c6F)c6ccc3[nH]6)C=C5)C=C4)cc2)cc(C(F)(F)F)c1
REMARK SMILES IDX 16 1 15 2 14 3 12 4 13 5 11 7 9 8 10 9 91 10 86 11 85 12
REMARK SMILES IDX 8 13 6 14 7 15 3 17 4 18 2 19 1 20 5 21 87 25 88 26 89 27
REMARK SMILES IDX 90 28 17 29 18 30 19 31 20 32 21 34 22 35 23 36 84 37 24 38
REMARK SMILES IDX 83 39 25 40 26 41 27 42 77 43 28 44 82 45 76 46 78 47 29 48
REMARK SMILES IDX 81 49 75 50 74 51 30 53 62 54 42 55 61 56 43 57 46 58 60 59
REMARK SMILES IDX 79 60 44 61 45 62 59 64 80 65 47 66 31 67 32 68 40 69 33 70
REMARK SMILES IDX 34 71 38 72 41 73 35 74 36 75 39 76 37 77 63 78 64 79 72 80
REMARK SMILES IDX 65 81 66 82 70 83 73 84 67 85 68 86 71 87 69 88 48 89 49 90
REMARK SMILES IDX 57 91 50 92 51 93 55 94 58 95 52 96 53 97 56 98 54 99
REMARK H PARENT 14 6 8 16 5 22 5 23 5 24 19 33 78 52 46 63
REMARK Flexibility Score: inf
ROOT
ATOM      1  C   UNL A   1      31.558  31.006  25.868  1.00  0.00     0.023 C 
ENDROOT
BRANCH   1   2
ATOM      2  C   UNL A   1      32.476  29.796  25.867  1.00  0.00     0.116 C 
BRANCH   2   3
ATOM      3  N   UNL A   1      33.360  29.668  24.714  1.00  0.00    -0.352 N 
ATOM      4  C   UNL A   1      33.165  29.047  23.493  1.00  0.00     0.251 C 
ATOM      5  O   UNL A   1      34.058  29.076  22.651  1.00  0.00    -0.269 OA
ATOM      6  H   UNL A   1      34.241  30.093  24.823  1.00  0.00     0.163 HD
BRANCH   4   7
ATOM      7  C   UNL A   1      31.921  28.281  23.216  1.00  0.00     0.042 A 
ATOM      8  C   UNL A   1      30.645  26.249  23.392  1.00  0.00     0.042 A 
ATOM      9  C   UNL A   1      31.873  26.905  23.474  1.00  0.00     0.040 A 
ATOM     10  C   UNL A   1      29.485  27.014  23.350  1.00  0.00     0.039 A 
ATOM     11  C   UNL A   1      29.527  28.347  22.960  1.00  0.00     0.058 A 
ATOM     12  C   UNL A   1      30.775  28.924  22.749  1.00  0.00     0.027 A 
BRANCH   8  13
ATOM     13  N   UNL A   1      30.578  24.853  23.381  1.00  0.00    -0.321 N 
ATOM     14  C   UNL A   1      30.824  23.953  24.402  1.00  0.00     0.285 C 
ATOM     15  O   UNL A   1      30.931  22.767  24.067  1.00  0.00    -0.267 OA
ATOM     16  H   UNL A   1      30.318  24.451  22.521  1.00  0.00     0.170 HD
BRANCH  14  17
ATOM     17  C   UNL A   1      30.815  24.372  25.939  1.00  0.00     0.171 C 
ATOM     18  C   UNL A   1      30.895  23.134  26.852  1.00  0.00     0.090 C 
BRANCH  17  19
ATOM     19  C   UNL A   1      32.002  25.333  26.252  1.00  0.00     0.075 C 
ATOM     20  C   UNL A   1      33.396  24.726  26.171  1.00  0.00     0.011 C 
ENDBRANCH  17  19
BRANCH  17  21
ATOM     21  N   UNL A   1      29.601  25.162  26.264  1.00  0.00    -0.345 N 
ATOM     22  H   UNL A   1      29.830  26.156  26.264  1.00  0.00     0.345 HD
ATOM     23  H   UNL A   1      29.256  24.892  27.185  1.00  0.00     0.345 HD
ATOM     24  H   UNL A   1      28.880  24.979  25.565  1.00  0.00     0.345 HD
ENDBRANCH  17  21
ENDBRANCH  14  17
ENDBRANCH   8  13
BRANCH  11  25
ATOM     25  C   UNL A   1      28.279  29.176  22.854  1.00  0.00     0.416 C 
ATOM     26  F   UNL A   1      28.036  29.558  21.570  1.00  0.00    -0.166 F 
ATOM     27  F   UNL A   1      27.169  28.495  23.255  1.00  0.00    -0.166 F 
ATOM     28  F   UNL A   1      28.309  30.315  23.593  1.00  0.00    -0.166 F 
ENDBRANCH  11  25
ENDBRANCH   4   7
ENDBRANCH   2   3
ENDBRANCH   1   2
BRANCH   1  29
ATOM     29  C   UNL A   1      31.556  31.843  27.133  1.00  0.00     0.023 C 
BRANCH  29  30
ATOM     30  C   UNL A   1      32.756  32.762  27.320  1.00  0.00     0.116 C 
BRANCH  30  31
ATOM     31  N   UNL A   1      32.410  34.140  27.641  1.00  0.00    -0.352 N 
ATOM     32  C   UNL A   1      32.989  34.998  28.546  1.00  0.00     0.251 C 
ATOM     33  H   UNL A   1      31.649  34.511  27.138  1.00  0.00     0.163 HD
ATOM     34  O   UNL A   1      32.515  36.115  28.732  1.00  0.00    -0.269 OA
BRANCH  32  35
ATOM     35  C   UNL A   1      34.160  34.555  29.332  1.00  0.00     0.039 A 
ATOM     36  C   UNL A   1      33.955  34.041  30.614  1.00  0.00     0.014 A 
ATOM     37  C   UNL A   1      35.447  34.603  28.791  1.00  0.00     0.014 A 
ATOM     38  C   UNL A   1      35.029  33.489  31.317  1.00  0.00     0.010 A 
ATOM     39  C   UNL A   1      36.494  33.966  29.449  1.00  0.00     0.010 A 
ATOM     40  C   UNL A   1      36.297  33.404  30.720  1.00  0.00    -0.014 A 
BRANCH  40  41
ATOM     41  C   UNL A   1      37.432  32.738  31.408  1.00  0.00     0.031 A 
ATOM     42  C   UNL A   1      38.153  31.599  30.741  1.00  0.00     0.074 A 
ATOM     43  C   UNL A   1      37.770  33.111  32.658  1.00  0.00     0.049 A 
ATOM     44  N   UNL A   1      39.123  30.849  31.199  1.00  0.00    -0.248 NA
ATOM     45  C   UNL A   1      37.701  31.233  29.389  1.00  0.00     0.031 C 
ATOM     46  C   UNL A   1      37.109  34.159  33.438  1.00  0.00     0.029 A 
ATOM     47  N   UNL A   1      38.749  32.642  33.499  1.00  0.00    -0.354 N 
ATOM     48  C   UNL A   1      39.383  29.919  30.203  1.00  0.00     0.074 A 
ATOM     49  C   UNL A   1      38.429  30.156  29.142  1.00  0.00     0.031 C 
ATOM     50  C   UNL A   1      37.722  34.275  34.628  1.00  0.00     0.029 A 
ATOM     51  C   UNL A   1      38.792  33.286  34.711  1.00  0.00     0.049 A 
ATOM     52  H   UNL A   1      39.365  31.912  33.255  1.00  0.00     0.167 HD
ATOM     53  C   UNL A   1      40.350  28.971  30.161  1.00  0.00     0.037 A 
ATOM     54  C   UNL A   1      39.602  33.098  35.769  1.00  0.00     0.037 A 
ATOM     55  C   UNL A   1      41.318  28.758  31.204  1.00  0.00     0.049 A 
ATOM     56  C   UNL A   1      40.673  32.044  35.695  1.00  0.00     0.074 A 
ATOM     57  C   UNL A   1      42.374  27.864  31.234  1.00  0.00     0.029 A 
ATOM     58  N   UNL A   1      41.345  29.450  32.407  1.00  0.00    -0.354 N 
ATOM     59  N   UNL A   1      40.958  31.219  34.717  1.00  0.00    -0.248 NA
ATOM     60  C   UNL A   1      41.544  31.903  36.870  1.00  0.00     0.031 C 
ATOM     61  C   UNL A   1      43.015  27.984  32.471  1.00  0.00     0.029 A 
ATOM     62  C   UNL A   1      42.390  28.989  33.192  1.00  0.00     0.049 A 
ATOM     63  H   UNL A   1      40.716  30.161  32.664  1.00  0.00     0.167 HD
ATOM     64  C   UNL A   1      42.056  30.484  35.144  1.00  0.00     0.074 A 
ATOM     65  C   UNL A   1      42.396  30.972  36.464  1.00  0.00     0.031 C 
ATOM     66  C   UNL A   1      42.723  29.494  34.501  1.00  0.00     0.037 A 
BRANCH  53  67
ATOM     67  C   UNL A   1      40.414  28.100  28.939  1.00  0.00     0.064 A 
ATOM     68  C   UNL A   1      39.716  26.885  28.865  1.00  0.00     0.173 A 
ATOM     69  C   UNL A   1      41.161  28.497  27.820  1.00  0.00     0.173 A 
ATOM     70  F   UNL A   1      38.997  26.453  29.913  1.00  0.00    -0.203 F 
ATOM     71  C   UNL A   1      39.789  26.084  27.729  1.00  0.00     0.198 A 
ATOM     72  C   UNL A   1      41.205  27.708  26.672  1.00  0.00     0.198 A 
ATOM     73  F   UNL A   1      41.844  29.651  27.835  1.00  0.00    -0.203 F 
ATOM     74  F   UNL A   1      39.159  24.901  27.704  1.00  0.00    -0.200 F 
ATOM     75  C   UNL A   1      40.528  26.498  26.631  1.00  0.00     0.200 A 
ATOM     76  F   UNL A   1      41.909  28.117  25.607  1.00  0.00    -0.200 F 
ATOM     77  F   UNL A   1      40.593  25.730  25.536  1.00  0.00    -0.200 F 
ENDBRANCH  53  67
BRANCH  54  78
ATOM     78  C   UNL A   1      39.458  33.952  36.979  1.00  0.00     0.064 A 
ATOM     79  C   UNL A   1      40.073  35.211  37.047  1.00  0.00     0.173 A 
ATOM     80  C   UNL A   1      38.716  33.528  38.090  1.00  0.00     0.173 A 
ATOM     81  F   UNL A   1      40.811  35.650  36.017  1.00  0.00    -0.203 F 
ATOM     82  C   UNL A   1      39.971  36.002  38.188  1.00  0.00     0.198 A 
ATOM     83  C   UNL A   1      38.591  34.334  39.221  1.00  0.00     0.198 A 
ATOM     84  F   UNL A   1      38.103  32.335  38.074  1.00  0.00    -0.203 F 
ATOM     85  F   UNL A   1      40.610  37.178  38.245  1.00  0.00    -0.200 F 
ATOM     86  C   UNL A   1      39.226  35.564  39.273  1.00  0.00     0.200 A 
ATOM     87  F   UNL A   1      37.857  33.913  40.261  1.00  0.00    -0.200 F 
ATOM     88  F   UNL A   1      39.127  36.327  40.370  1.00  0.00    -0.200 F 
ENDBRANCH  54  78
BRANCH  66  89
ATOM     89  C   UNL A   1      43.913  28.902  35.197  1.00  0.00     0.064 A 
ATOM     90  C   UNL A   1      43.790  27.818  36.079  1.00  0.00     0.173 A 
ATOM     91  C   UNL A   1      45.200  29.406  34.951  1.00  0.00     0.173 A 
ATOM     92  F   UNL A   1      42.580  27.310  36.358  1.00  0.00    -0.203 F 
ATOM     93  C   UNL A   1      44.906  27.280  36.712  1.00  0.00     0.198 A 
ATOM     94  C   UNL A   1      46.318  28.846  35.561  1.00  0.00     0.198 A 
ATOM     95  F   UNL A   1      45.374  30.437  34.110  1.00  0.00    -0.203 F 
ATOM     96  F   UNL A   1      44.759  26.280  37.591  1.00  0.00    -0.200 F 
ATOM     97  C   UNL A   1      46.170  27.790  36.448  1.00  0.00     0.200 A 
ATOM     98  F   UNL A   1      47.539  29.329  35.294  1.00  0.00    -0.200 F 
ATOM     99  F   UNL A   1      47.244  27.267  37.054  1.00  0.00    -0.200 F 
ENDBRANCH  66  89
ENDBRANCH  40  41
ENDBRANCH  32  35
ENDBRANCH  30  31
ENDBRANCH  29  30
ENDBRANCH   1  29
TORSDOF 16
ENDMDL
MODEL 2
REMARK VINA RESULT:     -12.5      1.603      7.490
REMARK SMILES CC[C@@](C)([NH3+])C(=O)Nc1cc(C(=O)NCCCCNC(=O)c2ccc(-c3c4nc(c(-c5c(F)c(F)c(F)c(F)c5F)c5ccc([nH]5)c(-c5c(F)c(F)c(F)c(F)c5F)c5nc(c(-c6c(F)c(F)c(F)c(F)c6F)c6ccc3[nH]6)C=C5)C=C4)cc2)cc(C(F)(F)F)c1
REMARK SMILES IDX 16 1 15 2 14 3 12 4 13 5 11 7 9 8 10 9 91 10 86 11 85 12
REMARK SMILES IDX 8 13 6 14 7 15 3 17 4 18 2 19 1 20 5 21 87 25 88 26 89 27
REMARK SMILES IDX 90 28 17 29 18 30 19 31 20 32 21 34 22 35 23 36 84 37 24 38
REMARK SMILES IDX 83 39 25 40 26 41 27 42 77 43 28 44 82 45 76 46 78 47 29 48
REMARK SMILES IDX 81 49 75 50 74 51 30 53 62 54 42 55 61 56 43 57 46 58 60 59
REMARK SMILES IDX 79 60 44 61 45 62 59 64 80 65 47 66 31 67 32 68 40 69 33 70
REMARK SMILES IDX 34 71 38 72 41 73 35 74 36 75 39 76 37 77 63 78 64 79 72 80
REMARK SMILES IDX 65 81 66 82 70 83 73 84 67 85 68 86 71 87 69 88 48 89 49 90
REMARK SMILES IDX 57 91 50 92 51 93 55 94 58 95 52 96 53 97 56 98 54 99
REMARK H PARENT 14 6 8 16 5 22 5 23 5 24 19 33 78 52 46 63
REMARK Flexibility Score: inf
ROOT
ATOM      1  C   UNL A   1      31.339  31.066  26.512  1.00  0.00     0.023 C 
ENDROOT
BRANCH   1   2
ATOM      2  C   UNL A   1      32.313  30.316  25.619  1.00  0.00     0.116 C 
BRANCH   2   3
ATOM      3  N   UNL A   1      33.564  29.905  26.245  1.00  0.00    -0.352 N 
ATOM      4  C   UNL A   1      34.176  28.665  26.308  1.00  0.00     0.251 C 
ATOM      5  O   UNL A   1      35.253  28.551  26.886  1.00  0.00    -0.269 OA
ATOM      6  H   UNL A   1      34.054  30.628  26.697  1.00  0.00     0.163 HD
BRANCH   4   7
ATOM      7  C   UNL A   1      33.511  27.456  25.754  1.00  0.00     0.042 A 
ATOM      8  C   UNL A   1      31.871  25.706  25.952  1.00  0.00     0.042 A 
ATOM      9  C   UNL A   1      32.627  26.714  26.550  1.00  0.00     0.040 A 
ATOM     10  C   UNL A   1      31.797  25.665  24.565  1.00  0.00     0.039 A 
ATOM     11  C   UNL A   1      32.758  26.293  23.784  1.00  0.00     0.058 A 
ATOM     12  C   UNL A   1      33.712  27.075  24.427  1.00  0.00     0.027 A 
BRANCH   8  13
ATOM     13  N   UNL A   1      31.179  24.774  26.731  1.00  0.00    -0.321 N 
ATOM     14  C   UNL A   1      31.351  23.405  26.823  1.00  0.00     0.285 C 
ATOM     15  O   UNL A   1      30.450  22.782  27.401  1.00  0.00    -0.267 OA
ATOM     16  H   UNL A   1      30.466  25.147  27.298  1.00  0.00     0.170 HD
BRANCH  14  17
ATOM     17  C   UNL A   1      32.689  22.672  26.364  1.00  0.00     0.171 C 
ATOM     18  C   UNL A   1      32.673  22.385  24.851  1.00  0.00     0.090 C 
BRANCH  17  19
ATOM     19  C   UNL A   1      33.936  23.535  26.722  1.00  0.00     0.075 C 
ATOM     20  C   UNL A   1      34.992  23.672  25.635  1.00  0.00     0.011 C 
ENDBRANCH  17  19
BRANCH  17  21
ATOM     21  N   UNL A   1      32.882  21.407  27.116  1.00  0.00    -0.345 N 
ATOM     22  H   UNL A   1      32.334  20.664  26.682  1.00  0.00     0.345 HD
ATOM     23  H   UNL A   1      32.576  21.535  28.081  1.00  0.00     0.345 HD
ATOM     24  H   UNL A   1      33.870  21.152  27.105  1.00  0.00     0.345 HD
ENDBRANCH  17  21
ENDBRANCH  14  17
ENDBRANCH   8  13
BRANCH  11  25
ATOM     25  C   UNL A   1      32.727  26.216  22.283  1.00  0.00     0.416 C 
ATOM     26  F   UNL A   1      33.709  26.972  21.720  1.00  0.00    -0.166 F 
ATOM     27  F   UNL A   1      32.928  24.948  21.827  1.00  0.00    -0.166 F 
ATOM     28  F   UNL A   1      31.559  26.633  21.732  1.00  0.00    -0.166 F 
ENDBRANCH  11  25
ENDBRANCH   4   7
ENDBRANCH   2   3
ENDBRANCH   1   2
BRANCH   1  29
ATOM     29  C   UNL A   1      31.459  32.578  26.512  1.00  0.00     0.023 C 
BRANCH  29  30
ATOM     30  C   UNL A   1      32.544  33.154  27.410  1.00  0.00     0.116 C 
BRANCH  30  31
ATOM     31  N   UNL A   1      32.311  34.531  27.822  1.00  0.00    -0.352 N 
ATOM     32  C   UNL A   1      32.989  35.295  28.743  1.00  0.00     0.251 C 
ATOM     33  H   UNL A   1      31.557  34.982  27.377  1.00  0.00     0.163 HD
ATOM     34  O   UNL A   1      32.604  36.429  29.011  1.00  0.00    -0.269 OA
BRANCH  32  35
ATOM     35  C   UNL A   1      34.160  34.730  29.446  1.00  0.00     0.039 A 
ATOM     36  C   UNL A   1      33.974  34.147  30.701  1.00  0.00     0.014 A 
ATOM     37  C   UNL A   1      35.424  34.733  28.852  1.00  0.00     0.014 A 
ATOM     38  C   UNL A   1      35.037  33.485  31.319  1.00  0.00     0.010 A 
ATOM     39  C   UNL A   1      36.453  33.992  29.421  1.00  0.00     0.010 A 
ATOM     40  C   UNL A   1      36.272  33.361  30.662  1.00  0.00    -0.014 A 
BRANCH  40  41
ATOM     41  C   UNL A   1      37.388  32.581  31.256  1.00  0.00     0.031 A 
ATOM     42  C   UNL A   1      37.893  32.917  32.632  1.00  0.00     0.074 A 
ATOM     43  C   UNL A   1      37.991  31.616  30.533  1.00  0.00     0.049 A 
ATOM     44  N   UNL A   1      38.893  32.399  33.299  1.00  0.00    -0.248 NA
ATOM     45  C   UNL A   1      37.200  34.006  33.341  1.00  0.00     0.031 C 
ATOM     46  C   UNL A   1      37.636  31.235  29.165  1.00  0.00     0.029 A 
ATOM     47  N   UNL A   1      39.038  30.785  30.846  1.00  0.00    -0.354 N 
ATOM     48  C   UNL A   1      38.958  33.106  34.491  1.00  0.00     0.074 A 
ATOM     49  C   UNL A   1      37.939  34.131  34.432  1.00  0.00     0.031 C 
ATOM     50  C   UNL A   1      38.429  30.226  28.769  1.00  0.00     0.029 A 
ATOM     51  C   UNL A   1      39.372  29.914  29.838  1.00  0.00     0.049 A 
ATOM     52  H   UNL A   1      39.506  30.811  31.712  1.00  0.00     0.167 HD
ATOM     53  C   UNL A   1      39.772  32.900  35.554  1.00  0.00     0.037 A 
ATOM     54  C   UNL A   1      40.331  28.971  29.784  1.00  0.00     0.037 A 
ATOM     55  C   UNL A   1      40.764  31.860  35.622  1.00  0.00     0.049 A 
ATOM     56  C   UNL A   1      41.218  28.758  30.981  1.00  0.00     0.074 A 
ATOM     57  C   UNL A   1      41.599  31.531  36.675  1.00  0.00     0.029 A 
ATOM     58  N   UNL A   1      41.054  30.979  34.590  1.00  0.00    -0.354 N 
ATOM     59  N   UNL A   1      41.221  29.383  32.132  1.00  0.00    -0.248 NA
ATOM     60  C   UNL A   1      42.230  27.697  30.872  1.00  0.00     0.031 C 
ATOM     61  C   UNL A   1      42.424  30.479  36.266  1.00  0.00     0.029 A 
ATOM     62  C   UNL A   1      42.068  30.118  34.977  1.00  0.00     0.049 A 
ATOM     63  H   UNL A   1      40.606  30.968  33.714  1.00  0.00     0.167 HD
ATOM     64  C   UNL A   1      42.209  28.775  32.895  1.00  0.00     0.074 A 
ATOM     65  C   UNL A   1      42.774  27.719  32.081  1.00  0.00     0.031 C 
ATOM     66  C   UNL A   1      42.612  29.064  34.157  1.00  0.00     0.037 A 
BRANCH  53  67
ATOM     67  C   UNL A   1      39.614  33.816  36.734  1.00  0.00     0.064 A 
ATOM     68  C   UNL A   1      38.835  33.457  37.844  1.00  0.00     0.173 A 
ATOM     69  C   UNL A   1      40.270  35.056  36.766  1.00  0.00     0.173 A 
ATOM     70  F   UNL A   1      38.175  32.288  37.858  1.00  0.00    -0.203 F 
ATOM     71  C   UNL A   1      38.691  34.318  38.928  1.00  0.00     0.198 A 
ATOM     72  C   UNL A   1      40.150  35.901  37.868  1.00  0.00     0.198 A 
ATOM     73  F   UNL A   1      41.032  35.447  35.734  1.00  0.00    -0.203 F 
ATOM     74  F   UNL A   1      37.896  33.977  39.951  1.00  0.00    -0.200 F 
ATOM     75  C   UNL A   1      39.354  35.536  38.943  1.00  0.00     0.200 A 
ATOM     76  F   UNL A   1      40.803  37.072  37.885  1.00  0.00    -0.200 F 
ATOM     77  F   UNL A   1      39.220  36.362  39.989  1.00  0.00    -0.200 F 
ENDBRANCH  53  67
BRANCH  54  78
ATOM     78  C   UNL A   1      40.481  28.130  28.566  1.00  0.00     0.064 A 
ATOM     79  C   UNL A   1      39.840  26.886  28.469  1.00  0.00     0.173 A 
ATOM     80  C   UNL A   1      41.270  28.542  27.484  1.00  0.00     0.173 A 
ATOM     81  F   UNL A   1      39.091  26.439  29.488  1.00  0.00    -0.203 F 
ATOM     82  C   UNL A   1      40.002  26.077  27.347  1.00  0.00     0.198 A 
ATOM     83  C   UNL A   1      41.409  27.744  26.349  1.00  0.00     0.198 A 
ATOM     84  F   UNL A   1      41.900  29.726  27.524  1.00  0.00    -0.203 F 
ATOM     85  F   UNL A   1      39.419  24.872  27.303  1.00  0.00    -0.200 F 
ATOM     86  C   UNL A   1      40.783  26.509  26.286  1.00  0.00     0.200 A 
ATOM     87  F   UNL A   1      42.152  28.173  25.320  1.00  0.00    -0.200 F 
ATOM     88  F   UNL A   1      40.936  25.731  25.206  1.00  0.00    -0.200 F 
ENDBRANCH  54  78
BRANCH  66  89
ATOM     89  C   UNL A   1      43.686  28.200  34.751  1.00  0.00     0.064 A 
ATOM     90  C   UNL A   1      43.389  26.994  35.402  1.00  0.00     0.173 A 
ATOM     91  C   UNL A   1      45.036  28.570  34.635  1.00  0.00     0.173 A 
ATOM     92  F   UNL A   1      42.114  26.604  35.552  1.00  0.00    -0.203 F 
ATOM     93  C   UNL A   1      44.400  26.205  35.943  1.00  0.00     0.198 A 
ATOM     94  C   UNL A   1      46.046  27.763  35.148  1.00  0.00     0.198 A 
ATOM     95  F   UNL A   1      45.375  29.710  34.014  1.00  0.00    -0.203 F 
ATOM     96  F   UNL A   1      44.090  25.084  36.608  1.00  0.00    -0.200 F 
ATOM     97  C   UNL A   1      45.728  26.586  35.810  1.00  0.00     0.200 A 
ATOM     98  F   UNL A   1      47.328  28.125  35.006  1.00  0.00    -0.200 F 
ATOM     99  F   UNL A   1      46.700  25.823  36.326  1.00  0.00    -0.200 F 
ENDBRANCH  66  89
ENDBRANCH  40  41
ENDBRANCH  32  35
ENDBRANCH  30  31
ENDBRANCH  29  30
ENDBRANCH   1  29
TORSDOF 16
ENDMDL
MODEL 3
REMARK VINA RESULT:     -12.4      1.240      2.462
REMARK SMILES CC[C@@](C)([NH3+])C(=O)Nc1cc(C(=O)NCCCCNC(=O)c2ccc(-c3c4nc(c(-c5c(F)c(F)c(F)c(F)c5F)c5ccc([nH]5)c(-c5c(F)c(F)c(F)c(F)c5F)c5nc(c(-c6c(F)c(F)c(F)c(F)c6F)c6ccc3[nH]6)C=C5)C=C4)cc2)cc(C(F)(F)F)c1
REMARK SMILES IDX 16 1 15 2 14 3 12 4 13 5 11 7 9 8 10 9 91 10 86 11 85 12
REMARK SMILES IDX 8 13 6 14 7 15 3 17 4 18 2 19 1 20 5 21 87 25 88 26 89 27
REMARK SMILES IDX 90 28 17 29 18 30 19 31 20 32 21 34 22 35 23 36 84 37 24 38
REMARK SMILES IDX 83 39 25 40 26 41 27 42 77 43 28 44 82 45 76 46 78 47 29 48
REMARK SMILES IDX 81 49 75 50 74 51 30 53 62 54 42 55 61 56 43 57 46 58 60 59
REMARK SMILES IDX 79 60 44 61 45 62 59 64 80 65 47 66 31 67 32 68 40 69 33 70
REMARK SMILES IDX 34 71 38 72 41 73 35 74 36 75 39 76 37 77 63 78 64 79 72 80
REMARK SMILES IDX 65 81 66 82 70 83 73 84 67 85 68 86 71 87 69 88 48 89 49 90
REMARK SMILES IDX 57 91 50 92 51 93 55 94 58 95 52 96 53 97 56 98 54 99
REMARK H PARENT 14 6 8 16 5 22 5 23 5 24 19 33 78 52 46 63
REMARK Flexibility Score: inf
ROOT
ATOM      1  C   UNL A   1      34.549  30.999  27.867  1.00  0.00     0.023 C 
ENDROOT
BRANCH   1   2
ATOM      2  C   UNL A   1      34.299  29.572  27.410  1.00  0.00     0.116 C 
BRANCH   2   3
ATOM      3  N   UNL A   1      33.082  28.946  27.913  1.00  0.00    -0.352 N 
ATOM      4  C   UNL A   1      32.074  28.271  27.246  1.00  0.00     0.251 C 
ATOM      5  O   UNL A   1      31.133  27.807  27.883  1.00  0.00    -0.269 OA
ATOM      6  H   UNL A   1      32.956  29.015  28.886  1.00  0.00     0.163 HD
BRANCH   4   7
ATOM      7  C   UNL A   1      32.076  28.168  25.763  1.00  0.00     0.042 A 
ATOM      8  C   UNL A   1      32.579  26.928  23.763  1.00  0.00     0.042 A 
ATOM      9  C   UNL A   1      32.753  27.114  25.134  1.00  0.00     0.040 A 
ATOM     10  C   UNL A   1      31.534  27.591  23.130  1.00  0.00     0.039 A 
ATOM     11  C   UNL A   1      30.959  28.719  23.701  1.00  0.00     0.058 A 
ATOM     12  C   UNL A   1      31.365  29.079  24.982  1.00  0.00     0.027 A 
BRANCH   8  13
ATOM     13  N   UNL A   1      33.418  26.071  23.045  1.00  0.00    -0.321 N 
ATOM     14  C   UNL A   1      33.405  24.691  22.966  1.00  0.00     0.285 C 
ATOM     15  O   UNL A   1      34.404  24.166  22.456  1.00  0.00    -0.267 OA
ATOM     16  H   UNL A   1      34.121  26.516  22.519  1.00  0.00     0.170 HD
BRANCH  14  17
ATOM     17  C   UNL A   1      32.129  23.818  23.352  1.00  0.00     0.171 C 
ATOM     18  C   UNL A   1      32.301  22.356  22.901  1.00  0.00     0.090 C 
BRANCH  17  19
ATOM     19  C   UNL A   1      31.876  23.868  24.888  1.00  0.00     0.075 C 
ATOM     20  C   UNL A   1      33.075  23.566  25.776  1.00  0.00     0.011 C 
ENDBRANCH  17  19
BRANCH  17  21
ATOM     21  N   UNL A   1      30.897  24.391  22.752  1.00  0.00    -0.345 N 
ATOM     22  H   UNL A   1      31.117  24.796  21.843  1.00  0.00     0.345 HD
ATOM     23  H   UNL A   1      30.526  25.115  23.367  1.00  0.00     0.345 HD
ATOM     24  H   UNL A   1      30.201  23.654  22.637  1.00  0.00     0.345 HD
ENDBRANCH  17  21
ENDBRANCH  14  17
ENDBRANCH   8  13
BRANCH  11  25
ATOM     25  C   UNL A   1      29.866  29.483  23.008  1.00  0.00     0.416 C 
ATOM     26  F   UNL A   1      30.278  29.972  21.807  1.00  0.00    -0.166 F 
ATOM     27  F   UNL A   1      28.781  28.704  22.740  1.00  0.00    -0.166 F 
ATOM     28  F   UNL A   1      29.401  30.544  23.715  1.00  0.00    -0.166 F 
ENDBRANCH  11  25
ENDBRANCH   4   7
ENDBRANCH   2   3
ENDBRANCH   1   2
BRANCH   1  29
ATOM     29  C   UNL A   1      33.323  31.883  28.001  1.00  0.00     0.023 C 
BRANCH  29  30
ATOM     30  C   UNL A   1      33.252  33.064  27.043  1.00  0.00     0.116 C 
BRANCH  30  31
ATOM     31  N   UNL A   1      32.688  34.274  27.625  1.00  0.00    -0.352 N 
ATOM     32  C   UNL A   1      33.075  34.964  28.750  1.00  0.00     0.251 C 
ATOM     33  H   UNL A   1      31.917  34.652  27.145  1.00  0.00     0.163 HD
ATOM     34  O   UNL A   1      32.432  35.938  29.131  1.00  0.00    -0.269 OA
BRANCH  32  35
ATOM     35  C   UNL A   1      34.243  34.503  29.530  1.00  0.00     0.039 A 
ATOM     36  C   UNL A   1      34.031  33.935  30.787  1.00  0.00     0.014 A 
ATOM     37  C   UNL A   1      35.535  34.587  29.005  1.00  0.00     0.014 A 
ATOM     38  C   UNL A   1      35.104  33.367  31.478  1.00  0.00     0.010 A 
ATOM     39  C   UNL A   1      36.582  33.936  29.647  1.00  0.00     0.010 A 
ATOM     40  C   UNL A   1      36.379  33.321  30.892  1.00  0.00    -0.014 A 
BRANCH  40  41
ATOM     41  C   UNL A   1      37.515  32.639  31.564  1.00  0.00     0.031 A 
ATOM     42  C   UNL A   1      38.202  31.482  30.894  1.00  0.00     0.074 A 
ATOM     43  C   UNL A   1      37.884  33.017  32.804  1.00  0.00     0.049 A 
ATOM     44  N   UNL A   1      39.166  30.718  31.341  1.00  0.00    -0.248 NA
ATOM     45  C   UNL A   1      37.716  31.111  29.554  1.00  0.00     0.031 C 
ATOM     46  C   UNL A   1      37.258  34.085  33.586  1.00  0.00     0.029 A 
ATOM     47  N   UNL A   1      38.871  32.538  33.629  1.00  0.00    -0.354 N 
ATOM     48  C   UNL A   1      39.389  29.773  30.348  1.00  0.00     0.074 A 
ATOM     49  C   UNL A   1      38.419  30.018  29.304  1.00  0.00     0.031 C 
ATOM     50  C   UNL A   1      37.896  34.201  34.763  1.00  0.00     0.029 A 
ATOM     51  C   UNL A   1      38.949  33.192  34.834  1.00  0.00     0.049 A 
ATOM     52  H   UNL A   1      39.467  31.795  33.381  1.00  0.00     0.167 HD
ATOM     53  C   UNL A   1      40.338  28.808  30.297  1.00  0.00     0.037 A 
ATOM     54  C   UNL A   1      39.776  32.999  35.879  1.00  0.00     0.037 A 
ATOM     55  C   UNL A   1      41.321  28.586  31.323  1.00  0.00     0.049 A 
ATOM     56  C   UNL A   1      40.826  31.925  35.794  1.00  0.00     0.074 A 
ATOM     57  C   UNL A   1      42.361  27.673  31.341  1.00  0.00     0.029 A 
ATOM     58  N   UNL A   1      41.385  29.288  32.518  1.00  0.00    -0.354 N 
ATOM     59  N   UNL A   1      41.076  31.086  34.818  1.00  0.00    -0.248 NA
ATOM     60  C   UNL A   1      41.717  31.778  36.953  1.00  0.00     0.031 C 
ATOM     61  C   UNL A   1      43.028  27.792  32.564  1.00  0.00     0.029 A 
ATOM     62  C   UNL A   1      42.436  28.815  33.287  1.00  0.00     0.049 A 
ATOM     63  H   UNL A   1      40.774  30.013  32.781  1.00  0.00     0.167 HD
ATOM     64  C   UNL A   1      42.168  30.334  35.231  1.00  0.00     0.074 A 
ATOM     65  C   UNL A   1      42.544  30.828  36.540  1.00  0.00     0.031 C 
ATOM     66  C   UNL A   1      42.804  29.326  34.584  1.00  0.00     0.037 A 
BRANCH  53  67
ATOM     67  C   UNL A   1      40.361  27.924  29.083  1.00  0.00     0.064 A 
ATOM     68  C   UNL A   1      41.116  28.255  27.947  1.00  0.00     0.173 A 
ATOM     69  C   UNL A   1      39.639  26.721  29.062  1.00  0.00     0.173 A 
ATOM     70  F   UNL A   1      41.813  29.401  27.909  1.00  0.00    -0.203 F 
ATOM     71  C   UNL A   1      41.123  27.431  26.825  1.00  0.00     0.198 A 
ATOM     72  C   UNL A   1      39.675  25.883  27.950  1.00  0.00     0.198 A 
ATOM     73  F   UNL A   1      38.904  26.354  30.123  1.00  0.00    -0.203 F 
ATOM     74  F   UNL A   1      41.807  27.796  25.732  1.00  0.00    -0.200 F 
ATOM     75  C   UNL A   1      40.408  26.243  26.829  1.00  0.00     0.200 A 
ATOM     76  F   UNL A   1      38.994  24.728  27.962  1.00  0.00    -0.200 F 
ATOM     77  F   UNL A   1      40.420  25.447  25.752  1.00  0.00    -0.200 F 
ENDBRANCH  53  67
BRANCH  54  78
ATOM     78  C   UNL A   1      39.672  33.867  37.082  1.00  0.00     0.064 A 
ATOM     79  C   UNL A   1      38.901  33.474  38.187  1.00  0.00     0.173 A 
ATOM     80  C   UNL A   1      40.327  35.104  37.152  1.00  0.00     0.173 A 
ATOM     81  F   UNL A   1      38.238  32.308  38.158  1.00  0.00    -0.203 F 
ATOM     82  C   UNL A   1      38.771  34.295  39.304  1.00  0.00     0.198 A 
ATOM     83  C   UNL A   1      40.219  35.912  38.283  1.00  0.00     0.198 A 
ATOM     84  F   UNL A   1      41.082  35.524  36.126  1.00  0.00    -0.203 F 
ATOM     85  F   UNL A   1      37.989  33.918  40.323  1.00  0.00    -0.200 F 
ATOM     86  C   UNL A   1      39.435  35.512  39.353  1.00  0.00     0.200 A 
ATOM     87  F   UNL A   1      40.875  37.080  38.332  1.00  0.00    -0.200 F 
ATOM     88  F   UNL A   1      39.311  36.301  40.429  1.00  0.00    -0.200 F 
ENDBRANCH  54  78
BRANCH  66  89
ATOM     89  C   UNL A   1      43.996  28.718  35.263  1.00  0.00     0.064 A 
ATOM     90  C   UNL A   1      45.294  29.210  35.058  1.00  0.00     0.173 A 
ATOM     91  C   UNL A   1      43.833  27.649  36.158  1.00  0.00     0.173 A 
ATOM     92  F   UNL A   1      45.505  30.221  34.201  1.00  0.00    -0.203 F 
ATOM     93  C   UNL A   1      46.387  28.635  35.700  1.00  0.00     0.198 A 
ATOM     94  C   UNL A   1      44.923  27.097  36.822  1.00  0.00     0.198 A 
ATOM     95  F   UNL A   1      42.612  27.146  36.396  1.00  0.00    -0.203 F 
ATOM     96  F   UNL A   1      47.623  29.087  35.448  1.00  0.00    -0.200 F 
ATOM     97  C   UNL A   1      46.200  27.584  36.586  1.00  0.00     0.200 A 
ATOM     98  F   UNL A   1      44.740  26.092  37.689  1.00  0.00    -0.200 F 
ATOM     99  F   UNL A   1      47.253  27.035  37.208  1.00  0.00    -0.200 F 
ENDBRANCH  66  89
ENDBRANCH  40  41
ENDBRANCH  32  35
ENDBRANCH  30  31
ENDBRANCH  29  30
ENDBRANCH   1  29
TORSDOF 16
ENDMDL
