MODEL 1
REMARK VINA RESULT:     -13.6      0.000      0.000
REMARK SMILES NS(=O)(=O)c1ccc(-n2nc(C(F)(F)F)cc2-c2ccc(C(=O)NCCCCNC(=O)c3ccc(-c4c5nc(c(-c6c(F)c(F)c(F)c(F)c6F)c6ccc([nH]6)c(-c6c(F)c(F)c(F)c(F)c6F)c6nc(c(-c7c(F)c(F)c(F)c(F)c7F)c7ccc4[nH]7)C=C6)C=C5)cc3)cc2)cc1
REMARK SMILES IDX 25 1 24 2 22 3 23 4 21 6 18 7 19 8 96 9 20 10 95 11 17 12
REMARK SMILES IDX 9 13 10 14 11 15 16 16 8 17 5 18 6 19 98 20 7 21 97 22 2 23
REMARK SMILES IDX 3 24 4 25 1 26 12 29 13 30 14 31 15 32 26 33 27 34 28 35
REMARK SMILES IDX 29 36 30 37 31 39 32 40 33 41 94 42 34 43 93 44 35 45 36 46
REMARK SMILES IDX 37 47 87 48 38 49 92 50 86 51 88 52 39 53 91 54 85 55 84 56
REMARK SMILES IDX 40 58 72 59 52 60 71 61 53 62 56 63 70 64 89 65 54 66 55 67
REMARK SMILES IDX 69 69 90 70 57 71 41 72 42 73 50 74 43 75 44 76 48 77 51 78
REMARK SMILES IDX 45 79 46 80 49 81 47 82 73 83 74 84 82 85 75 86 76 87 80 88
REMARK SMILES IDX 83 89 77 90 78 91 81 92 79 93 58 94 59 95 67 96 60 97 61 98
REMARK SMILES IDX 65 99 68 100 62 101 63 102 66 103 64 104
REMARK H PARENT 24 5 1 27 1 28 29 38 88 57 56 68
REMARK Flexibility Score: inf
ROOT
ATOM      1  C   UNL A   1      33.878  21.697  25.236  1.00  0.00     0.116 C 
ENDROOT
BRANCH   1   2
ATOM      2  N   UNL A   1      32.809  21.955  24.292  1.00  0.00    -0.352 N 
ATOM      3  C   UNL A   1      32.178  23.108  23.899  1.00  0.00     0.251 C 
ATOM      4  O   UNL A   1      31.301  23.008  23.039  1.00  0.00    -0.269 OA
ATOM      5  H   UNL A   1      32.468  21.146  23.847  1.00  0.00     0.163 HD
BRANCH   3   6
ATOM      6  C   UNL A   1      32.533  24.459  24.418  1.00  0.00     0.039 A 
ATOM      7  C   UNL A   1      33.068  27.003  25.495  1.00  0.00     0.000 A 
ATOM      8  C   UNL A   1      32.200  26.131  26.159  1.00  0.00     0.011 A 
ATOM      9  C   UNL A   1      33.671  26.601  24.305  1.00  0.00     0.011 A 
ATOM     10  C   UNL A   1      31.928  24.872  25.616  1.00  0.00     0.014 A 
ATOM     11  C   UNL A   1      33.446  25.320  23.806  1.00  0.00     0.014 A 
BRANCH   7  12
ATOM     12  C   UNL A   1      33.448  28.280  26.076  1.00  0.00     0.075 A 
ATOM     13  N   UNL A   1      32.834  29.490  25.781  1.00  0.00    -0.233 N 
ATOM     14  N   UNL A   1      33.496  30.538  26.336  1.00  0.00    -0.163 NA
ATOM     15  C   UNL A   1      34.382  29.971  27.184  1.00  0.00     0.167 A 
ATOM     16  C   UNL A   1      34.421  28.567  27.006  1.00  0.00     0.064 A 
BRANCH  13  17
ATOM     17  C   UNL A   1      31.643  29.691  25.034  1.00  0.00     0.065 A 
ATOM     18  C   UNL A   1      29.420  30.177  23.429  1.00  0.00     0.082 A 
ATOM     19  C   UNL A   1      30.176  29.025  23.218  1.00  0.00     0.024 A 
ATOM     20  C   UNL A   1      29.747  31.070  24.457  1.00  0.00     0.024 A 
ATOM     21  C   UNL A   1      31.289  28.786  24.019  1.00  0.00     0.030 A 
ATOM     22  C   UNL A   1      30.846  30.812  25.283  1.00  0.00     0.030 A 
BRANCH  18  23
ATOM     23  S   UNL A   1      28.048  30.517  22.367  1.00  0.00     0.238 S 
ATOM     24  O   UNL A   1      28.392  30.116  21.016  1.00  0.00    -0.207 OA
ATOM     25  O   UNL A   1      27.528  31.815  22.691  1.00  0.00    -0.207 OA
BRANCH  23  26
ATOM     26  N   UNL A   1      26.884  29.406  22.863  1.00  0.00    -0.225 NA
ATOM     27  H   UNL A   1      26.742  29.490  23.870  1.00  0.00     0.137 HD
ATOM     28  H   UNL A   1      27.200  28.462  22.642  1.00  0.00     0.137 HD
ENDBRANCH  23  26
ENDBRANCH  18  23
ENDBRANCH  13  17
BRANCH  15  29
ATOM     29  C   UNL A   1      35.198  30.752  28.182  1.00  0.00     0.435 C 
ATOM     30  F   UNL A   1      36.146  31.531  27.603  1.00  0.00    -0.164 F 
ATOM     31  F   UNL A   1      34.423  31.560  28.953  1.00  0.00    -0.164 F 
ATOM     32  F   UNL A   1      35.854  29.923  29.044  1.00  0.00    -0.164 F 
ENDBRANCH  15  29
ENDBRANCH   7  12
ENDBRANCH   3   6
ENDBRANCH   1   2
BRANCH   1  33
ATOM     33  C   UNL A   1      35.220  22.222  24.714  1.00  0.00     0.023 C 
BRANCH  33  34
ATOM     34  C   UNL A   1      35.918  23.229  25.639  1.00  0.00     0.023 C 
BRANCH  34  35
ATOM     35  C   UNL A   1      37.391  23.464  25.325  1.00  0.00     0.116 C 
BRANCH  35  36
ATOM     36  N   UNL A   1      38.234  22.331  25.697  1.00  0.00    -0.352 N 
ATOM     37  C   UNL A   1      39.461  22.354  26.329  1.00  0.00     0.251 C 
ATOM     38  H   UNL A   1      37.885  21.439  25.468  1.00  0.00     0.163 HD
ATOM     39  O   UNL A   1      40.245  21.419  26.224  1.00  0.00    -0.269 OA
BRANCH  37  40
ATOM     40  C   UNL A   1      39.809  23.522  27.154  1.00  0.00     0.039 A 
ATOM     41  C   UNL A   1      41.017  23.582  27.851  1.00  0.00     0.014 A 
ATOM     42  C   UNL A   1      38.907  24.584  27.191  1.00  0.00     0.014 A 
ATOM     43  C   UNL A   1      41.351  24.762  28.509  1.00  0.00     0.010 A 
ATOM     44  C   UNL A   1      39.289  25.788  27.734  1.00  0.00     0.010 A 
ATOM     45  C   UNL A   1      40.495  25.875  28.421  1.00  0.00    -0.014 A 
BRANCH  45  46
ATOM     46  C   UNL A   1      40.936  27.186  28.896  1.00  0.00     0.031 A 
ATOM     47  C   UNL A   1      42.154  27.689  28.203  1.00  0.00     0.074 A 
ATOM     48  C   UNL A   1      40.206  27.971  29.720  1.00  0.00     0.049 A 
ATOM     49  N   UNL A   1      43.328  27.857  28.712  1.00  0.00    -0.248 NA
ATOM     50  C   UNL A   1      42.111  27.890  26.745  1.00  0.00     0.031 C 
ATOM     51  C   UNL A   1      38.849  27.715  30.220  1.00  0.00     0.029 A 
ATOM     52  N   UNL A   1      40.476  29.217  30.216  1.00  0.00    -0.354 N 
ATOM     53  C   UNL A   1      44.110  28.410  27.700  1.00  0.00     0.074 A 
ATOM     54  C   UNL A   1      43.378  28.219  26.478  1.00  0.00     0.031 C 
ATOM     55  C   UNL A   1      38.335  28.848  30.747  1.00  0.00     0.029 A 
ATOM     56  C   UNL A   1      39.379  29.854  30.790  1.00  0.00     0.049 A 
ATOM     57  H   UNL A   1      41.370  29.628  30.169  1.00  0.00     0.167 HD
ATOM     58  C   UNL A   1      45.139  29.245  28.019  1.00  0.00     0.037 A 
ATOM     59  C   UNL A   1      39.327  31.113  31.291  1.00  0.00     0.037 A 
ATOM     60  C   UNL A   1      45.435  29.154  29.427  1.00  0.00     0.049 A 
ATOM     61  C   UNL A   1      40.709  31.519  31.610  1.00  0.00     0.074 A 
ATOM     62  C   UNL A   1      46.085  28.277  30.266  1.00  0.00     0.029 A 
ATOM     63  N   UNL A   1      44.630  29.942  30.203  1.00  0.00    -0.354 N 
ATOM     64  N   UNL A   1      41.403  30.987  32.576  1.00  0.00    -0.248 NA
ATOM     65  C   UNL A   1      41.472  32.301  30.644  1.00  0.00     0.031 C 
ATOM     66  C   UNL A   1      45.522  28.473  31.564  1.00  0.00     0.029 A 
ATOM     67  C   UNL A   1      44.580  29.497  31.494  1.00  0.00     0.049 A 
ATOM     68  H   UNL A   1      44.146  30.733  29.872  1.00  0.00     0.167 HD
ATOM     69  C   UNL A   1      42.693  30.981  32.092  1.00  0.00     0.074 A 
ATOM     70  C   UNL A   1      42.710  31.962  31.015  1.00  0.00     0.031 C 
ATOM     71  C   UNL A   1      43.525  29.940  32.372  1.00  0.00     0.037 A 
BRANCH  58  72
ATOM     72  C   UNL A   1      45.531  30.491  27.242  1.00  0.00     0.064 A 
ATOM     73  C   UNL A   1      46.904  30.757  27.036  1.00  0.00     0.173 A 
ATOM     74  C   UNL A   1      44.667  31.578  26.991  1.00  0.00     0.173 A 
ATOM     75  F   UNL A   1      47.825  29.805  27.252  1.00  0.00    -0.203 F 
ATOM     76  C   UNL A   1      47.373  32.030  26.694  1.00  0.00     0.198 A 
ATOM     77  C   UNL A   1      45.136  32.834  26.604  1.00  0.00     0.198 A 
ATOM     78  F   UNL A   1      43.351  31.515  27.218  1.00  0.00    -0.203 F 
ATOM     79  F   UNL A   1      48.692  32.261  26.633  1.00  0.00    -0.200 F 
ATOM     80  C   UNL A   1      46.488  33.070  26.486  1.00  0.00     0.200 A 
ATOM     81  F   UNL A   1      44.262  33.835  26.428  1.00  0.00    -0.200 F 
ATOM     82  F   UNL A   1      46.935  34.305  26.220  1.00  0.00    -0.200 F 
ENDBRANCH  58  72
BRANCH  59  83
ATOM     83  C   UNL A   1      38.200  32.065  31.407  1.00  0.00     0.064 A 
ATOM     84  C   UNL A   1      37.804  32.861  30.319  1.00  0.00     0.173 A 
ATOM     85  C   UNL A   1      37.299  31.975  32.483  1.00  0.00     0.173 A 
ATOM     86  F   UNL A   1      38.597  32.977  29.243  1.00  0.00    -0.203 F 
ATOM     87  C   UNL A   1      36.554  33.485  30.283  1.00  0.00     0.198 A 
ATOM     88  C   UNL A   1      36.050  32.600  32.446  1.00  0.00     0.198 A 
ATOM     89  F   UNL A   1      37.573  31.194  33.538  1.00  0.00    -0.203 F 
ATOM     90  F   UNL A   1      36.181  34.172  29.194  1.00  0.00    -0.200 F 
ATOM     91  C   UNL A   1      35.671  33.338  31.338  1.00  0.00     0.200 A 
ATOM     92  F   UNL A   1      35.189  32.422  33.457  1.00  0.00    -0.200 F 
ATOM     93  F   UNL A   1      34.441  33.868  31.271  1.00  0.00    -0.200 F 
ENDBRANCH  59  83
BRANCH  71  94
ATOM     94  C   UNL A   1      43.212  29.135  33.594  1.00  0.00     0.064 A 
ATOM     95  C   UNL A   1      42.382  28.003  33.615  1.00  0.00     0.173 A 
ATOM     96  C   UNL A   1      43.807  29.526  34.799  1.00  0.00     0.173 A 
ATOM     97  F   UNL A   1      41.837  27.525  32.489  1.00  0.00    -0.203 F 
ATOM     98  C   UNL A   1      42.120  27.325  34.805  1.00  0.00     0.198 A 
ATOM     99  C   UNL A   1      43.574  28.827  35.978  1.00  0.00     0.198 A 
ATOM    100  F   UNL A   1      44.638  30.580  34.827  1.00  0.00    -0.203 F 
ATOM    101  F   UNL A   1      41.300  26.265  34.808  1.00  0.00    -0.200 F 
ATOM    102  C   UNL A   1      42.720  27.737  35.985  1.00  0.00     0.200 A 
ATOM    103  F   UNL A   1      44.187  29.208  37.107  1.00  0.00    -0.200 F 
ATOM    104  F   UNL A   1      42.487  27.074  37.125  1.00  0.00    -0.200 F 
ENDBRANCH  71  94
ENDBRANCH  45  46
ENDBRANCH  37  40
ENDBRANCH  35  36
ENDBRANCH  34  35
ENDBRANCH  33  34
ENDBRANCH   1  33
TORSDOF 16
ENDMDL
MODEL 2
REMARK VINA RESULT:     -13.3      3.953      8.010
REMARK SMILES NS(=O)(=O)c1ccc(-n2nc(C(F)(F)F)cc2-c2ccc(C(=O)NCCCCNC(=O)c3ccc(-c4c5nc(c(-c6c(F)c(F)c(F)c(F)c6F)c6ccc([nH]6)c(-c6c(F)c(F)c(F)c(F)c6F)c6nc(c(-c7c(F)c(F)c(F)c(F)c7F)c7ccc4[nH]7)C=C6)C=C5)cc3)cc2)cc1
REMARK SMILES IDX 25 1 24 2 22 3 23 4 21 6 18 7 19 8 96 9 20 10 95 11 17 12
REMARK SMILES IDX 9 13 10 14 11 15 16 16 8 17 5 18 6 19 98 20 7 21 97 22 2 23
REMARK SMILES IDX 3 24 4 25 1 26 12 29 13 30 14 31 15 32 26 33 27 34 28 35
REMARK SMILES IDX 29 36 30 37 31 39 32 40 33 41 94 42 34 43 93 44 35 45 36 46
REMARK SMILES IDX 37 47 87 48 38 49 92 50 86 51 88 52 39 53 91 54 85 55 84 56
REMARK SMILES IDX 40 58 72 59 52 60 71 61 53 62 56 63 70 64 89 65 54 66 55 67
REMARK SMILES IDX 69 69 90 70 57 71 41 72 42 73 50 74 43 75 44 76 48 77 51 78
REMARK SMILES IDX 45 79 46 80 49 81 47 82 73 83 74 84 82 85 75 86 76 87 80 88
REMARK SMILES IDX 83 89 77 90 78 91 81 92 79 93 58 94 59 95 67 96 60 97 61 98
REMARK SMILES IDX 65 99 68 100 62 101 63 102 66 103 64 104
REMARK H PARENT 24 5 1 27 1 28 29 38 88 57 56 68
REMARK Flexibility Score: inf
ROOT
ATOM      1  C   UNL A   1      33.288  28.187  24.383  1.00  0.00     0.116 C 
ENDROOT
BRANCH   1   2
ATOM      2  N   UNL A   1      32.293  27.219  23.966  1.00  0.00    -0.352 N 
ATOM      3  C   UNL A   1      32.291  25.847  23.930  1.00  0.00     0.251 C 
ATOM      4  O   UNL A   1      31.263  25.293  23.537  1.00  0.00    -0.269 OA
ATOM      5  H   UNL A   1      31.455  27.625  23.644  1.00  0.00     0.163 HD
BRANCH   3   6
ATOM      6  C   UNL A   1      33.438  25.011  24.384  1.00  0.00     0.039 A 
ATOM      7  C   UNL A   1      35.617  23.375  25.086  1.00  0.00     0.000 A 
ATOM      8  C   UNL A   1      35.386  23.694  23.744  1.00  0.00     0.011 A 
ATOM      9  C   UNL A   1      34.769  23.879  26.070  1.00  0.00     0.011 A 
ATOM     10  C   UNL A   1      34.296  24.499  23.397  1.00  0.00     0.014 A 
ATOM     11  C   UNL A   1      33.725  24.733  25.722  1.00  0.00     0.014 A 
BRANCH   7  12
ATOM     12  C   UNL A   1      36.791  22.621  25.492  1.00  0.00     0.075 A 
ATOM     13  N   UNL A   1      36.851  21.235  25.556  1.00  0.00    -0.233 N 
ATOM     14  N   UNL A   1      38.008  20.808  26.124  1.00  0.00    -0.163 NA
ATOM     15  C   UNL A   1      38.783  21.912  26.193  1.00  0.00     0.167 A 
ATOM     16  C   UNL A   1      38.038  23.070  25.863  1.00  0.00     0.064 A 
BRANCH  13  17
ATOM     17  C   UNL A   1      35.886  20.310  25.076  1.00  0.00     0.065 A 
ATOM     18  C   UNL A   1      33.964  18.439  24.327  1.00  0.00     0.082 A 
ATOM     19  C   UNL A   1      33.564  19.729  24.676  1.00  0.00     0.024 A 
ATOM     20  C   UNL A   1      35.320  18.089  24.317  1.00  0.00     0.024 A 
ATOM     21  C   UNL A   1      34.526  20.661  25.054  1.00  0.00     0.030 A 
ATOM     22  C   UNL A   1      36.289  19.036  24.664  1.00  0.00     0.030 A 
BRANCH  18  23
ATOM     23  S   UNL A   1      32.738  17.235  23.914  1.00  0.00     0.238 S 
ATOM     24  O   UNL A   1      31.674  17.294  24.900  1.00  0.00    -0.207 OA
ATOM     25  O   UNL A   1      33.399  16.015  23.547  1.00  0.00    -0.207 OA
BRANCH  23  26
ATOM     26  N   UNL A   1      32.050  17.843  22.503  1.00  0.00    -0.225 NA
ATOM     27  H   UNL A   1      32.336  18.815  22.378  1.00  0.00     0.137 HD
ATOM     28  H   UNL A   1      31.034  17.794  22.571  1.00  0.00     0.137 HD
ENDBRANCH  23  26
ENDBRANCH  18  23
ENDBRANCH  13  17
BRANCH  15  29
ATOM     29  C   UNL A   1      40.243  21.884  26.563  1.00  0.00     0.435 C 
ATOM     30  F   UNL A   1      40.515  22.554  27.712  1.00  0.00    -0.164 F 
ATOM     31  F   UNL A   1      40.708  20.616  26.712  1.00  0.00    -0.164 F 
ATOM     32  F   UNL A   1      41.013  22.456  25.592  1.00  0.00    -0.164 F 
ENDBRANCH  15  29
ENDBRANCH   7  12
ENDBRANCH   3   6
ENDBRANCH   1   2
BRANCH   1  33
ATOM     33  C   UNL A   1      32.857  28.911  25.663  1.00  0.00     0.023 C 
BRANCH  33  34
ATOM     34  C   UNL A   1      33.542  28.413  26.943  1.00  0.00     0.023 C 
BRANCH  34  35
ATOM     35  C   UNL A   1      34.976  28.899  27.126  1.00  0.00     0.116 C 
BRANCH  35  36
ATOM     36  N   UNL A   1      35.106  29.882  28.197  1.00  0.00    -0.352 N 
ATOM     37  C   UNL A   1      36.097  29.972  29.154  1.00  0.00     0.251 C 
ATOM     38  H   UNL A   1      34.399  30.565  28.245  1.00  0.00     0.163 HD
ATOM     39  O   UNL A   1      35.901  30.551  30.215  1.00  0.00    -0.269 OA
BRANCH  37  40
ATOM     40  C   UNL A   1      37.411  29.373  28.869  1.00  0.00     0.039 A 
ATOM     41  C   UNL A   1      38.136  29.729  27.731  1.00  0.00     0.014 A 
ATOM     42  C   UNL A   1      37.923  28.460  29.790  1.00  0.00     0.014 A 
ATOM     43  C   UNL A   1      39.427  29.230  27.578  1.00  0.00     0.010 A 
ATOM     44  C   UNL A   1      39.237  28.066  29.703  1.00  0.00     0.010 A 
ATOM     45  C   UNL A   1      39.985  28.421  28.585  1.00  0.00    -0.014 A 
BRANCH  45  46
ATOM     46  C   UNL A   1      41.408  28.088  28.562  1.00  0.00     0.031 A 
ATOM     47  C   UNL A   1      41.716  26.854  27.789  1.00  0.00     0.074 A 
ATOM     48  C   UNL A   1      42.381  28.917  29.005  1.00  0.00     0.049 A 
ATOM     49  N   UNL A   1      42.150  25.730  28.253  1.00  0.00    -0.248 NA
ATOM     50  C   UNL A   1      41.368  26.805  26.359  1.00  0.00     0.031 C 
ATOM     51  C   UNL A   1      42.221  30.289  29.503  1.00  0.00     0.029 A 
ATOM     52  N   UNL A   1      43.738  28.752  29.019  1.00  0.00    -0.354 N 
ATOM     53  C   UNL A   1      42.354  24.911  27.144  1.00  0.00     0.074 A 
ATOM     54  C   UNL A   1      41.675  25.544  26.047  1.00  0.00     0.031 C 
ATOM     55  C   UNL A   1      43.424  30.902  29.551  1.00  0.00     0.029 A 
ATOM     56  C   UNL A   1      44.454  29.920  29.267  1.00  0.00     0.049 A 
ATOM     57  H   UNL A   1      44.172  27.881  28.864  1.00  0.00     0.167 HD
ATOM     58  C   UNL A   1      43.324  23.955  27.179  1.00  0.00     0.037 A 
ATOM     59  C   UNL A   1      45.801  30.078  29.266  1.00  0.00     0.037 A 
ATOM     60  C   UNL A   1      43.777  23.754  28.533  1.00  0.00     0.049 A 
ATOM     61  C   UNL A   1      46.402  28.746  29.475  1.00  0.00     0.074 A 
ATOM     62  C   UNL A   1      43.319  23.117  29.664  1.00  0.00     0.029 A 
ATOM     63  N   UNL A   1      44.729  24.654  28.926  1.00  0.00    -0.354 N 
ATOM     64  N   UNL A   1      46.314  28.093  30.599  1.00  0.00    -0.248 NA
ATOM     65  C   UNL A   1      46.834  27.961  28.324  1.00  0.00     0.031 C 
ATOM     66  C   UNL A   1      43.931  23.780  30.772  1.00  0.00     0.029 A 
ATOM     67  C   UNL A   1      44.782  24.770  30.288  1.00  0.00     0.049 A 
ATOM     68  H   UNL A   1      45.304  25.157  28.306  1.00  0.00     0.167 HD
ATOM     69  C   UNL A   1      46.231  26.774  30.211  1.00  0.00     0.074 A 
ATOM     70  C   UNL A   1      46.751  26.736  28.850  1.00  0.00     0.031 C 
ATOM     71  C   UNL A   1      45.432  25.907  30.892  1.00  0.00     0.037 A 
BRANCH  58  72
ATOM     72  C   UNL A   1      44.228  23.579  26.016  1.00  0.00     0.064 A 
ATOM     73  C   UNL A   1      44.361  22.213  25.675  1.00  0.00     0.173 A 
ATOM     74  C   UNL A   1      45.201  24.433  25.454  1.00  0.00     0.173 A 
ATOM     75  F   UNL A   1      43.501  21.302  26.156  1.00  0.00    -0.203 F 
ATOM     76  C   UNL A   1      45.430  21.738  24.909  1.00  0.00     0.198 A 
ATOM     77  C   UNL A   1      46.240  23.959  24.652  1.00  0.00     0.198 A 
ATOM     78  F   UNL A   1      45.264  25.736  25.746  1.00  0.00    -0.203 F 
ATOM     79  F   UNL A   1      45.581  20.419  24.719  1.00  0.00    -0.200 F 
ATOM     80  C   UNL A   1      46.375  22.611  24.405  1.00  0.00     0.200 A 
ATOM     81  F   UNL A   1      47.158  24.821  24.190  1.00  0.00    -0.200 F 
ATOM     82  F   UNL A   1      47.434  22.154  23.725  1.00  0.00    -0.200 F 
ENDBRANCH  58  72
BRANCH  59  83
ATOM     83  C   UNL A   1      46.639  31.260  28.972  1.00  0.00     0.064 A 
ATOM     84  C   UNL A   1      46.881  31.672  27.650  1.00  0.00     0.173 A 
ATOM     85  C   UNL A   1      46.949  32.185  29.986  1.00  0.00     0.173 A 
ATOM     86  F   UNL A   1      46.588  30.857  26.625  1.00  0.00    -0.203 F 
ATOM     87  C   UNL A   1      47.351  32.955  27.355  1.00  0.00     0.198 A 
ATOM     88  C   UNL A   1      47.419  33.466  29.690  1.00  0.00     0.198 A 
ATOM     89  F   UNL A   1      46.700  31.895  31.271  1.00  0.00    -0.203 F 
ATOM     90  F   UNL A   1      47.495  33.337  26.079  1.00  0.00    -0.200 F 
ATOM     91  C   UNL A   1      47.600  33.857  28.375  1.00  0.00     0.200 A 
ATOM     92  F   UNL A   1      47.625  34.344  30.682  1.00  0.00    -0.200 F 
ATOM     93  F   UNL A   1      47.973  35.114  28.091  1.00  0.00    -0.200 F 
ENDBRANCH  59  83
BRANCH  71  94
ATOM     94  C   UNL A   1      45.107  26.260  32.309  1.00  0.00     0.064 A 
ATOM     95  C   UNL A   1      43.962  26.965  32.715  1.00  0.00     0.173 A 
ATOM     96  C   UNL A   1      45.996  25.839  33.304  1.00  0.00     0.173 A 
ATOM     97  F   UNL A   1      43.029  27.337  31.829  1.00  0.00    -0.203 F 
ATOM     98  C   UNL A   1      43.748  27.278  34.056  1.00  0.00     0.198 A 
ATOM     99  C   UNL A   1      45.762  26.119  34.645  1.00  0.00     0.198 A 
ATOM    100  F   UNL A   1      47.087  25.130  32.973  1.00  0.00    -0.203 F 
ATOM    101  F   UNL A   1      42.665  27.979  34.420  1.00  0.00    -0.200 F 
ATOM    102  C   UNL A   1      44.648  26.851  35.021  1.00  0.00     0.200 A 
ATOM    103  F   UNL A   1      46.616  25.670  35.575  1.00  0.00    -0.200 F 
ATOM    104  F   UNL A   1      44.433  27.131  36.313  1.00  0.00    -0.200 F 
ENDBRANCH  71  94
ENDBRANCH  45  46
ENDBRANCH  37  40
ENDBRANCH  35  36
ENDBRANCH  34  35
ENDBRANCH  33  34
ENDBRANCH   1  33
TORSDOF 16
ENDMDL
MODEL 3
REMARK VINA RESULT:     -13.3      1.042      1.966
REMARK SMILES NS(=O)(=O)c1ccc(-n2nc(C(F)(F)F)cc2-c2ccc(C(=O)NCCCCNC(=O)c3ccc(-c4c5nc(c(-c6c(F)c(F)c(F)c(F)c6F)c6ccc([nH]6)c(-c6c(F)c(F)c(F)c(F)c6F)c6nc(c(-c7c(F)c(F)c(F)c(F)c7F)c7ccc4[nH]7)C=C6)C=C5)cc3)cc2)cc1
REMARK SMILES IDX 25 1 24 2 22 3 23 4 21 6 18 7 19 8 96 9 20 10 95 11 17 12
REMARK SMILES IDX 9 13 10 14 11 15 16 16 8 17 5 18 6 19 98 20 7 21 97 22 2 23
REMARK SMILES IDX 3 24 4 25 1 26 12 29 13 30 14 31 15 32 26 33 27 34 28 35
REMARK SMILES IDX 29 36 30 37 31 39 32 40 33 41 94 42 34 43 93 44 35 45 36 46
REMARK SMILES IDX 37 47 87 48 38 49 92 50 86 51 88 52 39 53 91 54 85 55 84 56
REMARK SMILES IDX 40 58 72 59 52 60 71 61 53 62 56 63 70 64 89 65 54 66 55 67
REMARK SMILES IDX 69 69 90 70 57 71 41 72 42 73 50 74 43 75 44 76 48 77 51 78
REMARK SMILES IDX 45 79 46 80 49 81 47 82 73 83 74 84 82 85 75 86 76 87 80 88
REMARK SMILES IDX 83 89 77 90 78 91 81 92 79 93 58 94 59 95 67 96 60 97 61 98
REMARK SMILES IDX 65 99 68 100 62 101 63 102 66 103 64 104
REMARK H PARENT 24 5 1 27 1 28 29 38 88 57 56 68
REMARK Flexibility Score: inf
ROOT
ATOM      1  C   UNL A   1      34.150  21.620  25.368  1.00  0.00     0.116 C 
ENDROOT
BRANCH   1   2
ATOM      2  N   UNL A   1      33.070  21.812  24.420  1.00  0.00    -0.352 N 
ATOM      3  C   UNL A   1      32.410  22.932  23.981  1.00  0.00     0.251 C 
ATOM      4  O   UNL A   1      31.531  22.774  23.132  1.00  0.00    -0.269 OA
ATOM      5  H   UNL A   1      32.746  20.976  24.013  1.00  0.00     0.163 HD
BRANCH   3   6
ATOM      6  C   UNL A   1      32.736  24.312  24.440  1.00  0.00     0.039 A 
ATOM      7  C   UNL A   1      33.221  26.909  25.407  1.00  0.00     0.000 A 
ATOM      8  C   UNL A   1      32.418  26.029  26.139  1.00  0.00     0.011 A 
ATOM      9  C   UNL A   1      33.785  26.490  24.204  1.00  0.00     0.011 A 
ATOM     10  C   UNL A   1      32.170  24.742  25.650  1.00  0.00     0.014 A 
ATOM     11  C   UNL A   1      33.587  25.184  23.758  1.00  0.00     0.014 A 
BRANCH   7  12
ATOM     12  C   UNL A   1      33.577  28.219  25.927  1.00  0.00     0.075 A 
ATOM     13  N   UNL A   1      32.894  29.392  25.635  1.00  0.00    -0.233 N 
ATOM     14  N   UNL A   1      33.541  30.483  26.120  1.00  0.00    -0.163 NA
ATOM     15  C   UNL A   1      34.499  29.982  26.929  1.00  0.00     0.167 A 
ATOM     16  C   UNL A   1      34.589  28.575  26.789  1.00  0.00     0.064 A 
BRANCH  13  17
ATOM     17  C   UNL A   1      31.654  29.518  24.955  1.00  0.00     0.065 A 
ATOM     18  C   UNL A   1      29.324  29.847  23.466  1.00  0.00     0.082 A 
ATOM     19  C   UNL A   1      30.076  28.683  23.310  1.00  0.00     0.024 A 
ATOM     20  C   UNL A   1      29.711  30.832  24.383  1.00  0.00     0.024 A 
ATOM     21  C   UNL A   1      31.243  28.523  24.053  1.00  0.00     0.030 A 
ATOM     22  C   UNL A   1      30.865  30.655  25.154  1.00  0.00     0.030 A 
BRANCH  18  23
ATOM     23  S   UNL A   1      27.881  30.083  22.472  1.00  0.00     0.238 S 
ATOM     24  O   UNL A   1      28.227  29.850  21.082  1.00  0.00    -0.207 OA
ATOM     25  O   UNL A   1      27.202  31.264  22.923  1.00  0.00    -0.207 OA
BRANCH  23  26
ATOM     26  N   UNL A   1      26.898  28.783  22.895  1.00  0.00    -0.225 NA
ATOM     27  H   UNL A   1      25.968  29.126  23.137  1.00  0.00     0.137 HD
ATOM     28  H   UNL A   1      27.301  28.299  23.697  1.00  0.00     0.137 HD
ENDBRANCH  23  26
ENDBRANCH  18  23
ENDBRANCH  13  17
BRANCH  15  29
ATOM     29  C   UNL A   1      35.336  30.826  27.854  1.00  0.00     0.435 C 
ATOM     30  F   UNL A   1      35.149  32.159  27.676  1.00  0.00    -0.164 F 
ATOM     31  F   UNL A   1      35.085  30.552  29.162  1.00  0.00    -0.164 F 
ATOM     32  F   UNL A   1      36.668  30.596  27.669  1.00  0.00    -0.164 F 
ENDBRANCH  15  29
ENDBRANCH   7  12
ENDBRANCH   3   6
ENDBRANCH   1   2
BRANCH   1  33
ATOM     33  C   UNL A   1      35.444  22.280  24.878  1.00  0.00     0.023 C 
BRANCH  33  34
ATOM     34  C   UNL A   1      36.149  23.161  25.919  1.00  0.00     0.023 C 
BRANCH  34  35
ATOM     35  C   UNL A   1      37.640  23.363  25.675  1.00  0.00     0.116 C 
BRANCH  35  36
ATOM     36  N   UNL A   1      38.469  22.464  26.473  1.00  0.00    -0.352 N 
ATOM     37  C   UNL A   1      39.707  22.716  27.029  1.00  0.00     0.251 C 
ATOM     38  H   UNL A   1      38.100  21.565  26.634  1.00  0.00     0.163 HD
ATOM     39  O   UNL A   1      40.473  21.803  27.311  1.00  0.00    -0.269 OA
BRANCH  37  40
ATOM     40  C   UNL A   1      40.090  24.112  27.296  1.00  0.00     0.039 A 
ATOM     41  C   UNL A   1      39.471  25.172  26.631  1.00  0.00     0.014 A 
ATOM     42  C   UNL A   1      41.070  24.345  28.260  1.00  0.00     0.014 A 
ATOM     43  C   UNL A   1      39.780  26.474  27.016  1.00  0.00     0.010 A 
ATOM     44  C   UNL A   1      41.283  25.621  28.724  1.00  0.00     0.010 A 
ATOM     45  C   UNL A   1      40.666  26.692  28.087  1.00  0.00    -0.014 A 
BRANCH  45  46
ATOM     46  C   UNL A   1      40.816  28.028  28.661  1.00  0.00     0.031 A 
ATOM     47  C   UNL A   1      41.938  28.806  28.067  1.00  0.00     0.074 A 
ATOM     48  C   UNL A   1      39.911  28.596  29.489  1.00  0.00     0.049 A 
ATOM     49  N   UNL A   1      43.032  29.166  28.650  1.00  0.00    -0.248 NA
ATOM     50  C   UNL A   1      41.918  29.095  26.623  1.00  0.00     0.031 C 
ATOM     51  C   UNL A   1      38.612  28.046  29.898  1.00  0.00     0.029 A 
ATOM     52  N   UNL A   1      39.906  29.834  30.072  1.00  0.00    -0.354 N 
ATOM     53  C   UNL A   1      43.731  29.930  27.716  1.00  0.00     0.074 A 
ATOM     54  C   UNL A   1      43.103  29.684  26.447  1.00  0.00     0.031 C 
ATOM     55  C   UNL A   1      37.860  29.017  30.461  1.00  0.00     0.029 A 
ATOM     56  C   UNL A   1      38.681  30.202  30.621  1.00  0.00     0.049 A 
ATOM     57  H   UNL A   1      40.702  30.414  30.099  1.00  0.00     0.167 HD
ATOM     58  C   UNL A   1      44.558  30.926  28.140  1.00  0.00     0.037 A 
ATOM     59  C   UNL A   1      38.358  31.389  31.192  1.00  0.00     0.037 A 
ATOM     60  C   UNL A   1      44.807  30.799  29.554  1.00  0.00     0.049 A 
ATOM     61  C   UNL A   1      39.617  32.036  31.611  1.00  0.00     0.074 A 
ATOM     62  C   UNL A   1      45.582  30.011  30.374  1.00  0.00     0.029 A 
ATOM     63  N   UNL A   1      43.829  31.359  30.330  1.00  0.00    -0.354 N 
ATOM     64  N   UNL A   1      40.361  31.585  32.580  1.00  0.00    -0.248 NA
ATOM     65  C   UNL A   1      40.249  33.017  30.735  1.00  0.00     0.031 C 
ATOM     66  C   UNL A   1      44.937  30.003  31.649  1.00  0.00     0.029 A 
ATOM     67  C   UNL A   1      43.814  30.824  31.588  1.00  0.00     0.049 A 
ATOM     68  H   UNL A   1      43.211  32.060  30.020  1.00  0.00     0.167 HD
ATOM     69  C   UNL A   1      41.645  31.865  32.168  1.00  0.00     0.074 A 
ATOM     70  C   UNL A   1      41.512  32.902  31.154  1.00  0.00     0.031 C 
ATOM     71  C   UNL A   1      42.656  30.990  32.431  1.00  0.00     0.037 A 
BRANCH  58  72
ATOM     72  C   UNL A   1      44.726  32.276  27.461  1.00  0.00     0.064 A 
ATOM     73  C   UNL A   1      45.907  32.520  26.722  1.00  0.00     0.173 A 
ATOM     74  C   UNL A   1      43.965  33.423  27.769  1.00  0.00     0.173 A 
ATOM     75  F   UNL A   1      46.719  31.510  26.377  1.00  0.00    -0.203 F 
ATOM     76  C   UNL A   1      46.329  33.815  26.400  1.00  0.00     0.198 A 
ATOM     77  C   UNL A   1      44.367  34.710  27.405  1.00  0.00     0.198 A 
ATOM     78  F   UNL A   1      42.869  33.372  28.531  1.00  0.00    -0.203 F 
ATOM     79  F   UNL A   1      47.518  34.001  25.810  1.00  0.00    -0.200 F 
ATOM     80  C   UNL A   1      45.562  34.909  26.749  1.00  0.00     0.200 A 
ATOM     81  F   UNL A   1      43.619  35.759  27.772  1.00  0.00    -0.200 F 
ATOM     82  F   UNL A   1      45.993  36.153  26.500  1.00  0.00    -0.200 F 
ENDBRANCH  58  72
BRANCH  59  83
ATOM     83  C   UNL A   1      37.060  32.091  31.302  1.00  0.00     0.064 A 
ATOM     84  C   UNL A   1      36.343  32.110  32.511  1.00  0.00     0.173 A 
ATOM     85  C   UNL A   1      36.665  33.018  30.321  1.00  0.00     0.173 A 
ATOM     86  F   UNL A   1      36.675  31.274  33.506  1.00  0.00    -0.203 F 
ATOM     87  C   UNL A   1      35.326  33.039  32.746  1.00  0.00     0.198 A 
ATOM     88  C   UNL A   1      35.648  33.946  30.557  1.00  0.00     0.198 A 
ATOM     89  F   UNL A   1      37.330  33.105  29.159  1.00  0.00    -0.203 F 
ATOM     90  F   UNL A   1      34.717  33.076  33.939  1.00  0.00    -0.200 F 
ATOM     91  C   UNL A   1      34.993  33.969  31.776  1.00  0.00     0.200 A 
ATOM     92  F   UNL A   1      35.357  34.864  29.625  1.00  0.00    -0.200 F 
ATOM     93  F   UNL A   1      34.075  34.913  32.029  1.00  0.00    -0.200 F 
ENDBRANCH  59  83
BRANCH  71  94
ATOM     94  C   UNL A   1      42.459  30.058  33.585  1.00  0.00     0.064 A 
ATOM     95  C   UNL A   1      42.708  30.385  34.928  1.00  0.00     0.173 A 
ATOM     96  C   UNL A   1      41.970  28.776  33.309  1.00  0.00     0.173 A 
ATOM     97  F   UNL A   1      43.107  31.614  35.277  1.00  0.00    -0.203 F 
ATOM     98  C   UNL A   1      42.524  29.446  35.942  1.00  0.00     0.198 A 
ATOM     99  C   UNL A   1      41.751  27.854  34.325  1.00  0.00     0.198 A 
ATOM    100  F   UNL A   1      41.679  28.426  32.046  1.00  0.00    -0.203 F 
ATOM    101  F   UNL A   1      42.798  29.768  37.214  1.00  0.00    -0.200 F 
ATOM    102  C   UNL A   1      42.042  28.183  35.639  1.00  0.00     0.200 A 
ATOM    103  F   UNL A   1      41.249  26.647  34.030  1.00  0.00    -0.200 F 
ATOM    104  F   UNL A   1      41.843  27.287  36.615  1.00  0.00    -0.200 F 
ENDBRANCH  71  94
ENDBRANCH  45  46
ENDBRANCH  37  40
ENDBRANCH  35  36
ENDBRANCH  34  35
ENDBRANCH  33  34
ENDBRANCH   1  33
TORSDOF 16
ENDMDL
