MODEL 1
REMARK VINA RESULT:     -11.9      0.000      0.000
REMARK SMILES CC[NH2+][C@@]1(C(=O)NCCCCNC(=O)c2ccc(-c3c4nc(c(-c5c(F)c(F)c(F)c(F)c5F)c5ccc([nH]5)c(-c5c(F)c(F)c(F)c(F)c5F)c5nc(c(-c6c(F)c(F)c(F)c(F)c6F)c6ccc3[nH]6)C=C5)C=C4)cc2)CCC[C@@H]([N@@H+](C)[C@@H](C)C2CC2)C1
REMARK SMILES IDX 9 1 8 2 7 3 5 4 6 5 4 7 78 8 89 9 79 10 81 11 80 12 3 13
REMARK SMILES IDX 2 16 1 17 82 18 83 19 84 21 85 22 86 23 87 24 88 25 10 26
REMARK SMILES IDX 11 27 12 28 13 29 14 31 15 32 16 33 77 34 17 35 76 36 18 37
REMARK SMILES IDX 19 38 20 39 70 40 21 41 75 42 69 43 71 44 22 45 74 46 68 47
REMARK SMILES IDX 67 48 23 50 55 51 35 52 54 53 36 54 39 55 53 56 72 57 37 58
REMARK SMILES IDX 38 59 52 61 73 62 40 63 24 64 25 65 33 66 26 67 27 68 31 69
REMARK SMILES IDX 34 70 28 71 29 72 32 73 30 74 56 75 57 76 65 77 58 78 59 79
REMARK SMILES IDX 63 80 66 81 60 82 61 83 64 84 62 85 41 86 42 87 50 88 43 89
REMARK SMILES IDX 44 90 48 91 51 92 45 93 46 94 49 95 47 96
REMARK H PARENT 7 6 3 14 3 15 82 20 12 30 71 49 39 60
REMARK Flexibility Score: inf
ROOT
ATOM      1  C   UNL A   1      32.202  27.425  26.774  1.00  0.00     0.023 C 
ENDROOT
BRANCH   1   2
ATOM      2  C   UNL A   1      31.419  26.522  25.822  1.00  0.00     0.116 C 
BRANCH   2   3
ATOM      3  N   UNL A   1      30.741  25.461  26.515  1.00  0.00    -0.351 N 
ATOM      4  C   UNL A   1      30.938  24.122  26.606  1.00  0.00     0.281 C 
ATOM      5  O   UNL A   1      30.041  23.564  27.254  1.00  0.00    -0.268 OA
ATOM      6  H   UNL A   1      29.967  25.773  27.036  1.00  0.00     0.163 HD
BRANCH   4   7
ATOM      7  C   UNL A   1      32.154  23.313  25.949  1.00  0.00     0.181 C 
ATOM      8  C   UNL A   1      33.465  23.305  26.777  1.00  0.00     0.079 C 
ATOM      9  C   UNL A   1      32.340  23.746  24.464  1.00  0.00     0.144 C 
ATOM     10  C   UNL A   1      34.606  24.222  26.356  1.00  0.00     0.013 C 
ATOM     11  C   UNL A   1      33.528  24.660  24.104  1.00  0.00     0.190 C 
ATOM     12  C   UNL A   1      34.806  24.277  24.847  1.00  0.00     0.065 C 
BRANCH   7  13
ATOM     13  N   UNL A   1      31.699  21.867  25.833  1.00  0.00    -0.334 N 
ATOM     14  H   UNL A   1      31.946  21.398  26.705  1.00  0.00     0.347 HD
ATOM     15  H   UNL A   1      30.700  21.925  25.634  1.00  0.00     0.347 HD
BRANCH  13  16
ATOM     16  C   UNL A   1      32.249  21.069  24.736  1.00  0.00     0.257 C 
ATOM     17  C   UNL A   1      32.866  19.802  25.319  1.00  0.00     0.071 C 
ENDBRANCH  13  16
ENDBRANCH   7  13
BRANCH  11  18
ATOM     18  N   UNL A   1      33.600  24.898  22.635  1.00  0.00    -0.332 N 
ATOM     19  C   UNL A   1      33.175  23.682  21.914  1.00  0.00     0.333 C 
ATOM     20  H   UNL A   1      34.589  25.141  22.567  1.00  0.00     0.348 HD
BRANCH  18  21
ATOM     21  C   UNL A   1      33.021  26.090  21.972  1.00  0.00     0.184 C 
ATOM     22  C   UNL A   1      31.491  26.215  21.937  1.00  0.00     0.075 C 
BRANCH  21  23
ATOM     23  C   UNL A   1      33.642  27.452  22.195  1.00  0.00     0.047 C 
ATOM     24  C   UNL A   1      32.906  28.643  22.743  1.00  0.00     0.010 C 
ATOM     25  C   UNL A   1      34.025  28.011  23.540  1.00  0.00     0.010 C 
ENDBRANCH  21  23
ENDBRANCH  18  21
ENDBRANCH  11  18
ENDBRANCH   4   7
ENDBRANCH   2   3
ENDBRANCH   1   2
BRANCH   1  26
ATOM     26  C   UNL A   1      31.737  28.875  26.824  1.00  0.00     0.023 C 
BRANCH  26  27
ATOM     27  C   UNL A   1      32.777  29.894  26.375  1.00  0.00     0.116 C 
BRANCH  27  28
ATOM     28  N   UNL A   1      32.540  31.259  26.832  1.00  0.00    -0.352 N 
ATOM     29  C   UNL A   1      33.416  32.058  27.535  1.00  0.00     0.251 C 
ATOM     30  H   UNL A   1      31.664  31.651  26.618  1.00  0.00     0.163 HD
ATOM     31  O   UNL A   1      33.107  33.182  27.911  1.00  0.00    -0.269 OA
BRANCH  29  32
ATOM     32  C   UNL A   1      34.730  31.482  27.876  1.00  0.00     0.039 A 
ATOM     33  C   UNL A   1      35.810  32.341  28.075  1.00  0.00     0.014 A 
ATOM     34  C   UNL A   1      34.818  30.124  28.186  1.00  0.00     0.014 A 
ATOM     35  C   UNL A   1      36.963  31.850  28.685  1.00  0.00     0.010 A 
ATOM     36  C   UNL A   1      35.928  29.661  28.875  1.00  0.00     0.010 A 
ATOM     37  C   UNL A   1      37.006  30.521  29.141  1.00  0.00    -0.014 A 
BRANCH  37  38
ATOM     38  C   UNL A   1      38.165  30.005  29.909  1.00  0.00     0.031 A 
ATOM     39  C   UNL A   1      38.369  30.448  31.328  1.00  0.00     0.074 A 
ATOM     40  C   UNL A   1      39.079  29.223  29.301  1.00  0.00     0.049 A 
ATOM     41  N   UNL A   1      39.363  30.196  32.141  1.00  0.00    -0.248 NA
ATOM     42  C   UNL A   1      37.339  31.332  31.895  1.00  0.00     0.031 C 
ATOM     43  C   UNL A   1      39.029  28.784  27.905  1.00  0.00     0.029 A 
ATOM     44  N   UNL A   1      40.236  28.665  29.783  1.00  0.00    -0.354 N 
ATOM     45  C   UNL A   1      39.096  30.920  33.293  1.00  0.00     0.074 A 
ATOM     46  C   UNL A   1      37.878  31.664  33.057  1.00  0.00     0.031 C 
ATOM     47  C   UNL A   1      40.085  27.992  27.655  1.00  0.00     0.029 A 
ATOM     48  C   UNL A   1      40.900  27.894  28.862  1.00  0.00     0.049 A 
ATOM     49  H   UNL A   1      40.560  28.804  30.703  1.00  0.00     0.167 HD
ATOM     50  C   UNL A   1      39.790  30.943  34.455  1.00  0.00     0.037 A 
ATOM     51  C   UNL A   1      42.037  27.181  28.984  1.00  0.00     0.037 A 
ATOM     52  C   UNL A   1      40.964  30.152  34.706  1.00  0.00     0.049 A 
ATOM     53  C   UNL A   1      42.763  27.181  30.301  1.00  0.00     0.074 A 
ATOM     54  C   UNL A   1      41.680  30.018  35.881  1.00  0.00     0.029 A 
ATOM     55  N   UNL A   1      41.587  29.351  33.760  1.00  0.00    -0.354 N 
ATOM     56  N   UNL A   1      42.458  27.803  31.414  1.00  0.00    -0.248 NA
ATOM     57  C   UNL A   1      43.989  26.376  30.380  1.00  0.00     0.031 C 
ATOM     58  C   UNL A   1      42.756  29.156  35.639  1.00  0.00     0.029 A 
ATOM     59  C   UNL A   1      42.690  28.730  34.321  1.00  0.00     0.049 A 
ATOM     60  H   UNL A   1      41.290  29.241  32.829  1.00  0.00     0.167 HD
ATOM     61  C   UNL A   1      43.435  27.445  32.331  1.00  0.00     0.074 A 
ATOM     62  C   UNL A   1      44.339  26.543  31.648  1.00  0.00     0.031 C 
ATOM     63  C   UNL A   1      43.569  27.826  33.625  1.00  0.00     0.037 A 
BRANCH  50  64
ATOM     64  C   UNL A   1      39.283  31.849  35.537  1.00  0.00     0.064 A 
ATOM     65  C   UNL A   1      39.686  33.190  35.624  1.00  0.00     0.173 A 
ATOM     66  C   UNL A   1      38.392  31.366  36.507  1.00  0.00     0.173 A 
ATOM     67  F   UNL A   1      40.552  33.694  34.732  1.00  0.00    -0.203 F 
ATOM     68  C   UNL A   1      39.251  34.003  36.667  1.00  0.00     0.198 A 
ATOM     69  C   UNL A   1      37.934  32.192  37.531  1.00  0.00     0.198 A 
ATOM     70  F   UNL A   1      37.974  30.093  36.469  1.00  0.00    -0.203 F 
ATOM     71  F   UNL A   1      39.702  35.261  36.766  1.00  0.00    -0.200 F 
ATOM     72  C   UNL A   1      38.372  33.505  37.617  1.00  0.00     0.200 A 
ATOM     73  F   UNL A   1      37.079  31.711  38.444  1.00  0.00    -0.200 F 
ATOM     74  F   UNL A   1      37.958  34.286  38.623  1.00  0.00    -0.200 F 
ENDBRANCH  50  64
BRANCH  51  75
ATOM     75  C   UNL A   1      42.520  26.355  27.849  1.00  0.00     0.064 A 
ATOM     76  C   UNL A   1      43.463  26.871  26.949  1.00  0.00     0.173 A 
ATOM     77  C   UNL A   1      42.067  25.045  27.643  1.00  0.00     0.173 A 
ATOM     78  F   UNL A   1      43.911  28.126  27.097  1.00  0.00    -0.203 F 
ATOM     79  C   UNL A   1      43.925  26.113  25.876  1.00  0.00     0.198 A 
ATOM     80  C   UNL A   1      42.545  24.280  26.581  1.00  0.00     0.198 A 
ATOM     81  F   UNL A   1      41.170  24.506  28.480  1.00  0.00    -0.203 F 
ATOM     82  F   UNL A   1      44.802  26.642  25.012  1.00  0.00    -0.200 F 
ATOM     83  C   UNL A   1      43.470  24.815  25.696  1.00  0.00     0.200 A 
ATOM     84  F   UNL A   1      42.112  23.023  26.414  1.00  0.00    -0.200 F 
ATOM     85  F   UNL A   1      43.918  24.084  24.666  1.00  0.00    -0.200 F 
ENDBRANCH  51  75
BRANCH  63  86
ATOM     86  C   UNL A   1      44.715  27.244  34.395  1.00  0.00     0.064 A 
ATOM     87  C   UNL A   1      45.946  27.909  34.491  1.00  0.00     0.173 A 
ATOM     88  C   UNL A   1      44.563  26.032  35.082  1.00  0.00     0.173 A 
ATOM     89  F   UNL A   1      46.142  29.064  33.836  1.00  0.00    -0.203 F 
ATOM     90  C   UNL A   1      46.990  27.371  35.237  1.00  0.00     0.198 A 
ATOM     91  C   UNL A   1      45.601  25.509  35.848  1.00  0.00     0.198 A 
ATOM     92  F   UNL A   1      43.402  25.362  35.023  1.00  0.00    -0.203 F 
ATOM     93  F   UNL A   1      48.170  28.004  35.288  1.00  0.00    -0.200 F 
ATOM     94  C   UNL A   1      46.815  26.176  35.921  1.00  0.00     0.200 A 
ATOM     95  F   UNL A   1      45.428  24.359  36.514  1.00  0.00    -0.200 F 
ATOM     96  F   UNL A   1      47.819  25.664  36.645  1.00  0.00    -0.200 F 
ENDBRANCH  63  86
ENDBRANCH  37  38
ENDBRANCH  29  32
ENDBRANCH  27  28
ENDBRANCH  26  27
ENDBRANCH   1  26
TORSDOF 16
ENDMDL
MODEL 2
REMARK VINA RESULT:     -11.9      0.565      7.420
REMARK SMILES CC[NH2+][C@@]1(C(=O)NCCCCNC(=O)c2ccc(-c3c4nc(c(-c5c(F)c(F)c(F)c(F)c5F)c5ccc([nH]5)c(-c5c(F)c(F)c(F)c(F)c5F)c5nc(c(-c6c(F)c(F)c(F)c(F)c6F)c6ccc3[nH]6)C=C5)C=C4)cc2)CCC[C@@H]([N@@H+](C)[C@@H](C)C2CC2)C1
REMARK SMILES IDX 9 1 8 2 7 3 5 4 6 5 4 7 78 8 89 9 79 10 81 11 80 12 3 13
REMARK SMILES IDX 2 16 1 17 82 18 83 19 84 21 85 22 86 23 87 24 88 25 10 26
REMARK SMILES IDX 11 27 12 28 13 29 14 31 15 32 16 33 77 34 17 35 76 36 18 37
REMARK SMILES IDX 19 38 20 39 70 40 21 41 75 42 69 43 71 44 22 45 74 46 68 47
REMARK SMILES IDX 67 48 23 50 55 51 35 52 54 53 36 54 39 55 53 56 72 57 37 58
REMARK SMILES IDX 38 59 52 61 73 62 40 63 24 64 25 65 33 66 26 67 27 68 31 69
REMARK SMILES IDX 34 70 28 71 29 72 32 73 30 74 56 75 57 76 65 77 58 78 59 79
REMARK SMILES IDX 63 80 66 81 60 82 61 83 64 84 62 85 41 86 42 87 50 88 43 89
REMARK SMILES IDX 44 90 48 91 51 92 45 93 46 94 49 95 47 96
REMARK H PARENT 7 6 3 14 3 15 82 20 12 30 71 49 39 60
REMARK Flexibility Score: inf
ROOT
ATOM      1  C   UNL A   1      31.663  27.518  26.935  1.00  0.00     0.023 C 
ENDROOT
BRANCH   1   2
ATOM      2  C   UNL A   1      31.991  26.163  26.310  1.00  0.00     0.116 C 
BRANCH   2   3
ATOM      3  N   UNL A   1      31.150  25.114  26.816  1.00  0.00    -0.351 N 
ATOM      4  C   UNL A   1      31.192  23.759  26.748  1.00  0.00     0.281 C 
ATOM      5  O   UNL A   1      30.191  23.237  27.260  1.00  0.00    -0.268 OA
ATOM      6  H   UNL A   1      30.376  25.450  27.322  1.00  0.00     0.163 HD
BRANCH   4   7
ATOM      7  C   UNL A   1      32.361  22.897  26.073  1.00  0.00     0.181 C 
ATOM      8  C   UNL A   1      33.675  22.814  26.890  1.00  0.00     0.079 C 
ATOM      9  C   UNL A   1      32.558  23.337  24.591  1.00  0.00     0.144 C 
ATOM     10  C   UNL A   1      34.859  23.677  26.471  1.00  0.00     0.013 C 
ATOM     11  C   UNL A   1      33.788  24.194  24.232  1.00  0.00     0.190 C 
ATOM     12  C   UNL A   1      35.050  23.738  24.960  1.00  0.00     0.065 C 
BRANCH   7  13
ATOM     13  N   UNL A   1      31.833  21.478  25.945  1.00  0.00    -0.334 N 
ATOM     14  H   UNL A   1      32.174  20.951  26.749  1.00  0.00     0.347 HD
ATOM     15  H   UNL A   1      30.820  21.583  25.887  1.00  0.00     0.347 HD
BRANCH  13  16
ATOM     16  C   UNL A   1      32.196  20.725  24.743  1.00  0.00     0.257 C 
ATOM     17  C   UNL A   1      33.077  19.549  25.154  1.00  0.00     0.071 C 
ENDBRANCH  13  16
ENDBRANCH   7  13
BRANCH  11  18
ATOM     18  N   UNL A   1      33.862  24.445  22.765  1.00  0.00    -0.332 N 
ATOM     19  C   UNL A   1      33.202  23.341  22.039  1.00  0.00     0.333 C 
ATOM     20  H   UNL A   1      34.876  24.505  22.670  1.00  0.00     0.348 HD
BRANCH  18  21
ATOM     21  C   UNL A   1      33.492  25.735  22.137  1.00  0.00     0.184 C 
ATOM     22  C   UNL A   1      32.441  25.710  21.017  1.00  0.00     0.075 C 
BRANCH  21  23
ATOM     23  C   UNL A   1      33.290  26.961  23.001  1.00  0.00     0.047 C 
ATOM     24  C   UNL A   1      34.024  28.261  22.819  1.00  0.00     0.010 C 
ATOM     25  C   UNL A   1      32.533  28.194  22.581  1.00  0.00     0.010 C 
ENDBRANCH  21  23
ENDBRANCH  18  21
ENDBRANCH  11  18
ENDBRANCH   4   7
ENDBRANCH   2   3
ENDBRANCH   1   2
BRANCH   1  26
ATOM     26  C   UNL A   1      31.680  28.699  25.972  1.00  0.00     0.023 C 
BRANCH  26  27
ATOM     27  C   UNL A   1      32.847  29.660  26.164  1.00  0.00     0.116 C 
BRANCH  27  28
ATOM     28  N   UNL A   1      32.474  31.007  26.583  1.00  0.00    -0.352 N 
ATOM     29  C   UNL A   1      33.251  31.894  27.296  1.00  0.00     0.251 C 
ATOM     30  H   UNL A   1      31.574  31.313  26.332  1.00  0.00     0.163 HD
ATOM     31  O   UNL A   1      32.830  32.993  27.637  1.00  0.00    -0.269 OA
BRANCH  29  32
ATOM     32  C   UNL A   1      34.598  31.445  27.691  1.00  0.00     0.039 A 
ATOM     33  C   UNL A   1      35.598  32.400  27.878  1.00  0.00     0.014 A 
ATOM     34  C   UNL A   1      34.791  30.112  28.060  1.00  0.00     0.014 A 
ATOM     35  C   UNL A   1      36.771  32.032  28.535  1.00  0.00     0.010 A 
ATOM     36  C   UNL A   1      35.918  29.773  28.794  1.00  0.00     0.010 A 
ATOM     37  C   UNL A   1      36.913  30.731  29.047  1.00  0.00    -0.014 A 
BRANCH  37  38
ATOM     38  C   UNL A   1      38.089  30.345  29.863  1.00  0.00     0.031 A 
ATOM     39  C   UNL A   1      39.109  29.404  29.294  1.00  0.00     0.074 A 
ATOM     40  C   UNL A   1      38.185  30.761  31.141  1.00  0.00     0.049 A 
ATOM     41  N   UNL A   1      40.153  28.865  29.869  1.00  0.00    -0.248 NA
ATOM     42  C   UNL A   1      38.901  28.972  27.903  1.00  0.00     0.031 C 
ATOM     43  C   UNL A   1      37.220  31.620  31.831  1.00  0.00     0.029 A 
ATOM     44  N   UNL A   1      39.142  30.508  32.092  1.00  0.00    -0.354 N 
ATOM     45  C   UNL A   1      40.698  28.006  28.925  1.00  0.00     0.074 A 
ATOM     46  C   UNL A   1      39.841  28.052  27.761  1.00  0.00     0.031 C 
ATOM     47  C   UNL A   1      37.655  31.855  33.080  1.00  0.00     0.029 A 
ATOM     48  C   UNL A   1      38.910  31.140  33.288  1.00  0.00     0.049 A 
ATOM     49  H   UNL A   1      39.922  29.928  31.931  1.00  0.00     0.167 HD
ATOM     50  C   UNL A   1      41.827  27.264  29.012  1.00  0.00     0.037 A 
ATOM     51  C   UNL A   1      39.637  31.146  34.422  1.00  0.00     0.037 A 
ATOM     52  C   UNL A   1      42.709  27.272  30.147  1.00  0.00     0.049 A 
ATOM     53  C   UNL A   1      40.915  30.354  34.477  1.00  0.00     0.074 A 
ATOM     54  C   UNL A   1      43.932  26.643  30.295  1.00  0.00     0.029 A 
ATOM     55  N   UNL A   1      42.461  27.956  31.328  1.00  0.00    -0.354 N 
ATOM     56  N   UNL A   1      41.467  29.610  33.550  1.00  0.00    -0.248 NA
ATOM     57  C   UNL A   1      41.673  30.408  35.735  1.00  0.00     0.031 C 
ATOM     58  C   UNL A   1      44.412  26.923  31.580  1.00  0.00     0.029 A 
ATOM     59  C   UNL A   1      43.503  27.752  32.219  1.00  0.00     0.049 A 
ATOM     60  H   UNL A   1      41.664  28.503  31.508  1.00  0.00     0.167 HD
ATOM     61  C   UNL A   1      42.648  29.130  34.099  1.00  0.00     0.074 A 
ATOM     62  C   UNL A   1      42.736  29.674  35.438  1.00  0.00     0.031 C 
ATOM     63  C   UNL A   1      43.575  28.314  33.543  1.00  0.00     0.037 A 
BRANCH  50  64
ATOM     64  C   UNL A   1      42.166  26.394  27.839  1.00  0.00     0.064 A 
ATOM     65  C   UNL A   1      41.621  25.109  27.693  1.00  0.00     0.173 A 
ATOM     66  C   UNL A   1      43.056  26.846  26.854  1.00  0.00     0.173 A 
ATOM     67  F   UNL A   1      40.779  24.624  28.617  1.00  0.00    -0.203 F 
ATOM     68  C   UNL A   1      41.988  24.292  26.628  1.00  0.00     0.198 A 
ATOM     69  C   UNL A   1      43.397  26.037  25.772  1.00  0.00     0.198 A 
ATOM     70  F   UNL A   1      43.604  28.067  26.945  1.00  0.00    -0.203 F 
ATOM     71  F   UNL A   1      41.506  23.044  26.545  1.00  0.00    -0.200 F 
ATOM     72  C   UNL A   1      42.873  24.758  25.666  1.00  0.00     0.200 A 
ATOM     73  F   UNL A   1      44.246  26.492  24.840  1.00  0.00    -0.200 F 
ATOM     74  F   UNL A   1      43.230  23.968  24.645  1.00  0.00    -0.200 F 
ENDBRANCH  50  64
BRANCH  51  75
ATOM     75  C   UNL A   1      39.209  31.979  35.574  1.00  0.00     0.064 A 
ATOM     76  C   UNL A   1      38.367  31.447  36.560  1.00  0.00     0.173 A 
ATOM     77  C   UNL A   1      39.633  33.307  35.722  1.00  0.00     0.173 A 
ATOM     78  F   UNL A   1      37.922  30.187  36.449  1.00  0.00    -0.203 F 
ATOM     79  C   UNL A   1      37.951  32.215  37.645  1.00  0.00     0.198 A 
ATOM     80  C   UNL A   1      39.233  34.069  36.819  1.00  0.00     0.198 A 
ATOM     81  F   UNL A   1      40.443  33.859  34.808  1.00  0.00    -0.203 F 
ATOM     82  F   UNL A   1      37.121  31.691  38.555  1.00  0.00    -0.200 F 
ATOM     83  C   UNL A   1      38.389  33.524  37.776  1.00  0.00     0.200 A 
ATOM     84  F   UNL A   1      39.665  35.331  36.949  1.00  0.00    -0.200 F 
ATOM     85  F   UNL A   1      37.994  34.263  38.822  1.00  0.00    -0.200 F 
ENDBRANCH  51  75
BRANCH  63  86
ATOM     86  C   UNL A   1      44.783  27.987  34.368  1.00  0.00     0.064 A 
ATOM     87  C   UNL A   1      45.927  28.797  34.343  1.00  0.00     0.173 A 
ATOM     88  C   UNL A   1      44.776  26.879  35.226  1.00  0.00     0.173 A 
ATOM     89  F   UNL A   1      45.986  29.858  33.523  1.00  0.00    -0.203 F 
ATOM     90  C   UNL A   1      47.029  28.498  35.139  1.00  0.00     0.198 A 
ATOM     91  C   UNL A   1      45.869  26.598  36.039  1.00  0.00     0.198 A 
ATOM     92  F   UNL A   1      43.701  26.078  35.288  1.00  0.00    -0.203 F 
ATOM     93  F   UNL A   1      48.127  29.265  35.074  1.00  0.00    -0.200 F 
ATOM     94  C   UNL A   1      46.997  27.405  35.992  1.00  0.00     0.200 A 
ATOM     95  F   UNL A   1      45.833  25.546  36.869  1.00  0.00    -0.200 F 
ATOM     96  F   UNL A   1      48.056  27.124  36.763  1.00  0.00    -0.200 F 
ENDBRANCH  63  86
ENDBRANCH  37  38
ENDBRANCH  29  32
ENDBRANCH  27  28
ENDBRANCH  26  27
ENDBRANCH   1  26
TORSDOF 16
ENDMDL
MODEL 3
REMARK VINA RESULT:     -11.8      2.273      3.551
REMARK SMILES CC[NH2+][C@@]1(C(=O)NCCCCNC(=O)c2ccc(-c3c4nc(c(-c5c(F)c(F)c(F)c(F)c5F)c5ccc([nH]5)c(-c5c(F)c(F)c(F)c(F)c5F)c5nc(c(-c6c(F)c(F)c(F)c(F)c6F)c6ccc3[nH]6)C=C5)C=C4)cc2)CCC[C@@H]([N@@H+](C)[C@@H](C)C2CC2)C1
REMARK SMILES IDX 9 1 8 2 7 3 5 4 6 5 4 7 78 8 89 9 79 10 81 11 80 12 3 13
REMARK SMILES IDX 2 16 1 17 82 18 83 19 84 21 85 22 86 23 87 24 88 25 10 26
REMARK SMILES IDX 11 27 12 28 13 29 14 31 15 32 16 33 77 34 17 35 76 36 18 37
REMARK SMILES IDX 19 38 20 39 70 40 21 41 75 42 69 43 71 44 22 45 74 46 68 47
REMARK SMILES IDX 67 48 23 50 55 51 35 52 54 53 36 54 39 55 53 56 72 57 37 58
REMARK SMILES IDX 38 59 52 61 73 62 40 63 24 64 25 65 33 66 26 67 27 68 31 69
REMARK SMILES IDX 34 70 28 71 29 72 32 73 30 74 56 75 57 76 65 77 58 78 59 79
REMARK SMILES IDX 63 80 66 81 60 82 61 83 64 84 62 85 41 86 42 87 50 88 43 89
REMARK SMILES IDX 44 90 48 91 51 92 45 93 46 94 49 95 47 96
REMARK H PARENT 7 6 3 14 3 15 82 20 12 30 71 49 39 60
REMARK Flexibility Score: inf
ROOT
ATOM      1  C   UNL A   1      34.441  30.899  28.059  1.00  0.00     0.023 C 
ENDROOT
BRANCH   1   2
ATOM      2  C   UNL A   1      34.223  29.579  27.321  1.00  0.00     0.116 C 
BRANCH   2   3
ATOM      3  N   UNL A   1      33.020  28.914  27.739  1.00  0.00    -0.351 N 
ATOM      4  C   UNL A   1      32.193  28.011  27.156  1.00  0.00     0.281 C 
ATOM      5  O   UNL A   1      31.199  27.771  27.857  1.00  0.00    -0.268 OA
ATOM      6  H   UNL A   1      32.734  29.169  28.646  1.00  0.00     0.163 HD
BRANCH   4   7
ATOM      7  C   UNL A   1      32.420  27.331  25.724  1.00  0.00     0.181 C 
ATOM      8  C   UNL A   1      33.584  27.921  24.889  1.00  0.00     0.079 C 
ATOM      9  C   UNL A   1      31.065  27.243  24.958  1.00  0.00     0.144 C 
ATOM     10  C   UNL A   1      33.259  28.871  23.743  1.00  0.00     0.013 C 
ATOM     11  C   UNL A   1      30.809  28.222  23.795  1.00  0.00     0.190 C 
ATOM     12  C   UNL A   1      32.048  28.435  22.928  1.00  0.00     0.065 C 
BRANCH   7  13
ATOM     13  N   UNL A   1      32.763  25.874  25.987  1.00  0.00    -0.334 N 
ATOM     14  H   UNL A   1      33.467  25.597  25.302  1.00  0.00     0.347 HD
ATOM     15  H   UNL A   1      33.065  25.850  26.961  1.00  0.00     0.347 HD
BRANCH  13  16
ATOM     16  C   UNL A   1      31.675  24.896  25.913  1.00  0.00     0.257 C 
ATOM     17  C   UNL A   1      31.956  23.779  26.912  1.00  0.00     0.071 C 
ENDBRANCH  13  16
ENDBRANCH   7  13
BRANCH  11  18
ATOM     18  N   UNL A   1      29.509  27.935  23.125  1.00  0.00    -0.332 N 
ATOM     19  C   UNL A   1      28.863  26.775  23.769  1.00  0.00     0.333 C 
ATOM     20  H   UNL A   1      29.855  27.791  22.176  1.00  0.00     0.348 HD
BRANCH  18  21
ATOM     21  C   UNL A   1      28.489  28.973  22.846  1.00  0.00     0.184 C 
ATOM     22  C   UNL A   1      27.030  28.654  23.203  1.00  0.00     0.075 C 
BRANCH  21  23
ATOM     23  C   UNL A   1      28.787  30.424  23.156  1.00  0.00     0.047 C 
ATOM     24  C   UNL A   1      28.391  31.580  22.280  1.00  0.00     0.010 C 
ATOM     25  C   UNL A   1      27.774  31.423  23.651  1.00  0.00     0.010 C 
ENDBRANCH  21  23
ENDBRANCH  18  21
ENDBRANCH  11  18
ENDBRANCH   4   7
ENDBRANCH   2   3
ENDBRANCH   1   2
BRANCH   1  26
ATOM     26  C   UNL A   1      33.281  31.884  27.984  1.00  0.00     0.023 C 
BRANCH  26  27
ATOM     27  C   UNL A   1      33.595  33.183  27.253  1.00  0.00     0.116 C 
BRANCH  27  28
ATOM     28  N   UNL A   1      32.856  34.350  27.724  1.00  0.00    -0.352 N 
ATOM     29  C   UNL A   1      33.134  35.107  28.841  1.00  0.00     0.251 C 
ATOM     30  H   UNL A   1      32.077  34.625  27.189  1.00  0.00     0.163 HD
ATOM     31  O   UNL A   1      32.426  36.049  29.177  1.00  0.00    -0.269 OA
BRANCH  29  32
ATOM     32  C   UNL A   1      34.290  34.701  29.660  1.00  0.00     0.039 A 
ATOM     33  C   UNL A   1      34.061  34.029  30.861  1.00  0.00     0.014 A 
ATOM     34  C   UNL A   1      35.576  34.815  29.129  1.00  0.00     0.014 A 
ATOM     35  C   UNL A   1      35.123  33.378  31.487  1.00  0.00     0.010 A 
ATOM     36  C   UNL A   1      36.609  34.091  29.703  1.00  0.00     0.010 A 
ATOM     37  C   UNL A   1      36.391  33.358  30.881  1.00  0.00    -0.014 A 
BRANCH  37  38
ATOM     38  C   UNL A   1      37.508  32.567  31.452  1.00  0.00     0.031 A 
ATOM     39  C   UNL A   1      38.025  32.897  32.821  1.00  0.00     0.074 A 
ATOM     40  C   UNL A   1      38.117  31.627  30.702  1.00  0.00     0.049 A 
ATOM     41  N   UNL A   1      39.050  32.399  33.463  1.00  0.00    -0.248 NA
ATOM     42  C   UNL A   1      37.322  33.965  33.549  1.00  0.00     0.031 C 
ATOM     43  C   UNL A   1      37.754  31.266  29.331  1.00  0.00     0.029 A 
ATOM     44  N   UNL A   1      39.179  30.807  30.990  1.00  0.00    -0.354 N 
ATOM     45  C   UNL A   1      39.135  33.118  34.646  1.00  0.00     0.074 A 
ATOM     46  C   UNL A   1      38.094  34.122  34.612  1.00  0.00     0.031 C 
ATOM     47  C   UNL A   1      38.552  30.270  28.912  1.00  0.00     0.029 A 
ATOM     48  C   UNL A   1      39.501  29.945  29.972  1.00  0.00     0.049 A 
ATOM     49  H   UNL A   1      39.665  30.835  31.847  1.00  0.00     0.167 HD
ATOM     50  C   UNL A   1      39.989  32.940  35.683  1.00  0.00     0.037 A 
ATOM     51  C   UNL A   1      40.453  28.994  29.908  1.00  0.00     0.037 A 
ATOM     52  C   UNL A   1      40.978  31.899  35.739  1.00  0.00     0.049 A 
ATOM     53  C   UNL A   1      41.355  28.781  31.091  1.00  0.00     0.074 A 
ATOM     54  C   UNL A   1      41.819  31.563  36.784  1.00  0.00     0.029 A 
ATOM     55  N   UNL A   1      41.250  31.018  34.702  1.00  0.00    -0.354 N 
ATOM     56  N   UNL A   1      41.375  29.410  32.241  1.00  0.00    -0.248 NA
ATOM     57  C   UNL A   1      42.366  27.721  30.970  1.00  0.00     0.031 C 
ATOM     58  C   UNL A   1      42.622  30.494  36.369  1.00  0.00     0.029 A 
ATOM     59  C   UNL A   1      42.258  30.146  35.077  1.00  0.00     0.049 A 
ATOM     60  H   UNL A   1      40.795  31.014  33.831  1.00  0.00     0.167 HD
ATOM     61  C   UNL A   1      42.376  28.808  32.989  1.00  0.00     0.074 A 
ATOM     62  C   UNL A   1      42.936  27.756  32.166  1.00  0.00     0.031 C 
ATOM     63  C   UNL A   1      42.792  29.098  34.245  1.00  0.00     0.037 A 
BRANCH  50  64
ATOM     64  C   UNL A   1      39.873  33.892  36.835  1.00  0.00     0.064 A 
ATOM     65  C   UNL A   1      40.625  35.075  36.892  1.00  0.00     0.173 A 
ATOM     66  C   UNL A   1      39.008  33.611  37.904  1.00  0.00     0.173 A 
ATOM     67  F   UNL A   1      41.479  35.380  35.903  1.00  0.00    -0.203 F 
ATOM     68  C   UNL A   1      40.548  35.921  37.994  1.00  0.00     0.198 A 
ATOM     69  C   UNL A   1      38.911  34.476  38.991  1.00  0.00     0.198 A 
ATOM     70  F   UNL A   1      38.266  32.494  37.898  1.00  0.00    -0.203 F 
ATOM     71  F   UNL A   1      41.325  37.011  38.056  1.00  0.00    -0.200 F 
ATOM     72  C   UNL A   1      39.689  35.623  39.042  1.00  0.00     0.200 A 
ATOM     73  F   UNL A   1      38.075  34.190  39.998  1.00  0.00    -0.200 F 
ATOM     74  F   UNL A   1      39.620  36.435  40.105  1.00  0.00    -0.200 F 
ENDBRANCH  50  64
BRANCH  51  75
ATOM     75  C   UNL A   1      40.556  28.127  28.707  1.00  0.00     0.064 A 
ATOM     76  C   UNL A   1      39.858  26.912  28.647  1.00  0.00     0.173 A 
ATOM     77  C   UNL A   1      41.334  28.490  27.600  1.00  0.00     0.173 A 
ATOM     78  F   UNL A   1      39.116  26.517  29.691  1.00  0.00    -0.203 F 
ATOM     79  C   UNL A   1      39.946  26.085  27.530  1.00  0.00     0.198 A 
ATOM     80  C   UNL A   1      41.405  27.671  26.474  1.00  0.00     0.198 A 
ATOM     81  F   UNL A   1      42.015  29.645  27.607  1.00  0.00    -0.203 F 
ATOM     82  F   UNL A   1      39.294  24.915  27.513  1.00  0.00    -0.200 F 
ATOM     83  C   UNL A   1      40.715  26.468  26.442  1.00  0.00     0.200 A 
ATOM     84  F   UNL A   1      42.141  28.047  25.419  1.00  0.00    -0.200 F 
ATOM     85  F   UNL A   1      40.797  25.674  25.365  1.00  0.00    -0.200 F 
ENDBRANCH  51  75
BRANCH  63  86
ATOM     86  C   UNL A   1      43.883  28.246  34.820  1.00  0.00     0.064 A 
ATOM     87  C   UNL A   1      45.231  28.613  34.714  1.00  0.00     0.173 A 
ATOM     88  C   UNL A   1      43.569  27.075  35.525  1.00  0.00     0.173 A 
ATOM     89  F   UNL A   1      45.579  29.716  34.034  1.00  0.00    -0.203 F 
ATOM     90  C   UNL A   1      46.230  27.828  35.281  1.00  0.00     0.198 A 
ATOM     91  C   UNL A   1      44.569  26.306  36.112  1.00  0.00     0.198 A 
ATOM     92  F   UNL A   1      42.292  26.686  35.657  1.00  0.00    -0.203 F 
ATOM     93  F   UNL A   1      47.516  28.177  35.139  1.00  0.00    -0.200 F 
ATOM     94  C   UNL A   1      45.899  26.679  35.986  1.00  0.00     0.200 A 
ATOM     95  F   UNL A   1      44.246  25.201  36.800  1.00  0.00    -0.200 F 
ATOM     96  F   UNL A   1      46.862  25.929  36.538  1.00  0.00    -0.200 F 
ENDBRANCH  63  86
ENDBRANCH  37  38
ENDBRANCH  29  32
ENDBRANCH  27  28
ENDBRANCH  26  27
ENDBRANCH   1  26
TORSDOF 16
ENDMDL
