MODEL 1
REMARK VINA RESULT:     -12.1      0.000      0.000
REMARK SMILES CCC(CC)(CC(=O)Nc1ccc(NC(C)=O)cc1)C(=O)NCCCCNC(=O)c1ccc(-c2c3nc(c(-c4c(F)c(F)c(F)c(F)c4F)c4ccc([nH]4)c(-c4c(F)c(F)c(F)c(F)c4F)c4nc(c(-c5c(F)c(F)c(F)c(F)c5F)c5ccc2[nH]5)C=C4)C=C3)cc1
REMARK SMILES IDX 23 1 22 2 20 3 21 4 3 6 2 7 1 8 4 9 5 10 6 11 7 12 8 13 9 14
REMARK SMILES IDX 10 16 11 17 19 18 12 19 18 20 13 21 14 22 15 23 16 25 17 26
REMARK SMILES IDX 24 27 25 28 26 29 27 30 28 31 29 33 30 34 31 35 92 36 32 37
REMARK SMILES IDX 91 38 33 39 34 40 35 41 85 42 36 43 90 44 84 45 86 46 37 47
REMARK SMILES IDX 89 48 83 49 82 50 38 52 70 53 50 54 69 55 51 56 54 57 68 58
REMARK SMILES IDX 87 59 52 60 53 61 67 63 88 64 55 65 39 66 40 67 48 68 41 69
REMARK SMILES IDX 42 70 46 71 49 72 43 73 44 74 47 75 45 76 71 77 72 78 80 79
REMARK SMILES IDX 73 80 74 81 78 82 81 83 75 84 76 85 79 86 77 87 56 88 57 89
REMARK SMILES IDX 65 90 58 91 59 92 63 93 66 94 60 95 61 96 64 97 62 98
REMARK H PARENT 22 5 9 15 14 24 27 32 86 51 54 62
REMARK Flexibility Score: inf
ROOT
ATOM      1  C   UNL A   1      32.945  29.890  26.220  1.00  0.00     0.116 C 
ENDROOT
BRANCH   1   2
ATOM      2  N   UNL A   1      33.665  29.552  25.011  1.00  0.00    -0.356 N 
ATOM      3  C   UNL A   1      33.664  28.457  24.215  1.00  0.00     0.226 C 
ATOM      4  O   UNL A   1      34.479  28.484  23.286  1.00  0.00    -0.274 OA
ATOM      5  H   UNL A   1      34.276  30.259  24.705  1.00  0.00     0.163 HD
BRANCH   3   6
ATOM      6  C   UNL A   1      32.722  27.249  24.432  1.00  0.00     0.057 C 
BRANCH   6   7
ATOM      7  C   UNL A   1      33.191  26.116  23.475  1.00  0.00     0.014 C 
ATOM      8  C   UNL A   1      34.074  25.003  24.020  1.00  0.00     0.005 C 
ENDBRANCH   6   7
BRANCH   6   9
ATOM      9  C   UNL A   1      31.246  27.612  24.073  1.00  0.00     0.014 C 
ATOM     10  C   UNL A   1      31.055  28.347  22.750  1.00  0.00     0.005 C 
ENDBRANCH   6   9
BRANCH   6  11
ATOM     11  C   UNL A   1      32.855  26.701  25.889  1.00  0.00     0.117 C 
BRANCH  11  12
ATOM     12  C   UNL A   1      31.585  26.542  26.741  1.00  0.00     0.225 C 
ATOM     13  O   UNL A   1      31.079  27.522  27.294  1.00  0.00    -0.275 OA
ATOM     14  N   UNL A   1      30.905  25.343  26.759  1.00  0.00    -0.326 N 
ATOM     15  H   UNL A   1      29.959  25.383  27.029  1.00  0.00     0.169 HD
BRANCH  14  16
ATOM     16  C   UNL A   1      31.403  24.074  26.440  1.00  0.00     0.041 A 
ATOM     17  C   UNL A   1      30.974  23.404  25.301  1.00  0.00     0.028 A 
ATOM     18  C   UNL A   1      32.319  23.458  27.284  1.00  0.00     0.028 A 
ATOM     19  C   UNL A   1      31.617  22.220  24.906  1.00  0.00     0.028 A 
ATOM     20  C   UNL A   1      33.008  22.320  26.863  1.00  0.00     0.028 A 
ATOM     21  C   UNL A   1      32.691  21.716  25.645  1.00  0.00     0.041 A 
BRANCH  21  22
ATOM     22  N   UNL A   1      33.530  20.669  25.217  1.00  0.00    -0.326 N 
ATOM     23  C   UNL A   1      33.181  19.350  25.002  1.00  0.00     0.221 C 
ATOM     24  H   UNL A   1      34.472  20.904  25.051  1.00  0.00     0.169 HD
ATOM     25  C   UNL A   1      34.283  18.562  24.337  1.00  0.00     0.114 C 
ATOM     26  O   UNL A   1      32.126  18.815  25.325  1.00  0.00    -0.275 OA
ENDBRANCH  21  22
ENDBRANCH  14  16
ENDBRANCH  11  12
ENDBRANCH   6  11
ENDBRANCH   3   6
ENDBRANCH   1   2
BRANCH   1  27
ATOM     27  C   UNL A   1      31.724  30.754  25.936  1.00  0.00     0.023 C 
BRANCH  27  28
ATOM     28  C   UNL A   1      31.482  31.889  26.930  1.00  0.00     0.023 C 
BRANCH  28  29
ATOM     29  C   UNL A   1      32.714  32.707  27.299  1.00  0.00     0.116 C 
BRANCH  29  30
ATOM     30  N   UNL A   1      32.405  34.097  27.597  1.00  0.00    -0.352 N 
ATOM     31  C   UNL A   1      32.977  34.934  28.525  1.00  0.00     0.251 C 
ATOM     32  H   UNL A   1      31.683  34.494  27.058  1.00  0.00     0.163 HD
ATOM     33  O   UNL A   1      32.511  36.042  28.737  1.00  0.00    -0.269 OA
BRANCH  31  34
ATOM     34  C   UNL A   1      34.150  34.462  29.290  1.00  0.00     0.039 A 
ATOM     35  C   UNL A   1      33.944  33.873  30.539  1.00  0.00     0.014 A 
ATOM     36  C   UNL A   1      35.437  34.565  28.757  1.00  0.00     0.014 A 
ATOM     37  C   UNL A   1      35.027  33.320  31.224  1.00  0.00     0.010 A 
ATOM     38  C   UNL A   1      36.498  33.941  29.400  1.00  0.00     0.010 A 
ATOM     39  C   UNL A   1      36.305  33.313  30.641  1.00  0.00    -0.014 A 
BRANCH  39  40
ATOM     40  C   UNL A   1      37.452  32.656  31.315  1.00  0.00     0.031 A 
ATOM     41  C   UNL A   1      38.164  31.513  30.647  1.00  0.00     0.074 A 
ATOM     42  C   UNL A   1      37.810  33.047  32.554  1.00  0.00     0.049 A 
ATOM     43  N   UNL A   1      39.145  30.772  31.095  1.00  0.00    -0.248 NA
ATOM     44  C   UNL A   1      37.691  31.134  29.306  1.00  0.00     0.031 C 
ATOM     45  C   UNL A   1      37.163  34.108  33.327  1.00  0.00     0.029 A 
ATOM     46  N   UNL A   1      38.802  32.589  33.386  1.00  0.00    -0.354 N 
ATOM     47  C   UNL A   1      39.394  29.836  30.101  1.00  0.00     0.074 A 
ATOM     48  C   UNL A   1      38.425  30.062  29.052  1.00  0.00     0.031 C 
ATOM     49  C   UNL A   1      37.791  34.239  34.506  1.00  0.00     0.029 A 
ATOM     50  C   UNL A   1      38.856  33.246  34.591  1.00  0.00     0.049 A 
ATOM     51  H   UNL A   1      39.417  31.860  33.141  1.00  0.00     0.167 HD
ATOM     52  C   UNL A   1      40.364  28.891  30.055  1.00  0.00     0.037 A 
ATOM     53  C   UNL A   1      39.668  33.059  35.649  1.00  0.00     0.037 A 
ATOM     54  C   UNL A   1      41.339  28.686  31.093  1.00  0.00     0.049 A 
ATOM     55  C   UNL A   1      40.727  31.991  35.578  1.00  0.00     0.074 A 
ATOM     56  C   UNL A   1      42.399  27.797  31.116  1.00  0.00     0.029 A 
ATOM     57  N   UNL A   1      41.370  29.378  32.295  1.00  0.00    -0.354 N 
ATOM     58  N   UNL A   1      41.004  31.162  34.600  1.00  0.00    -0.248 NA
ATOM     59  C   UNL A   1      41.591  31.838  36.757  1.00  0.00     0.031 C 
ATOM     60  C   UNL A   1      43.037  27.911  32.356  1.00  0.00     0.029 A 
ATOM     61  C   UNL A   1      42.414  28.915  33.080  1.00  0.00     0.049 A 
ATOM     62  H   UNL A   1      40.743  30.092  32.553  1.00  0.00     0.167 HD
ATOM     63  C   UNL A   1      42.091  30.413  35.031  1.00  0.00     0.074 A 
ATOM     64  C   UNL A   1      42.434  30.897  36.352  1.00  0.00     0.031 C 
ATOM     65  C   UNL A   1      42.747  29.414  34.390  1.00  0.00     0.037 A 
BRANCH  52  66
ATOM     66  C   UNL A   1      40.415  28.006  28.842  1.00  0.00     0.064 A 
ATOM     67  C   UNL A   1      41.156  28.359  27.703  1.00  0.00     0.173 A 
ATOM     68  C   UNL A   1      39.743  26.774  28.831  1.00  0.00     0.173 A 
ATOM     69  F   UNL A   1      41.807  29.530  27.656  1.00  0.00    -0.203 F 
ATOM     70  C   UNL A   1      41.196  27.525  26.587  1.00  0.00     0.198 A 
ATOM     71  C   UNL A   1      39.813  25.929  27.727  1.00  0.00     0.198 A 
ATOM     72  F   UNL A   1      39.024  26.385  29.894  1.00  0.00    -0.203 F 
ATOM     73  F   UNL A   1      41.865  27.909  25.491  1.00  0.00    -0.200 F 
ATOM     74  C   UNL A   1      40.532  26.309  26.603  1.00  0.00     0.200 A 
ATOM     75  F   UNL A   1      39.184  24.746  27.750  1.00  0.00    -0.200 F 
ATOM     76  F   UNL A   1      40.579  25.504  25.533  1.00  0.00    -0.200 F 
ENDBRANCH  52  66
BRANCH  53  77
ATOM     77  C   UNL A   1      39.531  33.915  36.856  1.00  0.00     0.064 A 
ATOM     78  C   UNL A   1      38.769  33.492  37.957  1.00  0.00     0.173 A 
ATOM     79  C   UNL A   1      40.144  35.174  36.936  1.00  0.00     0.173 A 
ATOM     80  F   UNL A   1      38.148  32.305  37.922  1.00  0.00    -0.203 F 
ATOM     81  C   UNL A   1      38.605  34.306  39.076  1.00  0.00     0.198 A 
ATOM     82  C   UNL A   1      40.005  35.974  38.069  1.00  0.00     0.198 A 
ATOM     83  F   UNL A   1      40.886  35.625  35.914  1.00  0.00    -0.203 F 
ATOM     84  F   UNL A   1      37.829  33.899  40.089  1.00  0.00    -0.200 F 
ATOM     85  C   UNL A   1      39.227  35.544  39.133  1.00  0.00     0.200 A 
ATOM     86  F   UNL A   1      40.620  37.163  38.126  1.00  0.00    -0.200 F 
ATOM     87  F   UNL A   1      39.071  36.326  40.210  1.00  0.00    -0.200 F 
ENDBRANCH  53  77
BRANCH  65  88
ATOM     88  C   UNL A   1      43.928  28.805  35.090  1.00  0.00     0.064 A 
ATOM     89  C   UNL A   1      43.798  27.684  35.921  1.00  0.00     0.173 A 
ATOM     90  C   UNL A   1      45.216  29.328  34.891  1.00  0.00     0.173 A 
ATOM     91  F   UNL A   1      42.588  27.153  36.156  1.00  0.00    -0.203 F 
ATOM     92  C   UNL A   1      44.908  27.125  36.550  1.00  0.00     0.198 A 
ATOM     93  C   UNL A   1      46.328  28.746  35.493  1.00  0.00     0.198 A 
ATOM     94  F   UNL A   1      45.398  30.395  34.098  1.00  0.00    -0.203 F 
ATOM     95  F   UNL A   1      44.752  26.087  37.382  1.00  0.00    -0.200 F 
ATOM     96  C   UNL A   1      46.173  27.651  36.329  1.00  0.00     0.200 A 
ATOM     97  F   UNL A   1      47.550  29.246  35.263  1.00  0.00    -0.200 F 
ATOM     98  F   UNL A   1      47.240  27.107  36.927  1.00  0.00    -0.200 F 
ENDBRANCH  65  88
ENDBRANCH  39  40
ENDBRANCH  31  34
ENDBRANCH  29  30
ENDBRANCH  28  29
ENDBRANCH  27  28
ENDBRANCH   1  27
TORSDOF 17
ENDMDL
MODEL 2
REMARK VINA RESULT:     -12.1      0.988      2.139
REMARK SMILES CCC(CC)(CC(=O)Nc1ccc(NC(C)=O)cc1)C(=O)NCCCCNC(=O)c1ccc(-c2c3nc(c(-c4c(F)c(F)c(F)c(F)c4F)c4ccc([nH]4)c(-c4c(F)c(F)c(F)c(F)c4F)c4nc(c(-c5c(F)c(F)c(F)c(F)c5F)c5ccc2[nH]5)C=C4)C=C3)cc1
REMARK SMILES IDX 23 1 22 2 20 3 21 4 3 6 2 7 1 8 4 9 5 10 6 11 7 12 8 13 9 14
REMARK SMILES IDX 10 16 11 17 19 18 12 19 18 20 13 21 14 22 15 23 16 25 17 26
REMARK SMILES IDX 24 27 25 28 26 29 27 30 28 31 29 33 30 34 31 35 92 36 32 37
REMARK SMILES IDX 91 38 33 39 34 40 35 41 85 42 36 43 90 44 84 45 86 46 37 47
REMARK SMILES IDX 89 48 83 49 82 50 38 52 70 53 50 54 69 55 51 56 54 57 68 58
REMARK SMILES IDX 87 59 52 60 53 61 67 63 88 64 55 65 39 66 40 67 48 68 41 69
REMARK SMILES IDX 42 70 46 71 49 72 43 73 44 74 47 75 45 76 71 77 72 78 80 79
REMARK SMILES IDX 73 80 74 81 78 82 81 83 75 84 76 85 79 86 77 87 56 88 57 89
REMARK SMILES IDX 65 90 58 91 59 92 63 93 66 94 60 95 61 96 64 97 62 98
REMARK H PARENT 22 5 9 15 14 24 27 32 86 51 54 62
REMARK Flexibility Score: inf
ROOT
ATOM      1  C   UNL A   1      32.822  29.909  26.028  1.00  0.00     0.116 C 
ENDROOT
BRANCH   1   2
ATOM      2  N   UNL A   1      33.429  29.719  24.728  1.00  0.00    -0.356 N 
ATOM      3  C   UNL A   1      33.602  28.630  23.943  1.00  0.00     0.226 C 
ATOM      4  O   UNL A   1      34.244  28.830  22.906  1.00  0.00    -0.274 OA
ATOM      5  H   UNL A   1      33.787  30.547  24.336  1.00  0.00     0.163 HD
BRANCH   3   6
ATOM      6  C   UNL A   1      33.044  27.231  24.295  1.00  0.00     0.057 C 
BRANCH   6   7
ATOM      7  C   UNL A   1      31.534  27.404  24.628  1.00  0.00     0.014 C 
ATOM      8  C   UNL A   1      30.971  26.746  25.880  1.00  0.00     0.005 C 
ENDBRANCH   6   7
BRANCH   6   9
ATOM      9  C   UNL A   1      33.755  26.638  25.553  1.00  0.00     0.014 C 
ATOM     10  C   UNL A   1      34.371  25.255  25.366  1.00  0.00     0.005 C 
ENDBRANCH   6   9
BRANCH   6  11
ATOM     11  C   UNL A   1      33.135  26.275  23.062  1.00  0.00     0.117 C 
BRANCH  11  12
ATOM     12  C   UNL A   1      31.841  25.877  22.335  1.00  0.00     0.225 C 
ATOM     13  O   UNL A   1      31.245  26.696  21.630  1.00  0.00    -0.275 OA
ATOM     14  N   UNL A   1      31.424  24.563  22.326  1.00  0.00    -0.326 N 
ATOM     15  H   UNL A   1      30.809  24.306  21.600  1.00  0.00     0.169 HD
BRANCH  14  16
ATOM     16  C   UNL A   1      31.770  23.551  23.229  1.00  0.00     0.041 A 
ATOM     17  C   UNL A   1      31.099  23.414  24.438  1.00  0.00     0.028 A 
ATOM     18  C   UNL A   1      32.815  22.686  22.931  1.00  0.00     0.028 A 
ATOM     19  C   UNL A   1      31.338  22.288  25.243  1.00  0.00     0.028 A 
ATOM     20  C   UNL A   1      33.009  21.531  23.690  1.00  0.00     0.028 A 
ATOM     21  C   UNL A   1      32.239  21.300  24.831  1.00  0.00     0.041 A 
BRANCH  21  22
ATOM     22  N   UNL A   1      32.383  20.046  25.454  1.00  0.00    -0.326 N 
ATOM     23  C   UNL A   1      32.441  18.809  24.843  1.00  0.00     0.221 C 
ATOM     24  H   UNL A   1      32.451  20.051  26.436  1.00  0.00     0.169 HD
ATOM     25  C   UNL A   1      32.820  17.708  25.803  1.00  0.00     0.114 C 
ATOM     26  O   UNL A   1      32.190  18.565  23.668  1.00  0.00    -0.275 OA
ENDBRANCH  21  22
ENDBRANCH  14  16
ENDBRANCH  11  12
ENDBRANCH   6  11
ENDBRANCH   3   6
ENDBRANCH   1   2
BRANCH   1  27
ATOM     27  C   UNL A   1      31.614  30.835  25.965  1.00  0.00     0.023 C 
BRANCH  27  28
ATOM     28  C   UNL A   1      31.523  31.865  27.090  1.00  0.00     0.023 C 
BRANCH  28  29
ATOM     29  C   UNL A   1      32.763  32.729  27.287  1.00  0.00     0.116 C 
BRANCH  29  30
ATOM     30  N   UNL A   1      32.447  34.115  27.593  1.00  0.00    -0.352 N 
ATOM     31  C   UNL A   1      33.007  34.947  28.534  1.00  0.00     0.251 C 
ATOM     32  H   UNL A   1      31.730  34.515  27.050  1.00  0.00     0.163 HD
ATOM     33  O   UNL A   1      32.535  36.051  28.751  1.00  0.00    -0.269 OA
BRANCH  31  34
ATOM     34  C   UNL A   1      34.172  34.471  29.308  1.00  0.00     0.039 A 
ATOM     35  C   UNL A   1      33.952  33.846  30.537  1.00  0.00     0.014 A 
ATOM     36  C   UNL A   1      35.467  34.607  28.802  1.00  0.00     0.014 A 
ATOM     37  C   UNL A   1      35.031  33.291  31.227  1.00  0.00     0.010 A 
ATOM     38  C   UNL A   1      36.526  33.981  29.448  1.00  0.00     0.010 A 
ATOM     39  C   UNL A   1      36.319  33.318  30.668  1.00  0.00    -0.014 A 
BRANCH  39  40
ATOM     40  C   UNL A   1      37.463  32.659  31.346  1.00  0.00     0.031 A 
ATOM     41  C   UNL A   1      38.181  31.520  30.677  1.00  0.00     0.074 A 
ATOM     42  C   UNL A   1      37.814  33.046  32.588  1.00  0.00     0.049 A 
ATOM     43  N   UNL A   1      39.161  30.779  31.127  1.00  0.00    -0.248 NA
ATOM     44  C   UNL A   1      37.715  31.146  29.332  1.00  0.00     0.031 C 
ATOM     45  C   UNL A   1      37.162  34.103  33.362  1.00  0.00     0.029 A 
ATOM     46  N   UNL A   1      38.802  32.586  33.423  1.00  0.00    -0.354 N 
ATOM     47  C   UNL A   1      39.416  29.848  30.131  1.00  0.00     0.074 A 
ATOM     48  C   UNL A   1      38.452  30.076  29.077  1.00  0.00     0.031 C 
ATOM     49  C   UNL A   1      37.783  34.230  34.545  1.00  0.00     0.029 A 
ATOM     50  C   UNL A   1      38.849  33.238  34.631  1.00  0.00     0.049 A 
ATOM     51  H   UNL A   1      39.420  31.859  33.179  1.00  0.00     0.167 HD
ATOM     52  C   UNL A   1      40.388  28.904  30.086  1.00  0.00     0.037 A 
ATOM     53  C   UNL A   1      39.656  33.048  35.693  1.00  0.00     0.037 A 
ATOM     54  C   UNL A   1      41.357  28.696  31.128  1.00  0.00     0.049 A 
ATOM     55  C   UNL A   1      40.717  31.981  35.623  1.00  0.00     0.074 A 
ATOM     56  C   UNL A   1      42.419  27.808  31.154  1.00  0.00     0.029 A 
ATOM     57  N   UNL A   1      41.381  29.383  32.333  1.00  0.00    -0.354 N 
ATOM     58  N   UNL A   1      41.000  31.157  34.644  1.00  0.00    -0.248 NA
ATOM     59  C   UNL A   1      41.575  31.825  36.806  1.00  0.00     0.031 C 
ATOM     60  C   UNL A   1      43.050  27.918  32.398  1.00  0.00     0.029 A 
ATOM     61  C   UNL A   1      42.422  28.919  33.122  1.00  0.00     0.049 A 
ATOM     62  H   UNL A   1      40.752  30.095  32.591  1.00  0.00     0.167 HD
ATOM     63  C   UNL A   1      42.086  30.408  35.078  1.00  0.00     0.074 A 
ATOM     64  C   UNL A   1      42.420  30.887  36.402  1.00  0.00     0.031 C 
ATOM     65  C   UNL A   1      42.747  29.413  34.436  1.00  0.00     0.037 A 
BRANCH  52  66
ATOM     66  C   UNL A   1      40.447  28.024  28.870  1.00  0.00     0.064 A 
ATOM     67  C   UNL A   1      39.745  26.810  28.803  1.00  0.00     0.173 A 
ATOM     68  C   UNL A   1      41.188  28.415  27.744  1.00  0.00     0.173 A 
ATOM     69  F   UNL A   1      39.032  26.383  29.855  1.00  0.00    -0.203 F 
ATOM     70  C   UNL A   1      39.808  26.007  27.667  1.00  0.00     0.198 A 
ATOM     71  C   UNL A   1      41.221  27.625  26.597  1.00  0.00     0.198 A 
ATOM     72  F   UNL A   1      41.874  29.567  27.751  1.00  0.00    -0.203 F 
ATOM     73  F   UNL A   1      39.174  24.826  27.648  1.00  0.00    -0.200 F 
ATOM     74  C   UNL A   1      40.539  26.418  26.563  1.00  0.00     0.200 A 
ATOM     75  F   UNL A   1      41.915  28.031  25.526  1.00  0.00    -0.200 F 
ATOM     76  F   UNL A   1      40.591  25.649  25.468  1.00  0.00    -0.200 F 
ENDBRANCH  52  66
BRANCH  53  77
ATOM     77  C   UNL A   1      39.510  33.899  36.903  1.00  0.00     0.064 A 
ATOM     78  C   UNL A   1      38.773  33.455  38.011  1.00  0.00     0.173 A 
ATOM     79  C   UNL A   1      40.092  35.173  36.977  1.00  0.00     0.173 A 
ATOM     80  F   UNL A   1      38.181  32.253  37.983  1.00  0.00    -0.203 F 
ATOM     81  C   UNL A   1      38.601  34.264  39.134  1.00  0.00     0.198 A 
ATOM     82  C   UNL A   1      39.946  35.968  38.113  1.00  0.00     0.198 A 
ATOM     83  F   UNL A   1      40.811  35.644  35.948  1.00  0.00    -0.203 F 
ATOM     84  F   UNL A   1      37.847  33.835  40.155  1.00  0.00    -0.200 F 
ATOM     85  C   UNL A   1      39.192  35.517  39.185  1.00  0.00     0.200 A 
ATOM     86  F   UNL A   1      40.531  37.172  38.165  1.00  0.00    -0.200 F 
ATOM     87  F   UNL A   1      39.028  36.293  40.265  1.00  0.00    -0.200 F 
ENDBRANCH  53  77
BRANCH  65  88
ATOM     88  C   UNL A   1      43.925  28.802  35.139  1.00  0.00     0.064 A 
ATOM     89  C   UNL A   1      45.219  29.326  35.006  1.00  0.00     0.173 A 
ATOM     90  C   UNL A   1      43.747  27.701  35.992  1.00  0.00     0.173 A 
ATOM     91  F   UNL A   1      45.446  30.369  34.193  1.00  0.00    -0.203 F 
ATOM     92  C   UNL A   1      46.296  28.753  35.678  1.00  0.00     0.198 A 
ATOM     93  C   UNL A   1      44.820  27.153  36.690  1.00  0.00     0.198 A 
ATOM     94  F   UNL A   1      42.529  27.167  36.161  1.00  0.00    -0.203 F 
ATOM     95  F   UNL A   1      47.532  29.238  35.495  1.00  0.00    -0.200 F 
ATOM     96  C   UNL A   1      46.094  27.673  36.526  1.00  0.00     0.200 A 
ATOM     97  F   UNL A   1      44.620  26.121  37.521  1.00  0.00    -0.200 F 
ATOM     98  F   UNL A   1      47.130  27.130  37.178  1.00  0.00    -0.200 F 
ENDBRANCH  65  88
ENDBRANCH  39  40
ENDBRANCH  31  34
ENDBRANCH  29  30
ENDBRANCH  28  29
ENDBRANCH  27  28
ENDBRANCH   1  27
TORSDOF 17
ENDMDL
MODEL 3
REMARK VINA RESULT:     -12.1      0.996      1.466
REMARK SMILES CCC(CC)(CC(=O)Nc1ccc(NC(C)=O)cc1)C(=O)NCCCCNC(=O)c1ccc(-c2c3nc(c(-c4c(F)c(F)c(F)c(F)c4F)c4ccc([nH]4)c(-c4c(F)c(F)c(F)c(F)c4F)c4nc(c(-c5c(F)c(F)c(F)c(F)c5F)c5ccc2[nH]5)C=C4)C=C3)cc1
REMARK SMILES IDX 23 1 22 2 20 3 21 4 3 6 2 7 1 8 4 9 5 10 6 11 7 12 8 13 9 14
REMARK SMILES IDX 10 16 11 17 19 18 12 19 18 20 13 21 14 22 15 23 16 25 17 26
REMARK SMILES IDX 24 27 25 28 26 29 27 30 28 31 29 33 30 34 31 35 92 36 32 37
REMARK SMILES IDX 91 38 33 39 34 40 35 41 85 42 36 43 90 44 84 45 86 46 37 47
REMARK SMILES IDX 89 48 83 49 82 50 38 52 70 53 50 54 69 55 51 56 54 57 68 58
REMARK SMILES IDX 87 59 52 60 53 61 67 63 88 64 55 65 39 66 40 67 48 68 41 69
REMARK SMILES IDX 42 70 46 71 49 72 43 73 44 74 47 75 45 76 71 77 72 78 80 79
REMARK SMILES IDX 73 80 74 81 78 82 81 83 75 84 76 85 79 86 77 87 56 88 57 89
REMARK SMILES IDX 65 90 58 91 59 92 63 93 66 94 60 95 61 96 64 97 62 98
REMARK H PARENT 22 5 9 15 14 24 27 32 86 51 54 62
REMARK Flexibility Score: inf
ROOT
ATOM      1  C   UNL A   1      32.625  29.937  25.937  1.00  0.00     0.116 C 
ENDROOT
BRANCH   1   2
ATOM      2  N   UNL A   1      33.254  29.760  24.646  1.00  0.00    -0.356 N 
ATOM      3  C   UNL A   1      33.495  28.669  23.881  1.00  0.00     0.226 C 
ATOM      4  O   UNL A   1      34.135  28.887  22.846  1.00  0.00    -0.274 OA
ATOM      5  H   UNL A   1      33.568  30.600  24.242  1.00  0.00     0.163 HD
BRANCH   3   6
ATOM      6  C   UNL A   1      33.015  27.247  24.253  1.00  0.00     0.057 C 
BRANCH   6   7
ATOM      7  C   UNL A   1      31.500  27.343  24.596  1.00  0.00     0.014 C 
ATOM      8  C   UNL A   1      30.999  26.761  25.911  1.00  0.00     0.005 C 
ENDBRANCH   6   7
BRANCH   6   9
ATOM      9  C   UNL A   1      33.766  26.707  25.511  1.00  0.00     0.014 C 
ATOM     10  C   UNL A   1      34.281  25.275  25.402  1.00  0.00     0.005 C 
ENDBRANCH   6   9
BRANCH   6  11
ATOM     11  C   UNL A   1      33.147  26.283  23.030  1.00  0.00     0.117 C 
BRANCH  11  12
ATOM     12  C   UNL A   1      31.876  25.869  22.271  1.00  0.00     0.225 C 
ATOM     13  O   UNL A   1      31.292  26.678  21.544  1.00  0.00    -0.275 OA
ATOM     14  N   UNL A   1      31.470  24.551  22.260  1.00  0.00    -0.326 N 
ATOM     15  H   UNL A   1      30.878  24.284  21.520  1.00  0.00     0.169 HD
BRANCH  14  16
ATOM     16  C   UNL A   1      31.801  23.548  23.179  1.00  0.00     0.041 A 
ATOM     17  C   UNL A   1      31.107  23.421  24.376  1.00  0.00     0.028 A 
ATOM     18  C   UNL A   1      32.854  22.682  22.909  1.00  0.00     0.028 A 
ATOM     19  C   UNL A   1      31.333  22.302  25.195  1.00  0.00     0.028 A 
ATOM     20  C   UNL A   1      33.036  21.535  23.682  1.00  0.00     0.028 A 
ATOM     21  C   UNL A   1      32.244  21.313  24.810  1.00  0.00     0.041 A 
BRANCH  21  22
ATOM     22  N   UNL A   1      32.379  20.065  25.448  1.00  0.00    -0.326 N 
ATOM     23  C   UNL A   1      32.442  18.822  24.850  1.00  0.00     0.221 C 
ATOM     24  H   UNL A   1      32.435  20.080  26.431  1.00  0.00     0.169 HD
ATOM     25  C   UNL A   1      32.808  17.730  25.826  1.00  0.00     0.114 C 
ATOM     26  O   UNL A   1      32.204  18.566  23.675  1.00  0.00    -0.275 OA
ENDBRANCH  21  22
ENDBRANCH  14  16
ENDBRANCH  11  12
ENDBRANCH   6  11
ENDBRANCH   3   6
ENDBRANCH   1   2
BRANCH   1  27
ATOM     27  C   UNL A   1      31.522  30.986  25.897  1.00  0.00     0.023 C 
BRANCH  27  28
ATOM     28  C   UNL A   1      31.475  31.929  27.098  1.00  0.00     0.023 C 
BRANCH  28  29
ATOM     29  C   UNL A   1      32.724  32.775  27.314  1.00  0.00     0.116 C 
BRANCH  29  30
ATOM     30  N   UNL A   1      32.423  34.166  27.616  1.00  0.00    -0.352 N 
ATOM     31  C   UNL A   1      32.999  34.997  28.546  1.00  0.00     0.251 C 
ATOM     32  H   UNL A   1      31.704  34.569  27.077  1.00  0.00     0.163 HD
ATOM     33  O   UNL A   1      32.539  36.107  28.762  1.00  0.00    -0.269 OA
BRANCH  31  34
ATOM     34  C   UNL A   1      34.167  34.516  29.312  1.00  0.00     0.039 A 
ATOM     35  C   UNL A   1      33.954  33.903  30.548  1.00  0.00     0.014 A 
ATOM     36  C   UNL A   1      35.458  34.634  28.791  1.00  0.00     0.014 A 
ATOM     37  C   UNL A   1      35.035  33.342  31.231  1.00  0.00     0.010 A 
ATOM     38  C   UNL A   1      36.517  34.003  29.430  1.00  0.00     0.010 A 
ATOM     39  C   UNL A   1      36.317  33.352  30.658  1.00  0.00    -0.014 A 
BRANCH  39  40
ATOM     40  C   UNL A   1      37.461  32.686  31.329  1.00  0.00     0.031 A 
ATOM     41  C   UNL A   1      38.171  31.547  30.654  1.00  0.00     0.074 A 
ATOM     42  C   UNL A   1      37.819  33.068  32.571  1.00  0.00     0.049 A 
ATOM     43  N   UNL A   1      39.151  30.800  31.097  1.00  0.00    -0.248 NA
ATOM     44  C   UNL A   1      37.699  31.178  29.310  1.00  0.00     0.031 C 
ATOM     45  C   UNL A   1      37.174  34.125  33.350  1.00  0.00     0.029 A 
ATOM     46  N   UNL A   1      38.809  32.602  33.400  1.00  0.00    -0.354 N 
ATOM     47  C   UNL A   1      39.398  29.871  30.097  1.00  0.00     0.074 A 
ATOM     48  C   UNL A   1      38.430  30.106  29.049  1.00  0.00     0.031 C 
ATOM     49  C   UNL A   1      37.801  34.247  34.531  1.00  0.00     0.029 A 
ATOM     50  C   UNL A   1      38.864  33.250  34.610  1.00  0.00     0.049 A 
ATOM     51  H   UNL A   1      39.423  31.873  33.152  1.00  0.00     0.167 HD
ATOM     52  C   UNL A   1      40.365  28.923  30.046  1.00  0.00     0.037 A 
ATOM     53  C   UNL A   1      39.675  33.054  35.668  1.00  0.00     0.037 A 
ATOM     54  C   UNL A   1      41.339  28.708  31.083  1.00  0.00     0.049 A 
ATOM     55  C   UNL A   1      40.731  31.983  35.590  1.00  0.00     0.074 A 
ATOM     56  C   UNL A   1      42.397  27.816  31.102  1.00  0.00     0.029 A 
ATOM     57  N   UNL A   1      41.370  29.392  32.290  1.00  0.00    -0.354 N 
ATOM     58  N   UNL A   1      41.007  31.161  34.607  1.00  0.00    -0.248 NA
ATOM     59  C   UNL A   1      41.593  31.820  36.769  1.00  0.00     0.031 C 
ATOM     60  C   UNL A   1      43.033  27.920  32.343  1.00  0.00     0.029 A 
ATOM     61  C   UNL A   1      42.413  28.921  33.073  1.00  0.00     0.049 A 
ATOM     62  H   UNL A   1      40.745  30.105  32.552  1.00  0.00     0.167 HD
ATOM     63  C   UNL A   1      42.092  30.406  35.034  1.00  0.00     0.074 A 
ATOM     64  C   UNL A   1      42.434  30.880  36.359  1.00  0.00     0.031 C 
ATOM     65  C   UNL A   1      42.745  29.410  34.387  1.00  0.00     0.037 A 
BRANCH  52  66
ATOM     66  C   UNL A   1      40.416  28.046  28.827  1.00  0.00     0.064 A 
ATOM     67  C   UNL A   1      41.160  28.404  27.692  1.00  0.00     0.173 A 
ATOM     68  C   UNL A   1      39.738  26.818  28.806  1.00  0.00     0.173 A 
ATOM     69  F   UNL A   1      41.817  29.572  27.655  1.00  0.00    -0.203 F 
ATOM     70  C   UNL A   1      41.200  27.578  26.571  1.00  0.00     0.198 A 
ATOM     71  C   UNL A   1      39.808  25.979  27.696  1.00  0.00     0.198 A 
ATOM     72  F   UNL A   1      39.016  26.424  29.864  1.00  0.00    -0.203 F 
ATOM     73  F   UNL A   1      41.873  27.967  25.479  1.00  0.00    -0.200 F 
ATOM     74  C   UNL A   1      40.530  26.364  26.576  1.00  0.00     0.200 A 
ATOM     75  F   UNL A   1      39.173  24.800  27.708  1.00  0.00    -0.200 F 
ATOM     76  F   UNL A   1      40.576  25.567  25.501  1.00  0.00    -0.200 F 
ENDBRANCH  52  66
BRANCH  53  77
ATOM     77  C   UNL A   1      39.537  33.902  36.881  1.00  0.00     0.064 A 
ATOM     78  C   UNL A   1      38.773  33.474  37.977  1.00  0.00     0.173 A 
ATOM     79  C   UNL A   1      40.155  35.158  36.971  1.00  0.00     0.173 A 
ATOM     80  F   UNL A   1      38.146  32.289  37.933  1.00  0.00    -0.203 F 
ATOM     81  C   UNL A   1      38.609  34.280  39.101  1.00  0.00     0.198 A 
ATOM     82  C   UNL A   1      40.018  35.950  38.109  1.00  0.00     0.198 A 
ATOM     83  F   UNL A   1      40.901  35.613  35.954  1.00  0.00    -0.203 F 
ATOM     84  F   UNL A   1      37.830  33.869  40.111  1.00  0.00    -0.200 F 
ATOM     85  C   UNL A   1      39.236  35.515  39.168  1.00  0.00     0.200 A 
ATOM     86  F   UNL A   1      40.637  37.137  38.176  1.00  0.00    -0.200 F 
ATOM     87  F   UNL A   1      39.080  36.290  40.251  1.00  0.00    -0.200 F 
ENDBRANCH  53  77
BRANCH  65  88
ATOM     88  C   UNL A   1      43.924  28.793  35.083  1.00  0.00     0.064 A 
ATOM     89  C   UNL A   1      43.790  27.667  35.908  1.00  0.00     0.173 A 
ATOM     90  C   UNL A   1      45.213  29.314  34.889  1.00  0.00     0.173 A 
ATOM     91  F   UNL A   1      42.578  27.138  36.138  1.00  0.00    -0.203 F 
ATOM     92  C   UNL A   1      44.898  27.101  36.534  1.00  0.00     0.198 A 
ATOM     93  C   UNL A   1      46.324  28.725  35.488  1.00  0.00     0.198 A 
ATOM     94  F   UNL A   1      45.399  30.385  34.104  1.00  0.00    -0.203 F 
ATOM     95  F   UNL A   1      44.739  26.057  37.358  1.00  0.00    -0.200 F 
ATOM     96  C   UNL A   1      46.164  27.625  36.317  1.00  0.00     0.200 A 
ATOM     97  F   UNL A   1      47.547  29.222  35.263  1.00  0.00    -0.200 F 
ATOM     98  F   UNL A   1      47.230  27.074  36.912  1.00  0.00    -0.200 F 
ENDBRANCH  65  88
ENDBRANCH  39  40
ENDBRANCH  31  34
ENDBRANCH  29  30
ENDBRANCH  28  29
ENDBRANCH  27  28
ENDBRANCH   1  27
TORSDOF 17
ENDMDL
