MODEL 1
REMARK VINA RESULT:     -13.5      0.000      0.000
REMARK SMILES Cc1cc(C(=O)NCCCCNC(=O)c2ccc(-c3c4nc(c(-c5c(F)c(F)c(F)c(F)c5F)c5ccc([nH]5)c(-c5c(F)c(F)c(F)c(F)c5F)c5nc(c(-c6c(F)c(F)c(F)c(F)c6F)c6ccc3[nH]6)C=C5)C=C4)cc2)nc(N2CCN(c3ccccc3Cl)CC2)n1
REMARK SMILES IDX 9 1 8 2 7 3 5 4 6 5 4 7 1 8 2 9 3 10 93 11 79 12 78 13 80 14
REMARK SMILES IDX 81 15 92 16 82 17 91 18 83 19 84 20 85 21 89 22 86 23 88 24
REMARK SMILES IDX 90 25 87 26 10 27 11 28 12 29 13 30 14 32 15 33 16 34 77 35
REMARK SMILES IDX 17 36 76 37 18 38 19 39 20 40 70 41 21 42 75 43 69 44 71 45
REMARK SMILES IDX 22 46 74 47 68 48 67 49 23 51 55 52 35 53 54 54 36 55 39 56
REMARK SMILES IDX 53 57 72 58 37 59 38 60 52 62 73 63 40 64 24 65 25 66 33 67
REMARK SMILES IDX 26 68 27 69 31 70 34 71 28 72 29 73 32 74 30 75 56 76 57 77
REMARK SMILES IDX 65 78 58 79 59 80 63 81 66 82 60 83 61 84 64 85 62 86 41 87
REMARK SMILES IDX 42 88 50 89 43 90 44 91 48 92 51 93 45 94 46 95 49 96 47 97
REMARK H PARENT 7 6 12 31 71 50 39 61
REMARK Flexibility Score: inf
ROOT
ATOM      1  C   UNL A   1      31.602  30.869  25.933  1.00  0.00     0.023 C 
ENDROOT
BRANCH   1   2
ATOM      2  C   UNL A   1      32.810  30.001  26.288  1.00  0.00     0.116 C 
BRANCH   2   3
ATOM      3  N   UNL A   1      33.554  29.696  25.091  1.00  0.00    -0.351 N 
ATOM      4  C   UNL A   1      33.414  28.711  24.144  1.00  0.00     0.270 C 
ATOM      5  O   UNL A   1      34.309  28.652  23.297  1.00  0.00    -0.268 OA
ATOM      6  H   UNL A   1      34.305  30.309  24.920  1.00  0.00     0.163 HD
BRANCH   4   7
ATOM      7  C   UNL A   1      32.237  27.777  24.060  1.00  0.00     0.133 A 
ATOM      8  C   UNL A   1      28.558  27.393  23.558  1.00  0.00     0.067 C 
ATOM      9  C   UNL A   1      30.019  27.108  23.743  1.00  0.00     0.044 A 
ATOM     10  C   UNL A   1      30.916  28.138  23.947  1.00  0.00     0.058 A 
ATOM     11  N   UNL A   1      30.393  25.813  23.741  1.00  0.00    -0.218 NA
ATOM     12  C   UNL A   1      31.681  25.543  23.986  1.00  0.00     0.226 A 
ATOM     13  N   UNL A   1      32.609  26.487  24.115  1.00  0.00    -0.208 NA
BRANCH  12  14
ATOM     14  N   UNL A   1      32.109  24.251  24.166  1.00  0.00    -0.337 N 
ATOM     15  C   UNL A   1      33.112  23.687  23.265  1.00  0.00     0.141 C 
ATOM     16  C   UNL A   1      31.033  23.342  24.592  1.00  0.00     0.141 C 
ATOM     17  C   UNL A   1      33.708  22.399  23.891  1.00  0.00     0.138 C 
ATOM     18  C   UNL A   1      31.608  22.041  25.176  1.00  0.00     0.138 C 
ATOM     19  N   UNL A   1      32.620  21.487  24.266  1.00  0.00    -0.367 N 
BRANCH  19  20
ATOM     20  C   UNL A   1      32.716  20.123  24.096  1.00  0.00     0.056 A 
ATOM     21  C   UNL A   1      33.206  19.312  25.131  1.00  0.00     0.027 A 
ATOM     22  C   UNL A   1      32.342  19.488  22.891  1.00  0.00     0.064 A 
ATOM     23  C   UNL A   1      33.318  17.927  24.977  1.00  0.00     0.002 A 
ATOM     24  C   UNL A   1      32.462  18.104  22.733  1.00  0.00     0.023 A 
ATOM     25  Cl  UNL A   1      31.785  20.393  21.521  1.00  0.00    -0.082 Cl
ATOM     26  C   UNL A   1      32.949  17.324  23.778  1.00  0.00     0.002 A 
ENDBRANCH  19  20
ENDBRANCH  12  14
ENDBRANCH   4   7
ENDBRANCH   2   3
ENDBRANCH   1   2
BRANCH   1  27
ATOM     27  C   UNL A   1      31.385  32.040  26.897  1.00  0.00     0.023 C 
BRANCH  27  28
ATOM     28  C   UNL A   1      32.652  32.809  27.255  1.00  0.00     0.116 C 
BRANCH  28  29
ATOM     29  N   UNL A   1      32.393  34.190  27.632  1.00  0.00    -0.352 N 
ATOM     30  C   UNL A   1      33.028  34.949  28.584  1.00  0.00     0.251 C 
ATOM     31  H   UNL A   1      31.667  34.639  27.139  1.00  0.00     0.163 HD
ATOM     32  O   UNL A   1      32.625  36.067  28.862  1.00  0.00    -0.269 OA
BRANCH  30  33
ATOM     33  C   UNL A   1      34.180  34.370  29.301  1.00  0.00     0.039 A 
ATOM     34  C   UNL A   1      33.937  33.569  30.418  1.00  0.00     0.014 A 
ATOM     35  C   UNL A   1      35.483  34.583  28.846  1.00  0.00     0.014 A 
ATOM     36  C   UNL A   1      35.003  32.924  31.045  1.00  0.00     0.010 A 
ATOM     37  C   UNL A   1      36.536  33.888  29.430  1.00  0.00     0.010 A 
ATOM     38  C   UNL A   1      36.305  33.052  30.533  1.00  0.00    -0.014 A 
BRANCH  38  39
ATOM     39  C   UNL A   1      37.440  32.313  31.134  1.00  0.00     0.031 A 
ATOM     40  C   UNL A   1      37.935  32.681  32.502  1.00  0.00     0.074 A 
ATOM     41  C   UNL A   1      38.068  31.363  30.416  1.00  0.00     0.049 A 
ATOM     42  N   UNL A   1      38.955  32.205  33.169  1.00  0.00    -0.248 NA
ATOM     43  C   UNL A   1      37.204  33.750  33.202  1.00  0.00     0.031 C 
ATOM     44  C   UNL A   1      37.713  30.958  29.055  1.00  0.00     0.029 A 
ATOM     45  N   UNL A   1      39.147  30.575  30.726  1.00  0.00    -0.354 N 
ATOM     46  C   UNL A   1      38.998  32.925  34.355  1.00  0.00     0.074 A 
ATOM     47  C   UNL A   1      37.936  33.906  34.295  1.00  0.00     0.031 C 
ATOM     48  C   UNL A   1      38.545  29.984  28.655  1.00  0.00     0.029 A 
ATOM     49  C   UNL A   1      39.511  29.720  29.717  1.00  0.00     0.049 A 
ATOM     50  H   UNL A   1      39.616  30.619  31.591  1.00  0.00     0.167 HD
ATOM     51  C   UNL A   1      39.834  32.767  35.409  1.00  0.00     0.037 A 
ATOM     52  C   UNL A   1      40.515  28.825  29.655  1.00  0.00     0.037 A 
ATOM     53  C   UNL A   1      40.871  31.770  35.474  1.00  0.00     0.049 A 
ATOM     54  C   UNL A   1      41.424  28.659  30.843  1.00  0.00     0.074 A 
ATOM     55  C   UNL A   1      41.726  31.482  36.522  1.00  0.00     0.029 A 
ATOM     56  N   UNL A   1      41.192  30.900  34.442  1.00  0.00    -0.354 N 
ATOM     57  N   UNL A   1      41.409  29.293  31.989  1.00  0.00    -0.248 NA
ATOM     58  C   UNL A   1      42.481  27.645  30.730  1.00  0.00     0.031 C 
ATOM     59  C   UNL A   1      42.593  30.463  36.110  1.00  0.00     0.029 A 
ATOM     60  C   UNL A   1      42.247  30.086  34.822  1.00  0.00     0.049 A 
ATOM     61  H   UNL A   1      40.738  30.865  33.569  1.00  0.00     0.167 HD
ATOM     62  C   UNL A   1      42.434  28.741  32.744  1.00  0.00     0.074 A 
ATOM     63  C   UNL A   1      43.044  27.710  31.930  1.00  0.00     0.031 C 
ATOM     64  C   UNL A   1      42.835  29.059  33.999  1.00  0.00     0.037 A 
BRANCH  51  65
ATOM     65  C   UNL A   1      39.656  33.691  36.577  1.00  0.00     0.064 A 
ATOM     66  C   UNL A   1      40.290  34.943  36.628  1.00  0.00     0.173 A 
ATOM     67  C   UNL A   1      38.829  33.331  37.651  1.00  0.00     0.173 A 
ATOM     68  F   UNL A   1      41.103  35.328  35.632  1.00  0.00    -0.203 F 
ATOM     69  C   UNL A   1      40.127  35.785  37.724  1.00  0.00     0.198 A 
ATOM     70  C   UNL A   1      38.644  34.189  38.732  1.00  0.00     0.198 A 
ATOM     71  F   UNL A   1      38.197  32.149  37.651  1.00  0.00    -0.203 F 
ATOM     72  F   UNL A   1      40.786  36.951  37.775  1.00  0.00    -0.200 F 
ATOM     73  C   UNL A   1      39.300  35.410  38.772  1.00  0.00     0.200 A 
ATOM     74  F   UNL A   1      37.836  33.831  39.739  1.00  0.00    -0.200 F 
ATOM     75  F   UNL A   1      39.142  36.223  39.826  1.00  0.00    -0.200 F 
ENDBRANCH  51  65
BRANCH  52  76
ATOM     76  C   UNL A   1      40.690  27.995  28.436  1.00  0.00     0.064 A 
ATOM     77  C   UNL A   1      40.074  26.741  28.328  1.00  0.00     0.173 A 
ATOM     78  C   UNL A   1      41.464  28.438  27.354  1.00  0.00     0.173 A 
ATOM     79  F   UNL A   1      39.339  26.267  29.345  1.00  0.00    -0.203 F 
ATOM     80  C   UNL A   1      40.237  25.955  27.190  1.00  0.00     0.198 A 
ATOM     81  C   UNL A   1      41.606  27.662  26.206  1.00  0.00     0.198 A 
ATOM     82  F   UNL A   1      42.070  29.634  27.406  1.00  0.00    -0.203 F 
ATOM     83  F   UNL A   1      39.668  24.743  27.128  1.00  0.00    -0.200 F 
ATOM     84  C   UNL A   1      40.999  26.418  26.128  1.00  0.00     0.200 A 
ATOM     85  F   UNL A   1      42.331  28.119  25.175  1.00  0.00    -0.200 F 
ATOM     86  F   UNL A   1      41.150  25.663  25.030  1.00  0.00    -0.200 F 
ENDBRANCH  52  76
BRANCH  64  87
ATOM     87  C   UNL A   1      43.964  28.262  34.582  1.00  0.00     0.064 A 
ATOM     88  C   UNL A   1      45.295  28.694  34.486  1.00  0.00     0.173 A 
ATOM     89  C   UNL A   1      43.706  27.074  35.283  1.00  0.00     0.173 A 
ATOM     90  F   UNL A   1      45.593  29.815  33.812  1.00  0.00    -0.203 F 
ATOM     91  C   UNL A   1      46.329  27.953  35.053  1.00  0.00     0.198 A 
ATOM     92  C   UNL A   1      44.739  26.352  35.872  1.00  0.00     0.198 A 
ATOM     93  F   UNL A   1      42.448  26.623  35.407  1.00  0.00    -0.203 F 
ATOM     94  F   UNL A   1      47.598  28.362  34.913  1.00  0.00    -0.200 F 
ATOM     95  C   UNL A   1      46.049  26.788  35.751  1.00  0.00     0.200 A 
ATOM     96  F   UNL A   1      44.466  25.232  36.557  1.00  0.00    -0.200 F 
ATOM     97  F   UNL A   1      47.046  26.081  36.302  1.00  0.00    -0.200 F 
ENDBRANCH  64  87
ENDBRANCH  38  39
ENDBRANCH  30  33
ENDBRANCH  28  29
ENDBRANCH  27  28
ENDBRANCH   1  27
TORSDOF 13
ENDMDL
MODEL 2
REMARK VINA RESULT:     -13.5      5.398      9.927
REMARK SMILES Cc1cc(C(=O)NCCCCNC(=O)c2ccc(-c3c4nc(c(-c5c(F)c(F)c(F)c(F)c5F)c5ccc([nH]5)c(-c5c(F)c(F)c(F)c(F)c5F)c5nc(c(-c6c(F)c(F)c(F)c(F)c6F)c6ccc3[nH]6)C=C5)C=C4)cc2)nc(N2CCN(c3ccccc3Cl)CC2)n1
REMARK SMILES IDX 9 1 8 2 7 3 5 4 6 5 4 7 1 8 2 9 3 10 93 11 79 12 78 13 80 14
REMARK SMILES IDX 81 15 92 16 82 17 91 18 83 19 84 20 85 21 89 22 86 23 88 24
REMARK SMILES IDX 90 25 87 26 10 27 11 28 12 29 13 30 14 32 15 33 16 34 77 35
REMARK SMILES IDX 17 36 76 37 18 38 19 39 20 40 70 41 21 42 75 43 69 44 71 45
REMARK SMILES IDX 22 46 74 47 68 48 67 49 23 51 55 52 35 53 54 54 36 55 39 56
REMARK SMILES IDX 53 57 72 58 37 59 38 60 52 62 73 63 40 64 24 65 25 66 33 67
REMARK SMILES IDX 26 68 27 69 31 70 34 71 28 72 29 73 32 74 30 75 56 76 57 77
REMARK SMILES IDX 65 78 58 79 59 80 63 81 66 82 60 83 61 84 64 85 62 86 41 87
REMARK SMILES IDX 42 88 50 89 43 90 44 91 48 92 51 93 45 94 46 95 49 96 47 97
REMARK H PARENT 7 6 12 31 71 50 39 61
REMARK Flexibility Score: inf
ROOT
ATOM      1  C   UNL A   1      37.117  21.198  24.449  1.00  0.00     0.023 C 
ENDROOT
BRANCH   1   2
ATOM      2  C   UNL A   1      36.955  22.395  25.387  1.00  0.00     0.116 C 
BRANCH   2   3
ATOM      3  N   UNL A   1      36.081  22.039  26.478  1.00  0.00    -0.351 N 
ATOM      4  C   UNL A   1      34.716  21.912  26.563  1.00  0.00     0.270 C 
ATOM      5  O   UNL A   1      34.267  21.712  27.695  1.00  0.00    -0.268 OA
ATOM      6  H   UNL A   1      36.552  21.851  27.322  1.00  0.00     0.163 HD
BRANCH   4   7
ATOM      7  C   UNL A   1      33.787  21.946  25.380  1.00  0.00     0.133 A 
ATOM      8  C   UNL A   1      32.087  20.032  22.663  1.00  0.00     0.067 C 
ATOM      9  C   UNL A   1      32.511  21.121  23.603  1.00  0.00     0.044 A 
ATOM     10  C   UNL A   1      33.503  20.899  24.536  1.00  0.00     0.058 A 
ATOM     11  N   UNL A   1      31.909  22.319  23.459  1.00  0.00    -0.218 NA
ATOM     12  C   UNL A   1      32.335  23.321  24.237  1.00  0.00     0.226 A 
ATOM     13  N   UNL A   1      33.232  23.156  25.206  1.00  0.00    -0.208 NA
BRANCH  12  14
ATOM     14  N   UNL A   1      31.894  24.605  24.039  1.00  0.00    -0.337 N 
ATOM     15  C   UNL A   1      31.056  25.248  25.049  1.00  0.00     0.141 C 
ATOM     16  C   UNL A   1      31.550  24.886  22.635  1.00  0.00     0.141 C 
ATOM     17  C   UNL A   1      31.019  26.779  24.797  1.00  0.00     0.138 C 
ATOM     18  C   UNL A   1      31.467  26.400  22.380  1.00  0.00     0.138 C 
ATOM     19  N   UNL A   1      30.629  27.037  23.406  1.00  0.00    -0.367 N 
BRANCH  19  20
ATOM     20  C   UNL A   1      29.793  28.076  23.060  1.00  0.00     0.056 A 
ATOM     21  C   UNL A   1      30.319  29.262  22.526  1.00  0.00     0.027 A 
ATOM     22  C   UNL A   1      28.393  28.002  23.231  1.00  0.00     0.064 A 
ATOM     23  C   UNL A   1      29.489  30.331  22.174  1.00  0.00     0.002 A 
ATOM     24  C   UNL A   1      27.563  29.074  22.888  1.00  0.00     0.023 A 
ATOM     25  Cl  UNL A   1      27.636  26.612  23.941  1.00  0.00    -0.082 Cl
ATOM     26  C   UNL A   1      28.112  30.238  22.358  1.00  0.00     0.002 A 
ENDBRANCH  19  20
ENDBRANCH  12  14
ENDBRANCH   4   7
ENDBRANCH   2   3
ENDBRANCH   1   2
BRANCH   1  27
ATOM     27  C   UNL A   1      37.859  20.018  25.086  1.00  0.00     0.023 C 
BRANCH  27  28
ATOM     28  C   UNL A   1      39.179  20.385  25.752  1.00  0.00     0.116 C 
BRANCH  28  29
ATOM     29  N   UNL A   1      40.105  19.265  25.838  1.00  0.00    -0.352 N 
ATOM     30  C   UNL A   1      41.453  19.290  26.103  1.00  0.00     0.251 C 
ATOM     31  H   UNL A   1      39.713  18.375  25.688  1.00  0.00     0.163 HD
ATOM     32  O   UNL A   1      42.120  18.269  26.037  1.00  0.00    -0.269 OA
BRANCH  30  33
ATOM     33  C   UNL A   1      42.090  20.581  26.423  1.00  0.00     0.039 A 
ATOM     34  C   UNL A   1      42.519  21.393  25.371  1.00  0.00     0.014 A 
ATOM     35  C   UNL A   1      42.222  21.001  27.749  1.00  0.00     0.014 A 
ATOM     36  C   UNL A   1      43.024  22.663  25.648  1.00  0.00     0.010 A 
ATOM     37  C   UNL A   1      42.664  22.291  28.019  1.00  0.00     0.010 A 
ATOM     38  C   UNL A   1      43.067  23.133  26.971  1.00  0.00    -0.014 A 
BRANCH  38  39
ATOM     39  C   UNL A   1      43.526  24.508  27.279  1.00  0.00     0.031 A 
ATOM     40  C   UNL A   1      42.562  25.515  27.835  1.00  0.00     0.074 A 
ATOM     41  C   UNL A   1      44.792  24.866  26.988  1.00  0.00     0.049 A 
ATOM     42  N   UNL A   1      42.750  26.782  28.102  1.00  0.00    -0.248 NA
ATOM     43  C   UNL A   1      41.193  25.042  28.095  1.00  0.00     0.031 C 
ATOM     44  C   UNL A   1      45.802  23.990  26.395  1.00  0.00     0.029 A 
ATOM     45  N   UNL A   1      45.438  26.065  27.141  1.00  0.00    -0.354 N 
ATOM     46  C   UNL A   1      41.525  27.259  28.545  1.00  0.00     0.074 A 
ATOM     47  C   UNL A   1      40.586  26.161  28.460  1.00  0.00     0.031 C 
ATOM     48  C   UNL A   1      46.947  24.675  26.251  1.00  0.00     0.029 A 
ATOM     49  C   UNL A   1      46.742  26.045  26.712  1.00  0.00     0.049 A 
ATOM     50  H   UNL A   1      45.009  26.865  27.522  1.00  0.00     0.167 HD
ATOM     51  C   UNL A   1      41.216  28.496  29.002  1.00  0.00     0.037 A 
ATOM     52  C   UNL A   1      47.665  27.025  26.689  1.00  0.00     0.037 A 
ATOM     53  C   UNL A   1      42.162  29.576  29.110  1.00  0.00     0.049 A 
ATOM     54  C   UNL A   1      47.302  28.387  27.214  1.00  0.00     0.074 A 
ATOM     55  C   UNL A   1      41.966  30.845  29.624  1.00  0.00     0.029 A 
ATOM     56  N   UNL A   1      43.482  29.510  28.692  1.00  0.00    -0.354 N 
ATOM     57  N   UNL A   1      46.160  28.808  27.700  1.00  0.00    -0.248 NA
ATOM     58  C   UNL A   1      48.359  29.407  27.194  1.00  0.00     0.031 C 
ATOM     59  C   UNL A   1      43.160  31.562  29.480  1.00  0.00     0.029 A 
ATOM     60  C   UNL A   1      44.111  30.724  28.919  1.00  0.00     0.049 A 
ATOM     61  H   UNL A   1      43.911  28.718  28.294  1.00  0.00     0.167 HD
ATOM     62  C   UNL A   1      46.366  30.130  28.069  1.00  0.00     0.074 A 
ATOM     63  C   UNL A   1      47.747  30.439  27.761  1.00  0.00     0.031 C 
ATOM     64  C   UNL A   1      45.490  31.010  28.613  1.00  0.00     0.037 A 
BRANCH  51  65
ATOM     65  C   UNL A   1      39.797  28.743  29.423  1.00  0.00     0.064 A 
ATOM     66  C   UNL A   1      39.365  28.494  30.736  1.00  0.00     0.173 A 
ATOM     67  C   UNL A   1      38.861  29.252  28.511  1.00  0.00     0.173 A 
ATOM     68  F   UNL A   1      40.218  27.994  31.643  1.00  0.00    -0.203 F 
ATOM     69  C   UNL A   1      38.042  28.714  31.109  1.00  0.00     0.198 A 
ATOM     70  C   UNL A   1      37.546  29.499  28.896  1.00  0.00     0.198 A 
ATOM     71  F   UNL A   1      39.222  29.511  27.246  1.00  0.00    -0.203 F 
ATOM     72  F   UNL A   1      37.641  28.416  32.353  1.00  0.00    -0.200 F 
ATOM     73  C   UNL A   1      37.136  29.222  30.191  1.00  0.00     0.200 A 
ATOM     74  F   UNL A   1      36.673  30.001  28.011  1.00  0.00    -0.200 F 
ATOM     75  F   UNL A   1      35.863  29.435  30.553  1.00  0.00    -0.200 F 
ENDBRANCH  51  65
BRANCH  52  76
ATOM     76  C   UNL A   1      49.032  26.739  26.182  1.00  0.00     0.064 A 
ATOM     77  C   UNL A   1      49.999  26.161  27.016  1.00  0.00     0.173 A 
ATOM     78  C   UNL A   1      49.397  27.027  24.860  1.00  0.00     0.173 A 
ATOM     79  F   UNL A   1      49.702  25.885  28.294  1.00  0.00    -0.203 F 
ATOM     80  C   UNL A   1      51.284  25.894  26.550  1.00  0.00     0.198 A 
ATOM     81  C   UNL A   1      50.674  26.737  24.387  1.00  0.00     0.198 A 
ATOM     82  F   UNL A   1      48.505  27.575  24.021  1.00  0.00    -0.203 F 
ATOM     83  F   UNL A   1      52.201  25.376  27.378  1.00  0.00    -0.200 F 
ATOM     84  C   UNL A   1      51.619  26.177  25.235  1.00  0.00     0.200 A 
ATOM     85  F   UNL A   1      50.991  26.998  23.112  1.00  0.00    -0.200 F 
ATOM     86  F   UNL A   1      52.854  25.914  24.784  1.00  0.00    -0.200 F 
ENDBRANCH  52  76
BRANCH  64  87
ATOM     87  C   UNL A   1      46.006  32.379  28.942  1.00  0.00     0.064 A 
ATOM     88  C   UNL A   1      45.989  33.417  27.999  1.00  0.00     0.173 A 
ATOM     89  C   UNL A   1      46.485  32.665  30.230  1.00  0.00     0.173 A 
ATOM     90  F   UNL A   1      45.555  33.188  26.751  1.00  0.00    -0.203 F 
ATOM     91  C   UNL A   1      46.451  34.688  28.329  1.00  0.00     0.198 A 
ATOM     92  C   UNL A   1      46.920  33.944  30.563  1.00  0.00     0.198 A 
ATOM     93  F   UNL A   1      46.517  31.706  31.168  1.00  0.00    -0.203 F 
ATOM     94  F   UNL A   1      46.464  35.655  27.401  1.00  0.00    -0.200 F 
ATOM     95  C   UNL A   1      46.909  34.952  29.612  1.00  0.00     0.200 A 
ATOM     96  F   UNL A   1      47.351  34.201  31.806  1.00  0.00    -0.200 F 
ATOM     97  F   UNL A   1      47.346  36.179  29.928  1.00  0.00    -0.200 F 
ENDBRANCH  64  87
ENDBRANCH  38  39
ENDBRANCH  30  33
ENDBRANCH  28  29
ENDBRANCH  27  28
ENDBRANCH   1  27
TORSDOF 13
ENDMDL
MODEL 3
REMARK VINA RESULT:     -13.3      0.947      7.156
REMARK SMILES Cc1cc(C(=O)NCCCCNC(=O)c2ccc(-c3c4nc(c(-c5c(F)c(F)c(F)c(F)c5F)c5ccc([nH]5)c(-c5c(F)c(F)c(F)c(F)c5F)c5nc(c(-c6c(F)c(F)c(F)c(F)c6F)c6ccc3[nH]6)C=C5)C=C4)cc2)nc(N2CCN(c3ccccc3Cl)CC2)n1
REMARK SMILES IDX 9 1 8 2 7 3 5 4 6 5 4 7 1 8 2 9 3 10 93 11 79 12 78 13 80 14
REMARK SMILES IDX 81 15 92 16 82 17 91 18 83 19 84 20 85 21 89 22 86 23 88 24
REMARK SMILES IDX 90 25 87 26 10 27 11 28 12 29 13 30 14 32 15 33 16 34 77 35
REMARK SMILES IDX 17 36 76 37 18 38 19 39 20 40 70 41 21 42 75 43 69 44 71 45
REMARK SMILES IDX 22 46 74 47 68 48 67 49 23 51 55 52 35 53 54 54 36 55 39 56
REMARK SMILES IDX 53 57 72 58 37 59 38 60 52 62 73 63 40 64 24 65 25 66 33 67
REMARK SMILES IDX 26 68 27 69 31 70 34 71 28 72 29 73 32 74 30 75 56 76 57 77
REMARK SMILES IDX 65 78 58 79 59 80 63 81 66 82 60 83 61 84 64 85 62 86 41 87
REMARK SMILES IDX 42 88 50 89 43 90 44 91 48 92 51 93 45 94 46 95 49 96 47 97
REMARK H PARENT 7 6 12 31 71 50 39 61
REMARK Flexibility Score: inf
ROOT
ATOM      1  C   UNL A   1      31.741  30.837  26.092  1.00  0.00     0.023 C 
ENDROOT
BRANCH   1   2
ATOM      2  C   UNL A   1      32.939  29.895  26.228  1.00  0.00     0.116 C 
BRANCH   2   3
ATOM      3  N   UNL A   1      33.549  29.702  24.936  1.00  0.00    -0.351 N 
ATOM      4  C   UNL A   1      33.225  28.893  23.874  1.00  0.00     0.270 C 
ATOM      5  O   UNL A   1      34.041  28.873  22.948  1.00  0.00    -0.268 OA
ATOM      6  H   UNL A   1      34.350  30.254  24.786  1.00  0.00     0.163 HD
BRANCH   4   7
ATOM      7  C   UNL A   1      31.946  28.108  23.767  1.00  0.00     0.133 A 
ATOM      8  C   UNL A   1      28.256  28.174  23.206  1.00  0.00     0.067 C 
ATOM      9  C   UNL A   1      29.669  27.714  23.411  1.00  0.00     0.044 A 
ATOM     10  C   UNL A   1      30.680  28.627  23.636  1.00  0.00     0.058 A 
ATOM     11  N   UNL A   1      29.884  26.383  23.406  1.00  0.00    -0.218 NA
ATOM     12  C   UNL A   1      31.125  25.958  23.669  1.00  0.00     0.226 A 
ATOM     13  N   UNL A   1      32.158  26.783  23.819  1.00  0.00    -0.208 NA
BRANCH  12  14
ATOM     14  N   UNL A   1      31.391  24.624  23.848  1.00  0.00    -0.337 N 
ATOM     15  C   UNL A   1      31.718  24.121  25.181  1.00  0.00     0.141 C 
ATOM     16  C   UNL A   1      32.143  24.032  22.728  1.00  0.00     0.141 C 
ATOM     17  C   UNL A   1      31.589  22.575  25.199  1.00  0.00     0.138 C 
ATOM     18  C   UNL A   1      32.058  22.497  22.758  1.00  0.00     0.138 C 
ATOM     19  N   UNL A   1      32.381  22.003  24.104  1.00  0.00    -0.367 N 
BRANCH  19  20
ATOM     20  C   UNL A   1      33.103  20.839  24.253  1.00  0.00     0.056 A 
ATOM     21  C   UNL A   1      32.536  19.603  23.909  1.00  0.00     0.027 A 
ATOM     22  C   UNL A   1      34.423  20.833  24.758  1.00  0.00     0.064 A 
ATOM     23  C   UNL A   1      33.249  18.410  24.059  1.00  0.00     0.002 A 
ATOM     24  C   UNL A   1      35.134  19.640  24.916  1.00  0.00     0.023 A 
ATOM     25  Cl  UNL A   1      35.204  22.293  25.276  1.00  0.00    -0.082 Cl
ATOM     26  C   UNL A   1      34.546  18.428  24.565  1.00  0.00     0.002 A 
ENDBRANCH  19  20
ENDBRANCH  12  14
ENDBRANCH   4   7
ENDBRANCH   2   3
ENDBRANCH   1   2
BRANCH   1  27
ATOM     27  C   UNL A   1      31.658  31.885  27.208  1.00  0.00     0.023 C 
BRANCH  27  28
ATOM     28  C   UNL A   1      32.846  32.837  27.273  1.00  0.00     0.116 C 
BRANCH  28  29
ATOM     29  N   UNL A   1      32.468  34.197  27.628  1.00  0.00    -0.352 N 
ATOM     30  C   UNL A   1      33.006  35.007  28.598  1.00  0.00     0.251 C 
ATOM     31  H   UNL A   1      31.732  34.586  27.102  1.00  0.00     0.163 HD
ATOM     32  O   UNL A   1      32.508  36.093  28.849  1.00  0.00    -0.269 OA
BRANCH  30  33
ATOM     33  C   UNL A   1      34.168  34.521  29.365  1.00  0.00     0.039 A 
ATOM     34  C   UNL A   1      33.944  33.905  30.598  1.00  0.00     0.014 A 
ATOM     35  C   UNL A   1      35.461  34.635  28.849  1.00  0.00     0.014 A 
ATOM     36  C   UNL A   1      35.017  33.343  31.288  1.00  0.00     0.010 A 
ATOM     37  C   UNL A   1      36.518  34.016  29.505  1.00  0.00     0.010 A 
ATOM     38  C   UNL A   1      36.305  33.364  30.730  1.00  0.00    -0.014 A 
BRANCH  38  39
ATOM     39  C   UNL A   1      37.445  32.703  31.408  1.00  0.00     0.031 A 
ATOM     40  C   UNL A   1      38.141  31.546  30.753  1.00  0.00     0.074 A 
ATOM     41  C   UNL A   1      37.801  33.099  32.645  1.00  0.00     0.049 A 
ATOM     42  N   UNL A   1      39.107  30.792  31.213  1.00  0.00    -0.248 NA
ATOM     43  C   UNL A   1      37.666  31.165  29.413  1.00  0.00     0.031 C 
ATOM     44  C   UNL A   1      37.162  34.174  33.405  1.00  0.00     0.029 A 
ATOM     45  N   UNL A   1      38.779  32.633  33.486  1.00  0.00    -0.354 N 
ATOM     46  C   UNL A   1      39.343  29.842  30.230  1.00  0.00     0.074 A 
ATOM     47  C   UNL A   1      38.385  30.079  29.171  1.00  0.00     0.031 C 
ATOM     48  C   UNL A   1      37.776  34.299  34.591  1.00  0.00     0.029 A 
ATOM     49  C   UNL A   1      38.829  33.293  34.688  1.00  0.00     0.049 A 
ATOM     50  H   UNL A   1      39.387  31.896  33.249  1.00  0.00     0.167 HD
ATOM     51  C   UNL A   1      40.289  28.872  30.203  1.00  0.00     0.037 A 
ATOM     52  C   UNL A   1      39.634  33.103  35.751  1.00  0.00     0.037 A 
ATOM     53  C   UNL A   1      41.257  28.660  31.247  1.00  0.00     0.049 A 
ATOM     54  C   UNL A   1      40.685  32.028  35.692  1.00  0.00     0.074 A 
ATOM     55  C   UNL A   1      42.298  27.751  31.285  1.00  0.00     0.029 A 
ATOM     56  N   UNL A   1      41.296  29.368  32.439  1.00  0.00    -0.354 N 
ATOM     57  N   UNL A   1      40.949  31.182  34.726  1.00  0.00    -0.248 NA
ATOM     58  C   UNL A   1      41.555  31.888  36.868  1.00  0.00     0.031 C 
ATOM     59  C   UNL A   1      42.946  27.881  32.519  1.00  0.00     0.029 A 
ATOM     60  C   UNL A   1      42.335  28.902  33.230  1.00  0.00     0.049 A 
ATOM     61  H   UNL A   1      40.679  30.094  32.687  1.00  0.00     0.167 HD
ATOM     62  C   UNL A   1      42.029  30.428  35.164  1.00  0.00     0.074 A 
ATOM     63  C   UNL A   1      42.380  30.925  36.478  1.00  0.00     0.031 C 
ATOM     64  C   UNL A   1      42.673  29.416  34.534  1.00  0.00     0.037 A 
BRANCH  51  65
ATOM     65  C   UNL A   1      40.322  27.973  29.002  1.00  0.00     0.064 A 
ATOM     66  C   UNL A   1      41.069  28.299  27.859  1.00  0.00     0.173 A 
ATOM     67  C   UNL A   1      39.615  26.762  29.000  1.00  0.00     0.173 A 
ATOM     68  F   UNL A   1      41.752  29.453  27.806  1.00  0.00    -0.203 F 
ATOM     69  C   UNL A   1      41.080  27.462  26.747  1.00  0.00     0.198 A 
ATOM     70  C   UNL A   1      39.653  25.913  27.897  1.00  0.00     0.198 A 
ATOM     71  F   UNL A   1      38.889  26.400  30.067  1.00  0.00    -0.203 F 
ATOM     72  F   UNL A   1      41.756  27.821  25.647  1.00  0.00    -0.200 F 
ATOM     73  C   UNL A   1      40.377  26.267  26.769  1.00  0.00     0.200 A 
ATOM     74  F   UNL A   1      38.982  24.752  27.923  1.00  0.00    -0.200 F 
ATOM     75  F   UNL A   1      40.390  25.462  25.698  1.00  0.00    -0.200 F 
ENDBRANCH  51  65
BRANCH  52  76
ATOM     76  C   UNL A   1      39.497  33.975  36.946  1.00  0.00     0.064 A 
ATOM     77  C   UNL A   1      38.742  33.560  38.051  1.00  0.00     0.173 A 
ATOM     78  C   UNL A   1      40.120  35.229  37.012  1.00  0.00     0.173 A 
ATOM     79  F   UNL A   1      38.113  32.376  38.027  1.00  0.00    -0.203 F 
ATOM     80  C   UNL A   1      38.605  34.373  39.174  1.00  0.00     0.198 A 
ATOM     81  C   UNL A   1      40.002  36.031  38.145  1.00  0.00     0.198 A 
ATOM     82  F   UNL A   1      40.858  35.668  35.981  1.00  0.00    -0.203 F 
ATOM     83  F   UNL A   1      37.847  33.970  40.203  1.00  0.00    -0.200 F 
ATOM     84  C   UNL A   1      39.239  35.606  39.222  1.00  0.00     0.200 A 
ATOM     85  F   UNL A   1      40.628  37.214  38.194  1.00  0.00    -0.200 F 
ATOM     86  F   UNL A   1      39.111  36.386  40.305  1.00  0.00    -0.200 F 
ENDBRANCH  52  76
BRANCH  64  87
ATOM     87  C   UNL A   1      43.843  28.799  35.242  1.00  0.00     0.064 A 
ATOM     88  C   UNL A   1      45.147  29.284  35.066  1.00  0.00     0.173 A 
ATOM     89  C   UNL A   1      43.649  27.738  36.139  1.00  0.00     0.173 A 
ATOM     90  F   UNL A   1      45.384  30.287  34.208  1.00  0.00    -0.203 F 
ATOM     91  C   UNL A   1      46.218  28.714  35.749  1.00  0.00     0.198 A 
ATOM     92  C   UNL A   1      44.719  27.189  36.839  1.00  0.00     0.198 A 
ATOM     93  F   UNL A   1      42.419  27.242  36.344  1.00  0.00    -0.203 F 
ATOM     94  F   UNL A   1      47.462  29.166  35.535  1.00  0.00    -0.200 F 
ATOM     95  C   UNL A   1      46.002  27.673  36.640  1.00  0.00     0.200 A 
ATOM     96  F   UNL A   1      44.507  26.191  37.709  1.00  0.00    -0.200 F 
ATOM     97  F   UNL A   1      47.035  27.132  37.301  1.00  0.00    -0.200 F 
ENDBRANCH  64  87
ENDBRANCH  38  39
ENDBRANCH  30  33
ENDBRANCH  28  29
ENDBRANCH  27  28
ENDBRANCH   1  27
TORSDOF 13
ENDMDL
