MODEL 1
REMARK VINA RESULT:     -10.6      0.000      0.000
REMARK SMILES Cc1ncnc(OCCC(=O)NCCCCNC(=O)c2ccc(-c3c4nc(c(-c5c(F)c(F)c(F)c(F)c5F)c5ccc([nH]5)c(-c5c(F)c(F)c(F)c(F)c5F)c5nc(c(-c6c(F)c(F)c(F)c(F)c6F)c6ccc3[nH]6)C=C5)C=C4)cc2)c1C
REMARK SMILES IDX 14 1 13 2 12 3 10 4 11 5 9 7 8 8 7 9 6 10 1 11 2 12 3 13
REMARK SMILES IDX 83 14 4 15 84 16 5 17 15 18 16 19 17 20 18 21 19 23 20 24
REMARK SMILES IDX 21 25 82 26 22 27 81 28 23 29 24 30 25 31 75 32 26 33 80 34
REMARK SMILES IDX 74 35 76 36 27 37 79 38 73 39 72 40 28 42 60 43 40 44 59 45
REMARK SMILES IDX 41 46 44 47 58 48 77 49 42 50 43 51 57 53 78 54 45 55 29 56
REMARK SMILES IDX 30 57 38 58 31 59 32 60 36 61 39 62 33 63 34 64 37 65 35 66
REMARK SMILES IDX 61 67 62 68 70 69 63 70 64 71 68 72 71 73 65 74 66 75 69 76
REMARK SMILES IDX 67 77 46 78 47 79 55 80 48 81 49 82 53 83 56 84 50 85 51 86
REMARK SMILES IDX 54 87 52 88
REMARK H PARENT 12 6 17 22 76 41 44 52
REMARK Flexibility Score: inf
ROOT
ATOM      1  C   UNL A   1      32.992  34.950  28.871  1.00  0.00     0.023 C 
ENDROOT
BRANCH   1   2
ATOM      2  C   UNL A   1      33.306  36.183  29.707  1.00  0.00     0.116 C 
BRANCH   2   3
ATOM      3  N   UNL A   1      32.368  36.369  30.796  1.00  0.00    -0.356 N 
ATOM      4  C   UNL A   1      32.614  36.634  32.109  1.00  0.00     0.223 C 
ATOM      5  O   UNL A   1      31.646  36.828  32.844  1.00  0.00    -0.275 OA
ATOM      6  H   UNL A   1      31.418  36.292  30.552  1.00  0.00     0.163 HD
BRANCH   4   7
ATOM      7  C   UNL A   1      34.039  36.763  32.609  1.00  0.00     0.141 C 
BRANCH   7   8
ATOM      8  C   UNL A   1      34.512  35.701  33.608  1.00  0.00     0.241 C 
BRANCH   8   9
ATOM      9  O   UNL A   1      35.882  35.328  33.545  1.00  0.00    -0.477 OA
BRANCH   9  10
ATOM     10  C   UNL A   1      36.341  34.062  33.384  1.00  0.00     0.219 A 
ATOM     11  C   UNL A   1      38.299  31.187  34.754  1.00  0.00     0.067 C 
ATOM     12  C   UNL A   1      37.462  32.053  33.853  1.00  0.00     0.047 A 
ATOM     13  N   UNL A   1      36.652  31.373  33.015  1.00  0.00    -0.241 NA
ATOM     14  C   UNL A   1      37.434  33.447  33.976  1.00  0.00     0.032 A 
ATOM     15  C   UNL A   1      35.774  32.103  32.329  1.00  0.00     0.226 A 
ATOM     16  C   UNL A   1      38.614  34.178  34.530  1.00  0.00     0.052 C 
ATOM     17  N   UNL A   1      35.537  33.401  32.523  1.00  0.00    -0.202 NA
ENDBRANCH   9  10
ENDBRANCH   8   9
ENDBRANCH   7   8
ENDBRANCH   4   7
ENDBRANCH   2   3
ENDBRANCH   1   2
BRANCH   1  18
ATOM     18  C   UNL A   1      34.220  34.354  28.183  1.00  0.00     0.023 C 
BRANCH  18  19
ATOM     19  C   UNL A   1      34.649  32.999  28.707  1.00  0.00     0.116 C 
BRANCH  19  20
ATOM     20  N   UNL A   1      33.996  31.913  27.986  1.00  0.00    -0.352 N 
ATOM     21  C   UNL A   1      34.449  30.668  27.639  1.00  0.00     0.251 C 
ATOM     22  H   UNL A   1      33.075  32.108  27.701  1.00  0.00     0.163 HD
ATOM     23  O   UNL A   1      33.767  29.973  26.886  1.00  0.00    -0.269 OA
BRANCH  21  24
ATOM     24  C   UNL A   1      35.750  30.155  28.126  1.00  0.00     0.039 A 
ATOM     25  C   UNL A   1      36.843  30.169  27.252  1.00  0.00     0.014 A 
ATOM     26  C   UNL A   1      35.906  29.638  29.413  1.00  0.00     0.014 A 
ATOM     27  C   UNL A   1      38.092  29.720  27.683  1.00  0.00     0.010 A 
ATOM     28  C   UNL A   1      37.169  29.293  29.878  1.00  0.00     0.010 A 
ATOM     29  C   UNL A   1      38.271  29.312  29.012  1.00  0.00    -0.014 A 
BRANCH  29  30
ATOM     30  C   UNL A   1      39.585  28.861  29.529  1.00  0.00     0.031 A 
ATOM     31  C   UNL A   1      40.322  29.715  30.522  1.00  0.00     0.074 A 
ATOM     32  C   UNL A   1      40.144  27.737  29.045  1.00  0.00     0.049 A 
ATOM     33  N   UNL A   1      41.542  29.592  30.980  1.00  0.00    -0.248 NA
ATOM     34  C   UNL A   1      39.602  30.888  31.047  1.00  0.00     0.031 C 
ATOM     35  C   UNL A   1      39.532  26.843  28.062  1.00  0.00     0.029 A 
ATOM     36  N   UNL A   1      41.363  27.163  29.303  1.00  0.00    -0.354 N 
ATOM     37  C   UNL A   1      41.739  30.676  31.825  1.00  0.00     0.074 A 
ATOM     38  C   UNL A   1      40.539  31.481  31.773  1.00  0.00     0.031 C 
ATOM     39  C   UNL A   1      40.367  25.821  27.817  1.00  0.00     0.029 A 
ATOM     40  C   UNL A   1      41.592  26.014  28.586  1.00  0.00     0.049 A 
ATOM     41  H   UNL A   1      42.011  27.538  29.942  1.00  0.00     0.167 HD
ATOM     42  C   UNL A   1      42.815  30.957  32.596  1.00  0.00     0.037 A 
ATOM     43  C   UNL A   1      42.677  25.217  28.545  1.00  0.00     0.037 A 
ATOM     44  C   UNL A   1      43.994  30.135  32.659  1.00  0.00     0.049 A 
ATOM     45  C   UNL A   1      43.867  25.564  29.397  1.00  0.00     0.074 A 
ATOM     46  C   UNL A   1      45.131  30.315  33.426  1.00  0.00     0.029 A 
ATOM     47  N   UNL A   1      44.182  28.969  31.929  1.00  0.00    -0.354 N 
ATOM     48  N   UNL A   1      44.038  26.580  30.207  1.00  0.00    -0.248 NA
ATOM     49  C   UNL A   1      45.014  24.648  29.333  1.00  0.00     0.031 C 
ATOM     50  C   UNL A   1      46.025  29.282  33.129  1.00  0.00     0.029 A 
ATOM     51  C   UNL A   1      45.421  28.424  32.224  1.00  0.00     0.049 A 
ATOM     52  H   UNL A   1      43.531  28.586  31.298  1.00  0.00     0.167 HD
ATOM     53  C   UNL A   1      45.293  26.410  30.776  1.00  0.00     0.074 A 
ATOM     54  C   UNL A   1      45.835  25.185  30.224  1.00  0.00     0.031 C 
ATOM     55  C   UNL A   1      45.937  27.195  31.674  1.00  0.00     0.037 A 
BRANCH  42  56
ATOM     56  C   UNL A   1      42.764  32.196  33.444  1.00  0.00     0.064 A 
ATOM     57  C   UNL A   1      43.233  33.430  32.969  1.00  0.00     0.173 A 
ATOM     58  C   UNL A   1      42.190  32.164  34.724  1.00  0.00     0.173 A 
ATOM     59  F   UNL A   1      43.808  33.515  31.759  1.00  0.00    -0.203 F 
ATOM     60  C   UNL A   1      43.145  34.581  33.747  1.00  0.00     0.198 A 
ATOM     61  C   UNL A   1      42.072  33.323  35.488  1.00  0.00     0.198 A 
ATOM     62  F   UNL A   1      41.726  31.010  35.228  1.00  0.00    -0.203 F 
ATOM     63  F   UNL A   1      43.638  35.740  33.288  1.00  0.00    -0.200 F 
ATOM     64  C   UNL A   1      42.554  34.529  35.000  1.00  0.00     0.200 A 
ATOM     65  F   UNL A   1      41.489  33.273  36.693  1.00  0.00    -0.200 F 
ATOM     66  F   UNL A   1      42.452  35.641  35.742  1.00  0.00    -0.200 F 
ENDBRANCH  42  56
BRANCH  43  67
ATOM     67  C   UNL A   1      42.661  23.994  27.701  1.00  0.00     0.064 A 
ATOM     68  C   UNL A   1      42.258  22.763  28.235  1.00  0.00     0.173 A 
ATOM     69  C   UNL A   1      43.017  24.031  26.345  1.00  0.00     0.173 A 
ATOM     70  F   UNL A   1      41.928  22.672  29.532  1.00  0.00    -0.203 F 
ATOM     71  C   UNL A   1      42.221  21.613  27.449  1.00  0.00     0.198 A 
ATOM     72  C   UNL A   1      42.952  22.887  25.552  1.00  0.00     0.198 A 
ATOM     73  F   UNL A   1      43.406  25.185  25.783  1.00  0.00    -0.203 F 
ATOM     74  F   UNL A   1      41.867  20.442  27.996  1.00  0.00    -0.200 F 
ATOM     75  C   UNL A   1      42.558  21.678  26.107  1.00  0.00     0.200 A 
ATOM     76  F   UNL A   1      43.264  22.957  24.251  1.00  0.00    -0.200 F 
ATOM     77  F   UNL A   1      42.510  20.575  25.348  1.00  0.00    -0.200 F 
ENDBRANCH  43  67
BRANCH  55  78
ATOM     78  C   UNL A   1      47.281  26.732  32.158  1.00  0.00     0.064 A 
ATOM     79  C   UNL A   1      48.473  27.183  31.574  1.00  0.00     0.173 A 
ATOM     80  C   UNL A   1      47.373  25.859  33.254  1.00  0.00     0.173 A 
ATOM     81  F   UNL A   1      48.438  28.010  30.519  1.00  0.00    -0.203 F 
ATOM     82  C   UNL A   1      49.709  26.754  32.052  1.00  0.00     0.198 A 
ATOM     83  C   UNL A   1      48.611  25.461  33.749  1.00  0.00     0.198 A 
ATOM     84  F   UNL A   1      46.263  25.407  33.855  1.00  0.00    -0.203 F 
ATOM     85  F   UNL A   1      50.835  27.157  31.446  1.00  0.00    -0.200 F 
ATOM     86  C   UNL A   1      49.777  25.901  33.143  1.00  0.00     0.200 A 
ATOM     87  F   UNL A   1      48.674  24.652  34.816  1.00  0.00    -0.200 F 
ATOM     88  F   UNL A   1      50.967  25.498  33.607  1.00  0.00    -0.200 F 
ENDBRANCH  55  78
ENDBRANCH  29  30
ENDBRANCH  21  24
ENDBRANCH  19  20
ENDBRANCH  18  19
ENDBRANCH   1  18
TORSDOF 14
ENDMDL
MODEL 2
REMARK VINA RESULT:     -10.6      0.155      2.013
REMARK SMILES Cc1ncnc(OCCC(=O)NCCCCNC(=O)c2ccc(-c3c4nc(c(-c5c(F)c(F)c(F)c(F)c5F)c5ccc([nH]5)c(-c5c(F)c(F)c(F)c(F)c5F)c5nc(c(-c6c(F)c(F)c(F)c(F)c6F)c6ccc3[nH]6)C=C5)C=C4)cc2)c1C
REMARK SMILES IDX 14 1 13 2 12 3 10 4 11 5 9 7 8 8 7 9 6 10 1 11 2 12 3 13
REMARK SMILES IDX 83 14 4 15 84 16 5 17 15 18 16 19 17 20 18 21 19 23 20 24
REMARK SMILES IDX 21 25 82 26 22 27 81 28 23 29 24 30 25 31 75 32 26 33 80 34
REMARK SMILES IDX 74 35 76 36 27 37 79 38 73 39 72 40 28 42 60 43 40 44 59 45
REMARK SMILES IDX 41 46 44 47 58 48 77 49 42 50 43 51 57 53 78 54 45 55 29 56
REMARK SMILES IDX 30 57 38 58 31 59 32 60 36 61 39 62 33 63 34 64 37 65 35 66
REMARK SMILES IDX 61 67 62 68 70 69 63 70 64 71 68 72 71 73 65 74 66 75 69 76
REMARK SMILES IDX 67 77 46 78 47 79 55 80 48 81 49 82 53 83 56 84 50 85 51 86
REMARK SMILES IDX 54 87 52 88
REMARK H PARENT 12 6 17 22 76 41 44 52
REMARK Flexibility Score: inf
ROOT
ATOM      1  C   UNL A   1      32.970  35.000  28.756  1.00  0.00     0.023 C 
ENDROOT
BRANCH   1   2
ATOM      2  C   UNL A   1      33.342  36.196  29.622  1.00  0.00     0.116 C 
BRANCH   2   3
ATOM      3  N   UNL A   1      32.429  36.382  30.732  1.00  0.00    -0.356 N 
ATOM      4  C   UNL A   1      32.704  36.641  32.040  1.00  0.00     0.223 C 
ATOM      5  O   UNL A   1      31.754  36.837  32.796  1.00  0.00    -0.275 OA
ATOM      6  H   UNL A   1      31.473  36.311  30.508  1.00  0.00     0.163 HD
BRANCH   4   7
ATOM      7  C   UNL A   1      34.140  36.761  32.509  1.00  0.00     0.141 C 
BRANCH   7   8
ATOM      8  C   UNL A   1      34.597  35.760  33.575  1.00  0.00     0.241 C 
BRANCH   8   9
ATOM      9  O   UNL A   1      35.957  35.346  33.524  1.00  0.00    -0.477 OA
BRANCH   9  10
ATOM     10  C   UNL A   1      36.378  34.063  33.398  1.00  0.00     0.219 A 
ATOM     11  C   UNL A   1      38.223  31.161  34.866  1.00  0.00     0.067 C 
ATOM     12  C   UNL A   1      37.429  32.032  33.931  1.00  0.00     0.047 A 
ATOM     13  N   UNL A   1      36.613  31.359  33.094  1.00  0.00    -0.241 NA
ATOM     14  C   UNL A   1      37.441  33.428  34.024  1.00  0.00     0.032 A 
ATOM     15  C   UNL A   1      35.771  32.099  32.376  1.00  0.00     0.226 A 
ATOM     16  C   UNL A   1      38.634  34.136  34.583  1.00  0.00     0.052 C 
ATOM     17  N   UNL A   1      35.570  33.408  32.537  1.00  0.00    -0.202 NA
ENDBRANCH   9  10
ENDBRANCH   8   9
ENDBRANCH   7   8
ENDBRANCH   4   7
ENDBRANCH   2   3
ENDBRANCH   1   2
BRANCH   1  18
ATOM     18  C   UNL A   1      34.179  34.302  28.133  1.00  0.00     0.023 C 
BRANCH  18  19
ATOM     19  C   UNL A   1      34.521  32.957  28.739  1.00  0.00     0.116 C 
BRANCH  19  20
ATOM     20  N   UNL A   1      33.890  31.863  28.010  1.00  0.00    -0.352 N 
ATOM     21  C   UNL A   1      34.368  30.630  27.654  1.00  0.00     0.251 C 
ATOM     22  H   UNL A   1      32.965  32.041  27.726  1.00  0.00     0.163 HD
ATOM     23  O   UNL A   1      33.700  29.928  26.895  1.00  0.00    -0.269 OA
BRANCH  21  24
ATOM     24  C   UNL A   1      35.680  30.140  28.136  1.00  0.00     0.039 A 
ATOM     25  C   UNL A   1      36.770  30.174  27.259  1.00  0.00     0.014 A 
ATOM     26  C   UNL A   1      35.849  29.627  29.423  1.00  0.00     0.014 A 
ATOM     27  C   UNL A   1      38.028  29.747  27.686  1.00  0.00     0.010 A 
ATOM     28  C   UNL A   1      37.119  29.304  29.884  1.00  0.00     0.010 A 
ATOM     29  C   UNL A   1      38.217  29.343  29.015  1.00  0.00    -0.014 A 
BRANCH  29  30
ATOM     30  C   UNL A   1      39.541  28.915  29.528  1.00  0.00     0.031 A 
ATOM     31  C   UNL A   1      40.265  29.781  30.521  1.00  0.00     0.074 A 
ATOM     32  C   UNL A   1      40.120  27.803  29.040  1.00  0.00     0.049 A 
ATOM     33  N   UNL A   1      41.488  29.679  30.975  1.00  0.00    -0.248 NA
ATOM     34  C   UNL A   1      39.524  30.939  31.049  1.00  0.00     0.031 C 
ATOM     35  C   UNL A   1      39.522  26.899  28.056  1.00  0.00     0.029 A 
ATOM     36  N   UNL A   1      41.350  27.250  29.294  1.00  0.00    -0.354 N 
ATOM     37  C   UNL A   1      41.666  30.765  31.822  1.00  0.00     0.074 A 
ATOM     38  C   UNL A   1      40.452  31.547  31.775  1.00  0.00     0.031 C 
ATOM     39  C   UNL A   1      40.376  25.893  27.808  1.00  0.00     0.029 A 
ATOM     40  C   UNL A   1      41.599  26.108  28.574  1.00  0.00     0.049 A 
ATOM     41  H   UNL A   1      41.993  27.637  29.932  1.00  0.00     0.167 HD
ATOM     42  C   UNL A   1      42.739  31.065  32.591  1.00  0.00     0.037 A 
ATOM     43  C   UNL A   1      42.697  25.331  28.529  1.00  0.00     0.037 A 
ATOM     44  C   UNL A   1      43.933  30.264  32.650  1.00  0.00     0.049 A 
ATOM     45  C   UNL A   1      43.883  25.698  29.378  1.00  0.00     0.074 A 
ATOM     46  C   UNL A   1      45.069  30.464  33.414  1.00  0.00     0.029 A 
ATOM     47  N   UNL A   1      44.141  29.103  31.918  1.00  0.00    -0.354 N 
ATOM     48  N   UNL A   1      44.037  26.716  30.191  1.00  0.00    -0.248 NA
ATOM     49  C   UNL A   1      45.047  24.804  29.310  1.00  0.00     0.031 C 
ATOM     50  C   UNL A   1      45.981  29.448  33.113  1.00  0.00     0.029 A 
ATOM     51  C   UNL A   1      45.391  28.580  32.208  1.00  0.00     0.049 A 
ATOM     52  H   UNL A   1      43.495  28.710  31.287  1.00  0.00     0.167 HD
ATOM     53  C   UNL A   1      45.297  26.567  30.756  1.00  0.00     0.074 A 
ATOM     54  C   UNL A   1      45.860  25.354  30.200  1.00  0.00     0.031 C 
ATOM     55  C   UNL A   1      45.928  27.363  31.654  1.00  0.00     0.037 A 
BRANCH  42  56
ATOM     56  C   UNL A   1      42.667  32.300  33.442  1.00  0.00     0.064 A 
ATOM     57  C   UNL A   1      42.146  32.264  34.745  1.00  0.00     0.173 A 
ATOM     58  C   UNL A   1      43.176  33.521  32.975  1.00  0.00     0.173 A 
ATOM     59  F   UNL A   1      41.630  31.127  35.235  1.00  0.00    -0.203 F 
ATOM     60  C   UNL A   1      42.121  33.406  35.541  1.00  0.00     0.198 A 
ATOM     61  C   UNL A   1      43.181  34.654  33.786  1.00  0.00     0.198 A 
ATOM     62  F   UNL A   1      43.686  33.613  31.738  1.00  0.00    -0.203 F 
ATOM     63  F   UNL A   1      41.580  33.357  36.766  1.00  0.00    -0.200 F 
ATOM     64  C   UNL A   1      42.649  34.597  35.065  1.00  0.00     0.200 A 
ATOM     65  F   UNL A   1      43.704  35.800  33.329  1.00  0.00    -0.200 F 
ATOM     66  F   UNL A   1      42.643  35.691  35.840  1.00  0.00    -0.200 F 
ENDBRANCH  42  56
BRANCH  43  67
ATOM     67  C   UNL A   1      42.702  24.110  27.682  1.00  0.00     0.064 A 
ATOM     68  C   UNL A   1      43.056  24.181  26.328  1.00  0.00     0.173 A 
ATOM     69  C   UNL A   1      42.384  22.849  28.208  1.00  0.00     0.173 A 
ATOM     70  F   UNL A   1      43.349  25.367  25.775  1.00  0.00    -0.203 F 
ATOM     71  C   UNL A   1      43.083  23.041  25.529  1.00  0.00     0.198 A 
ATOM     72  C   UNL A   1      42.439  21.704  27.414  1.00  0.00     0.198 A 
ATOM     73  F   UNL A   1      42.043  22.725  29.499  1.00  0.00    -0.203 F 
ATOM     74  F   UNL A   1      43.389  23.144  24.228  1.00  0.00    -0.200 F 
ATOM     75  C   UNL A   1      42.784  21.802  26.074  1.00  0.00     0.200 A 
ATOM     76  F   UNL A   1      42.165  20.506  27.949  1.00  0.00    -0.200 F 
ATOM     77  F   UNL A   1      42.822  20.703  25.309  1.00  0.00    -0.200 F 
ENDBRANCH  43  67
BRANCH  55  78
ATOM     78  C   UNL A   1      47.282  26.923  32.134  1.00  0.00     0.064 A 
ATOM     79  C   UNL A   1      47.434  26.043  33.214  1.00  0.00     0.173 A 
ATOM     80  C   UNL A   1      48.440  27.356  31.468  1.00  0.00     0.173 A 
ATOM     81  F   UNL A   1      46.359  25.609  33.888  1.00  0.00    -0.203 F 
ATOM     82  C   UNL A   1      48.698  25.634  33.629  1.00  0.00     0.198 A 
ATOM     83  C   UNL A   1      49.699  26.917  31.865  1.00  0.00     0.198 A 
ATOM     84  F   UNL A   1      48.349  28.190  30.422  1.00  0.00    -0.203 F 
ATOM     85  F   UNL A   1      48.823  24.833  34.697  1.00  0.00    -0.200 F 
ATOM     86  C   UNL A   1      49.828  26.064  32.950  1.00  0.00     0.200 A 
ATOM     87  F   UNL A   1      50.789  27.319  31.195  1.00  0.00    -0.200 F 
ATOM     88  F   UNL A   1      51.043  25.661  33.346  1.00  0.00    -0.200 F 
ENDBRANCH  55  78
ENDBRANCH  29  30
ENDBRANCH  21  24
ENDBRANCH  19  20
ENDBRANCH  18  19
ENDBRANCH   1  18
TORSDOF 14
ENDMDL
MODEL 3
REMARK VINA RESULT:     -10.4      3.847     10.261
REMARK SMILES Cc1ncnc(OCCC(=O)NCCCCNC(=O)c2ccc(-c3c4nc(c(-c5c(F)c(F)c(F)c(F)c5F)c5ccc([nH]5)c(-c5c(F)c(F)c(F)c(F)c5F)c5nc(c(-c6c(F)c(F)c(F)c(F)c6F)c6ccc3[nH]6)C=C5)C=C4)cc2)c1C
REMARK SMILES IDX 14 1 13 2 12 3 10 4 11 5 9 7 8 8 7 9 6 10 1 11 2 12 3 13
REMARK SMILES IDX 83 14 4 15 84 16 5 17 15 18 16 19 17 20 18 21 19 23 20 24
REMARK SMILES IDX 21 25 82 26 22 27 81 28 23 29 24 30 25 31 75 32 26 33 80 34
REMARK SMILES IDX 74 35 76 36 27 37 79 38 73 39 72 40 28 42 60 43 40 44 59 45
REMARK SMILES IDX 41 46 44 47 58 48 77 49 42 50 43 51 57 53 78 54 45 55 29 56
REMARK SMILES IDX 30 57 38 58 31 59 32 60 36 61 39 62 33 63 34 64 37 65 35 66
REMARK SMILES IDX 61 67 62 68 70 69 63 70 64 71 68 72 71 73 65 74 66 75 69 76
REMARK SMILES IDX 67 77 46 78 47 79 55 80 48 81 49 82 53 83 56 84 50 85 51 86
REMARK SMILES IDX 54 87 52 88
REMARK H PARENT 12 6 17 22 76 41 44 52
REMARK Flexibility Score: inf
ROOT
ATOM      1  C   UNL A   1      31.410  30.664  26.650  1.00  0.00     0.023 C 
ENDROOT
BRANCH   1   2
ATOM      2  C   UNL A   1      31.725  30.060  25.288  1.00  0.00     0.116 C 
BRANCH   2   3
ATOM      3  N   UNL A   1      32.680  28.973  25.370  1.00  0.00    -0.356 N 
ATOM      4  C   UNL A   1      32.458  27.630  25.376  1.00  0.00     0.223 C 
ATOM      5  O   UNL A   1      33.439  26.888  25.378  1.00  0.00    -0.275 OA
ATOM      6  H   UNL A   1      33.624  29.244  25.431  1.00  0.00     0.163 HD
BRANCH   4   7
ATOM      7  C   UNL A   1      31.044  27.089  25.301  1.00  0.00     0.141 C 
BRANCH   7   8
ATOM      8  C   UNL A   1      30.655  26.371  24.004  1.00  0.00     0.241 C 
BRANCH   8   9
ATOM      9  O   UNL A   1      29.472  26.819  23.354  1.00  0.00    -0.477 OA
BRANCH   9  10
ATOM     10  C   UNL A   1      29.243  28.088  22.936  1.00  0.00     0.219 A 
ATOM     11  C   UNL A   1      27.475  31.341  23.460  1.00  0.00     0.067 C 
ATOM     12  C   UNL A   1      28.348  30.258  22.886  1.00  0.00     0.047 A 
ATOM     13  N   UNL A   1      29.401  30.706  22.172  1.00  0.00    -0.241 NA
ATOM     14  C   UNL A   1      28.150  28.906  23.186  1.00  0.00     0.032 A 
ATOM     15  C   UNL A   1      30.288  29.786  21.797  1.00  0.00     0.226 A 
ATOM     16  C   UNL A   1      26.789  28.405  23.549  1.00  0.00     0.052 C 
ATOM     17  N   UNL A   1      30.293  28.514  22.201  1.00  0.00    -0.202 NA
ENDBRANCH   9  10
ENDBRANCH   8   9
ENDBRANCH   7   8
ENDBRANCH   4   7
ENDBRANCH   2   3
ENDBRANCH   1   2
BRANCH   1  18
ATOM     18  C   UNL A   1      31.391  32.192  26.648  1.00  0.00     0.023 C 
BRANCH  18  19
ATOM     19  C   UNL A   1      32.677  32.845  27.111  1.00  0.00     0.116 C 
BRANCH  19  20
ATOM     20  N   UNL A   1      32.444  34.191  27.620  1.00  0.00    -0.352 N 
ATOM     21  C   UNL A   1      33.044  34.880  28.640  1.00  0.00     0.251 C 
ATOM     22  H   UNL A   1      31.734  34.687  27.153  1.00  0.00     0.163 HD
ATOM     23  O   UNL A   1      32.566  35.958  28.994  1.00  0.00    -0.269 OA
BRANCH  21  24
ATOM     24  C   UNL A   1      34.232  34.344  29.341  1.00  0.00     0.039 A 
ATOM     25  C   UNL A   1      34.039  33.597  30.509  1.00  0.00     0.014 A 
ATOM     26  C   UNL A   1      35.530  34.584  28.886  1.00  0.00     0.014 A 
ATOM     27  C   UNL A   1      35.133  33.051  31.182  1.00  0.00     0.010 A 
ATOM     28  C   UNL A   1      36.609  33.953  29.491  1.00  0.00     0.010 A 
ATOM     29  C   UNL A   1      36.424  33.196  30.656  1.00  0.00    -0.014 A 
BRANCH  29  30
ATOM     30  C   UNL A   1      37.614  32.606  31.314  1.00  0.00     0.031 A 
ATOM     31  C   UNL A   1      38.359  31.492  30.632  1.00  0.00     0.074 A 
ATOM     32  C   UNL A   1      37.967  33.011  32.547  1.00  0.00     0.049 A 
ATOM     33  N   UNL A   1      39.320  30.732  31.092  1.00  0.00    -0.248 NA
ATOM     34  C   UNL A   1      37.944  31.165  29.258  1.00  0.00     0.031 C 
ATOM     35  C   UNL A   1      37.303  34.065  33.314  1.00  0.00     0.029 A 
ATOM     36  N   UNL A   1      38.965  32.571  33.381  1.00  0.00    -0.354 N 
ATOM     37  C   UNL A   1      39.607  29.831  30.076  1.00  0.00     0.074 A 
ATOM     38  C   UNL A   1      38.682  30.095  28.998  1.00  0.00     0.031 C 
ATOM     39  C   UNL A   1      37.925  34.208  34.495  1.00  0.00     0.029 A 
ATOM     40  C   UNL A   1      38.997  33.222  34.589  1.00  0.00     0.049 A 
ATOM     41  H   UNL A   1      39.597  31.857  33.135  1.00  0.00     0.167 HD
ATOM     42  C   UNL A   1      40.576  28.887  30.038  1.00  0.00     0.037 A 
ATOM     43  C   UNL A   1      39.795  33.032  35.657  1.00  0.00     0.037 A 
ATOM     44  C   UNL A   1      41.509  28.650  31.107  1.00  0.00     0.049 A 
ATOM     45  C   UNL A   1      40.850  31.962  35.597  1.00  0.00     0.074 A 
ATOM     46  C   UNL A   1      42.545  27.735  31.162  1.00  0.00     0.029 A 
ATOM     47  N   UNL A   1      41.520  29.342  32.311  1.00  0.00    -0.354 N 
ATOM     48  N   UNL A   1      41.127  31.127  34.625  1.00  0.00    -0.248 NA
ATOM     49  C   UNL A   1      41.708  31.812  36.779  1.00  0.00     0.031 C 
ATOM     50  C   UNL A   1      43.157  27.843  32.414  1.00  0.00     0.029 A 
ATOM     51  C   UNL A   1      42.542  28.868  33.117  1.00  0.00     0.049 A 
ATOM     52  H   UNL A   1      40.896  30.063  32.554  1.00  0.00     0.167 HD
ATOM     53  C   UNL A   1      42.212  30.377  35.062  1.00  0.00     0.074 A 
ATOM     54  C   UNL A   1      42.547  30.866  36.383  1.00  0.00     0.031 C 
ATOM     55  C   UNL A   1      42.869  29.377  34.426  1.00  0.00     0.037 A 
BRANCH  42  56
ATOM     56  C   UNL A   1      40.688  28.048  28.796  1.00  0.00     0.064 A 
ATOM     57  C   UNL A   1      39.971  26.850  28.653  1.00  0.00     0.173 A 
ATOM     58  C   UNL A   1      41.476  28.472  27.716  1.00  0.00     0.173 A 
ATOM     59  F   UNL A   1      39.216  26.390  29.662  1.00  0.00    -0.203 F 
ATOM     60  C   UNL A   1      40.050  26.101  27.482  1.00  0.00     0.198 A 
ATOM     61  C   UNL A   1      41.528  27.738  26.533  1.00  0.00     0.198 A 
ATOM     62  F   UNL A   1      42.183  29.609  27.799  1.00  0.00    -0.203 F 
ATOM     63  F   UNL A   1      39.388  24.940  27.385  1.00  0.00    -0.200 F 
ATOM     64  C   UNL A   1      40.819  26.551  26.420  1.00  0.00     0.200 A 
ATOM     65  F   UNL A   1      42.260  28.181  25.502  1.00  0.00    -0.200 F 
ATOM     66  F   UNL A   1      40.879  25.839  25.285  1.00  0.00    -0.200 F 
ENDBRANCH  42  56
BRANCH  43  67
ATOM     67  C   UNL A   1      39.649  33.906  36.851  1.00  0.00     0.064 A 
ATOM     68  C   UNL A   1      40.291  35.150  36.907  1.00  0.00     0.173 A 
ATOM     69  C   UNL A   1      38.849  33.535  37.941  1.00  0.00     0.173 A 
ATOM     70  F   UNL A   1      41.084  35.540  35.898  1.00  0.00    -0.203 F 
ATOM     71  C   UNL A   1      40.147  35.986  38.012  1.00  0.00     0.198 A 
ATOM     72  C   UNL A   1      38.682  34.385  39.033  1.00  0.00     0.198 A 
ATOM     73  F   UNL A   1      38.209  32.356  37.936  1.00  0.00    -0.203 F 
ATOM     74  F   UNL A   1      40.802  37.155  38.055  1.00  0.00    -0.200 F 
ATOM     75  C   UNL A   1      39.335  35.607  39.070  1.00  0.00     0.200 A 
ATOM     76  F   UNL A   1      37.884  34.022  40.047  1.00  0.00    -0.200 F 
ATOM     77  F   UNL A   1      39.187  36.418  40.126  1.00  0.00    -0.200 F 
ENDBRANCH  43  67
BRANCH  55  78
ATOM     78  C   UNL A   1      44.053  28.774  35.127  1.00  0.00     0.064 A 
ATOM     79  C   UNL A   1      45.345  29.297  34.981  1.00  0.00     0.173 A 
ATOM     80  C   UNL A   1      43.877  27.684  35.995  1.00  0.00     0.173 A 
ATOM     81  F   UNL A   1      45.566  30.331  34.157  1.00  0.00    -0.203 F 
ATOM     82  C   UNL A   1      46.424  28.733  35.656  1.00  0.00     0.198 A 
ATOM     83  C   UNL A   1      44.953  27.145  36.693  1.00  0.00     0.198 A 
ATOM     84  F   UNL A   1      42.659  27.153  36.178  1.00  0.00    -0.203 F 
ATOM     85  F   UNL A   1      47.659  29.216  35.462  1.00  0.00    -0.200 F 
ATOM     86  C   UNL A   1      46.226  27.664  36.517  1.00  0.00     0.200 A 
ATOM     87  F   UNL A   1      44.756  26.125  37.540  1.00  0.00    -0.200 F 
ATOM     88  F   UNL A   1      47.265  27.129  37.173  1.00  0.00    -0.200 F 
ENDBRANCH  55  78
ENDBRANCH  29  30
ENDBRANCH  21  24
ENDBRANCH  19  20
ENDBRANCH  18  19
ENDBRANCH   1  18
TORSDOF 14
ENDMDL
