MODEL 1
REMARK VINA RESULT:     -13.9      0.000      0.000
REMARK SMILES COc1cc([C@@H]2CC(NCCCCNC(=O)c3ccc(-c4c5nc(c(-c6c(F)c(F)c(F)c(F)c6F)c6ccc([nH]6)c(-c6c(F)c(F)c(F)c(F)c6F)c6nc(c(-c7c(F)c(F)c(F)c(F)c7F)c7ccc4[nH]7)C=C6)C=C5)cc3)=[NH+]c3c(C(=O)[O-])cn(-c4ccc(Cl)cc4)c32)cc(OC)c1O
REMARK SMILES IDX 12 1 11 2 10 3 9 4 6 5 7 6 95 7 8 8 81 9 87 10 80 11 82 12
REMARK SMILES IDX 86 13 5 16 3 17 4 18 100 19 97 20 96 21 2 22 1 23 101 24
REMARK SMILES IDX 98 26 99 27 88 28 89 29 94 30 90 31 93 32 91 33 92 34 83 35
REMARK SMILES IDX 84 36 85 37 13 38 14 39 15 40 16 42 17 43 18 44 79 45 19 46
REMARK SMILES IDX 78 47 20 48 21 49 22 50 72 51 23 52 77 53 71 54 73 55 24 56
REMARK SMILES IDX 76 57 70 58 69 59 25 61 57 62 37 63 56 64 38 65 41 66 55 67
REMARK SMILES IDX 74 68 39 69 40 70 54 72 75 73 42 74 26 75 27 76 35 77 28 78
REMARK SMILES IDX 29 79 33 80 36 81 30 82 31 83 34 84 32 85 58 86 59 87 67 88
REMARK SMILES IDX 60 89 61 90 65 91 68 92 62 93 63 94 66 95 64 96 43 97 44 98
REMARK SMILES IDX 52 99 45 100 46 101 50 102 53 103 47 104 48 105 51 106
REMARK SMILES IDX 49 107
REMARK H PARENT 9 14 80 15 101 25 14 41 73 60 41 71
REMARK Flexibility Score: inf
ROOT
ATOM      1  C   UNL A   1      33.491  30.112  26.943  1.00  0.00     0.025 C 
ENDROOT
BRANCH   1   2
ATOM      2  C   UNL A   1      33.618  28.628  26.574  1.00  0.00     0.048 C 
BRANCH   2   3
ATOM      3  C   UNL A   1      32.933  28.190  25.275  1.00  0.00     0.233 C 
BRANCH   3   4
ATOM      4  N   UNL A   1      33.690  27.155  24.585  1.00  0.00    -0.278 N 
ATOM      5  C   UNL A   1      34.011  23.359  23.994  1.00  0.00     0.083 C 
ATOM      6  C   UNL A   1      34.126  24.874  23.701  1.00  0.00     0.142 C 
ATOM      7  C   UNL A   1      32.813  23.100  24.850  1.00  0.00     0.078 A 
ATOM      8  C   UNL A   1      33.373  25.809  24.660  1.00  0.00     0.248 C 
ATOM      9  C   UNL A   1      32.082  24.087  25.459  1.00  0.00     0.155 A 
ATOM     10  N   UNL A   1      32.131  21.911  25.052  1.00  0.00    -0.315 N 
ATOM     11  N   UNL A   1      32.428  25.429  25.469  1.00  0.00    -0.243 N 
ATOM     12  C   UNL A   1      30.915  23.552  26.034  1.00  0.00     0.062 A 
ATOM     13  C   UNL A   1      30.953  22.203  25.716  1.00  0.00     0.106 A 
ATOM     14  H   UNL A   1      34.463  27.425  24.038  1.00  0.00     0.304 HD
ATOM     15  H   UNL A   1      31.977  26.069  26.065  1.00  0.00     0.312 HD
BRANCH   5  16
ATOM     16  C   UNL A   1      35.317  22.818  24.552  1.00  0.00    -0.031 A 
ATOM     17  C   UNL A   1      37.542  23.244  25.479  1.00  0.00     0.164 A 
ATOM     18  C   UNL A   1      36.297  23.703  25.030  1.00  0.00     0.055 A 
ATOM     19  C   UNL A   1      37.794  21.863  25.502  1.00  0.00     0.200 A 
ATOM     20  C   UNL A   1      36.825  20.958  25.041  1.00  0.00     0.164 A 
ATOM     21  C   UNL A   1      35.593  21.447  24.578  1.00  0.00     0.055 A 
BRANCH  17  22
ATOM     22  O   UNL A   1      38.371  24.248  25.904  1.00  0.00    -0.493 OA
ATOM     23  C   UNL A   1      38.529  24.456  27.304  1.00  0.00     0.278 C 
ENDBRANCH  17  22
BRANCH  19  24
ATOM     24  O   UNL A   1      38.962  21.393  26.038  1.00  0.00    -0.502 OA
ATOM     25  H   UNL A   1      39.107  20.471  26.110  1.00  0.00     0.293 HD
ENDBRANCH  19  24
BRANCH  20  26
ATOM     26  O   UNL A   1      36.882  19.590  25.001  1.00  0.00    -0.493 OA
ATOM     27  C   UNL A   1      38.152  18.960  25.001  1.00  0.00     0.278 C 
ENDBRANCH  20  26
ENDBRANCH   5  16
BRANCH  10  28
ATOM     28  C   UNL A   1      32.501  20.597  24.679  1.00  0.00     0.046 A 
ATOM     29  C   UNL A   1      32.982  19.706  25.640  1.00  0.00     0.028 A 
ATOM     30  C   UNL A   1      32.293  20.164  23.364  1.00  0.00     0.028 A 
ATOM     31  C   UNL A   1      33.338  18.406  25.274  1.00  0.00     0.022 A 
ATOM     32  C   UNL A   1      32.651  18.862  23.000  1.00  0.00     0.022 A 
ATOM     33  C   UNL A   1      33.183  17.994  23.954  1.00  0.00     0.041 A 
ATOM     34  Cl  UNL A   1      33.635  16.396  23.502  1.00  0.00    -0.084 Cl
ENDBRANCH  10  28
BRANCH  12  35
ATOM     35  C   UNL A   1      29.845  24.183  26.788  1.00  0.00     0.077 C 
ATOM     36  O   UNL A   1      29.540  25.358  26.717  1.00  0.00    -0.545 OA
ATOM     37  O   UNL A   1      29.161  23.369  27.626  1.00  0.00    -0.545 OA
ENDBRANCH  12  35
ENDBRANCH   3   4
ENDBRANCH   2   3
ENDBRANCH   1   2
BRANCH   1  38
ATOM     38  C   UNL A   1      34.776  30.758  27.438  1.00  0.00     0.116 C 
BRANCH  38  39
ATOM     39  N   UNL A   1      34.567  31.790  28.457  1.00  0.00    -0.352 N 
ATOM     40  C   UNL A   1      35.114  31.844  29.730  1.00  0.00     0.251 C 
ATOM     41  H   UNL A   1      33.969  32.532  28.209  1.00  0.00     0.163 HD
ATOM     42  O   UNL A   1      34.601  32.506  30.624  1.00  0.00    -0.269 OA
BRANCH  40  43
ATOM     43  C   UNL A   1      36.354  31.090  29.985  1.00  0.00     0.039 A 
ATOM     44  C   UNL A   1      36.372  29.703  30.162  1.00  0.00     0.014 A 
ATOM     45  C   UNL A   1      37.533  31.823  29.995  1.00  0.00     0.014 A 
ATOM     46  C   UNL A   1      37.605  29.060  30.272  1.00  0.00     0.010 A 
ATOM     47  C   UNL A   1      38.729  31.176  29.880  1.00  0.00     0.010 A 
ATOM     48  C   UNL A   1      38.781  29.809  30.114  1.00  0.00    -0.014 A 
BRANCH  48  49
ATOM     49  C   UNL A   1      40.099  29.189  30.095  1.00  0.00     0.031 A 
ATOM     50  C   UNL A   1      40.717  29.003  31.435  1.00  0.00     0.074 A 
ATOM     51  C   UNL A   1      40.583  28.588  28.983  1.00  0.00     0.049 A 
ATOM     52  N   UNL A   1      41.820  29.510  31.875  1.00  0.00    -0.248 NA
ATOM     53  C   UNL A   1      39.958  28.257  32.454  1.00  0.00     0.031 C 
ATOM     54  C   UNL A   1      39.929  28.398  27.682  1.00  0.00     0.029 A 
ATOM     55  N   UNL A   1      41.742  27.895  28.826  1.00  0.00    -0.354 N 
ATOM     56  C   UNL A   1      41.998  28.992  33.156  1.00  0.00     0.074 A 
ATOM     57  C   UNL A   1      40.747  28.383  33.523  1.00  0.00     0.031 C 
ATOM     58  C   UNL A   1      40.576  27.442  26.980  1.00  0.00     0.029 A 
ATOM     59  C   UNL A   1      41.782  27.081  27.697  1.00  0.00     0.049 A 
ATOM     60  H   UNL A   1      42.491  27.962  29.460  1.00  0.00     0.167 HD
ATOM     61  C   UNL A   1      43.242  28.887  33.700  1.00  0.00     0.037 A 
ATOM     62  C   UNL A   1      42.725  26.145  27.422  1.00  0.00     0.037 A 
ATOM     63  C   UNL A   1      44.183  29.739  33.015  1.00  0.00     0.049 A 
ATOM     64  C   UNL A   1      43.910  26.466  28.263  1.00  0.00     0.074 A 
ATOM     65  C   UNL A   1      44.229  31.096  32.746  1.00  0.00     0.029 A 
ATOM     66  N   UNL A   1      45.062  29.167  32.125  1.00  0.00    -0.354 N 
ATOM     67  N   UNL A   1      44.642  27.535  28.100  1.00  0.00    -0.248 NA
ATOM     68  C   UNL A   1      43.965  25.863  29.587  1.00  0.00     0.031 C 
ATOM     69  C   UNL A   1      44.681  31.184  31.394  1.00  0.00     0.029 A 
ATOM     70  C   UNL A   1      44.976  29.892  30.962  1.00  0.00     0.049 A 
ATOM     71  H   UNL A   1      45.641  28.388  32.291  1.00  0.00     0.167 HD
ATOM     72  C   UNL A   1      44.901  27.983  29.386  1.00  0.00     0.074 A 
ATOM     73  C   UNL A   1      44.506  26.881  30.263  1.00  0.00     0.031 C 
ATOM     74  C   UNL A   1      45.119  29.305  29.651  1.00  0.00     0.037 A 
BRANCH  61  75
ATOM     75  C   UNL A   1      43.680  27.749  34.592  1.00  0.00     0.064 A 
ATOM     76  C   UNL A   1      43.584  26.426  34.117  1.00  0.00     0.173 A 
ATOM     77  C   UNL A   1      43.905  27.878  35.981  1.00  0.00     0.173 A 
ATOM     78  F   UNL A   1      43.348  26.183  32.819  1.00  0.00    -0.203 F 
ATOM     79  C   UNL A   1      43.631  25.325  34.978  1.00  0.00     0.198 A 
ATOM     80  C   UNL A   1      44.007  26.776  36.828  1.00  0.00     0.198 A 
ATOM     81  F   UNL A   1      43.918  29.065  36.598  1.00  0.00    -0.203 F 
ATOM     82  F   UNL A   1      43.404  24.096  34.497  1.00  0.00    -0.200 F 
ATOM     83  C   UNL A   1      43.837  25.502  36.333  1.00  0.00     0.200 A 
ATOM     84  F   UNL A   1      44.188  26.972  38.143  1.00  0.00    -0.200 F 
ATOM     85  F   UNL A   1      43.821  24.455  37.168  1.00  0.00    -0.200 F 
ENDBRANCH  61  75
BRANCH  62  86
ATOM     86  C   UNL A   1      42.548  24.818  26.778  1.00  0.00     0.064 A 
ATOM     87  C   UNL A   1      43.137  24.540  25.533  1.00  0.00     0.173 A 
ATOM     88  C   UNL A   1      42.056  23.708  27.495  1.00  0.00     0.173 A 
ATOM     89  F   UNL A   1      43.667  25.532  24.802  1.00  0.00    -0.203 F 
ATOM     90  C   UNL A   1      43.262  23.231  25.052  1.00  0.00     0.198 A 
ATOM     91  C   UNL A   1      42.175  22.403  27.012  1.00  0.00     0.198 A 
ATOM     92  F   UNL A   1      41.540  23.854  28.724  1.00  0.00    -0.203 F 
ATOM     93  F   UNL A   1      43.895  23.001  23.893  1.00  0.00    -0.200 F 
ATOM     94  C   UNL A   1      42.794  22.163  25.799  1.00  0.00     0.200 A 
ATOM     95  F   UNL A   1      41.750  21.377  27.761  1.00  0.00    -0.200 F 
ATOM     96  F   UNL A   1      42.976  20.905  25.374  1.00  0.00    -0.200 F 
ENDBRANCH  62  86
BRANCH  74  97
ATOM     97  C   UNL A   1      45.295  30.250  28.493  1.00  0.00     0.064 A 
ATOM     98  C   UNL A   1      44.239  30.919  27.845  1.00  0.00     0.173 A 
ATOM     99  C   UNL A   1      46.598  30.608  28.122  1.00  0.00     0.173 A 
ATOM    100  F   UNL A   1      42.968  30.721  28.210  1.00  0.00    -0.203 F 
ATOM    101  C   UNL A   1      44.481  31.859  26.842  1.00  0.00     0.198 A 
ATOM    102  C   UNL A   1      46.838  31.574  27.149  1.00  0.00     0.198 A 
ATOM    103  F   UNL A   1      47.649  30.049  28.742  1.00  0.00    -0.203 F 
ATOM    104  F   UNL A   1      43.453  32.469  26.232  1.00  0.00    -0.200 F 
ATOM    105  C   UNL A   1      45.780  32.190  26.500  1.00  0.00     0.200 A 
ATOM    106  F   UNL A   1      48.097  31.928  26.859  1.00  0.00    -0.200 F 
ATOM    107  F   UNL A   1      46.014  33.121  25.564  1.00  0.00    -0.200 F 
ENDBRANCH  74  97
ENDBRANCH  48  49
ENDBRANCH  40  43
ENDBRANCH  38  39
ENDBRANCH   1  38
TORSDOF 16
ENDMDL
MODEL 2
REMARK VINA RESULT:     -12.8      5.982     10.668
REMARK SMILES COc1cc([C@@H]2CC(NCCCCNC(=O)c3ccc(-c4c5nc(c(-c6c(F)c(F)c(F)c(F)c6F)c6ccc([nH]6)c(-c6c(F)c(F)c(F)c(F)c6F)c6nc(c(-c7c(F)c(F)c(F)c(F)c7F)c7ccc4[nH]7)C=C6)C=C5)cc3)=[NH+]c3c(C(=O)[O-])cn(-c4ccc(Cl)cc4)c32)cc(OC)c1O
REMARK SMILES IDX 12 1 11 2 10 3 9 4 6 5 7 6 95 7 8 8 81 9 87 10 80 11 82 12
REMARK SMILES IDX 86 13 5 16 3 17 4 18 100 19 97 20 96 21 2 22 1 23 101 24
REMARK SMILES IDX 98 26 99 27 88 28 89 29 94 30 90 31 93 32 91 33 92 34 83 35
REMARK SMILES IDX 84 36 85 37 13 38 14 39 15 40 16 42 17 43 18 44 79 45 19 46
REMARK SMILES IDX 78 47 20 48 21 49 22 50 72 51 23 52 77 53 71 54 73 55 24 56
REMARK SMILES IDX 76 57 70 58 69 59 25 61 57 62 37 63 56 64 38 65 41 66 55 67
REMARK SMILES IDX 74 68 39 69 40 70 54 72 75 73 42 74 26 75 27 76 35 77 28 78
REMARK SMILES IDX 29 79 33 80 36 81 30 82 31 83 34 84 32 85 58 86 59 87 67 88
REMARK SMILES IDX 60 89 61 90 65 91 68 92 62 93 63 94 66 95 64 96 43 97 44 98
REMARK SMILES IDX 52 99 45 100 46 101 50 102 53 103 47 104 48 105 51 106
REMARK SMILES IDX 49 107
REMARK H PARENT 9 14 80 15 101 25 14 41 73 60 41 71
REMARK Flexibility Score: inf
ROOT
ATOM      1  C   UNL A   1      41.819  26.456  36.751  1.00  0.00     0.025 C 
ENDROOT
BRANCH   1   2
ATOM      2  C   UNL A   1      42.610  27.583  36.073  1.00  0.00     0.048 C 
BRANCH   2   3
ATOM      3  C   UNL A   1      42.059  29.001  36.251  1.00  0.00     0.233 C 
BRANCH   3   4
ATOM      4  N   UNL A   1      40.697  29.120  35.749  1.00  0.00    -0.278 N 
ATOM      5  C   UNL A   1      38.479  30.685  33.012  1.00  0.00     0.083 C 
ATOM      6  C   UNL A   1      38.933  29.670  34.087  1.00  0.00     0.142 C 
ATOM      7  C   UNL A   1      39.676  31.296  32.357  1.00  0.00     0.078 A 
ATOM      8  C   UNL A   1      40.372  29.826  34.604  1.00  0.00     0.248 C 
ATOM      9  C   UNL A   1      40.959  31.140  32.815  1.00  0.00     0.155 A 
ATOM     10  N   UNL A   1      39.759  31.955  31.141  1.00  0.00    -0.315 N 
ATOM     11  N   UNL A   1      41.299  30.512  34.002  1.00  0.00    -0.243 N 
ATOM     12  C   UNL A   1      41.879  31.669  31.891  1.00  0.00     0.062 A 
ATOM     13  C   UNL A   1      41.098  32.122  30.838  1.00  0.00     0.106 A 
ATOM     14  H   UNL A   1      39.973  28.676  36.247  1.00  0.00     0.304 HD
ATOM     15  H   UNL A   1      42.207  30.581  34.375  1.00  0.00     0.312 HD
BRANCH   5  16
ATOM     16  C   UNL A   1      37.497  31.686  33.597  1.00  0.00    -0.031 A 
ATOM     17  C   UNL A   1      35.418  32.960  33.384  1.00  0.00     0.164 A 
ATOM     18  C   UNL A   1      36.309  31.987  32.913  1.00  0.00     0.055 A 
ATOM     19  C   UNL A   1      35.693  33.610  34.598  1.00  0.00     0.200 A 
ATOM     20  C   UNL A   1      36.869  33.316  35.307  1.00  0.00     0.164 A 
ATOM     21  C   UNL A   1      37.754  32.351  34.802  1.00  0.00     0.055 A 
BRANCH  17  22
ATOM     22  O   UNL A   1      34.317  33.122  32.586  1.00  0.00    -0.493 OA
ATOM     23  C   UNL A   1      34.286  34.222  31.682  1.00  0.00     0.278 C 
ENDBRANCH  17  22
BRANCH  19  24
ATOM     24  O   UNL A   1      34.782  34.482  35.125  1.00  0.00    -0.502 OA
ATOM     25  H   UNL A   1      34.066  34.784  34.603  1.00  0.00     0.293 HD
ENDBRANCH  19  24
BRANCH  20  26
ATOM     26  O   UNL A   1      37.297  33.829  36.502  1.00  0.00    -0.493 OA
ATOM     27  C   UNL A   1      37.898  32.956  37.444  1.00  0.00     0.278 C 
ENDBRANCH  20  26
ENDBRANCH   5  16
BRANCH  10  28
ATOM     28  C   UNL A   1      38.716  32.407  30.300  1.00  0.00     0.046 A 
ATOM     29  C   UNL A   1      37.990  31.495  29.533  1.00  0.00     0.028 A 
ATOM     30  C   UNL A   1      38.352  33.759  30.311  1.00  0.00     0.028 A 
ATOM     31  C   UNL A   1      36.953  31.939  28.709  1.00  0.00     0.022 A 
ATOM     32  C   UNL A   1      37.314  34.202  29.485  1.00  0.00     0.022 A 
ATOM     33  C   UNL A   1      36.628  33.292  28.680  1.00  0.00     0.041 A 
ATOM     34  Cl  UNL A   1      35.359  33.841  27.654  1.00  0.00    -0.084 Cl
ENDBRANCH  10  28
BRANCH  12  35
ATOM     35  C   UNL A   1      43.329  31.754  31.928  1.00  0.00     0.077 C 
ATOM     36  O   UNL A   1      43.985  32.687  31.505  1.00  0.00    -0.545 OA
ATOM     37  O   UNL A   1      43.964  30.692  32.478  1.00  0.00    -0.545 OA
ENDBRANCH  12  35
ENDBRANCH   3   4
ENDBRANCH   2   3
ENDBRANCH   1   2
BRANCH   1  38
ATOM     38  C   UNL A   1      42.388  25.061  36.540  1.00  0.00     0.116 C 
BRANCH  38  39
ATOM     39  N   UNL A   1      43.674  24.837  37.207  1.00  0.00    -0.352 N 
ATOM     40  C   UNL A   1      44.843  24.347  36.646  1.00  0.00     0.251 C 
ATOM     41  H   UNL A   1      43.711  25.060  38.166  1.00  0.00     0.163 HD
ATOM     42  O   UNL A   1      45.722  23.839  37.331  1.00  0.00    -0.269 OA
BRANCH  40  43
ATOM     43  C   UNL A   1      45.016  24.467  35.188  1.00  0.00     0.039 A 
ATOM     44  C   UNL A   1      44.894  23.377  34.320  1.00  0.00     0.014 A 
ATOM     45  C   UNL A   1      45.264  25.742  34.697  1.00  0.00     0.014 A 
ATOM     46  C   UNL A   1      44.949  23.608  32.946  1.00  0.00     0.010 A 
ATOM     47  C   UNL A   1      45.097  25.994  33.366  1.00  0.00     0.010 A 
ATOM     48  C   UNL A   1      45.037  24.929  32.479  1.00  0.00    -0.014 A 
BRANCH  48  49
ATOM     49  C   UNL A   1      44.977  25.256  31.062  1.00  0.00     0.031 A 
ATOM     50  C   UNL A   1      46.019  26.212  30.600  1.00  0.00     0.074 A 
ATOM     51  C   UNL A   1      44.219  24.539  30.200  1.00  0.00     0.049 A 
ATOM     52  N   UNL A   1      45.846  27.381  30.080  1.00  0.00    -0.248 NA
ATOM     53  C   UNL A   1      47.431  25.879  30.857  1.00  0.00     0.031 C 
ATOM     54  C   UNL A   1      43.402  23.347  30.467  1.00  0.00     0.029 A 
ATOM     55  N   UNL A   1      44.122  24.656  28.849  1.00  0.00    -0.354 N 
ATOM     56  C   UNL A   1      47.117  27.852  29.761  1.00  0.00     0.074 A 
ATOM     57  C   UNL A   1      48.051  26.977  30.420  1.00  0.00     0.031 C 
ATOM     58  C   UNL A   1      43.116  22.720  29.306  1.00  0.00     0.029 A 
ATOM     59  C   UNL A   1      43.570  23.550  28.209  1.00  0.00     0.049 A 
ATOM     60  H   UNL A   1      44.419  25.459  28.363  1.00  0.00     0.167 HD
ATOM     61  C   UNL A   1      47.294  28.770  28.770  1.00  0.00     0.037 A 
ATOM     62  C   UNL A   1      43.551  23.332  26.870  1.00  0.00     0.037 A 
ATOM     63  C   UNL A   1      46.058  29.453  28.470  1.00  0.00     0.049 A 
ATOM     64  C   UNL A   1      43.781  24.648  26.215  1.00  0.00     0.074 A 
ATOM     65  C   UNL A   1      45.160  30.187  29.224  1.00  0.00     0.029 A 
ATOM     66  N   UNL A   1      45.367  29.094  27.337  1.00  0.00    -0.354 N 
ATOM     67  N   UNL A   1      42.930  25.637  26.263  1.00  0.00    -0.248 NA
ATOM     68  C   UNL A   1      45.162  25.021  25.945  1.00  0.00     0.031 C 
ATOM     69  C   UNL A   1      43.874  29.754  28.779  1.00  0.00     0.029 A 
ATOM     70  C   UNL A   1      44.068  28.868  27.721  1.00  0.00     0.049 A 
ATOM     71  H   UNL A   1      45.733  29.014  26.426  1.00  0.00     0.167 HD
ATOM     72  C   UNL A   1      43.711  26.764  26.464  1.00  0.00     0.074 A 
ATOM     73  C   UNL A   1      45.084  26.330  26.203  1.00  0.00     0.031 C 
ATOM     74  C   UNL A   1      43.227  27.862  27.116  1.00  0.00     0.037 A 
BRANCH  61  75
ATOM     75  C   UNL A   1      48.476  28.783  27.831  1.00  0.00     0.064 A 
ATOM     76  C   UNL A   1      48.801  27.612  27.119  1.00  0.00     0.173 A 
ATOM     77  C   UNL A   1      49.468  29.789  27.825  1.00  0.00     0.173 A 
ATOM     78  F   UNL A   1      47.945  26.579  27.075  1.00  0.00    -0.203 F 
ATOM     79  C   UNL A   1      50.052  27.434  26.518  1.00  0.00     0.198 A 
ATOM     80  C   UNL A   1      50.692  29.630  27.177  1.00  0.00     0.198 A 
ATOM     81  F   UNL A   1      49.351  30.915  28.538  1.00  0.00    -0.203 F 
ATOM     82  F   UNL A   1      50.361  26.253  25.966  1.00  0.00    -0.200 F 
ATOM     83  C   UNL A   1      50.997  28.442  26.552  1.00  0.00     0.200 A 
ATOM     84  F   UNL A   1      51.601  30.614  27.240  1.00  0.00    -0.200 F 
ATOM     85  F   UNL A   1      52.216  28.251  26.032  1.00  0.00    -0.200 F 
ENDBRANCH  61  75
BRANCH  62  86
ATOM     86  C   UNL A   1      43.711  22.047  26.142  1.00  0.00     0.064 A 
ATOM     87  C   UNL A   1      44.983  21.601  25.742  1.00  0.00     0.173 A 
ATOM     88  C   UNL A   1      42.674  21.094  26.087  1.00  0.00     0.173 A 
ATOM     89  F   UNL A   1      46.036  22.430  25.802  1.00  0.00    -0.203 F 
ATOM     90  C   UNL A   1      45.211  20.277  25.350  1.00  0.00     0.198 A 
ATOM     91  C   UNL A   1      42.900  19.775  25.688  1.00  0.00     0.198 A 
ATOM     92  F   UNL A   1      41.438  21.394  26.513  1.00  0.00    -0.203 F 
ATOM     93  F   UNL A   1      46.452  19.874  25.045  1.00  0.00    -0.200 F 
ATOM     94  C   UNL A   1      44.172  19.362  25.336  1.00  0.00     0.200 A 
ATOM     95  F   UNL A   1      41.893  18.891  25.714  1.00  0.00    -0.200 F 
ATOM     96  F   UNL A   1      44.401  18.078  25.028  1.00  0.00    -0.200 F 
ENDBRANCH  62  86
BRANCH  74  97
ATOM     97  C   UNL A   1      41.756  27.922  27.427  1.00  0.00     0.064 A 
ATOM     98  C   UNL A   1      41.163  27.371  28.578  1.00  0.00     0.173 A 
ATOM     99  C   UNL A   1      40.936  28.700  26.599  1.00  0.00     0.173 A 
ATOM    100  F   UNL A   1      41.893  26.707  29.482  1.00  0.00    -0.203 F 
ATOM    101  C   UNL A   1      39.807  27.549  28.854  1.00  0.00     0.198 A 
ATOM    102  C   UNL A   1      39.592  28.909  26.896  1.00  0.00     0.198 A 
ATOM    103  F   UNL A   1      41.453  29.301  25.516  1.00  0.00    -0.203 F 
ATOM    104  F   UNL A   1      39.266  26.999  29.952  1.00  0.00    -0.200 F 
ATOM    105  C   UNL A   1      39.024  28.324  28.016  1.00  0.00     0.200 A 
ATOM    106  F   UNL A   1      38.852  29.703  26.110  1.00  0.00    -0.200 F 
ATOM    107  F   UNL A   1      37.730  28.529  28.301  1.00  0.00    -0.200 F 
ENDBRANCH  74  97
ENDBRANCH  48  49
ENDBRANCH  40  43
ENDBRANCH  38  39
ENDBRANCH   1  38
TORSDOF 16
ENDMDL
MODEL 3
REMARK VINA RESULT:     -12.6      6.124     11.047
REMARK SMILES COc1cc([C@@H]2CC(NCCCCNC(=O)c3ccc(-c4c5nc(c(-c6c(F)c(F)c(F)c(F)c6F)c6ccc([nH]6)c(-c6c(F)c(F)c(F)c(F)c6F)c6nc(c(-c7c(F)c(F)c(F)c(F)c7F)c7ccc4[nH]7)C=C6)C=C5)cc3)=[NH+]c3c(C(=O)[O-])cn(-c4ccc(Cl)cc4)c32)cc(OC)c1O
REMARK SMILES IDX 12 1 11 2 10 3 9 4 6 5 7 6 95 7 8 8 81 9 87 10 80 11 82 12
REMARK SMILES IDX 86 13 5 16 3 17 4 18 100 19 97 20 96 21 2 22 1 23 101 24
REMARK SMILES IDX 98 26 99 27 88 28 89 29 94 30 90 31 93 32 91 33 92 34 83 35
REMARK SMILES IDX 84 36 85 37 13 38 14 39 15 40 16 42 17 43 18 44 79 45 19 46
REMARK SMILES IDX 78 47 20 48 21 49 22 50 72 51 23 52 77 53 71 54 73 55 24 56
REMARK SMILES IDX 76 57 70 58 69 59 25 61 57 62 37 63 56 64 38 65 41 66 55 67
REMARK SMILES IDX 74 68 39 69 40 70 54 72 75 73 42 74 26 75 27 76 35 77 28 78
REMARK SMILES IDX 29 79 33 80 36 81 30 82 31 83 34 84 32 85 58 86 59 87 67 88
REMARK SMILES IDX 60 89 61 90 65 91 68 92 62 93 63 94 66 95 64 96 43 97 44 98
REMARK SMILES IDX 52 99 45 100 46 101 50 102 53 103 47 104 48 105 51 106
REMARK SMILES IDX 49 107
REMARK H PARENT 9 14 80 15 101 25 14 41 73 60 41 71
REMARK Flexibility Score: inf
ROOT
ATOM      1  C   UNL A   1      41.546  25.875  36.432  1.00  0.00     0.025 C 
ENDROOT
BRANCH   1   2
ATOM      2  C   UNL A   1      41.629  26.532  35.047  1.00  0.00     0.048 C 
BRANCH   2   3
ATOM      3  C   UNL A   1      41.501  28.058  35.011  1.00  0.00     0.233 C 
BRANCH   3   4
ATOM      4  N   UNL A   1      40.914  28.523  33.762  1.00  0.00    -0.278 N 
ATOM      5  C   UNL A   1      41.121  31.196  30.993  1.00  0.00     0.083 C 
ATOM      6  C   UNL A   1      40.817  29.829  31.651  1.00  0.00     0.142 C 
ATOM      7  C   UNL A   1      42.312  31.817  31.648  1.00  0.00     0.078 A 
ATOM      8  C   UNL A   1      41.404  29.606  33.053  1.00  0.00     0.248 C 
ATOM      9  C   UNL A   1      42.883  31.343  32.800  1.00  0.00     0.155 A 
ATOM     10  N   UNL A   1      43.139  32.823  31.173  1.00  0.00    -0.315 N 
ATOM     11  N   UNL A   1      42.361  30.318  33.572  1.00  0.00    -0.243 N 
ATOM     12  C   UNL A   1      44.091  32.016  33.065  1.00  0.00     0.062 A 
ATOM     13  C   UNL A   1      44.243  32.895  32.003  1.00  0.00     0.106 A 
ATOM     14  H   UNL A   1      40.131  28.044  33.405  1.00  0.00     0.304 HD
ATOM     15  H   UNL A   1      42.703  30.134  34.477  1.00  0.00     0.312 HD
BRANCH   5  16
ATOM     16  C   UNL A   1      39.880  32.072  30.971  1.00  0.00    -0.031 A 
ATOM     17  C   UNL A   1      38.375  33.611  32.135  1.00  0.00     0.164 A 
ATOM     18  C   UNL A   1      39.551  32.851  32.091  1.00  0.00     0.055 A 
ATOM     19  C   UNL A   1      37.533  33.635  31.011  1.00  0.00     0.200 A 
ATOM     20  C   UNL A   1      37.848  32.873  29.874  1.00  0.00     0.164 A 
ATOM     21  C   UNL A   1      39.023  32.107  29.865  1.00  0.00     0.055 A 
BRANCH  17  22
ATOM     22  O   UNL A   1      38.217  34.303  33.306  1.00  0.00    -0.493 OA
ATOM     23  C   UNL A   1      39.380  34.709  34.020  1.00  0.00     0.278 C 
ENDBRANCH  17  22
BRANCH  19  24
ATOM     24  O   UNL A   1      36.439  34.455  30.997  1.00  0.00    -0.502 OA
ATOM     25  H   UNL A   1      36.056  34.739  31.803  1.00  0.00     0.293 HD
ENDBRANCH  19  24
BRANCH  20  26
ATOM     26  O   UNL A   1      37.166  32.783  28.690  1.00  0.00    -0.493 OA
ATOM     27  C   UNL A   1      36.527  31.560  28.362  1.00  0.00     0.278 C 
ENDBRANCH  20  26
ENDBRANCH   5  16
BRANCH  10  28
ATOM     28  C   UNL A   1      42.961  33.668  30.052  1.00  0.00     0.046 A 
ATOM     29  C   UNL A   1      42.020  34.698  30.095  1.00  0.00     0.028 A 
ATOM     30  C   UNL A   1      43.796  33.528  28.937  1.00  0.00     0.028 A 
ATOM     31  C   UNL A   1      41.850  35.539  28.992  1.00  0.00     0.022 A 
ATOM     32  C   UNL A   1      43.624  34.370  27.834  1.00  0.00     0.022 A 
ATOM     33  C   UNL A   1      42.644  35.363  27.863  1.00  0.00     0.041 A 
ATOM     34  Cl  UNL A   1      42.424  36.391  26.500  1.00  0.00    -0.084 Cl
ENDBRANCH  10  28
BRANCH  12  35
ATOM     35  C   UNL A   1      45.040  31.883  34.157  1.00  0.00     0.077 C 
ATOM     36  O   UNL A   1      44.883  31.178  35.136  1.00  0.00    -0.545 OA
ATOM     37  O   UNL A   1      46.170  32.619  34.043  1.00  0.00    -0.545 OA
ENDBRANCH  12  35
ENDBRANCH   3   4
ENDBRANCH   2   3
ENDBRANCH   1   2
BRANCH   1  38
ATOM     38  C   UNL A   1      42.152  24.482  36.514  1.00  0.00     0.116 C 
BRANCH  38  39
ATOM     39  N   UNL A   1      43.417  24.427  37.252  1.00  0.00    -0.352 N 
ATOM     40  C   UNL A   1      44.674  24.126  36.753  1.00  0.00     0.251 C 
ATOM     41  H   UNL A   1      43.367  24.628  38.215  1.00  0.00     0.163 HD
ATOM     42  O   UNL A   1      45.578  23.732  37.480  1.00  0.00    -0.269 OA
BRANCH  40  43
ATOM     43  C   UNL A   1      44.910  24.308  35.310  1.00  0.00     0.039 A 
ATOM     44  C   UNL A   1      44.871  23.249  34.398  1.00  0.00     0.014 A 
ATOM     45  C   UNL A   1      45.131  25.610  34.879  1.00  0.00     0.014 A 
ATOM     46  C   UNL A   1      44.981  23.535  33.038  1.00  0.00     0.010 A 
ATOM     47  C   UNL A   1      45.016  25.907  33.552  1.00  0.00     0.010 A 
ATOM     48  C   UNL A   1      45.039  24.876  32.625  1.00  0.00    -0.014 A 
BRANCH  48  49
ATOM     49  C   UNL A   1      45.032  25.255  31.219  1.00  0.00     0.031 A 
ATOM     50  C   UNL A   1      46.083  26.234  30.835  1.00  0.00     0.074 A 
ATOM     51  C   UNL A   1      44.315  24.564  30.302  1.00  0.00     0.049 A 
ATOM     52  N   UNL A   1      45.921  27.421  30.351  1.00  0.00    -0.248 NA
ATOM     53  C   UNL A   1      47.487  25.902  31.135  1.00  0.00     0.031 C 
ATOM     54  C   UNL A   1      43.498  23.358  30.492  1.00  0.00     0.029 A 
ATOM     55  N   UNL A   1      44.270  24.731  28.954  1.00  0.00    -0.354 N 
ATOM     56  C   UNL A   1      47.200  27.912  30.101  1.00  0.00     0.074 A 
ATOM     57  C   UNL A   1      48.114  27.020  30.764  1.00  0.00     0.031 C 
ATOM     58  C   UNL A   1      43.263  22.772  29.298  1.00  0.00     0.029 A 
ATOM     59  C   UNL A   1      43.754  23.646  28.251  1.00  0.00     0.049 A 
ATOM     60  H   UNL A   1      44.579  25.554  28.510  1.00  0.00     0.167 HD
ATOM     61  C   UNL A   1      47.407  28.868  29.153  1.00  0.00     0.037 A 
ATOM     62  C   UNL A   1      43.789  23.477  26.906  1.00  0.00     0.037 A 
ATOM     63  C   UNL A   1      46.179  29.553  28.828  1.00  0.00     0.049 A 
ATOM     64  C   UNL A   1      44.033  24.819  26.309  1.00  0.00     0.074 A 
ATOM     65  C   UNL A   1      45.245  30.251  29.573  1.00  0.00     0.029 A 
ATOM     66  N   UNL A   1      45.536  29.231  27.656  1.00  0.00    -0.354 N 
ATOM     67  N   UNL A   1      43.172  25.799  26.360  1.00  0.00    -0.248 NA
ATOM     68  C   UNL A   1      45.421  25.211  26.109  1.00  0.00     0.031 C 
ATOM     69  C   UNL A   1      43.981  29.827  29.061  1.00  0.00     0.029 A 
ATOM     70  C   UNL A   1      44.224  28.981  27.980  1.00  0.00     0.049 A 
ATOM     71  H   UNL A   1      45.938  29.187  26.759  1.00  0.00     0.167 HD
ATOM     72  C   UNL A   1      43.936  26.924  26.633  1.00  0.00     0.074 A 
ATOM     73  C   UNL A   1      45.321  26.509  26.411  1.00  0.00     0.031 C 
ATOM     74  C   UNL A   1      43.417  27.993  27.306  1.00  0.00     0.037 A 
BRANCH  61  75
ATOM     75  C   UNL A   1      48.625  28.924  28.262  1.00  0.00     0.064 A 
ATOM     76  C   UNL A   1      49.280  30.158  28.069  1.00  0.00     0.173 A 
ATOM     77  C   UNL A   1      48.995  27.897  27.365  1.00  0.00     0.173 A 
ATOM     78  F   UNL A   1      48.991  31.212  28.847  1.00  0.00    -0.203 F 
ATOM     79  C   UNL A   1      50.173  30.364  27.013  1.00  0.00     0.198 A 
ATOM     80  C   UNL A   1      49.928  28.091  26.348  1.00  0.00     0.198 A 
ATOM     81  F   UNL A   1      48.391  26.704  27.354  1.00  0.00    -0.203 F 
ATOM     82  F   UNL A   1      50.669  31.589  26.793  1.00  0.00    -0.200 F 
ATOM     83  C   UNL A   1      50.492  29.332  26.151  1.00  0.00     0.200 A 
ATOM     84  F   UNL A   1      50.207  27.081  25.511  1.00  0.00    -0.200 F 
ATOM     85  F   UNL A   1      51.298  29.543  25.103  1.00  0.00    -0.200 F 
ENDBRANCH  61  75
BRANCH  62  86
ATOM     86  C   UNL A   1      43.989  22.222  26.138  1.00  0.00     0.064 A 
ATOM     87  C   UNL A   1      45.280  21.797  25.778  1.00  0.00     0.173 A 
ATOM     88  C   UNL A   1      42.961  21.267  26.001  1.00  0.00     0.173 A 
ATOM     89  F   UNL A   1      46.324  22.628  25.915  1.00  0.00    -0.203 F 
ATOM     90  C   UNL A   1      45.533  20.489  25.346  1.00  0.00     0.198 A 
ATOM     91  C   UNL A   1      43.213  19.965  25.563  1.00  0.00     0.198 A 
ATOM     92  F   UNL A   1      41.706  21.545  26.383  1.00  0.00    -0.203 F 
ATOM     93  F   UNL A   1      46.789  20.103  25.082  1.00  0.00    -0.200 F 
ATOM     94  C   UNL A   1      44.501  19.571  25.252  1.00  0.00     0.200 A 
ATOM     95  F   UNL A   1      42.211  19.076  25.512  1.00  0.00    -0.200 F 
ATOM     96  F   UNL A   1      44.751  18.301  24.907  1.00  0.00    -0.200 F 
ENDBRANCH  62  86
BRANCH  74  97
ATOM     97  C   UNL A   1      41.934  28.031  27.560  1.00  0.00     0.064 A 
ATOM     98  C   UNL A   1      41.308  27.493  28.700  1.00  0.00     0.173 A 
ATOM     99  C   UNL A   1      41.131  28.774  26.684  1.00  0.00     0.173 A 
ATOM    100  F   UNL A   1      42.016  26.863  29.645  1.00  0.00    -0.203 F 
ATOM    101  C   UNL A   1      39.939  27.651  28.921  1.00  0.00     0.198 A 
ATOM    102  C   UNL A   1      39.773  28.964  26.926  1.00  0.00     0.198 A 
ATOM    103  F   UNL A   1      41.678  29.361  25.608  1.00  0.00    -0.203 F 
ATOM    104  F   UNL A   1      39.368  27.114  30.010  1.00  0.00    -0.200 F 
ATOM    105  C   UNL A   1      39.175  28.392  28.037  1.00  0.00     0.200 A 
ATOM    106  F   UNL A   1      39.050  29.725  26.095  1.00  0.00    -0.200 F 
ATOM    107  F   UNL A   1      37.867  28.577  28.268  1.00  0.00    -0.200 F 
ENDBRANCH  74  97
ENDBRANCH  48  49
ENDBRANCH  40  43
ENDBRANCH  38  39
ENDBRANCH   1  38
TORSDOF 16
ENDMDL
