MODEL 1
REMARK VINA RESULT:     -12.9      0.000      0.000
REMARK SMILES C[C@](NC(=O)[C@](C)([NH3+])C(F)(F)F)(C(=O)NCCCCNC(=O)c1ccc(-c2c3nc(c(-c4c(F)c(F)c(F)c(F)c4F)c4ccc([nH]4)c(-c4c(F)c(F)c(F)c(F)c4F)c4nc(c(-c5c(F)c(F)c(F)c(F)c5F)c5ccc2[nH]5)C=C4)C=C3)cc1)c1ccccc1
REMARK SMILES IDX 17 1 16 2 15 3 13 4 14 5 2 7 1 8 86 9 87 10 91 11 88 12
REMARK SMILES IDX 90 13 89 14 3 15 4 16 5 18 6 19 7 20 8 21 9 25 10 26 11 27
REMARK SMILES IDX 12 28 18 29 19 30 20 31 21 32 22 34 23 35 24 36 85 37 25 38
REMARK SMILES IDX 84 39 26 40 27 41 28 42 78 43 29 44 83 45 77 46 79 47 30 48
REMARK SMILES IDX 82 49 76 50 75 51 31 53 63 54 43 55 62 56 44 57 47 58 61 59
REMARK SMILES IDX 80 60 45 61 46 62 60 64 81 65 48 66 32 67 33 68 41 69 34 70
REMARK SMILES IDX 35 71 39 72 42 73 36 74 37 75 40 76 38 77 64 78 65 79 73 80
REMARK SMILES IDX 66 81 67 82 71 83 74 84 68 85 69 86 72 87 70 88 49 89 50 90
REMARK SMILES IDX 58 91 51 92 52 93 56 94 59 95 53 96 54 97 57 98 55 99
REMARK H PARENT 15 6 3 17 8 22 8 23 8 24 20 33 79 52 47 63
REMARK Flexibility Score: inf
ROOT
ATOM      1  C   UNL A   1      37.358  21.094  24.931  1.00  0.00     0.023 C 
ENDROOT
BRANCH   1   2
ATOM      2  C   UNL A   1      35.922  20.593  25.002  1.00  0.00     0.116 C 
BRANCH   2   3
ATOM      3  N   UNL A   1      35.212  21.154  26.137  1.00  0.00    -0.354 N 
ATOM      4  C   UNL A   1      33.879  21.411  26.333  1.00  0.00     0.250 C 
ATOM      5  O   UNL A   1      33.564  21.605  27.513  1.00  0.00    -0.272 OA
ATOM      6  H   UNL A   1      35.787  21.391  26.899  1.00  0.00     0.163 HD
BRANCH   4   7
ATOM      7  C   UNL A   1      32.816  21.245  25.153  1.00  0.00     0.142 C 
ATOM      8  C   UNL A   1      33.425  22.175  24.094  1.00  0.00     0.051 C 
BRANCH   7   9
ATOM      9  C   UNL A   1      32.709  19.791  24.638  1.00  0.00    -0.013 A 
ATOM     10  C   UNL A   1      32.795  18.678  25.495  1.00  0.00     0.007 A 
ATOM     11  C   UNL A   1      32.491  19.524  23.272  1.00  0.00     0.007 A 
ATOM     12  C   UNL A   1      32.779  17.370  25.000  1.00  0.00     0.000 A 
ATOM     13  C   UNL A   1      32.455  18.217  22.777  1.00  0.00     0.000 A 
ATOM     14  C   UNL A   1      32.621  17.140  23.639  1.00  0.00     0.000 A 
ENDBRANCH   7   9
BRANCH   7  15
ATOM     15  N   UNL A   1      31.505  21.608  25.759  1.00  0.00    -0.332 N 
ATOM     16  C   UNL A   1      30.660  22.603  26.080  1.00  0.00     0.291 C 
ATOM     17  H   UNL A   1      31.079  20.768  26.044  1.00  0.00     0.165 HD
ATOM     18  O   UNL A   1      29.650  22.155  26.655  1.00  0.00    -0.267 OA
BRANCH  16  19
ATOM     19  C   UNL A   1      30.718  24.124  25.769  1.00  0.00     0.267 C 
ATOM     20  C   UNL A   1      32.078  24.639  26.322  1.00  0.00     0.100 C 
BRANCH  19  21
ATOM     21  N   UNL A   1      29.651  24.789  26.589  1.00  0.00    -0.337 N 
ATOM     22  H   UNL A   1      28.870  25.048  25.987  1.00  0.00     0.345 HD
ATOM     23  H   UNL A   1      30.034  25.627  27.029  1.00  0.00     0.345 HD
ATOM     24  H   UNL A   1      29.326  24.146  27.310  1.00  0.00     0.345 HD
ENDBRANCH  19  21
BRANCH  19  25
ATOM     25  C   UNL A   1      30.737  24.456  24.266  1.00  0.00     0.453 C 
ATOM     26  F   UNL A   1      29.805  25.384  23.932  1.00  0.00    -0.164 F 
ATOM     27  F   UNL A   1      31.931  24.949  23.866  1.00  0.00    -0.164 F 
ATOM     28  F   UNL A   1      30.455  23.377  23.509  1.00  0.00    -0.164 F 
ENDBRANCH  19  25
ENDBRANCH  16  19
ENDBRANCH   7  15
ENDBRANCH   4   7
ENDBRANCH   2   3
ENDBRANCH   1   2
BRANCH   1  29
ATOM     29  C   UNL A   1      38.400  19.978  24.961  1.00  0.00     0.023 C 
BRANCH  29  30
ATOM     30  C   UNL A   1      39.469  20.138  26.035  1.00  0.00     0.116 C 
BRANCH  30  31
ATOM     31  N   UNL A   1      40.447  19.061  26.020  1.00  0.00    -0.352 N 
ATOM     32  C   UNL A   1      41.818  19.141  26.106  1.00  0.00     0.251 C 
ATOM     33  H   UNL A   1      40.078  18.151  25.939  1.00  0.00     0.163 HD
ATOM     34  O   UNL A   1      42.515  18.156  25.914  1.00  0.00    -0.269 OA
BRANCH  32  35
ATOM     35  C   UNL A   1      42.439  20.447  26.404  1.00  0.00     0.039 A 
ATOM     36  C   UNL A   1      42.935  21.216  25.351  1.00  0.00     0.014 A 
ATOM     37  C   UNL A   1      42.489  20.926  27.717  1.00  0.00     0.014 A 
ATOM     38  C   UNL A   1      43.420  22.500  25.607  1.00  0.00     0.010 A 
ATOM     39  C   UNL A   1      42.891  22.234  27.957  1.00  0.00     0.010 A 
ATOM     40  C   UNL A   1      43.364  23.034  26.905  1.00  0.00    -0.014 A 
BRANCH  40  41
ATOM     41  C   UNL A   1      43.792  24.427  27.183  1.00  0.00     0.031 A 
ATOM     42  C   UNL A   1      42.794  25.439  27.674  1.00  0.00     0.074 A 
ATOM     43  C   UNL A   1      45.063  24.798  26.932  1.00  0.00     0.049 A 
ATOM     44  N   UNL A   1      42.957  26.715  27.915  1.00  0.00    -0.248 NA
ATOM     45  C   UNL A   1      41.420  24.958  27.896  1.00  0.00     0.031 C 
ATOM     46  C   UNL A   1      46.111  23.922  26.407  1.00  0.00     0.029 A 
ATOM     47  N   UNL A   1      45.686  26.013  27.075  1.00  0.00    -0.354 N 
ATOM     48  C   UNL A   1      41.710  27.189  28.300  1.00  0.00     0.074 A 
ATOM     49  C   UNL A   1      40.787  26.079  28.205  1.00  0.00     0.031 C 
ATOM     50  C   UNL A   1      47.254  24.618  26.302  1.00  0.00     0.029 A 
ATOM     51  C   UNL A   1      47.010  25.998  26.708  1.00  0.00     0.049 A 
ATOM     52  H   UNL A   1      45.228  26.817  27.409  1.00  0.00     0.167 HD
ATOM     53  C   UNL A   1      41.372  28.431  28.719  1.00  0.00     0.037 A 
ATOM     54  C   UNL A   1      47.921  26.990  26.695  1.00  0.00     0.037 A 
ATOM     55  C   UNL A   1      42.300  29.525  28.835  1.00  0.00     0.049 A 
ATOM     56  C   UNL A   1      47.514  28.366  27.151  1.00  0.00     0.074 A 
ATOM     57  C   UNL A   1      42.070  30.804  29.313  1.00  0.00     0.029 A 
ATOM     58  N   UNL A   1      43.634  29.472  28.461  1.00  0.00    -0.354 N 
ATOM     59  N   UNL A   1      46.351  28.784  27.589  1.00  0.00    -0.248 NA
ATOM     60  C   UNL A   1      48.550  29.408  27.116  1.00  0.00     0.031 C 
ATOM     61  C   UNL A   1      43.251  31.540  29.173  1.00  0.00     0.029 A 
ATOM     62  C   UNL A   1      44.234  30.705  28.669  1.00  0.00     0.049 A 
ATOM     63  H   UNL A   1      44.089  28.677  28.101  1.00  0.00     0.167 HD
ATOM     64  C   UNL A   1      46.523  30.124  27.912  1.00  0.00     0.074 A 
ATOM     65  C   UNL A   1      47.907  30.445  27.634  1.00  0.00     0.031 C 
ATOM     66  C   UNL A   1      45.616  31.007  28.396  1.00  0.00     0.037 A 
BRANCH  53  67
ATOM     67  C   UNL A   1      39.934  28.676  29.082  1.00  0.00     0.064 A 
ATOM     68  C   UNL A   1      39.450  28.446  30.378  1.00  0.00     0.173 A 
ATOM     69  C   UNL A   1      39.037  29.181  28.129  1.00  0.00     0.173 A 
ATOM     70  F   UNL A   1      40.262  27.952  31.326  1.00  0.00    -0.203 F 
ATOM     71  C   UNL A   1      38.115  28.680  30.698  1.00  0.00     0.198 A 
ATOM     72  C   UNL A   1      37.711  29.447  28.461  1.00  0.00     0.198 A 
ATOM     73  F   UNL A   1      39.447  29.425  26.875  1.00  0.00    -0.203 F 
ATOM     74  F   UNL A   1      37.663  28.400  31.929  1.00  0.00    -0.200 F 
ATOM     75  C   UNL A   1      37.249  29.188  29.743  1.00  0.00     0.200 A 
ATOM     76  F   UNL A   1      36.880  29.953  27.540  1.00  0.00    -0.200 F 
ATOM     77  F   UNL A   1      35.967  29.422  30.054  1.00  0.00    -0.200 F 
ENDBRANCH  53  67
BRANCH  54  78
ATOM     78  C   UNL A   1      49.316  26.716  26.259  1.00  0.00     0.064 A 
ATOM     79  C   UNL A   1      49.706  26.913  24.927  1.00  0.00     0.173 A 
ATOM     80  C   UNL A   1      50.284  26.242  27.158  1.00  0.00     0.173 A 
ATOM     81  F   UNL A   1      48.812  27.345  24.026  1.00  0.00    -0.203 F 
ATOM     82  C   UNL A   1      51.002  26.625  24.505  1.00  0.00     0.198 A 
ATOM     83  C   UNL A   1      51.588  25.983  26.741  1.00  0.00     0.198 A 
ATOM     84  F   UNL A   1      49.965  26.041  28.444  1.00  0.00    -0.203 F 
ATOM     85  F   UNL A   1      51.332  26.774  23.214  1.00  0.00    -0.200 F 
ATOM     86  C   UNL A   1      51.944  26.165  25.413  1.00  0.00     0.200 A 
ATOM     87  F   UNL A   1      52.500  25.556  27.625  1.00  0.00    -0.200 F 
ATOM     88  F   UNL A   1      53.191  25.890  25.007  1.00  0.00    -0.200 F 
ENDBRANCH  54  78
BRANCH  66  89
ATOM     89  C   UNL A   1      46.099  32.398  28.697  1.00  0.00     0.064 A 
ATOM     90  C   UNL A   1      46.036  33.426  27.745  1.00  0.00     0.173 A 
ATOM     91  C   UNL A   1      46.596  32.713  29.972  1.00  0.00     0.173 A 
ATOM     92  F   UNL A   1      45.584  33.173  26.508  1.00  0.00    -0.203 F 
ATOM     93  C   UNL A   1      46.478  34.711  28.049  1.00  0.00     0.198 A 
ATOM     94  C   UNL A   1      47.004  34.007  30.283  1.00  0.00     0.198 A 
ATOM     95  F   UNL A   1      46.670  31.769  30.922  1.00  0.00    -0.203 F 
ATOM     96  F   UNL A   1      46.458  35.664  27.108  1.00  0.00    -0.200 F 
ATOM     97  C   UNL A   1      46.953  35.002  29.319  1.00  0.00     0.200 A 
ATOM     98  F   UNL A   1      47.447  34.289  31.516  1.00  0.00    -0.200 F 
ATOM     99  F   UNL A   1      47.370  36.242  29.613  1.00  0.00    -0.200 F 
ENDBRANCH  66  89
ENDBRANCH  40  41
ENDBRANCH  32  35
ENDBRANCH  30  31
ENDBRANCH  29  30
ENDBRANCH   1  29
TORSDOF 16
ENDMDL
MODEL 2
REMARK VINA RESULT:     -12.9      6.166     11.521
REMARK SMILES C[C@](NC(=O)[C@](C)([NH3+])C(F)(F)F)(C(=O)NCCCCNC(=O)c1ccc(-c2c3nc(c(-c4c(F)c(F)c(F)c(F)c4F)c4ccc([nH]4)c(-c4c(F)c(F)c(F)c(F)c4F)c4nc(c(-c5c(F)c(F)c(F)c(F)c5F)c5ccc2[nH]5)C=C4)C=C3)cc1)c1ccccc1
REMARK SMILES IDX 17 1 16 2 15 3 13 4 14 5 2 7 1 8 86 9 87 10 91 11 88 12
REMARK SMILES IDX 90 13 89 14 3 15 4 16 5 18 6 19 7 20 8 21 9 25 10 26 11 27
REMARK SMILES IDX 12 28 18 29 19 30 20 31 21 32 22 34 23 35 24 36 85 37 25 38
REMARK SMILES IDX 84 39 26 40 27 41 28 42 78 43 29 44 83 45 77 46 79 47 30 48
REMARK SMILES IDX 82 49 76 50 75 51 31 53 63 54 43 55 62 56 44 57 47 58 61 59
REMARK SMILES IDX 80 60 45 61 46 62 60 64 81 65 48 66 32 67 33 68 41 69 34 70
REMARK SMILES IDX 35 71 39 72 42 73 36 74 37 75 40 76 38 77 64 78 65 79 73 80
REMARK SMILES IDX 66 81 67 82 71 83 74 84 68 85 69 86 72 87 70 88 49 89 50 90
REMARK SMILES IDX 58 91 51 92 52 93 56 94 59 95 53 96 54 97 57 98 55 99
REMARK H PARENT 15 6 3 17 8 22 8 23 8 24 20 33 79 52 47 63
REMARK Flexibility Score: inf
ROOT
ATOM      1  C   UNL A   1      31.873  30.647  26.743  1.00  0.00     0.023 C 
ENDROOT
BRANCH   1   2
ATOM      2  C   UNL A   1      31.498  30.102  25.371  1.00  0.00     0.116 C 
BRANCH   2   3
ATOM      3  N   UNL A   1      32.669  29.698  24.615  1.00  0.00    -0.354 N 
ATOM      4  C   UNL A   1      32.833  28.749  23.639  1.00  0.00     0.250 C 
ATOM      5  O   UNL A   1      33.877  28.861  22.987  1.00  0.00    -0.272 OA
ATOM      6  H   UNL A   1      33.490  30.192  24.842  1.00  0.00     0.163 HD
BRANCH   4   7
ATOM      7  C   UNL A   1      31.656  27.740  23.253  1.00  0.00     0.142 C 
ATOM      8  C   UNL A   1      31.452  27.021  24.594  1.00  0.00     0.051 C 
BRANCH   7   9
ATOM      9  C   UNL A   1      30.369  28.462  22.794  1.00  0.00    -0.013 A 
ATOM     10  C   UNL A   1      30.394  29.582  21.941  1.00  0.00     0.007 A 
ATOM     11  C   UNL A   1      29.100  28.001  23.198  1.00  0.00     0.007 A 
ATOM     12  C   UNL A   1      29.224  30.271  21.605  1.00  0.00     0.000 A 
ATOM     13  C   UNL A   1      27.928  28.677  22.846  1.00  0.00     0.000 A 
ATOM     14  C   UNL A   1      27.992  29.825  22.067  1.00  0.00     0.000 A 
ENDBRANCH   7   9
BRANCH   7  15
ATOM     15  N   UNL A   1      32.177  26.963  22.094  1.00  0.00    -0.332 N 
ATOM     16  C   UNL A   1      32.647  25.780  21.662  1.00  0.00     0.291 C 
ATOM     17  H   UNL A   1      32.179  27.571  21.320  1.00  0.00     0.165 HD
ATOM     18  O   UNL A   1      32.961  25.842  20.459  1.00  0.00    -0.267 OA
BRANCH  16  19
ATOM     19  C   UNL A   1      32.755  24.408  22.382  1.00  0.00     0.267 C 
ATOM     20  C   UNL A   1      33.220  23.380  21.312  1.00  0.00     0.100 C 
BRANCH  19  21
ATOM     21  N   UNL A   1      31.367  24.001  22.781  1.00  0.00    -0.337 N 
ATOM     22  H   UNL A   1      31.247  24.137  23.785  1.00  0.00     0.345 HD
ATOM     23  H   UNL A   1      31.222  23.017  22.552  1.00  0.00     0.345 HD
ATOM     24  H   UNL A   1      30.687  24.571  22.278  1.00  0.00     0.345 HD
ENDBRANCH  19  21
BRANCH  19  25
ATOM     25  C   UNL A   1      33.829  24.362  23.485  1.00  0.00     0.453 C 
ATOM     26  F   UNL A   1      34.313  25.594  23.783  1.00  0.00    -0.164 F 
ATOM     27  F   UNL A   1      33.351  23.847  24.642  1.00  0.00    -0.164 F 
ATOM     28  F   UNL A   1      34.901  23.635  23.114  1.00  0.00    -0.164 F 
ENDBRANCH  19  25
ENDBRANCH  16  19
ENDBRANCH   7  15
ENDBRANCH   4   7
ENDBRANCH   2   3
ENDBRANCH   1   2
BRANCH   1  29
ATOM     29  C   UNL A   1      31.611  32.143  26.902  1.00  0.00     0.023 C 
BRANCH  29  30
ATOM     30  C   UNL A   1      32.819  32.953  27.357  1.00  0.00     0.116 C 
BRANCH  30  31
ATOM     31  N   UNL A   1      32.479  34.325  27.705  1.00  0.00    -0.352 N 
ATOM     32  C   UNL A   1      33.000  35.115  28.703  1.00  0.00     0.251 C 
ATOM     33  H   UNL A   1      31.782  34.744  27.150  1.00  0.00     0.163 HD
ATOM     34  O   UNL A   1      32.495  36.193  28.975  1.00  0.00    -0.269 OA
BRANCH  32  35
ATOM     35  C   UNL A   1      34.166  34.625  29.465  1.00  0.00     0.039 A 
ATOM     36  C   UNL A   1      33.962  34.067  30.728  1.00  0.00     0.014 A 
ATOM     37  C   UNL A   1      35.448  34.678  28.912  1.00  0.00     0.014 A 
ATOM     38  C   UNL A   1      35.039  33.497  31.409  1.00  0.00     0.010 A 
ATOM     39  C   UNL A   1      36.501  34.035  29.553  1.00  0.00     0.010 A 
ATOM     40  C   UNL A   1      36.308  33.441  30.809  1.00  0.00    -0.014 A 
BRANCH  40  41
ATOM     41  C   UNL A   1      37.446  32.762  31.478  1.00  0.00     0.031 A 
ATOM     42  C   UNL A   1      38.129  31.602  30.810  1.00  0.00     0.074 A 
ATOM     43  C   UNL A   1      37.821  33.148  32.713  1.00  0.00     0.049 A 
ATOM     44  N   UNL A   1      39.098  30.841  31.256  1.00  0.00    -0.248 NA
ATOM     45  C   UNL A   1      37.640  31.227  29.473  1.00  0.00     0.031 C 
ATOM     46  C   UNL A   1      37.204  34.227  33.486  1.00  0.00     0.029 A 
ATOM     47  N   UNL A   1      38.806  32.669  33.541  1.00  0.00    -0.354 N 
ATOM     48  C   UNL A   1      39.321  29.895  30.265  1.00  0.00     0.074 A 
ATOM     49  C   UNL A   1      38.350  30.137  29.221  1.00  0.00     0.031 C 
ATOM     50  C   UNL A   1      37.842  34.348  34.660  1.00  0.00     0.029 A 
ATOM     51  C   UNL A   1      38.884  33.329  34.743  1.00  0.00     0.049 A 
ATOM     52  H   UNL A   1      39.400  31.923  33.296  1.00  0.00     0.167 HD
ATOM     53  C   UNL A   1      40.266  28.926  30.220  1.00  0.00     0.037 A 
ATOM     54  C   UNL A   1      39.701  33.128  35.795  1.00  0.00     0.037 A 
ATOM     55  C   UNL A   1      41.245  28.705  31.251  1.00  0.00     0.049 A 
ATOM     56  C   UNL A   1      40.733  32.035  35.725  1.00  0.00     0.074 A 
ATOM     57  C   UNL A   1      42.287  27.794  31.270  1.00  0.00     0.029 A 
ATOM     58  N   UNL A   1      41.298  29.398  32.452  1.00  0.00    -0.354 N 
ATOM     59  N   UNL A   1      40.987  31.196  34.750  1.00  0.00    -0.248 NA
ATOM     60  C   UNL A   1      41.596  31.863  36.902  1.00  0.00     0.031 C 
ATOM     61  C   UNL A   1      42.933  27.896  32.506  1.00  0.00     0.029 A 
ATOM     62  C   UNL A   1      42.337  28.913  33.232  1.00  0.00     0.049 A 
ATOM     63  H   UNL A   1      40.689  30.126  32.712  1.00  0.00     0.167 HD
ATOM     64  C   UNL A   1      42.056  30.422  35.180  1.00  0.00     0.074 A 
ATOM     65  C   UNL A   1      42.414  30.901  36.499  1.00  0.00     0.031 C 
ATOM     66  C   UNL A   1      42.686  29.407  34.540  1.00  0.00     0.037 A 
BRANCH  53  67
ATOM     67  C   UNL A   1      40.286  28.028  29.015  1.00  0.00     0.064 A 
ATOM     68  C   UNL A   1      41.024  28.350  27.866  1.00  0.00     0.173 A 
ATOM     69  C   UNL A   1      39.585  26.813  29.023  1.00  0.00     0.173 A 
ATOM     70  F   UNL A   1      41.704  29.506  27.801  1.00  0.00    -0.203 F 
ATOM     71  C   UNL A   1      41.034  27.506  26.759  1.00  0.00     0.198 A 
ATOM     72  C   UNL A   1      39.625  25.954  27.927  1.00  0.00     0.198 A 
ATOM     73  F   UNL A   1      38.867  26.452  30.097  1.00  0.00    -0.203 F 
ATOM     74  F   UNL A   1      41.702  27.862  25.652  1.00  0.00    -0.200 F 
ATOM     75  C   UNL A   1      40.342  26.305  26.793  1.00  0.00     0.200 A 
ATOM     76  F   UNL A   1      38.968  24.787  27.969  1.00  0.00    -0.200 F 
ATOM     77  F   UNL A   1      40.360  25.489  25.731  1.00  0.00    -0.200 F 
ENDBRANCH  53  67
BRANCH  54  78
ATOM     78  C   UNL A   1      39.595  33.998  36.997  1.00  0.00     0.064 A 
ATOM     79  C   UNL A   1      38.834  33.604  38.106  1.00  0.00     0.173 A 
ATOM     80  C   UNL A   1      40.242  35.242  37.060  1.00  0.00     0.173 A 
ATOM     81  F   UNL A   1      38.180  32.433  38.087  1.00  0.00    -0.203 F 
ATOM     82  C   UNL A   1      38.703  34.430  39.221  1.00  0.00     0.198 A 
ATOM     83  C   UNL A   1      40.135  36.053  38.187  1.00  0.00     0.198 A 
ATOM     84  F   UNL A   1      40.987  35.664  36.028  1.00  0.00    -0.203 F 
ATOM     85  F   UNL A   1      37.927  34.050  40.245  1.00  0.00    -0.200 F 
ATOM     86  C   UNL A   1      39.358  35.651  39.263  1.00  0.00     0.200 A 
ATOM     87  F   UNL A   1      40.784  37.225  38.231  1.00  0.00    -0.200 F 
ATOM     88  F   UNL A   1      39.234  36.444  40.336  1.00  0.00    -0.200 F 
ENDBRANCH  54  78
BRANCH  66  89
ATOM     89  C   UNL A   1      43.855  28.771  35.237  1.00  0.00     0.064 A 
ATOM     90  C   UNL A   1      43.696  27.676  36.100  1.00  0.00     0.173 A 
ATOM     91  C   UNL A   1      45.158  29.240  35.005  1.00  0.00     0.173 A 
ATOM     92  F   UNL A   1      42.472  27.199  36.367  1.00  0.00    -0.203 F 
ATOM     93  C   UNL A   1      44.795  27.093  36.727  1.00  0.00     0.198 A 
ATOM     94  C   UNL A   1      46.257  28.633  35.606  1.00  0.00     0.198 A 
ATOM     95  F   UNL A   1      45.367  30.279  34.182  1.00  0.00    -0.203 F 
ATOM     96  F   UNL A   1      44.615  26.083  37.588  1.00  0.00    -0.200 F 
ATOM     97  C   UNL A   1      46.074  27.566  36.472  1.00  0.00     0.200 A 
ATOM     98  F   UNL A   1      47.493  29.081  35.345  1.00  0.00    -0.200 F 
ATOM     99  F   UNL A   1      47.131  26.998  37.069  1.00  0.00    -0.200 F 
ENDBRANCH  66  89
ENDBRANCH  40  41
ENDBRANCH  32  35
ENDBRANCH  30  31
ENDBRANCH  29  30
ENDBRANCH   1  29
TORSDOF 16
ENDMDL
MODEL 3
REMARK VINA RESULT:     -12.9      0.069      1.576
REMARK SMILES C[C@](NC(=O)[C@](C)([NH3+])C(F)(F)F)(C(=O)NCCCCNC(=O)c1ccc(-c2c3nc(c(-c4c(F)c(F)c(F)c(F)c4F)c4ccc([nH]4)c(-c4c(F)c(F)c(F)c(F)c4F)c4nc(c(-c5c(F)c(F)c(F)c(F)c5F)c5ccc2[nH]5)C=C4)C=C3)cc1)c1ccccc1
REMARK SMILES IDX 17 1 16 2 15 3 13 4 14 5 2 7 1 8 86 9 87 10 91 11 88 12
REMARK SMILES IDX 90 13 89 14 3 15 4 16 5 18 6 19 7 20 8 21 9 25 10 26 11 27
REMARK SMILES IDX 12 28 18 29 19 30 20 31 21 32 22 34 23 35 24 36 85 37 25 38
REMARK SMILES IDX 84 39 26 40 27 41 28 42 78 43 29 44 83 45 77 46 79 47 30 48
REMARK SMILES IDX 82 49 76 50 75 51 31 53 63 54 43 55 62 56 44 57 47 58 61 59
REMARK SMILES IDX 80 60 45 61 46 62 60 64 81 65 48 66 32 67 33 68 41 69 34 70
REMARK SMILES IDX 35 71 39 72 42 73 36 74 37 75 40 76 38 77 64 78 65 79 73 80
REMARK SMILES IDX 66 81 67 82 71 83 74 84 68 85 69 86 72 87 70 88 49 89 50 90
REMARK SMILES IDX 58 91 51 92 52 93 56 94 59 95 53 96 54 97 57 98 55 99
REMARK H PARENT 15 6 3 17 8 22 8 23 8 24 20 33 79 52 47 63
REMARK Flexibility Score: inf
ROOT
ATOM      1  C   UNL A   1      37.357  21.065  24.952  1.00  0.00     0.023 C 
ENDROOT
BRANCH   1   2
ATOM      2  C   UNL A   1      35.909  20.598  24.994  1.00  0.00     0.116 C 
BRANCH   2   3
ATOM      3  N   UNL A   1      35.196  21.158  26.128  1.00  0.00    -0.354 N 
ATOM      4  C   UNL A   1      33.862  21.411  26.324  1.00  0.00     0.250 C 
ATOM      5  O   UNL A   1      33.546  21.604  27.503  1.00  0.00    -0.272 OA
ATOM      6  H   UNL A   1      35.771  21.398  26.891  1.00  0.00     0.163 HD
BRANCH   4   7
ATOM      7  C   UNL A   1      32.801  21.240  25.143  1.00  0.00     0.142 C 
ATOM      8  C   UNL A   1      33.407  22.172  24.084  1.00  0.00     0.051 C 
BRANCH   7   9
ATOM      9  C   UNL A   1      32.699  19.786  24.628  1.00  0.00    -0.013 A 
ATOM     10  C   UNL A   1      32.770  18.674  25.489  1.00  0.00     0.007 A 
ATOM     11  C   UNL A   1      32.502  19.517  23.260  1.00  0.00     0.007 A 
ATOM     12  C   UNL A   1      32.759  17.365  24.995  1.00  0.00     0.000 A 
ATOM     13  C   UNL A   1      32.471  18.209  22.766  1.00  0.00     0.000 A 
ATOM     14  C   UNL A   1      32.622  17.133  23.632  1.00  0.00     0.000 A 
ENDBRANCH   7   9
BRANCH   7  15
ATOM     15  N   UNL A   1      31.488  21.599  25.748  1.00  0.00    -0.332 N 
ATOM     16  C   UNL A   1      30.644  22.591  26.077  1.00  0.00     0.291 C 
ATOM     17  H   UNL A   1      31.060  20.757  26.023  1.00  0.00     0.165 HD
ATOM     18  O   UNL A   1      29.631  22.140  26.644  1.00  0.00    -0.267 OA
BRANCH  16  19
ATOM     19  C   UNL A   1      30.705  24.116  25.781  1.00  0.00     0.267 C 
ATOM     20  C   UNL A   1      32.067  24.621  26.336  1.00  0.00     0.100 C 
BRANCH  19  21
ATOM     21  N   UNL A   1      29.642  24.775  26.611  1.00  0.00    -0.337 N 
ATOM     22  H   UNL A   1      29.426  25.692  26.222  1.00  0.00     0.345 HD
ATOM     23  H   UNL A   1      29.977  24.883  27.569  1.00  0.00     0.345 HD
ATOM     24  H   UNL A   1      28.801  24.198  26.608  1.00  0.00     0.345 HD
ENDBRANCH  19  21
BRANCH  19  25
ATOM     25  C   UNL A   1      30.720  24.463  24.282  1.00  0.00     0.453 C 
ATOM     26  F   UNL A   1      29.795  25.403  23.962  1.00  0.00    -0.164 F 
ATOM     27  F   UNL A   1      31.917  24.950  23.882  1.00  0.00    -0.164 F 
ATOM     28  F   UNL A   1      30.425  23.395  23.514  1.00  0.00    -0.164 F 
ENDBRANCH  19  25
ENDBRANCH  16  19
ENDBRANCH   7  15
ENDBRANCH   4   7
ENDBRANCH   2   3
ENDBRANCH   1   2
BRANCH   1  29
ATOM     29  C   UNL A   1      38.372  19.926  25.019  1.00  0.00     0.023 C 
BRANCH  29  30
ATOM     30  C   UNL A   1      39.503  20.142  26.017  1.00  0.00     0.116 C 
BRANCH  30  31
ATOM     31  N   UNL A   1      40.479  19.063  26.004  1.00  0.00    -0.352 N 
ATOM     32  C   UNL A   1      41.850  19.140  26.093  1.00  0.00     0.251 C 
ATOM     33  H   UNL A   1      40.108  18.154  25.922  1.00  0.00     0.163 HD
ATOM     34  O   UNL A   1      42.545  18.154  25.903  1.00  0.00    -0.269 OA
BRANCH  32  35
ATOM     35  C   UNL A   1      42.473  20.445  26.394  1.00  0.00     0.039 A 
ATOM     36  C   UNL A   1      43.012  21.193  25.346  1.00  0.00     0.014 A 
ATOM     37  C   UNL A   1      42.483  20.942  27.699  1.00  0.00     0.014 A 
ATOM     38  C   UNL A   1      43.500  22.476  25.600  1.00  0.00     0.010 A 
ATOM     39  C   UNL A   1      42.890  22.250  27.934  1.00  0.00     0.010 A 
ATOM     40  C   UNL A   1      43.406  23.030  26.887  1.00  0.00    -0.014 A 
BRANCH  40  41
ATOM     41  C   UNL A   1      43.838  24.423  27.159  1.00  0.00     0.031 A 
ATOM     42  C   UNL A   1      42.843  25.439  27.648  1.00  0.00     0.074 A 
ATOM     43  C   UNL A   1      45.109  24.790  26.904  1.00  0.00     0.049 A 
ATOM     44  N   UNL A   1      43.011  26.716  27.884  1.00  0.00    -0.248 NA
ATOM     45  C   UNL A   1      41.469  24.962  27.875  1.00  0.00     0.031 C 
ATOM     46  C   UNL A   1      46.155  23.909  26.381  1.00  0.00     0.029 A 
ATOM     47  N   UNL A   1      45.736  26.003  27.041  1.00  0.00    -0.354 N 
ATOM     48  C   UNL A   1      41.766  27.194  28.270  1.00  0.00     0.074 A 
ATOM     49  C   UNL A   1      40.839  26.086  28.181  1.00  0.00     0.031 C 
ATOM     50  C   UNL A   1      47.298  24.602  26.270  1.00  0.00     0.029 A 
ATOM     51  C   UNL A   1      47.059  25.984  26.672  1.00  0.00     0.049 A 
ATOM     52  H   UNL A   1      45.280  26.810  27.373  1.00  0.00     0.167 HD
ATOM     53  C   UNL A   1      41.431  28.439  28.685  1.00  0.00     0.037 A 
ATOM     54  C   UNL A   1      47.972  26.974  26.653  1.00  0.00     0.037 A 
ATOM     55  C   UNL A   1      42.362  29.531  28.795  1.00  0.00     0.049 A 
ATOM     56  C   UNL A   1      47.570  28.352  27.105  1.00  0.00     0.074 A 
ATOM     57  C   UNL A   1      42.136  30.812  29.269  1.00  0.00     0.029 A 
ATOM     58  N   UNL A   1      43.696  29.473  28.418  1.00  0.00    -0.354 N 
ATOM     59  N   UNL A   1      46.409  28.775  27.543  1.00  0.00    -0.248 NA
ATOM     60  C   UNL A   1      48.608  29.392  27.064  1.00  0.00     0.031 C 
ATOM     61  C   UNL A   1      43.319  31.545  29.123  1.00  0.00     0.029 A 
ATOM     62  C   UNL A   1      44.298  30.705  28.620  1.00  0.00     0.049 A 
ATOM     63  H   UNL A   1      44.148  28.675  28.061  1.00  0.00     0.167 HD
ATOM     64  C   UNL A   1      46.584  30.116  27.860  1.00  0.00     0.074 A 
ATOM     65  C   UNL A   1      47.969  30.432  27.578  1.00  0.00     0.031 C 
ATOM     66  C   UNL A   1      45.681  31.003  28.343  1.00  0.00     0.037 A 
BRANCH  53  67
ATOM     67  C   UNL A   1      39.995  28.689  29.050  1.00  0.00     0.064 A 
ATOM     68  C   UNL A   1      39.067  29.166  28.111  1.00  0.00     0.173 A 
ATOM     69  C   UNL A   1      39.532  28.415  30.345  1.00  0.00     0.173 A 
ATOM     70  F   UNL A   1      39.458  29.455  26.860  1.00  0.00    -0.203 F 
ATOM     71  C   UNL A   1      37.739  29.391  28.464  1.00  0.00     0.198 A 
ATOM     72  C   UNL A   1      38.196  28.608  30.686  1.00  0.00     0.198 A 
ATOM     73  F   UNL A   1      40.374  27.952  31.282  1.00  0.00    -0.203 F 
ATOM     74  F   UNL A   1      36.885  29.899  27.566  1.00  0.00    -0.200 F 
ATOM     75  C   UNL A   1      37.303  29.103  29.748  1.00  0.00     0.200 A 
ATOM     76  F   UNL A   1      37.773  28.314  31.924  1.00  0.00    -0.200 F 
ATOM     77  F   UNL A   1      36.022  29.311  30.085  1.00  0.00    -0.200 F 
ENDBRANCH  53  67
BRANCH  54  78
ATOM     78  C   UNL A   1      49.366  26.694  26.215  1.00  0.00     0.064 A 
ATOM     79  C   UNL A   1      50.329  26.239  27.127  1.00  0.00     0.173 A 
ATOM     80  C   UNL A   1      49.767  26.884  24.884  1.00  0.00     0.173 A 
ATOM     81  F   UNL A   1      49.999  26.062  28.415  1.00  0.00    -0.203 F 
ATOM     82  C   UNL A   1      51.645  26.009  26.731  1.00  0.00     0.198 A 
ATOM     83  C   UNL A   1      51.076  26.624  24.483  1.00  0.00     0.198 A 
ATOM     84  F   UNL A   1      48.885  27.313  23.971  1.00  0.00    -0.203 F 
ATOM     85  F   UNL A   1      52.556  25.624  27.635  1.00  0.00    -0.200 F 
ATOM     86  C   UNL A   1      52.016  26.196  25.408  1.00  0.00     0.200 A 
ATOM     87  F   UNL A   1      51.427  26.789  23.200  1.00  0.00    -0.200 F 
ATOM     88  F   UNL A   1      53.281  25.972  25.027  1.00  0.00    -0.200 F 
ENDBRANCH  54  78
BRANCH  66  89
ATOM     89  C   UNL A   1      46.168  32.393  28.638  1.00  0.00     0.064 A 
ATOM     90  C   UNL A   1      46.106  33.417  27.682  1.00  0.00     0.173 A 
ATOM     91  C   UNL A   1      46.667  32.712  29.911  1.00  0.00     0.173 A 
ATOM     92  F   UNL A   1      45.652  33.161  26.447  1.00  0.00    -0.203 F 
ATOM     93  C   UNL A   1      46.552  34.703  27.980  1.00  0.00     0.198 A 
ATOM     94  C   UNL A   1      47.079  34.006  30.216  1.00  0.00     0.198 A 
ATOM     95  F   UNL A   1      46.740  31.772  30.865  1.00  0.00    -0.203 F 
ATOM     96  F   UNL A   1      46.534  35.652  27.035  1.00  0.00    -0.200 F 
ATOM     97  C   UNL A   1      47.030  34.998  29.248  1.00  0.00     0.200 A 
ATOM     98  F   UNL A   1      47.524  34.293  31.448  1.00  0.00    -0.200 F 
ATOM     99  F   UNL A   1      47.450  36.238  29.537  1.00  0.00    -0.200 F 
ENDBRANCH  66  89
ENDBRANCH  40  41
ENDBRANCH  32  35
ENDBRANCH  30  31
ENDBRANCH  29  30
ENDBRANCH   1  29
TORSDOF 16
ENDMDL
