MODEL 1
REMARK VINA RESULT:     -11.6      0.000      0.000
REMARK SMILES O=C(CCCOc1ccc(Cl)cc1Cl)Nc1cccc(C(=O)NCCCCNC(=O)c2ccc(-c3c4nc(c(-c5c(F)c(F)c(F)c(F)c5F)c5ccc([nH]5)c(-c5c(F)c(F)c(F)c(F)c5F)c5nc(c(-c6c(F)c(F)c(F)c(F)c6F)c6ccc3[nH]6)C=C5)C=C4)cc2)c1
REMARK SMILES IDX 21 1 22 2 23 3 20 5 16 6 17 7 94 8 18 9 19 10 15 11 1 12
REMARK SMILES IDX 2 13 3 15 4 16 5 17 6 18 7 19 8 20 13 21 9 22 12 23 14 24
REMARK SMILES IDX 10 25 11 26 24 27 25 28 26 29 27 30 28 31 29 32 30 34 31 35
REMARK SMILES IDX 32 36 93 37 33 38 92 39 34 40 35 41 36 42 86 43 37 44 91 45
REMARK SMILES IDX 85 46 87 47 38 48 90 49 84 50 83 51 39 53 71 54 51 55 70 56
REMARK SMILES IDX 52 57 55 58 69 59 88 60 53 61 54 62 68 64 89 65 56 66 40 67
REMARK SMILES IDX 41 68 49 69 42 70 43 71 47 72 50 73 44 74 45 75 48 76 46 77
REMARK SMILES IDX 72 78 73 79 81 80 74 81 75 82 79 83 82 84 76 85 77 86 80 87
REMARK SMILES IDX 78 88 57 89 58 90 66 91 59 92 60 93 64 94 67 95 61 96 62 97
REMARK SMILES IDX 65 98 63 99
REMARK H PARENT 23 4 15 14 28 33 87 52 55 63
REMARK Flexibility Score: inf
ROOT
ATOM      1  C   UNL A   1      33.633  19.852  25.029  1.00  0.00     0.251 C 
ATOM      2  O   UNL A   1      32.837  18.958  24.756  1.00  0.00    -0.269 OA
ATOM      3  N   UNL A   1      34.986  19.605  24.934  1.00  0.00    -0.352 N 
ATOM      4  H   UNL A   1      35.222  18.703  24.618  1.00  0.00     0.163 HD
ENDROOT
BRANCH   1   5
ATOM      5  C   UNL A   1      33.126  21.156  25.530  1.00  0.00     0.041 A 
ATOM      6  C   UNL A   1      32.477  23.454  25.112  1.00  0.00     0.041 A 
ATOM      7  C   UNL A   1      32.564  23.711  26.485  1.00  0.00     0.026 A 
ATOM      8  C   UNL A   1      32.673  22.149  24.658  1.00  0.00     0.040 A 
ATOM      9  C   UNL A   1      32.867  22.681  27.383  1.00  0.00     0.003 A 
ATOM     10  C   UNL A   1      33.168  21.406  26.904  1.00  0.00     0.014 A 
BRANCH   6  11
ATOM     11  N   UNL A   1      32.346  24.553  24.230  1.00  0.00    -0.326 N 
ATOM     12  O   UNL A   1      30.337  24.077  23.188  1.00  0.00    -0.275 OA
ATOM     13  C   UNL A   1      31.414  24.670  23.219  1.00  0.00     0.224 C 
ATOM     14  H   UNL A   1      32.976  25.300  24.349  1.00  0.00     0.169 HD
BRANCH  13  15
ATOM     15  C   UNL A   1      31.853  25.456  21.991  1.00  0.00     0.104 C 
BRANCH  15  16
ATOM     16  C   UNL A   1      33.115  26.311  22.065  1.00  0.00     0.051 C 
BRANCH  16  17
ATOM     17  C   UNL A   1      32.899  27.768  22.501  1.00  0.00     0.230 C 
BRANCH  17  18
ATOM     18  O   UNL A   1      32.113  27.866  23.697  1.00  0.00    -0.492 OA
BRANCH  18  19
ATOM     19  C   UNL A   1      31.090  28.772  23.625  1.00  0.00     0.137 A 
ATOM     20  C   UNL A   1      30.127  28.515  22.644  1.00  0.00     0.049 A 
ATOM     21  C   UNL A   1      30.927  29.866  24.486  1.00  0.00     0.084 A 
ATOM     22  C   UNL A   1      29.067  29.400  22.449  1.00  0.00     0.024 A 
ATOM     23  C   UNL A   1      29.859  30.747  24.299  1.00  0.00     0.045 A 
ATOM     24  Cl  UNL A   1      31.983  30.152  25.823  1.00  0.00    -0.080 Cl
ATOM     25  C   UNL A   1      28.944  30.516  23.273  1.00  0.00     0.042 A 
ATOM     26  Cl  UNL A   1      27.638  31.609  23.033  1.00  0.00    -0.084 Cl
ENDBRANCH  18  19
ENDBRANCH  17  18
ENDBRANCH  16  17
ENDBRANCH  15  16
ENDBRANCH  13  15
ENDBRANCH   6  11
ENDBRANCH   1   5
BRANCH   3  27
ATOM     27  C   UNL A   1      36.122  20.467  25.228  1.00  0.00     0.116 C 
BRANCH  27  28
ATOM     28  C   UNL A   1      36.230  21.693  24.332  1.00  0.00     0.023 C 
BRANCH  28  29
ATOM     29  C   UNL A   1      36.105  23.047  25.018  1.00  0.00     0.023 C 
BRANCH  29  30
ATOM     30  C   UNL A   1      37.409  23.811  25.221  1.00  0.00     0.116 C 
BRANCH  30  31
ATOM     31  N   UNL A   1      38.545  22.958  25.537  1.00  0.00    -0.352 N 
ATOM     32  C   UNL A   1      39.676  23.230  26.275  1.00  0.00     0.251 C 
ATOM     33  H   UNL A   1      38.498  22.047  25.168  1.00  0.00     0.163 HD
ATOM     34  O   UNL A   1      40.574  22.402  26.350  1.00  0.00    -0.269 OA
BRANCH  32  35
ATOM     35  C   UNL A   1      39.827  24.543  26.943  1.00  0.00     0.039 A 
ATOM     36  C   UNL A   1      39.303  24.708  28.229  1.00  0.00     0.014 A 
ATOM     37  C   UNL A   1      40.497  25.600  26.322  1.00  0.00     0.014 A 
ATOM     38  C   UNL A   1      39.535  25.898  28.926  1.00  0.00     0.010 A 
ATOM     39  C   UNL A   1      40.797  26.751  27.047  1.00  0.00     0.010 A 
ATOM     40  C   UNL A   1      40.326  26.909  28.359  1.00  0.00    -0.014 A 
BRANCH  40  41
ATOM     41  C   UNL A   1      40.688  28.129  29.129  1.00  0.00     0.031 A 
ATOM     42  C   UNL A   1      42.045  28.250  29.767  1.00  0.00     0.074 A 
ATOM     43  C   UNL A   1      39.766  29.092  29.325  1.00  0.00     0.049 A 
ATOM     44  N   UNL A   1      42.515  29.197  30.540  1.00  0.00    -0.248 NA
ATOM     45  C   UNL A   1      42.989  27.147  29.531  1.00  0.00     0.031 C 
ATOM     46  C   UNL A   1      38.392  29.064  28.818  1.00  0.00     0.029 A 
ATOM     47  N   UNL A   1      39.837  30.275  30.019  1.00  0.00    -0.354 N 
ATOM     48  C   UNL A   1      43.794  28.792  30.898  1.00  0.00     0.074 A 
ATOM     49  C   UNL A   1      44.012  27.493  30.298  1.00  0.00     0.031 C 
ATOM     50  C   UNL A   1      37.757  30.184  29.203  1.00  0.00     0.029 A 
ATOM     51  C   UNL A   1      38.664  30.991  30.012  1.00  0.00     0.049 A 
ATOM     52  H   UNL A   1      40.652  30.583  30.477  1.00  0.00     0.167 HD
ATOM     53  C   UNL A   1      44.712  29.453  31.643  1.00  0.00     0.037 A 
ATOM     54  C   UNL A   1      38.351  32.163  30.599  1.00  0.00     0.037 A 
ATOM     55  C   UNL A   1      44.510  30.762  32.205  1.00  0.00     0.049 A 
ATOM     56  C   UNL A   1      39.401  32.890  31.396  1.00  0.00     0.074 A 
ATOM     57  C   UNL A   1      45.412  31.551  32.899  1.00  0.00     0.029 A 
ATOM     58  N   UNL A   1      43.324  31.476  32.137  1.00  0.00    -0.354 N 
ATOM     59  N   UNL A   1      40.637  32.536  31.652  1.00  0.00    -0.248 NA
ATOM     60  C   UNL A   1      39.016  34.184  31.977  1.00  0.00     0.031 C 
ATOM     61  C   UNL A   1      44.757  32.723  33.291  1.00  0.00     0.029 A 
ATOM     62  C   UNL A   1      43.464  32.687  32.797  1.00  0.00     0.049 A 
ATOM     63  H   UNL A   1      42.503  31.169  31.688  1.00  0.00     0.167 HD
ATOM     64  C   UNL A   1      41.184  33.573  32.397  1.00  0.00     0.074 A 
ATOM     65  C   UNL A   1      40.150  34.577  32.538  1.00  0.00     0.031 C 
ATOM     66  C   UNL A   1      42.429  33.682  32.920  1.00  0.00     0.037 A 
BRANCH  53  67
ATOM     67  C   UNL A   1      46.030  28.778  31.888  1.00  0.00     0.064 A 
ATOM     68  C   UNL A   1      47.116  28.941  31.014  1.00  0.00     0.173 A 
ATOM     69  C   UNL A   1      46.229  28.006  33.044  1.00  0.00     0.173 A 
ATOM     70  F   UNL A   1      46.975  29.661  29.892  1.00  0.00    -0.203 F 
ATOM     71  C   UNL A   1      48.342  28.337  31.275  1.00  0.00     0.198 A 
ATOM     72  C   UNL A   1      47.466  27.428  33.315  1.00  0.00     0.198 A 
ATOM     73  F   UNL A   1      45.225  27.824  33.916  1.00  0.00    -0.203 F 
ATOM     74  F   UNL A   1      49.353  28.474  30.405  1.00  0.00    -0.200 F 
ATOM     75  C   UNL A   1      48.519  27.589  32.430  1.00  0.00     0.200 A 
ATOM     76  F   UNL A   1      47.639  26.717  34.439  1.00  0.00    -0.200 F 
ATOM     77  F   UNL A   1      49.706  27.020  32.685  1.00  0.00    -0.200 F 
ENDBRANCH  53  67
BRANCH  54  78
ATOM     78  C   UNL A   1      36.987  32.736  30.443  1.00  0.00     0.064 A 
ATOM     79  C   UNL A   1      36.641  33.471  29.302  1.00  0.00     0.173 A 
ATOM     80  C   UNL A   1      36.012  32.577  31.439  1.00  0.00     0.173 A 
ATOM     81  F   UNL A   1      37.547  33.669  28.332  1.00  0.00    -0.203 F 
ATOM     82  C   UNL A   1      35.380  34.050  29.173  1.00  0.00     0.198 A 
ATOM     83  C   UNL A   1      34.742  33.132  31.295  1.00  0.00     0.198 A 
ATOM     84  F   UNL A   1      36.291  31.877  32.548  1.00  0.00    -0.203 F 
ATOM     85  F   UNL A   1      35.094  34.794  28.096  1.00  0.00    -0.200 F 
ATOM     86  C   UNL A   1      34.430  33.876  30.167  1.00  0.00     0.200 A 
ATOM     87  F   UNL A   1      33.821  32.949  32.253  1.00  0.00    -0.200 F 
ATOM     88  F   UNL A   1      33.218  34.434  30.044  1.00  0.00    -0.200 F 
ENDBRANCH  54  78
BRANCH  66  89
ATOM     89  C   UNL A   1      42.757  34.944  33.662  1.00  0.00     0.064 A 
ATOM     90  C   UNL A   1      42.656  35.025  35.059  1.00  0.00     0.173 A 
ATOM     91  C   UNL A   1      43.214  36.076  32.969  1.00  0.00     0.173 A 
ATOM     92  F   UNL A   1      42.210  33.974  35.765  1.00  0.00    -0.203 F 
ATOM     93  C   UNL A   1      42.977  36.200  35.732  1.00  0.00     0.198 A 
ATOM     94  C   UNL A   1      43.562  37.239  33.649  1.00  0.00     0.198 A 
ATOM     95  F   UNL A   1      43.335  36.048  31.634  1.00  0.00    -0.203 F 
ATOM     96  F   UNL A   1      42.827  36.269  37.062  1.00  0.00    -0.200 F 
ATOM     97  C   UNL A   1      43.437  37.303  35.029  1.00  0.00     0.200 A 
ATOM     98  F   UNL A   1      44.020  38.300  32.969  1.00  0.00    -0.200 F 
ATOM     99  F   UNL A   1      43.751  38.431  35.679  1.00  0.00    -0.200 F 
ENDBRANCH  66  89
ENDBRANCH  40  41
ENDBRANCH  32  35
ENDBRANCH  30  31
ENDBRANCH  29  30
ENDBRANCH  28  29
ENDBRANCH  27  28
ENDBRANCH   3  27
TORSDOF 17
ENDMDL
MODEL 2
REMARK VINA RESULT:     -11.5      3.408      4.990
REMARK SMILES O=C(CCCOc1ccc(Cl)cc1Cl)Nc1cccc(C(=O)NCCCCNC(=O)c2ccc(-c3c4nc(c(-c5c(F)c(F)c(F)c(F)c5F)c5ccc([nH]5)c(-c5c(F)c(F)c(F)c(F)c5F)c5nc(c(-c6c(F)c(F)c(F)c(F)c6F)c6ccc3[nH]6)C=C5)C=C4)cc2)c1
REMARK SMILES IDX 21 1 22 2 23 3 20 5 16 6 17 7 94 8 18 9 19 10 15 11 1 12
REMARK SMILES IDX 2 13 3 15 4 16 5 17 6 18 7 19 8 20 13 21 9 22 12 23 14 24
REMARK SMILES IDX 10 25 11 26 24 27 25 28 26 29 27 30 28 31 29 32 30 34 31 35
REMARK SMILES IDX 32 36 93 37 33 38 92 39 34 40 35 41 36 42 86 43 37 44 91 45
REMARK SMILES IDX 85 46 87 47 38 48 90 49 84 50 83 51 39 53 71 54 51 55 70 56
REMARK SMILES IDX 52 57 55 58 69 59 88 60 53 61 54 62 68 64 89 65 56 66 40 67
REMARK SMILES IDX 41 68 49 69 42 70 43 71 47 72 50 73 44 74 45 75 48 76 46 77
REMARK SMILES IDX 72 78 73 79 81 80 74 81 75 82 79 83 82 84 76 85 77 86 80 87
REMARK SMILES IDX 78 88 57 89 58 90 66 91 59 92 60 93 64 94 67 95 61 96 62 97
REMARK SMILES IDX 65 98 63 99
REMARK H PARENT 23 4 15 14 28 33 87 52 55 63
REMARK Flexibility Score: inf
ROOT
ATOM      1  C   UNL A   1      34.897  22.201  26.223  1.00  0.00     0.251 C 
ATOM      2  O   UNL A   1      34.563  22.707  27.291  1.00  0.00    -0.269 OA
ATOM      3  N   UNL A   1      35.869  21.223  26.213  1.00  0.00    -0.352 N 
ATOM      4  H   UNL A   1      36.218  20.975  27.099  1.00  0.00     0.163 HD
ENDROOT
BRANCH   1   5
ATOM      5  C   UNL A   1      34.305  22.706  24.957  1.00  0.00     0.041 A 
ATOM      6  C   UNL A   1      33.620  24.564  23.558  1.00  0.00     0.041 A 
ATOM      7  C   UNL A   1      32.848  23.680  22.793  1.00  0.00     0.026 A 
ATOM      8  C   UNL A   1      34.414  24.047  24.582  1.00  0.00     0.040 A 
ATOM      9  C   UNL A   1      32.855  22.309  23.069  1.00  0.00     0.003 A 
ATOM     10  C   UNL A   1      33.568  21.823  24.165  1.00  0.00     0.014 A 
BRANCH   6  11
ATOM     11  N   UNL A   1      33.444  25.953  23.360  1.00  0.00    -0.326 N 
ATOM     12  O   UNL A   1      33.313  26.082  21.054  1.00  0.00    -0.275 OA
ATOM     13  C   UNL A   1      33.508  26.611  22.148  1.00  0.00     0.224 C 
ATOM     14  H   UNL A   1      33.260  26.500  24.158  1.00  0.00     0.169 HD
BRANCH  13  15
ATOM     15  C   UNL A   1      34.028  28.041  22.188  1.00  0.00     0.104 C 
BRANCH  15  16
ATOM     16  C   UNL A   1      33.242  29.099  22.957  1.00  0.00     0.051 C 
BRANCH  16  17
ATOM     17  C   UNL A   1      31.719  28.906  22.973  1.00  0.00     0.230 C 
BRANCH  17  18
ATOM     18  O   UNL A   1      31.186  28.897  24.304  1.00  0.00    -0.492 OA
BRANCH  18  19
ATOM     19  C   UNL A   1      31.108  27.654  24.872  1.00  0.00     0.137 A 
ATOM     20  C   UNL A   1      30.285  26.741  24.204  1.00  0.00     0.049 A 
ATOM     21  C   UNL A   1      31.825  27.243  26.003  1.00  0.00     0.084 A 
ATOM     22  C   UNL A   1      30.092  25.460  24.720  1.00  0.00     0.024 A 
ATOM     23  C   UNL A   1      31.641  25.956  26.515  1.00  0.00     0.045 A 
ATOM     24  Cl  UNL A   1      32.983  28.262  26.782  1.00  0.00    -0.080 Cl
ATOM     25  C   UNL A   1      30.765  25.077  25.878  1.00  0.00     0.042 A 
ATOM     26  Cl  UNL A   1      30.527  23.498  26.517  1.00  0.00    -0.084 Cl
ENDBRANCH  18  19
ENDBRANCH  17  18
ENDBRANCH  16  17
ENDBRANCH  15  16
ENDBRANCH  13  15
ENDBRANCH   6  11
ENDBRANCH   1   5
BRANCH   3  27
ATOM     27  C   UNL A   1      36.462  20.499  25.097  1.00  0.00     0.116 C 
BRANCH  27  28
ATOM     28  C   UNL A   1      37.668  21.185  24.472  1.00  0.00     0.023 C 
BRANCH  28  29
ATOM     29  C   UNL A   1      38.897  21.339  25.359  1.00  0.00     0.023 C 
BRANCH  29  30
ATOM     30  C   UNL A   1      39.096  20.254  26.411  1.00  0.00     0.116 C 
BRANCH  30  31
ATOM     31  N   UNL A   1      40.162  19.316  26.090  1.00  0.00    -0.352 N 
ATOM     32  C   UNL A   1      41.524  19.512  26.034  1.00  0.00     0.251 C 
ATOM     33  H   UNL A   1      39.864  18.402  25.882  1.00  0.00     0.163 HD
ATOM     34  O   UNL A   1      42.258  18.612  25.648  1.00  0.00    -0.269 OA
BRANCH  32  35
ATOM     35  C   UNL A   1      42.100  20.828  26.397  1.00  0.00     0.039 A 
ATOM     36  C   UNL A   1      42.504  21.691  25.374  1.00  0.00     0.014 A 
ATOM     37  C   UNL A   1      42.223  21.222  27.732  1.00  0.00     0.014 A 
ATOM     38  C   UNL A   1      42.940  22.981  25.686  1.00  0.00     0.010 A 
ATOM     39  C   UNL A   1      42.579  22.534  28.036  1.00  0.00     0.010 A 
ATOM     40  C   UNL A   1      42.934  23.430  27.016  1.00  0.00    -0.014 A 
BRANCH  40  41
ATOM     41  C   UNL A   1      43.276  24.836  27.359  1.00  0.00     0.031 A 
ATOM     42  C   UNL A   1      44.696  25.321  27.251  1.00  0.00     0.074 A 
ATOM     43  C   UNL A   1      42.322  25.654  27.847  1.00  0.00     0.049 A 
ATOM     44  N   UNL A   1      45.201  26.484  27.579  1.00  0.00    -0.248 NA
ATOM     45  C   UNL A   1      45.686  24.363  26.736  1.00  0.00     0.031 C 
ATOM     46  C   UNL A   1      40.921  25.286  28.064  1.00  0.00     0.029 A 
ATOM     47  N   UNL A   1      42.388  26.960  28.266  1.00  0.00    -0.354 N 
ATOM     48  C   UNL A   1      46.564  26.388  27.332  1.00  0.00     0.074 A 
ATOM     49  C   UNL A   1      46.817  25.040  26.871  1.00  0.00     0.031 C 
ATOM     50  C   UNL A   1      40.259  26.344  28.560  1.00  0.00     0.029 A 
ATOM     51  C   UNL A   1      41.191  27.453  28.729  1.00  0.00     0.049 A 
ATOM     52  H   UNL A   1      43.215  27.494  28.237  1.00  0.00     0.167 HD
ATOM     53  C   UNL A   1      47.515  27.344  27.459  1.00  0.00     0.037 A 
ATOM     54  C   UNL A   1      40.882  28.661  29.241  1.00  0.00     0.037 A 
ATOM     55  C   UNL A   1      47.256  28.696  27.878  1.00  0.00     0.049 A 
ATOM     56  C   UNL A   1      41.954  29.713  29.341  1.00  0.00     0.074 A 
ATOM     57  C   UNL A   1      48.139  29.759  27.951  1.00  0.00     0.029 A 
ATOM     58  N   UNL A   1      46.022  29.170  28.294  1.00  0.00    -0.354 N 
ATOM     59  N   UNL A   1      43.223  29.636  29.019  1.00  0.00    -0.248 NA
ATOM     60  C   UNL A   1      41.549  31.025  29.865  1.00  0.00     0.031 C 
ATOM     61  C   UNL A   1      47.449  30.867  28.456  1.00  0.00     0.029 A 
ATOM     62  C   UNL A   1      46.125  30.507  28.648  1.00  0.00     0.049 A 
ATOM     63  H   UNL A   1      45.195  28.638  28.333  1.00  0.00     0.167 HD
ATOM     64  C   UNL A   1      43.758  30.891  29.275  1.00  0.00     0.074 A 
ATOM     65  C   UNL A   1      42.674  31.717  29.762  1.00  0.00     0.031 C 
ATOM     66  C   UNL A   1      45.035  31.319  29.123  1.00  0.00     0.037 A 
BRANCH  53  67
ATOM     67  C   UNL A   1      48.931  26.968  27.129  1.00  0.00     0.064 A 
ATOM     68  C   UNL A   1      49.431  27.056  25.821  1.00  0.00     0.173 A 
ATOM     69  C   UNL A   1      49.815  26.573  28.145  1.00  0.00     0.173 A 
ATOM     70  F   UNL A   1      48.624  27.420  24.814  1.00  0.00    -0.203 F 
ATOM     71  C   UNL A   1      50.756  26.738  25.538  1.00  0.00     0.198 A 
ATOM     72  C   UNL A   1      51.148  26.284  27.862  1.00  0.00     0.198 A 
ATOM     73  F   UNL A   1      49.390  26.479  29.414  1.00  0.00    -0.203 F 
ATOM     74  F   UNL A   1      51.201  26.791  24.275  1.00  0.00    -0.200 F 
ATOM     75  C   UNL A   1      51.616  26.363  26.560  1.00  0.00     0.200 A 
ATOM     76  F   UNL A   1      51.981  25.935  28.853  1.00  0.00    -0.200 F 
ATOM     77  F   UNL A   1      52.895  26.071  26.287  1.00  0.00    -0.200 F 
ENDBRANCH  53  67
BRANCH  54  78
ATOM     78  C   UNL A   1      39.492  28.951  29.682  1.00  0.00     0.064 A 
ATOM     79  C   UNL A   1      38.557  29.505  28.799  1.00  0.00     0.173 A 
ATOM     80  C   UNL A   1      39.079  28.700  30.999  1.00  0.00     0.173 A 
ATOM     81  F   UNL A   1      38.911  29.784  27.535  1.00  0.00    -0.203 F 
ATOM     82  C   UNL A   1      37.267  29.823  29.222  1.00  0.00     0.198 A 
ATOM     83  C   UNL A   1      37.780  28.991  31.412  1.00  0.00     0.198 A 
ATOM     84  F   UNL A   1      39.934  28.165  31.882  1.00  0.00    -0.203 F 
ATOM     85  F   UNL A   1      36.409  30.402  28.370  1.00  0.00    -0.200 F 
ATOM     86  C   UNL A   1      36.878  29.561  30.526  1.00  0.00     0.200 A 
ATOM     87  F   UNL A   1      37.404  28.723  32.671  1.00  0.00    -0.200 F 
ATOM     88  F   UNL A   1      35.640  29.868  30.933  1.00  0.00    -0.200 F 
ENDBRANCH  54  78
BRANCH  66  89
ATOM     89  C   UNL A   1      45.324  32.754  29.452  1.00  0.00     0.064 A 
ATOM     90  C   UNL A   1      45.169  33.774  28.502  1.00  0.00     0.173 A 
ATOM     91  C   UNL A   1      45.725  33.118  30.747  1.00  0.00     0.173 A 
ATOM     92  F   UNL A   1      44.803  33.475  27.246  1.00  0.00    -0.203 F 
ATOM     93  C   UNL A   1      45.430  35.102  28.828  1.00  0.00     0.198 A 
ATOM     94  C   UNL A   1      45.955  34.450  31.079  1.00  0.00     0.198 A 
ATOM     95  F   UNL A   1      45.880  32.181  31.695  1.00  0.00    -0.203 F 
ATOM     96  F   UNL A   1      45.322  36.054  27.891  1.00  0.00    -0.200 F 
ATOM     97  C   UNL A   1      45.814  35.440  30.117  1.00  0.00     0.200 A 
ATOM     98  F   UNL A   1      46.313  34.776  32.328  1.00  0.00    -0.200 F 
ATOM     99  F   UNL A   1      46.058  36.719  30.432  1.00  0.00    -0.200 F 
ENDBRANCH  66  89
ENDBRANCH  40  41
ENDBRANCH  32  35
ENDBRANCH  30  31
ENDBRANCH  29  30
ENDBRANCH  28  29
ENDBRANCH  27  28
ENDBRANCH   3  27
TORSDOF 17
ENDMDL
MODEL 3
REMARK VINA RESULT:     -11.4      2.291      3.113
REMARK SMILES O=C(CCCOc1ccc(Cl)cc1Cl)Nc1cccc(C(=O)NCCCCNC(=O)c2ccc(-c3c4nc(c(-c5c(F)c(F)c(F)c(F)c5F)c5ccc([nH]5)c(-c5c(F)c(F)c(F)c(F)c5F)c5nc(c(-c6c(F)c(F)c(F)c(F)c6F)c6ccc3[nH]6)C=C5)C=C4)cc2)c1
REMARK SMILES IDX 21 1 22 2 23 3 20 5 16 6 17 7 94 8 18 9 19 10 15 11 1 12
REMARK SMILES IDX 2 13 3 15 4 16 5 17 6 18 7 19 8 20 13 21 9 22 12 23 14 24
REMARK SMILES IDX 10 25 11 26 24 27 25 28 26 29 27 30 28 31 29 32 30 34 31 35
REMARK SMILES IDX 32 36 93 37 33 38 92 39 34 40 35 41 36 42 86 43 37 44 91 45
REMARK SMILES IDX 85 46 87 47 38 48 90 49 84 50 83 51 39 53 71 54 51 55 70 56
REMARK SMILES IDX 52 57 55 58 69 59 88 60 53 61 54 62 68 64 89 65 56 66 40 67
REMARK SMILES IDX 41 68 49 69 42 70 43 71 47 72 50 73 44 74 45 75 48 76 46 77
REMARK SMILES IDX 72 78 73 79 81 80 74 81 75 82 79 83 82 84 76 85 77 86 80 87
REMARK SMILES IDX 78 88 57 89 58 90 66 91 59 92 60 93 64 94 67 95 61 96 62 97
REMARK SMILES IDX 65 98 63 99
REMARK H PARENT 23 4 15 14 28 33 87 52 55 63
REMARK Flexibility Score: inf
ROOT
ATOM      1  C   UNL A   1      34.269  21.439  26.077  1.00  0.00     0.251 C 
ATOM      2  O   UNL A   1      33.678  21.637  27.135  1.00  0.00    -0.269 OA
ATOM      3  N   UNL A   1      35.607  21.107  26.101  1.00  0.00    -0.352 N 
ATOM      4  H   UNL A   1      35.998  21.025  27.000  1.00  0.00     0.163 HD
ENDROOT
BRANCH   1   5
ATOM      5  C   UNL A   1      33.551  21.638  24.791  1.00  0.00     0.041 A 
ATOM      6  C   UNL A   1      32.472  23.113  23.198  1.00  0.00     0.041 A 
ATOM      7  C   UNL A   1      31.868  22.000  22.602  1.00  0.00     0.026 A 
ATOM      8  C   UNL A   1      33.383  22.908  24.235  1.00  0.00     0.040 A 
ATOM      9  C   UNL A   1      32.153  20.708  23.057  1.00  0.00     0.003 A 
ATOM     10  C   UNL A   1      32.980  20.527  24.166  1.00  0.00     0.014 A 
BRANCH   6  11
ATOM     11  N   UNL A   1      32.020  24.401  22.827  1.00  0.00    -0.326 N 
ATOM     12  O   UNL A   1      33.272  24.804  20.925  1.00  0.00    -0.275 OA
ATOM     13  C   UNL A   1      32.587  25.209  21.863  1.00  0.00     0.224 C 
ATOM     14  H   UNL A   1      31.230  24.752  23.299  1.00  0.00     0.169 HD
BRANCH  13  15
ATOM     15  C   UNL A   1      32.487  26.710  22.103  1.00  0.00     0.104 C 
BRANCH  15  16
ATOM     16  C   UNL A   1      31.151  27.309  22.532  1.00  0.00     0.051 C 
BRANCH  16  17
ATOM     17  C   UNL A   1      31.223  28.726  23.119  1.00  0.00     0.230 C 
BRANCH  17  18
ATOM     18  O   UNL A   1      30.891  28.752  24.514  1.00  0.00    -0.492 OA
BRANCH  18  19
ATOM     19  C   UNL A   1      31.947  29.035  25.339  1.00  0.00     0.137 A 
ATOM     20  C   UNL A   1      32.932  28.046  25.414  1.00  0.00     0.049 A 
ATOM     21  C   UNL A   1      32.118  30.239  26.036  1.00  0.00     0.084 A 
ATOM     22  C   UNL A   1      34.028  28.207  26.260  1.00  0.00     0.024 A 
ATOM     23  C   UNL A   1      33.221  30.406  26.877  1.00  0.00     0.045 A 
ATOM     24  Cl  UNL A   1      31.028  31.568  25.863  1.00  0.00    -0.080 Cl
ATOM     25  C   UNL A   1      34.162  29.384  26.994  1.00  0.00     0.042 A 
ATOM     26  Cl  UNL A   1      35.513  29.583  28.041  1.00  0.00    -0.084 Cl
ENDBRANCH  18  19
ENDBRANCH  17  18
ENDBRANCH  16  17
ENDBRANCH  15  16
ENDBRANCH  13  15
ENDBRANCH   6  11
ENDBRANCH   1   5
BRANCH   3  27
ATOM     27  C   UNL A   1      36.533  20.859  25.005  1.00  0.00     0.116 C 
BRANCH  27  28
ATOM     28  C   UNL A   1      37.206  22.110  24.456  1.00  0.00     0.023 C 
BRANCH  28  29
ATOM     29  C   UNL A   1      37.032  23.386  25.268  1.00  0.00     0.023 C 
BRANCH  29  30
ATOM     30  C   UNL A   1      38.144  23.697  26.263  1.00  0.00     0.116 C 
BRANCH  30  31
ATOM     31  N   UNL A   1      39.227  22.725  26.254  1.00  0.00    -0.352 N 
ATOM     32  C   UNL A   1      40.569  22.895  26.513  1.00  0.00     0.251 C 
ATOM     33  H   UNL A   1      38.959  21.805  26.029  1.00  0.00     0.163 HD
ATOM     34  O   UNL A   1      41.347  21.962  26.361  1.00  0.00    -0.269 OA
BRANCH  32  35
ATOM     35  C   UNL A   1      41.081  24.220  26.934  1.00  0.00     0.039 A 
ATOM     36  C   UNL A   1      41.041  25.277  26.020  1.00  0.00     0.014 A 
ATOM     37  C   UNL A   1      41.576  24.430  28.223  1.00  0.00     0.014 A 
ATOM     38  C   UNL A   1      41.409  26.562  26.429  1.00  0.00     0.010 A 
ATOM     39  C   UNL A   1      41.862  25.724  28.652  1.00  0.00     0.010 A 
ATOM     40  C   UNL A   1      41.775  26.806  27.762  1.00  0.00    -0.014 A 
BRANCH  40  41
ATOM     41  C   UNL A   1      42.049  28.184  28.248  1.00  0.00     0.031 A 
ATOM     42  C   UNL A   1      43.459  28.709  28.289  1.00  0.00     0.074 A 
ATOM     43  C   UNL A   1      41.039  28.933  28.733  1.00  0.00     0.049 A 
ATOM     44  N   UNL A   1      43.904  29.850  28.752  1.00  0.00    -0.248 NA
ATOM     45  C   UNL A   1      44.511  27.823  27.768  1.00  0.00     0.031 C 
ATOM     46  C   UNL A   1      39.638  28.515  28.813  1.00  0.00     0.029 A 
ATOM     47  N   UNL A   1      41.037  30.199  29.267  1.00  0.00    -0.354 N 
ATOM     48  C   UNL A   1      45.284  29.806  28.600  1.00  0.00     0.074 A 
ATOM     49  C   UNL A   1      45.609  28.511  28.045  1.00  0.00     0.031 C 
ATOM     50  C   UNL A   1      38.911  29.510  29.347  1.00  0.00     0.029 A 
ATOM     51  C   UNL A   1      39.796  30.621  29.680  1.00  0.00     0.049 A 
ATOM     52  H   UNL A   1      41.848  30.752  29.346  1.00  0.00     0.167 HD
ATOM     53  C   UNL A   1      46.195  30.769  28.879  1.00  0.00     0.037 A 
ATOM     54  C   UNL A   1      39.416  31.772  30.270  1.00  0.00     0.037 A 
ATOM     55  C   UNL A   1      45.867  32.072  29.392  1.00  0.00     0.049 A 
ATOM     56  C   UNL A   1      40.446  32.836  30.540  1.00  0.00     0.074 A 
ATOM     57  C   UNL A   1      46.711  33.145  29.623  1.00  0.00     0.029 A 
ATOM     58  N   UNL A   1      44.593  32.480  29.755  1.00  0.00    -0.354 N 
ATOM     59  N   UNL A   1      41.736  32.816  30.307  1.00  0.00    -0.248 NA
ATOM     60  C   UNL A   1      39.966  34.086  31.144  1.00  0.00     0.031 C 
ATOM     61  C   UNL A   1      45.954  34.188  30.168  1.00  0.00     0.029 A 
ATOM     62  C   UNL A   1      44.631  33.782  30.230  1.00  0.00     0.049 A 
ATOM     63  H   UNL A   1      43.781  31.928  29.687  1.00  0.00     0.167 HD
ATOM     64  C   UNL A   1      42.215  34.055  30.709  1.00  0.00     0.074 A 
ATOM     65  C   UNL A   1      41.075  34.810  31.185  1.00  0.00     0.031 C 
ATOM     66  C   UNL A   1      43.486  34.525  30.690  1.00  0.00     0.037 A 
BRANCH  53  67
ATOM     67  C   UNL A   1      47.641  30.457  28.624  1.00  0.00     0.064 A 
ATOM     68  C   UNL A   1      48.294  30.888  27.459  1.00  0.00     0.173 A 
ATOM     69  C   UNL A   1      48.399  29.769  29.585  1.00  0.00     0.173 A 
ATOM     70  F   UNL A   1      47.613  31.541  26.507  1.00  0.00    -0.203 F 
ATOM     71  C   UNL A   1      49.645  30.621  27.255  1.00  0.00     0.198 A 
ATOM     72  C   UNL A   1      49.756  29.529  29.389  1.00  0.00     0.198 A 
ATOM     73  F   UNL A   1      47.825  29.340  30.719  1.00  0.00    -0.203 F 
ATOM     74  F   UNL A   1      50.238  31.008  26.117  1.00  0.00    -0.200 F 
ATOM     75  C   UNL A   1      50.377  29.951  28.224  1.00  0.00     0.200 A 
ATOM     76  F   UNL A   1      50.466  28.894  30.333  1.00  0.00    -0.200 F 
ATOM     77  F   UNL A   1      51.681  29.707  28.030  1.00  0.00    -0.200 F 
ENDBRANCH  53  67
BRANCH  54  78
ATOM     78  C   UNL A   1      37.990  31.990  30.631  1.00  0.00     0.064 A 
ATOM     79  C   UNL A   1      37.050  32.361  29.660  1.00  0.00     0.173 A 
ATOM     80  C   UNL A   1      37.543  31.852  31.953  1.00  0.00     0.173 A 
ATOM     81  F   UNL A   1      37.433  32.527  28.385  1.00  0.00    -0.203 F 
ATOM     82  C   UNL A   1      35.722  32.613  30.002  1.00  0.00     0.198 A 
ATOM     83  C   UNL A   1      36.209  32.075  32.288  1.00  0.00     0.198 A 
ATOM     84  F   UNL A   1      38.401  31.493  32.919  1.00  0.00    -0.203 F 
ATOM     85  F   UNL A   1      34.857  33.019  29.063  1.00  0.00    -0.200 F 
ATOM     86  C   UNL A   1      35.302  32.465  31.314  1.00  0.00     0.200 A 
ATOM     87  F   UNL A   1      35.804  31.918  33.556  1.00  0.00    -0.200 F 
ATOM     88  F   UNL A   1      34.027  32.709  31.644  1.00  0.00    -0.200 F 
ENDBRANCH  54  78
BRANCH  66  89
ATOM     89  C   UNL A   1      43.708  35.931  31.162  1.00  0.00     0.064 A 
ATOM     90  C   UNL A   1      43.937  36.228  32.514  1.00  0.00     0.173 A 
ATOM     91  C   UNL A   1      43.731  36.993  30.244  1.00  0.00     0.173 A 
ATOM     92  F   UNL A   1      43.910  35.249  33.432  1.00  0.00    -0.203 F 
ATOM     93  C   UNL A   1      44.154  37.537  32.933  1.00  0.00     0.198 A 
ATOM     94  C   UNL A   1      43.979  38.297  30.662  1.00  0.00     0.198 A 
ATOM     95  F   UNL A   1      43.525  36.762  28.938  1.00  0.00    -0.203 F 
ATOM     96  F   UNL A   1      44.321  37.802  34.236  1.00  0.00    -0.200 F 
ATOM     97  C   UNL A   1      44.183  38.569  32.007  1.00  0.00     0.200 A 
ATOM     98  F   UNL A   1      44.020  39.291  29.764  1.00  0.00    -0.200 F 
ATOM     99  F   UNL A   1      44.398  39.828  32.411  1.00  0.00    -0.200 F 
ENDBRANCH  66  89
ENDBRANCH  40  41
ENDBRANCH  32  35
ENDBRANCH  30  31
ENDBRANCH  29  30
ENDBRANCH  28  29
ENDBRANCH  27  28
ENDBRANCH   3  27
TORSDOF 17
ENDMDL
