MODEL 1
REMARK VINA RESULT:     -10.7      0.000      0.000
REMARK SMILES COC[C@H](C)[C@H](CC(C)C)C(=O)NCCCCNC(=O)c1ccc(-c2c3nc(c(-c4c(F)c(F)c(F)c(F)c4F)c4ccc([nH]4)c(-c4c(F)c(F)c(F)c(F)c4F)c4nc(c(-c5c(F)c(F)c(F)c(F)c5F)c5ccc2[nH]5)C=C4)C=C3)cc1
REMARK SMILES IDX 15 1 14 2 13 3 11 4 12 5 6 7 4 8 5 9 3 10 2 11 1 12 7 13
REMARK SMILES IDX 8 14 9 15 10 16 16 17 17 18 18 19 19 20 20 22 21 23 22 24
REMARK SMILES IDX 83 25 23 26 82 27 24 28 25 29 26 30 76 31 27 32 81 33 75 34
REMARK SMILES IDX 77 35 28 36 80 37 74 38 73 39 29 41 61 42 41 43 60 44 42 45
REMARK SMILES IDX 45 46 59 47 78 48 43 49 44 50 58 52 79 53 46 54 30 55 31 56
REMARK SMILES IDX 39 57 32 58 33 59 37 60 40 61 34 62 35 63 38 64 36 65 62 66
REMARK SMILES IDX 63 67 71 68 64 69 65 70 69 71 72 72 66 73 67 74 70 75 68 76
REMARK SMILES IDX 47 77 48 78 56 79 49 80 50 81 54 82 57 83 51 84 52 85 55 86
REMARK SMILES IDX 53 87
REMARK H PARENT 13 6 18 21 77 40 45 51
REMARK Flexibility Score: inf
ROOT
ATOM      1  C   UNL A   1      37.336  21.356  24.465  1.00  0.00     0.023 C 
ENDROOT
BRANCH   1   2
ATOM      2  C   UNL A   1      36.888  22.350  25.528  1.00  0.00     0.116 C 
BRANCH   2   3
ATOM      3  N   UNL A   1      35.889  21.813  26.430  1.00  0.00    -0.356 N 
ATOM      4  C   UNL A   1      34.534  21.947  26.464  1.00  0.00     0.223 C 
ATOM      5  O   UNL A   1      33.930  21.275  27.305  1.00  0.00    -0.275 OA
ATOM      6  H   UNL A   1      36.256  21.248  27.149  1.00  0.00     0.163 HD
BRANCH   4   7
ATOM      7  C   UNL A   1      33.756  22.852  25.495  1.00  0.00     0.084 C 
BRANCH   7   8
ATOM      8  C   UNL A   1      33.378  24.195  26.203  1.00  0.00     0.024 C 
ATOM      9  C   UNL A   1      34.106  25.394  25.571  1.00  0.00     0.011 C 
BRANCH   8  10
ATOM     10  C   UNL A   1      31.885  24.509  26.383  1.00  0.00     0.163 C 
BRANCH  10  11
ATOM     11  O   UNL A   1      31.256  23.699  27.382  1.00  0.00    -0.384 OA
ATOM     12  C   UNL A   1      30.114  22.999  26.901  1.00  0.00     0.194 C 
ENDBRANCH  10  11
ENDBRANCH   8  10
ENDBRANCH   7   8
BRANCH   7  13
ATOM     13  C   UNL A   1      32.767  22.009  24.654  1.00  0.00     0.017 C 
BRANCH  13  14
ATOM     14  C   UNL A   1      32.466  22.422  23.208  1.00  0.00    -0.017 C 
ATOM     15  C   UNL A   1      33.653  23.143  22.574  1.00  0.00     0.007 C 
ATOM     16  C   UNL A   1      32.117  21.176  22.384  1.00  0.00     0.007 C 
ENDBRANCH  13  14
ENDBRANCH   7  13
ENDBRANCH   4   7
ENDBRANCH   2   3
ENDBRANCH   1   2
BRANCH   1  17
ATOM     17  C   UNL A   1      38.024  20.107  25.011  1.00  0.00     0.023 C 
BRANCH  17  18
ATOM     18  C   UNL A   1      39.224  20.357  25.918  1.00  0.00     0.116 C 
BRANCH  18  19
ATOM     19  N   UNL A   1      40.197  19.269  25.922  1.00  0.00    -0.352 N 
ATOM     20  C   UNL A   1      41.553  19.310  26.117  1.00  0.00     0.251 C 
ATOM     21  H   UNL A   1      39.823  18.373  25.760  1.00  0.00     0.163 HD
ATOM     22  O   UNL A   1      42.223  18.294  26.000  1.00  0.00    -0.269 OA
BRANCH  20  23
ATOM     23  C   UNL A   1      42.213  20.600  26.418  1.00  0.00     0.039 A 
ATOM     24  C   UNL A   1      42.680  21.373  25.353  1.00  0.00     0.014 A 
ATOM     25  C   UNL A   1      42.337  21.061  27.732  1.00  0.00     0.014 A 
ATOM     26  C   UNL A   1      43.195  22.644  25.600  1.00  0.00     0.010 A 
ATOM     27  C   UNL A   1      42.773  22.362  27.968  1.00  0.00     0.010 A 
ATOM     28  C   UNL A   1      43.202  23.170  26.904  1.00  0.00    -0.014 A 
BRANCH  28  29
ATOM     29  C   UNL A   1      43.628  24.570  27.150  1.00  0.00     0.031 A 
ATOM     30  C   UNL A   1      42.650  25.588  27.665  1.00  0.00     0.074 A 
ATOM     31  C   UNL A   1      44.896  24.930  26.871  1.00  0.00     0.049 A 
ATOM     32  N   UNL A   1      42.847  26.854  27.946  1.00  0.00    -0.248 NA
ATOM     33  C   UNL A   1      41.265  25.138  27.868  1.00  0.00     0.031 C 
ATOM     34  C   UNL A   1      45.918  24.052  26.295  1.00  0.00     0.029 A 
ATOM     35  N   UNL A   1      45.544  26.130  27.033  1.00  0.00    -0.354 N 
ATOM     36  C   UNL A   1      41.616  27.344  28.360  1.00  0.00     0.074 A 
ATOM     37  C   UNL A   1      40.663  26.263  28.229  1.00  0.00     0.031 C 
ATOM     38  C   UNL A   1      47.069  24.732  26.182  1.00  0.00     0.029 A 
ATOM     39  C   UNL A   1      46.863  26.099  26.649  1.00  0.00     0.049 A 
ATOM     40  H   UNL A   1      45.105  26.935  27.390  1.00  0.00     0.167 HD
ATOM     41  C   UNL A   1      41.314  28.575  28.837  1.00  0.00     0.037 A 
ATOM     42  C   UNL A   1      47.801  27.064  26.676  1.00  0.00     0.037 A 
ATOM     43  C   UNL A   1      42.265  29.646  28.978  1.00  0.00     0.049 A 
ATOM     44  C   UNL A   1      47.441  28.417  27.228  1.00  0.00     0.074 A 
ATOM     45  C   UNL A   1      42.067  30.917  29.488  1.00  0.00     0.029 A 
ATOM     46  N   UNL A   1      43.600  29.570  28.606  1.00  0.00    -0.354 N 
ATOM     47  N   UNL A   1      46.291  28.844  27.689  1.00  0.00    -0.248 NA
ATOM     48  C   UNL A   1      48.517  29.416  27.279  1.00  0.00     0.031 C 
ATOM     49  C   UNL A   1      43.271  31.623  29.390  1.00  0.00     0.029 A 
ATOM     50  C   UNL A   1      44.232  30.776  28.864  1.00  0.00     0.049 A 
ATOM     51  H   UNL A   1      44.033  28.776  28.217  1.00  0.00     0.167 HD
ATOM     52  C   UNL A   1      46.508  30.152  28.100  1.00  0.00     0.074 A 
ATOM     53  C   UNL A   1      47.909  30.436  27.865  1.00  0.00     0.031 C 
ATOM     54  C   UNL A   1      45.627  31.042  28.618  1.00  0.00     0.037 A 
BRANCH  41  55
ATOM     55  C   UNL A   1      39.896  28.824  29.267  1.00  0.00     0.064 A 
ATOM     56  C   UNL A   1      38.934  29.302  28.364  1.00  0.00     0.173 A 
ATOM     57  C   UNL A   1      39.483  28.538  30.575  1.00  0.00     0.173 A 
ATOM     58  F   UNL A   1      39.280  29.604  27.104  1.00  0.00    -0.203 F 
ATOM     59  C   UNL A   1      37.615  29.504  28.762  1.00  0.00     0.198 A 
ATOM     60  C   UNL A   1      38.156  28.713  30.962  1.00  0.00     0.198 A 
ATOM     61  F   UNL A   1      40.362  28.076  31.477  1.00  0.00    -0.203 F 
ATOM     62  F   UNL A   1      36.723  30.001  27.894  1.00  0.00    -0.200 F 
ATOM     63  C   UNL A   1      37.225  29.200  30.058  1.00  0.00     0.200 A 
ATOM     64  F   UNL A   1      37.778  28.407  32.211  1.00  0.00    -0.200 F 
ATOM     65  F   UNL A   1      35.953  29.384  30.437  1.00  0.00    -0.200 F 
ENDBRANCH  41  55
BRANCH  42  66
ATOM     66  C   UNL A   1      49.178  26.782  26.191  1.00  0.00     0.064 A 
ATOM     67  C   UNL A   1      49.546  27.048  24.864  1.00  0.00     0.173 A 
ATOM     68  C   UNL A   1      50.147  26.222  27.036  1.00  0.00     0.173 A 
ATOM     69  F   UNL A   1      48.650  27.567  24.013  1.00  0.00    -0.203 F 
ATOM     70  C   UNL A   1      50.820  26.735  24.393  1.00  0.00     0.198 A 
ATOM     71  C   UNL A   1      51.430  25.938  26.573  1.00  0.00     0.198 A 
ATOM     72  F   UNL A   1      49.849  25.956  28.316  1.00  0.00    -0.203 F 
ATOM     73  F   UNL A   1      51.126  26.946  23.106  1.00  0.00    -0.200 F 
ATOM     74  C   UNL A   1      51.761  26.184  25.248  1.00  0.00     0.200 A 
ATOM     75  F   UNL A   1      52.342  25.422  27.406  1.00  0.00    -0.200 F 
ATOM     76  F   UNL A   1      52.986  25.882  24.796  1.00  0.00    -0.200 F 
ENDBRANCH  42  66
BRANCH  54  77
ATOM     77  C   UNL A   1      46.162  32.398  28.981  1.00  0.00     0.064 A 
ATOM     78  C   UNL A   1      46.686  32.663  30.255  1.00  0.00     0.173 A 
ATOM     79  C   UNL A   1      46.155  33.441  28.043  1.00  0.00     0.173 A 
ATOM     80  F   UNL A   1      46.702  31.703  31.193  1.00  0.00    -0.203 F 
ATOM     81  C   UNL A   1      47.147  33.934  30.589  1.00  0.00     0.198 A 
ATOM     82  C   UNL A   1      46.646  34.701  28.370  1.00  0.00     0.198 A 
ATOM     83  F   UNL A   1      45.673  33.238  26.807  1.00  0.00    -0.203 F 
ATOM     84  F   UNL A   1      47.583  34.180  31.832  1.00  0.00    -0.200 F 
ATOM     85  C   UNL A   1      47.130  34.951  29.646  1.00  0.00     0.200 A 
ATOM     86  F   UNL A   1      46.643  35.679  27.454  1.00  0.00    -0.200 F 
ATOM     87  F   UNL A   1      47.571  36.173  29.970  1.00  0.00    -0.200 F 
ENDBRANCH  54  77
ENDBRANCH  28  29
ENDBRANCH  20  23
ENDBRANCH  18  19
ENDBRANCH  17  18
ENDBRANCH   1  17
TORSDOF 16
ENDMDL
MODEL 2
REMARK VINA RESULT:     -10.5      5.891      9.990
REMARK SMILES COC[C@H](C)[C@H](CC(C)C)C(=O)NCCCCNC(=O)c1ccc(-c2c3nc(c(-c4c(F)c(F)c(F)c(F)c4F)c4ccc([nH]4)c(-c4c(F)c(F)c(F)c(F)c4F)c4nc(c(-c5c(F)c(F)c(F)c(F)c5F)c5ccc2[nH]5)C=C4)C=C3)cc1
REMARK SMILES IDX 15 1 14 2 13 3 11 4 12 5 6 7 4 8 5 9 3 10 2 11 1 12 7 13
REMARK SMILES IDX 8 14 9 15 10 16 16 17 17 18 18 19 19 20 20 22 21 23 22 24
REMARK SMILES IDX 83 25 23 26 82 27 24 28 25 29 26 30 76 31 27 32 81 33 75 34
REMARK SMILES IDX 77 35 28 36 80 37 74 38 73 39 29 41 61 42 41 43 60 44 42 45
REMARK SMILES IDX 45 46 59 47 78 48 43 49 44 50 58 52 79 53 46 54 30 55 31 56
REMARK SMILES IDX 39 57 32 58 33 59 37 60 40 61 34 62 35 63 38 64 36 65 62 66
REMARK SMILES IDX 63 67 71 68 64 69 65 70 69 71 72 72 66 73 67 74 70 75 68 76
REMARK SMILES IDX 47 77 48 78 56 79 49 80 50 81 54 82 57 83 51 84 52 85 55 86
REMARK SMILES IDX 53 87
REMARK H PARENT 13 6 18 21 77 40 45 51
REMARK Flexibility Score: inf
ROOT
ATOM      1  C   UNL A   1      31.763  30.031  26.541  1.00  0.00     0.023 C 
ENDROOT
BRANCH   1   2
ATOM      2  C   UNL A   1      33.183  29.563  26.254  1.00  0.00     0.116 C 
BRANCH   2   3
ATOM      3  N   UNL A   1      33.557  29.686  24.860  1.00  0.00    -0.356 N 
ATOM      4  C   UNL A   1      33.292  28.902  23.779  1.00  0.00     0.223 C 
ATOM      5  O   UNL A   1      33.664  29.325  22.680  1.00  0.00    -0.275 OA
ATOM      6  H   UNL A   1      34.103  30.480  24.657  1.00  0.00     0.163 HD
BRANCH   4   7
ATOM      7  C   UNL A   1      32.535  27.567  23.875  1.00  0.00     0.084 C 
BRANCH   7   8
ATOM      8  C   UNL A   1      33.542  26.373  23.792  1.00  0.00     0.024 C 
ATOM      9  C   UNL A   1      33.936  25.864  25.188  1.00  0.00     0.011 C 
BRANCH   8  10
ATOM     10  C   UNL A   1      33.174  25.194  22.877  1.00  0.00     0.163 C 
BRANCH  10  11
ATOM     11  O   UNL A   1      33.648  25.354  21.535  1.00  0.00    -0.384 OA
ATOM     12  C   UNL A   1      32.602  25.563  20.591  1.00  0.00     0.194 C 
ENDBRANCH  10  11
ENDBRANCH   8  10
ENDBRANCH   7   8
BRANCH   7  13
ATOM     13  C   UNL A   1      31.214  27.643  23.073  1.00  0.00     0.017 C 
BRANCH  13  14
ATOM     14  C   UNL A   1      29.987  28.314  23.703  1.00  0.00    -0.017 C 
ATOM     15  C   UNL A   1      29.731  29.692  23.099  1.00  0.00     0.007 C 
ATOM     16  C   UNL A   1      28.756  27.422  23.497  1.00  0.00     0.007 C 
ENDBRANCH  13  14
ENDBRANCH   7  13
ENDBRANCH   4   7
ENDBRANCH   2   3
ENDBRANCH   1   2
BRANCH   1  17
ATOM     17  C   UNL A   1      31.592  31.546  26.604  1.00  0.00     0.023 C 
BRANCH  17  18
ATOM     18  C   UNL A   1      32.766  32.318  27.198  1.00  0.00     0.116 C 
BRANCH  18  19
ATOM     19  N   UNL A   1      32.440  33.691  27.571  1.00  0.00    -0.352 N 
ATOM     20  C   UNL A   1      33.036  34.510  28.496  1.00  0.00     0.251 C 
ATOM     21  H   UNL A   1      31.680  34.087  27.088  1.00  0.00     0.163 HD
ATOM     22  O   UNL A   1      32.567  35.613  28.734  1.00  0.00    -0.269 OA
BRANCH  20  23
ATOM     23  C   UNL A   1      34.221  34.033  29.244  1.00  0.00     0.039 A 
ATOM     24  C   UNL A   1      34.030  33.101  30.267  1.00  0.00     0.014 A 
ATOM     25  C   UNL A   1      35.508  34.468  28.918  1.00  0.00     0.014 A 
ATOM     26  C   UNL A   1      35.137  32.546  30.906  1.00  0.00     0.010 A 
ATOM     27  C   UNL A   1      36.613  33.851  29.498  1.00  0.00     0.010 A 
ATOM     28  C   UNL A   1      36.439  32.879  30.494  1.00  0.00    -0.014 A 
BRANCH  28  29
ATOM     29  C   UNL A   1      37.615  32.192  31.083  1.00  0.00     0.031 A 
ATOM     30  C   UNL A   1      38.104  32.553  32.457  1.00  0.00     0.074 A 
ATOM     31  C   UNL A   1      38.267  31.263  30.356  1.00  0.00     0.049 A 
ATOM     32  N   UNL A   1      39.110  32.053  33.134  1.00  0.00    -0.248 NA
ATOM     33  C   UNL A   1      37.391  33.634  33.155  1.00  0.00     0.031 C 
ATOM     34  C   UNL A   1      37.936  30.879  28.982  1.00  0.00     0.029 A 
ATOM     35  N   UNL A   1      39.344  30.471  30.670  1.00  0.00    -0.354 N 
ATOM     36  C   UNL A   1      39.143  32.754  34.332  1.00  0.00     0.074 A 
ATOM     37  C   UNL A   1      38.105  33.760  34.265  1.00  0.00     0.031 C 
ATOM     38  C   UNL A   1      38.769  29.906  28.583  1.00  0.00     0.029 A 
ATOM     39  C   UNL A   1      39.711  29.615  29.660  1.00  0.00     0.049 A 
ATOM     40  H   UNL A   1      39.808  30.513  31.537  1.00  0.00     0.167 HD
ATOM     41  C   UNL A   1      39.946  32.555  35.405  1.00  0.00     0.037 A 
ATOM     42  C   UNL A   1      40.693  28.696  29.610  1.00  0.00     0.037 A 
ATOM     43  C   UNL A   1      40.970  31.546  35.476  1.00  0.00     0.049 A 
ATOM     44  C   UNL A   1      41.558  28.486  30.823  1.00  0.00     0.074 A 
ATOM     45  C   UNL A   1      41.809  31.239  36.532  1.00  0.00     0.029 A 
ATOM     46  N   UNL A   1      41.295  30.678  34.444  1.00  0.00    -0.354 N 
ATOM     47  N   UNL A   1      41.528  29.103  31.979  1.00  0.00    -0.248 NA
ATOM     48  C   UNL A   1      42.582  27.436  30.729  1.00  0.00     0.031 C 
ATOM     49  C   UNL A   1      42.667  30.211  36.127  1.00  0.00     0.029 A 
ATOM     50  C   UNL A   1      42.330  29.844  34.835  1.00  0.00     0.049 A 
ATOM     51  H   UNL A   1      40.854  30.658  33.563  1.00  0.00     0.167 HD
ATOM     52  C   UNL A   1      42.513  28.508  32.754  1.00  0.00     0.074 A 
ATOM     53  C   UNL A   1      43.100  27.457  31.948  1.00  0.00     0.031 C 
ATOM     54  C   UNL A   1      42.905  28.807  34.017  1.00  0.00     0.037 A 
BRANCH  41  55
ATOM     55  C   UNL A   1      39.731  33.434  36.604  1.00  0.00     0.064 A 
ATOM     56  C   UNL A   1      38.838  33.071  37.624  1.00  0.00     0.173 A 
ATOM     57  C   UNL A   1      40.457  34.624  36.761  1.00  0.00     0.173 A 
ATOM     58  F   UNL A   1      38.109  31.950  37.517  1.00  0.00    -0.203 F 
ATOM     59  C   UNL A   1      38.665  33.877  38.746  1.00  0.00     0.198 A 
ATOM     60  C   UNL A   1      40.302  35.413  37.898  1.00  0.00     0.198 A 
ATOM     61  F   UNL A   1      41.326  35.016  35.817  1.00  0.00    -0.203 F 
ATOM     62  F   UNL A   1      37.775  33.531  39.687  1.00  0.00    -0.200 F 
ATOM     63  C   UNL A   1      39.404  35.042  38.887  1.00  0.00     0.200 A 
ATOM     64  F   UNL A   1      41.026  36.532  38.039  1.00  0.00    -0.200 F 
ATOM     65  F   UNL A   1      39.244  35.812  39.973  1.00  0.00    -0.200 F 
ENDBRANCH  41  55
BRANCH  42  66
ATOM     66  C   UNL A   1      40.898  27.887  28.379  1.00  0.00     0.064 A 
ATOM     67  C   UNL A   1      40.249  26.656  28.207  1.00  0.00     0.173 A 
ATOM     68  C   UNL A   1      41.761  28.318  27.361  1.00  0.00     0.173 A 
ATOM     69  F   UNL A   1      39.428  26.193  29.160  1.00  0.00    -0.203 F 
ATOM     70  C   UNL A   1      40.481  25.871  27.079  1.00  0.00     0.198 A 
ATOM     71  C   UNL A   1      41.968  27.547  26.219  1.00  0.00     0.198 A 
ATOM     72  F   UNL A   1      42.399  29.492  27.473  1.00  0.00    -0.203 F 
ATOM     73  F   UNL A   1      39.894  24.673  26.967  1.00  0.00    -0.200 F 
ATOM     74  C   UNL A   1      41.337  26.319  26.084  1.00  0.00     0.200 A 
ATOM     75  F   UNL A   1      42.782  27.991  25.252  1.00  0.00    -0.200 F 
ATOM     76  F   UNL A   1      41.560  25.564  24.999  1.00  0.00    -0.200 F 
ENDBRANCH  42  66
BRANCH  54  77
ATOM     77  C   UNL A   1      44.007  27.972  34.605  1.00  0.00     0.064 A 
ATOM     78  C   UNL A   1      45.353  28.354  34.497  1.00  0.00     0.173 A 
ATOM     79  C   UNL A   1      43.713  26.781  35.285  1.00  0.00     0.173 A 
ATOM     80  F   UNL A   1      45.687  29.477  33.844  1.00  0.00    -0.203 F 
ATOM     81  C   UNL A   1      46.367  27.552  35.015  1.00  0.00     0.198 A 
ATOM     82  C   UNL A   1      44.727  25.999  35.830  1.00  0.00     0.198 A 
ATOM     83  F   UNL A   1      42.441  26.375  35.423  1.00  0.00    -0.203 F 
ATOM     84  F   UNL A   1      47.648  27.904  34.845  1.00  0.00    -0.200 F 
ATOM     85  C   UNL A   1      46.053  26.378  35.684  1.00  0.00     0.200 A 
ATOM     86  F   UNL A   1      44.422  24.872  36.488  1.00  0.00    -0.200 F 
ATOM     87  F   UNL A   1      47.030  25.607  36.179  1.00  0.00    -0.200 F 
ENDBRANCH  54  77
ENDBRANCH  28  29
ENDBRANCH  20  23
ENDBRANCH  18  19
ENDBRANCH  17  18
ENDBRANCH   1  17
TORSDOF 16
ENDMDL
MODEL 3
REMARK VINA RESULT:     -10.4      6.042     11.390
REMARK SMILES COC[C@H](C)[C@H](CC(C)C)C(=O)NCCCCNC(=O)c1ccc(-c2c3nc(c(-c4c(F)c(F)c(F)c(F)c4F)c4ccc([nH]4)c(-c4c(F)c(F)c(F)c(F)c4F)c4nc(c(-c5c(F)c(F)c(F)c(F)c5F)c5ccc2[nH]5)C=C4)C=C3)cc1
REMARK SMILES IDX 15 1 14 2 13 3 11 4 12 5 6 7 4 8 5 9 3 10 2 11 1 12 7 13
REMARK SMILES IDX 8 14 9 15 10 16 16 17 17 18 18 19 19 20 20 22 21 23 22 24
REMARK SMILES IDX 83 25 23 26 82 27 24 28 25 29 26 30 76 31 27 32 81 33 75 34
REMARK SMILES IDX 77 35 28 36 80 37 74 38 73 39 29 41 61 42 41 43 60 44 42 45
REMARK SMILES IDX 45 46 59 47 78 48 43 49 44 50 58 52 79 53 46 54 30 55 31 56
REMARK SMILES IDX 39 57 32 58 33 59 37 60 40 61 34 62 35 63 38 64 36 65 62 66
REMARK SMILES IDX 63 67 71 68 64 69 65 70 69 71 72 72 66 73 67 74 70 75 68 76
REMARK SMILES IDX 47 77 48 78 56 79 49 80 50 81 54 82 57 83 51 84 52 85 55 86
REMARK SMILES IDX 53 87
REMARK H PARENT 13 6 18 21 77 40 45 51
REMARK Flexibility Score: inf
ROOT
ATOM      1  C   UNL A   1      31.765  30.524  26.535  1.00  0.00     0.023 C 
ENDROOT
BRANCH   1   2
ATOM      2  C   UNL A   1      33.233  30.127  26.464  1.00  0.00     0.116 C 
BRANCH   2   3
ATOM      3  N   UNL A   1      33.654  29.717  25.139  1.00  0.00    -0.356 N 
ATOM      4  C   UNL A   1      33.417  28.582  24.424  1.00  0.00     0.223 C 
ATOM      5  O   UNL A   1      33.828  28.562  23.260  1.00  0.00    -0.275 OA
ATOM      6  H   UNL A   1      34.212  30.380  24.670  1.00  0.00     0.163 HD
BRANCH   4   7
ATOM      7  C   UNL A   1      32.647  27.379  24.992  1.00  0.00     0.084 C 
BRANCH   7   8
ATOM      8  C   UNL A   1      33.286  26.045  24.481  1.00  0.00     0.024 C 
ATOM      9  C   UNL A   1      34.362  25.525  25.449  1.00  0.00     0.011 C 
BRANCH   8  10
ATOM     10  C   UNL A   1      32.334  24.909  24.078  1.00  0.00     0.163 C 
BRANCH  10  11
ATOM     11  O   UNL A   1      31.910  24.987  22.712  1.00  0.00    -0.384 OA
ATOM     12  C   UNL A   1      32.939  25.424  21.829  1.00  0.00     0.194 C 
ENDBRANCH  10  11
ENDBRANCH   8  10
ENDBRANCH   7   8
BRANCH   7  13
ATOM     13  C   UNL A   1      31.126  27.668  24.987  1.00  0.00     0.017 C 
BRANCH  13  14
ATOM     14  C   UNL A   1      30.413  27.923  23.654  1.00  0.00    -0.017 C 
ATOM     15  C   UNL A   1      29.130  27.102  23.540  1.00  0.00     0.007 C 
ATOM     16  C   UNL A   1      30.084  29.417  23.530  1.00  0.00     0.007 C 
ENDBRANCH  13  14
ENDBRANCH   7  13
ENDBRANCH   4   7
ENDBRANCH   2   3
ENDBRANCH   1   2
BRANCH   1  17
ATOM     17  C   UNL A   1      31.519  32.010  26.779  1.00  0.00     0.023 C 
BRANCH  17  18
ATOM     18  C   UNL A   1      32.714  32.800  27.303  1.00  0.00     0.116 C 
BRANCH  18  19
ATOM     19  N   UNL A   1      32.402  34.184  27.644  1.00  0.00    -0.352 N 
ATOM     20  C   UNL A   1      32.992  35.012  28.564  1.00  0.00     0.251 C 
ATOM     21  H   UNL A   1      31.657  34.582  27.139  1.00  0.00     0.163 HD
ATOM     22  O   UNL A   1      32.536  36.127  28.772  1.00  0.00    -0.269 OA
BRANCH  20  23
ATOM     23  C   UNL A   1      34.156  34.533  29.344  1.00  0.00     0.039 A 
ATOM     24  C   UNL A   1      33.921  33.912  30.573  1.00  0.00     0.014 A 
ATOM     25  C   UNL A   1      35.458  34.658  28.853  1.00  0.00     0.014 A 
ATOM     26  C   UNL A   1      34.987  33.345  31.270  1.00  0.00     0.010 A 
ATOM     27  C   UNL A   1      36.506  34.018  29.509  1.00  0.00     0.010 A 
ATOM     28  C   UNL A   1      36.281  33.350  30.721  1.00  0.00    -0.014 A 
BRANCH  28  29
ATOM     29  C   UNL A   1      37.389  32.633  31.399  1.00  0.00     0.031 A 
ATOM     30  C   UNL A   1      38.073  31.474  30.731  1.00  0.00     0.074 A 
ATOM     31  C   UNL A   1      37.753  33.008  32.642  1.00  0.00     0.049 A 
ATOM     32  N   UNL A   1      39.064  30.735  31.169  1.00  0.00    -0.248 NA
ATOM     33  C   UNL A   1      37.565  31.071  29.411  1.00  0.00     0.031 C 
ATOM     34  C   UNL A   1      37.115  34.068  33.426  1.00  0.00     0.029 A 
ATOM     35  N   UNL A   1      38.749  32.542  33.464  1.00  0.00    -0.354 N 
ATOM     36  C   UNL A   1      39.297  29.790  30.179  1.00  0.00     0.074 A 
ATOM     37  C   UNL A   1      38.302  30.001  29.149  1.00  0.00     0.031 C 
ATOM     38  C   UNL A   1      37.754  34.193  34.600  1.00  0.00     0.029 A 
ATOM     39  C   UNL A   1      38.827  33.205  34.665  1.00  0.00     0.049 A 
ATOM     40  H   UNL A   1      39.350  31.803  33.216  1.00  0.00     0.167 HD
ATOM     41  C   UNL A   1      40.272  28.852  30.118  1.00  0.00     0.037 A 
ATOM     42  C   UNL A   1      39.671  33.038  35.699  1.00  0.00     0.037 A 
ATOM     43  C   UNL A   1      41.269  28.651  31.137  1.00  0.00     0.049 A 
ATOM     44  C   UNL A   1      40.755  32.000  35.597  1.00  0.00     0.074 A 
ATOM     45  C   UNL A   1      42.322  27.755  31.152  1.00  0.00     0.029 A 
ATOM     46  N   UNL A   1      41.333  29.361  32.328  1.00  0.00    -0.354 N 
ATOM     47  N   UNL A   1      41.013  31.165  34.620  1.00  0.00    -0.248 NA
ATOM     48  C   UNL A   1      41.679  31.896  36.735  1.00  0.00     0.031 C 
ATOM     49  C   UNL A   1      43.002  27.895  32.366  1.00  0.00     0.029 A 
ATOM     50  C   UNL A   1      42.402  28.912  33.088  1.00  0.00     0.049 A 
ATOM     51  H   UNL A   1      40.712  30.077  32.593  1.00  0.00     0.167 HD
ATOM     52  C   UNL A   1      42.133  30.449  35.016  1.00  0.00     0.074 A 
ATOM     53  C   UNL A   1      42.527  30.973  36.308  1.00  0.00     0.031 C 
ATOM     54  C   UNL A   1      42.776  29.442  34.374  1.00  0.00     0.037 A 
BRANCH  41  55
ATOM     55  C   UNL A   1      40.324  27.984  28.894  1.00  0.00     0.064 A 
ATOM     56  C   UNL A   1      41.080  28.353  27.770  1.00  0.00     0.173 A 
ATOM     57  C   UNL A   1      39.656  26.752  28.858  1.00  0.00     0.173 A 
ATOM     58  F   UNL A   1      41.727  29.528  27.747  1.00  0.00    -0.203 F 
ATOM     59  C   UNL A   1      41.146  27.531  26.648  1.00  0.00     0.198 A 
ATOM     60  C   UNL A   1      39.748  25.918  27.746  1.00  0.00     0.198 A 
ATOM     61  F   UNL A   1      38.922  26.350  29.907  1.00  0.00    -0.203 F 
ATOM     62  F   UNL A   1      41.839  27.924  25.571  1.00  0.00    -0.200 F 
ATOM     63  C   UNL A   1      40.488  26.310  26.641  1.00  0.00     0.200 A 
ATOM     64  F   UNL A   1      39.122  24.734  27.746  1.00  0.00    -0.200 F 
ATOM     65  F   UNL A   1      40.562  25.514  25.565  1.00  0.00    -0.200 F 
ENDBRANCH  41  55
BRANCH  42  66
ATOM     66  C   UNL A   1      39.545  33.889  36.912  1.00  0.00     0.064 A 
ATOM     67  C   UNL A   1      38.800  33.462  38.022  1.00  0.00     0.173 A 
ATOM     68  C   UNL A   1      40.148  35.154  36.980  1.00  0.00     0.173 A 
ATOM     69  F   UNL A   1      38.190  32.269  37.998  1.00  0.00    -0.203 F 
ATOM     70  C   UNL A   1      38.636  34.281  39.138  1.00  0.00     0.198 A 
ATOM     71  C   UNL A   1      40.010  35.958  38.109  1.00  0.00     0.198 A 
ATOM     72  F   UNL A   1      40.878  35.606  35.950  1.00  0.00    -0.203 F 
ATOM     73  F   UNL A   1      37.872  33.872  40.158  1.00  0.00    -0.200 F 
ATOM     74  C   UNL A   1      39.245  35.526  39.182  1.00  0.00     0.200 A 
ATOM     75  F   UNL A   1      40.612  37.153  38.156  1.00  0.00    -0.200 F 
ATOM     76  F   UNL A   1      39.087  36.313  40.255  1.00  0.00    -0.200 F 
ENDBRANCH  42  66
BRANCH  54  77
ATOM     77  C   UNL A   1      43.981  28.860  35.056  1.00  0.00     0.064 A 
ATOM     78  C   UNL A   1      45.267  29.377  34.840  1.00  0.00     0.173 A 
ATOM     79  C   UNL A   1      43.847  27.777  35.937  1.00  0.00     0.173 A 
ATOM     80  F   UNL A   1      45.450  30.404  33.995  1.00  0.00    -0.203 F 
ATOM     81  C   UNL A   1      46.380  28.805  35.451  1.00  0.00     0.198 A 
ATOM     82  C   UNL A   1      44.958  27.229  36.571  1.00  0.00     0.198 A 
ATOM     83  F   UNL A   1      42.638  27.250  36.185  1.00  0.00    -0.203 F 
ATOM     84  F   UNL A   1      47.606  29.274  35.180  1.00  0.00    -0.200 F 
ATOM     85  C   UNL A   1      46.225  27.734  36.319  1.00  0.00     0.200 A 
ATOM     86  F   UNL A   1      44.805  26.202  37.420  1.00  0.00    -0.200 F 
ATOM     87  F   UNL A   1      47.297  27.183  36.902  1.00  0.00    -0.200 F 
ENDBRANCH  54  77
ENDBRANCH  28  29
ENDBRANCH  20  23
ENDBRANCH  18  19
ENDBRANCH  17  18
ENDBRANCH   1  17
TORSDOF 16
ENDMDL
