MODEL 1
REMARK VINA RESULT:     -13.8      0.000      0.000
REMARK SMILES N#C/C(=C/c1cccn1-c1ccc(C(=O)NCCCCNC(=O)c2ccc(-c3c4nc(c(-c5c(F)c(F)c(F)c(F)c5F)c5ccc([nH]5)c(-c5c(F)c(F)c(F)c(F)c5F)c5nc(c(-c6c(F)c(F)c(F)c(F)c6F)c6ccc3[nH]6)C=C5)C=C4)cc2)cc1)C(=O)Nc1ccc(O)cc1
REMARK SMILES IDX 17 1 16 2 14 3 15 4 13 6 10 7 11 8 88 9 12 10 87 11 9 12
REMARK SMILES IDX 5 13 6 14 7 15 8 16 4 17 3 18 2 19 1 20 89 21 90 22 91 23
REMARK SMILES IDX 92 25 93 26 98 27 94 28 97 29 95 30 96 31 18 33 19 34 20 35
REMARK SMILES IDX 21 36 22 37 23 39 24 40 25 41 86 42 26 43 85 44 27 45 28 46
REMARK SMILES IDX 29 47 79 48 30 49 84 50 78 51 80 52 31 53 83 54 77 55 76 56
REMARK SMILES IDX 32 58 64 59 44 60 63 61 45 62 48 63 62 64 81 65 46 66 47 67
REMARK SMILES IDX 61 69 82 70 49 71 33 72 34 73 42 74 35 75 36 76 40 77 43 78
REMARK SMILES IDX 37 79 38 80 41 81 39 82 65 83 66 84 74 85 67 86 68 87 72 88
REMARK SMILES IDX 75 89 69 90 70 91 73 92 71 93 50 94 51 95 59 96 52 97 53 98
REMARK SMILES IDX 57 99 60 100 54 101 55 102 58 103 56 104
REMARK H PARENT 16 5 91 24 96 32 21 38 80 57 48 68
REMARK Flexibility Score: inf
ROOT
ATOM      1  C   UNL A   1      32.397  30.001  25.616  1.00  0.00     0.116 C 
ENDROOT
BRANCH   1   2
ATOM      2  N   UNL A   1      31.255  29.351  24.990  1.00  0.00    -0.352 N 
ATOM      3  C   UNL A   1      31.026  28.131  24.404  1.00  0.00     0.251 C 
ATOM      4  O   UNL A   1      29.906  27.948  23.923  1.00  0.00    -0.269 OA
ATOM      5  H   UNL A   1      30.453  29.923  24.986  1.00  0.00     0.163 HD
BRANCH   3   6
ATOM      6  C   UNL A   1      32.001  27.008  24.381  1.00  0.00     0.039 A 
ATOM      7  C   UNL A   1      33.957  24.968  24.616  1.00  0.00     0.046 A 
ATOM      8  C   UNL A   1      32.917  25.050  25.544  1.00  0.00     0.027 A 
ATOM      9  C   UNL A   1      33.964  25.876  23.555  1.00  0.00     0.027 A 
ATOM     10  C   UNL A   1      31.974  26.086  25.444  1.00  0.00     0.016 A 
ATOM     11  C   UNL A   1      32.948  26.817  23.387  1.00  0.00     0.016 A 
BRANCH   7  12
ATOM     12  N   UNL A   1      34.949  23.935  24.708  1.00  0.00    -0.317 N 
ATOM     13  C   UNL A   1      34.859  22.597  24.299  1.00  0.00     0.047 A 
ATOM     14  C   UNL A   1      36.035  21.955  24.648  1.00  0.00     0.028 A 
ATOM     15  C   UNL A   1      36.863  22.892  25.296  1.00  0.00     0.020 A 
ATOM     16  C   UNL A   1      36.195  24.095  25.294  1.00  0.00     0.092 A 
BRANCH  13  17
ATOM     17  C   UNL A   1      33.813  22.161  23.456  1.00  0.00     0.052 C 
ATOM     18  C   UNL A   1      32.692  21.459  23.748  1.00  0.00     0.119 C 
BRANCH  18  19
ATOM     19  C   UNL A   1      32.183  20.858  22.448  1.00  0.00     0.105 C 
ATOM     20  N   UNL A   1      31.761  20.360  21.369  1.00  0.00    -0.192 NA
ENDBRANCH  18  19
BRANCH  18  21
ATOM     21  C   UNL A   1      32.160  21.002  25.075  1.00  0.00     0.266 C 
ATOM     22  O   UNL A   1      31.571  21.838  25.770  1.00  0.00    -0.268 OA
ATOM     23  N   UNL A   1      32.150  19.707  25.546  1.00  0.00    -0.321 N 
ATOM     24  H   UNL A   1      31.453  19.569  26.227  1.00  0.00     0.170 HD
BRANCH  23  25
ATOM     25  C   UNL A   1      32.885  18.529  25.300  1.00  0.00     0.041 A 
ATOM     26  C   UNL A   1      34.154  18.661  24.714  1.00  0.00     0.030 A 
ATOM     27  C   UNL A   1      32.409  17.245  25.547  1.00  0.00     0.030 A 
ATOM     28  C   UNL A   1      35.006  17.555  24.584  1.00  0.00     0.048 A 
ATOM     29  C   UNL A   1      33.254  16.127  25.406  1.00  0.00     0.048 A 
ATOM     30  C   UNL A   1      34.567  16.303  24.987  1.00  0.00     0.115 A 
BRANCH  30  31
ATOM     31  O   UNL A   1      35.464  15.278  24.989  1.00  0.00    -0.508 OA
ATOM     32  H   UNL A   1      35.378  14.578  24.373  1.00  0.00     0.293 HD
ENDBRANCH  30  31
ENDBRANCH  23  25
ENDBRANCH  18  21
ENDBRANCH  13  17
ENDBRANCH   7  12
ENDBRANCH   3   6
ENDBRANCH   1   2
BRANCH   1  33
ATOM     33  C   UNL A   1      32.418  29.699  27.117  1.00  0.00     0.023 C 
BRANCH  33  34
ATOM     34  C   UNL A   1      33.526  28.710  27.514  1.00  0.00     0.023 C 
BRANCH  34  35
ATOM     35  C   UNL A   1      34.877  28.988  26.845  1.00  0.00     0.116 C 
BRANCH  35  36
ATOM     36  N   UNL A   1      35.367  30.313  27.181  1.00  0.00    -0.352 N 
ATOM     37  C   UNL A   1      36.436  30.677  27.959  1.00  0.00     0.251 C 
ATOM     38  H   UNL A   1      34.856  31.060  26.793  1.00  0.00     0.163 HD
ATOM     39  O   UNL A   1      36.440  31.784  28.485  1.00  0.00    -0.269 OA
BRANCH  37  40
ATOM     40  C   UNL A   1      37.584  29.771  28.183  1.00  0.00     0.039 A 
ATOM     41  C   UNL A   1      38.581  29.727  27.200  1.00  0.00     0.014 A 
ATOM     42  C   UNL A   1      37.633  28.891  29.271  1.00  0.00     0.014 A 
ATOM     43  C   UNL A   1      39.654  28.850  27.336  1.00  0.00     0.010 A 
ATOM     44  C   UNL A   1      38.713  28.014  29.416  1.00  0.00     0.010 A 
ATOM     45  C   UNL A   1      39.740  28.015  28.461  1.00  0.00    -0.014 A 
BRANCH  45  46
ATOM     46  C   UNL A   1      41.062  27.400  28.758  1.00  0.00     0.031 A 
ATOM     47  C   UNL A   1      41.085  25.928  28.256  1.00  0.00     0.074 A 
ATOM     48  C   UNL A   1      41.997  28.146  29.431  1.00  0.00     0.049 A 
ATOM     49  N   UNL A   1      41.777  24.910  28.666  1.00  0.00    -0.248 NA
ATOM     50  C   UNL A   1      40.149  25.513  27.166  1.00  0.00     0.031 C 
ATOM     51  C   UNL A   1      41.856  29.583  29.753  1.00  0.00     0.029 A 
ATOM     52  N   UNL A   1      43.244  27.876  29.984  1.00  0.00    -0.354 N 
ATOM     53  C   UNL A   1      41.530  23.831  27.779  1.00  0.00     0.074 A 
ATOM     54  C   UNL A   1      40.425  24.223  26.966  1.00  0.00     0.031 C 
ATOM     55  C   UNL A   1      42.894  30.025  30.501  1.00  0.00     0.029 A 
ATOM     56  C   UNL A   1      43.828  28.940  30.741  1.00  0.00     0.049 A 
ATOM     57  H   UNL A   1      43.694  27.009  29.863  1.00  0.00     0.167 HD
ATOM     58  C   UNL A   1      42.367  22.755  27.671  1.00  0.00     0.037 A 
ATOM     59  C   UNL A   1      44.956  28.936  31.530  1.00  0.00     0.037 A 
ATOM     60  C   UNL A   1      43.397  22.866  28.642  1.00  0.00     0.049 A 
ATOM     61  C   UNL A   1      45.601  27.656  31.236  1.00  0.00     0.074 A 
ATOM     62  C   UNL A   1      43.377  22.760  30.006  1.00  0.00     0.029 A 
ATOM     63  N   UNL A   1      44.539  23.515  28.244  1.00  0.00    -0.354 N 
ATOM     64  N   UNL A   1      46.263  27.415  30.146  1.00  0.00    -0.248 NA
ATOM     65  C   UNL A   1      45.464  26.550  32.191  1.00  0.00     0.031 C 
ATOM     66  C   UNL A   1      44.240  23.797  30.405  1.00  0.00     0.029 A 
ATOM     67  C   UNL A   1      44.960  24.273  29.301  1.00  0.00     0.049 A 
ATOM     68  H   UNL A   1      44.973  23.449  27.362  1.00  0.00     0.167 HD
ATOM     69  C   UNL A   1      46.285  26.044  30.141  1.00  0.00     0.074 A 
ATOM     70  C   UNL A   1      46.128  25.617  31.515  1.00  0.00     0.031 C 
ATOM     71  C   UNL A   1      45.817  25.400  29.042  1.00  0.00     0.037 A 
BRANCH  58  72
ATOM     72  C   UNL A   1      42.569  21.708  26.606  1.00  0.00     0.064 A 
ATOM     73  C   UNL A   1      42.145  20.382  26.894  1.00  0.00     0.173 A 
ATOM     74  C   UNL A   1      43.484  21.846  25.557  1.00  0.00     0.173 A 
ATOM     75  F   UNL A   1      41.223  20.142  27.841  1.00  0.00    -0.203 F 
ATOM     76  C   UNL A   1      42.738  19.270  26.300  1.00  0.00     0.198 A 
ATOM     77  C   UNL A   1      44.035  20.726  24.924  1.00  0.00     0.198 A 
ATOM     78  F   UNL A   1      43.949  23.046  25.193  1.00  0.00    -0.203 F 
ATOM     79  F   UNL A   1      42.431  18.038  26.730  1.00  0.00    -0.200 F 
ATOM     80  C   UNL A   1      43.702  19.443  25.330  1.00  0.00     0.200 A 
ATOM     81  F   UNL A   1      44.963  20.897  23.972  1.00  0.00    -0.200 F 
ATOM     82  F   UNL A   1      44.336  18.383  24.812  1.00  0.00    -0.200 F 
ENDBRANCH  58  72
BRANCH  59  83
ATOM     83  C   UNL A   1      45.697  29.783  32.558  1.00  0.00     0.064 A 
ATOM     84  C   UNL A   1      45.230  30.159  33.822  1.00  0.00     0.173 A 
ATOM     85  C   UNL A   1      47.045  30.202  32.303  1.00  0.00     0.173 A 
ATOM     86  F   UNL A   1      43.954  29.958  34.166  1.00  0.00    -0.203 F 
ATOM     87  C   UNL A   1      46.071  30.777  34.777  1.00  0.00     0.198 A 
ATOM     88  C   UNL A   1      47.892  30.754  33.262  1.00  0.00     0.198 A 
ATOM     89  F   UNL A   1      47.606  30.095  31.092  1.00  0.00    -0.203 F 
ATOM     90  F   UNL A   1      45.577  31.120  35.974  1.00  0.00    -0.200 F 
ATOM     91  C   UNL A   1      47.409  31.027  34.514  1.00  0.00     0.200 A 
ATOM     92  F   UNL A   1      49.176  30.995  32.957  1.00  0.00    -0.200 F 
ATOM     93  F   UNL A   1      48.219  31.540  35.449  1.00  0.00    -0.200 F 
ENDBRANCH  59  83
BRANCH  71  94
ATOM     94  C   UNL A   1      45.922  26.209  27.759  1.00  0.00     0.064 A 
ATOM     95  C   UNL A   1      47.186  26.637  27.312  1.00  0.00     0.173 A 
ATOM     96  C   UNL A   1      44.822  26.698  27.034  1.00  0.00     0.173 A 
ATOM     97  F   UNL A   1      48.294  26.192  27.923  1.00  0.00    -0.203 F 
ATOM     98  C   UNL A   1      47.333  27.528  26.245  1.00  0.00     0.198 A 
ATOM     99  C   UNL A   1      44.965  27.586  25.961  1.00  0.00     0.198 A 
ATOM    100  F   UNL A   1      43.581  26.324  27.343  1.00  0.00    -0.203 F 
ATOM    101  F   UNL A   1      48.557  27.919  25.867  1.00  0.00    -0.200 F 
ATOM    102  C   UNL A   1      46.222  28.008  25.574  1.00  0.00     0.200 A 
ATOM    103  F   UNL A   1      43.881  28.025  25.303  1.00  0.00    -0.200 F 
ATOM    104  F   UNL A   1      46.364  28.856  24.545  1.00  0.00    -0.200 F 
ENDBRANCH  71  94
ENDBRANCH  45  46
ENDBRANCH  37  40
ENDBRANCH  35  36
ENDBRANCH  34  35
ENDBRANCH  33  34
ENDBRANCH   1  33
TORSDOF 17
ENDMDL
MODEL 2
REMARK VINA RESULT:     -13.7      0.883      2.026
REMARK SMILES N#C/C(=C/c1cccn1-c1ccc(C(=O)NCCCCNC(=O)c2ccc(-c3c4nc(c(-c5c(F)c(F)c(F)c(F)c5F)c5ccc([nH]5)c(-c5c(F)c(F)c(F)c(F)c5F)c5nc(c(-c6c(F)c(F)c(F)c(F)c6F)c6ccc3[nH]6)C=C5)C=C4)cc2)cc1)C(=O)Nc1ccc(O)cc1
REMARK SMILES IDX 17 1 16 2 14 3 15 4 13 6 10 7 11 8 88 9 12 10 87 11 9 12
REMARK SMILES IDX 5 13 6 14 7 15 8 16 4 17 3 18 2 19 1 20 89 21 90 22 91 23
REMARK SMILES IDX 92 25 93 26 98 27 94 28 97 29 95 30 96 31 18 33 19 34 20 35
REMARK SMILES IDX 21 36 22 37 23 39 24 40 25 41 86 42 26 43 85 44 27 45 28 46
REMARK SMILES IDX 29 47 79 48 30 49 84 50 78 51 80 52 31 53 83 54 77 55 76 56
REMARK SMILES IDX 32 58 64 59 44 60 63 61 45 62 48 63 62 64 81 65 46 66 47 67
REMARK SMILES IDX 61 69 82 70 49 71 33 72 34 73 42 74 35 75 36 76 40 77 43 78
REMARK SMILES IDX 37 79 38 80 41 81 39 82 65 83 66 84 74 85 67 86 68 87 72 88
REMARK SMILES IDX 75 89 69 90 70 91 73 92 71 93 50 94 51 95 59 96 52 97 53 98
REMARK SMILES IDX 57 99 60 100 54 101 55 102 58 103 56 104
REMARK H PARENT 16 5 91 24 96 32 21 38 80 57 48 68
REMARK Flexibility Score: inf
ROOT
ATOM      1  C   UNL A   1      33.108  29.437  24.724  1.00  0.00     0.116 C 
ENDROOT
BRANCH   1   2
ATOM      2  N   UNL A   1      32.277  28.761  23.739  1.00  0.00    -0.352 N 
ATOM      3  C   UNL A   1      32.290  27.531  23.130  1.00  0.00     0.251 C 
ATOM      4  O   UNL A   1      31.422  27.324  22.280  1.00  0.00    -0.269 OA
ATOM      5  H   UNL A   1      31.525  29.320  23.436  1.00  0.00     0.163 HD
BRANCH   3   6
ATOM      6  C   UNL A   1      33.221  26.424  23.479  1.00  0.00     0.039 A 
ATOM      7  C   UNL A   1      34.753  24.121  24.101  1.00  0.00     0.046 A 
ATOM      8  C   UNL A   1      34.175  24.256  22.837  1.00  0.00     0.027 A 
ATOM      9  C   UNL A   1      34.598  25.170  25.011  1.00  0.00     0.027 A 
ATOM     10  C   UNL A   1      33.386  25.381  22.549  1.00  0.00     0.016 A 
ATOM     11  C   UNL A   1      33.926  26.343  24.669  1.00  0.00     0.016 A 
BRANCH   7  12
ATOM     12  N   UNL A   1      35.544  22.970  24.434  1.00  0.00    -0.317 N 
ATOM     13  C   UNL A   1      35.359  22.053  25.478  1.00  0.00     0.047 A 
ATOM     14  C   UNL A   1      36.405  21.148  25.453  1.00  0.00     0.028 A 
ATOM     15  C   UNL A   1      37.263  21.507  24.396  1.00  0.00     0.020 A 
ATOM     16  C   UNL A   1      36.704  22.598  23.772  1.00  0.00     0.092 A 
BRANCH  13  17
ATOM     17  C   UNL A   1      34.146  22.006  26.200  1.00  0.00     0.052 C 
ATOM     18  C   UNL A   1      32.901  21.660  25.792  1.00  0.00     0.119 C 
BRANCH  18  19
ATOM     19  C   UNL A   1      31.919  22.237  26.799  1.00  0.00     0.105 C 
ATOM     20  N   UNL A   1      31.105  22.715  27.635  1.00  0.00    -0.192 NA
ENDBRANCH  18  19
BRANCH  18  21
ATOM     21  C   UNL A   1      32.433  21.131  24.468  1.00  0.00     0.266 C 
ATOM     22  O   UNL A   1      31.773  21.894  23.752  1.00  0.00    -0.268 OA
ATOM     23  N   UNL A   1      32.772  19.918  23.910  1.00  0.00    -0.321 N 
ATOM     24  H   UNL A   1      32.678  19.925  22.930  1.00  0.00     0.170 HD
BRANCH  23  25
ATOM     25  C   UNL A   1      33.218  18.668  24.386  1.00  0.00     0.041 A 
ATOM     26  C   UNL A   1      32.291  17.854  25.055  1.00  0.00     0.030 A 
ATOM     27  C   UNL A   1      34.531  18.217  24.284  1.00  0.00     0.030 A 
ATOM     28  C   UNL A   1      32.616  16.539  25.417  1.00  0.00     0.048 A 
ATOM     29  C   UNL A   1      34.868  16.902  24.658  1.00  0.00     0.048 A 
ATOM     30  C   UNL A   1      33.888  16.054  25.160  1.00  0.00     0.115 A 
BRANCH  30  31
ATOM     31  O   UNL A   1      34.130  14.732  25.385  1.00  0.00    -0.508 OA
ATOM     32  H   UNL A   1      33.636  14.267  26.030  1.00  0.00     0.293 HD
ENDBRANCH  30  31
ENDBRANCH  23  25
ENDBRANCH  18  21
ENDBRANCH  13  17
ENDBRANCH   7  12
ENDBRANCH   3   6
ENDBRANCH   1   2
BRANCH   1  33
ATOM     33  C   UNL A   1      32.425  29.415  26.094  1.00  0.00     0.023 C 
BRANCH  33  34
ATOM     34  C   UNL A   1      33.340  28.886  27.211  1.00  0.00     0.023 C 
BRANCH  34  35
ATOM     35  C   UNL A   1      34.837  29.023  26.906  1.00  0.00     0.116 C 
BRANCH  35  36
ATOM     36  N   UNL A   1      35.325  30.346  27.252  1.00  0.00    -0.352 N 
ATOM     37  C   UNL A   1      36.396  30.705  28.030  1.00  0.00     0.251 C 
ATOM     38  H   UNL A   1      34.811  31.095  26.873  1.00  0.00     0.163 HD
ATOM     39  O   UNL A   1      36.400  31.807  28.565  1.00  0.00    -0.269 OA
BRANCH  37  40
ATOM     40  C   UNL A   1      37.546  29.799  28.242  1.00  0.00     0.039 A 
ATOM     41  C   UNL A   1      38.523  29.741  27.239  1.00  0.00     0.014 A 
ATOM     42  C   UNL A   1      37.616  28.933  29.339  1.00  0.00     0.014 A 
ATOM     43  C   UNL A   1      39.598  28.863  27.363  1.00  0.00     0.010 A 
ATOM     44  C   UNL A   1      38.698  28.056  29.472  1.00  0.00     0.010 A 
ATOM     45  C   UNL A   1      39.705  28.042  28.497  1.00  0.00    -0.014 A 
BRANCH  45  46
ATOM     46  C   UNL A   1      41.032  27.428  28.774  1.00  0.00     0.031 A 
ATOM     47  C   UNL A   1      41.051  25.960  28.263  1.00  0.00     0.074 A 
ATOM     48  C   UNL A   1      41.973  28.172  29.441  1.00  0.00     0.049 A 
ATOM     49  N   UNL A   1      41.750  24.941  28.659  1.00  0.00    -0.248 NA
ATOM     50  C   UNL A   1      40.103  25.549  27.182  1.00  0.00     0.031 C 
ATOM     51  C   UNL A   1      41.833  29.607  29.773  1.00  0.00     0.029 A 
ATOM     52  N   UNL A   1      43.227  27.901  29.977  1.00  0.00    -0.354 N 
ATOM     53  C   UNL A   1      41.494  23.866  27.769  1.00  0.00     0.074 A 
ATOM     54  C   UNL A   1      40.379  24.260  26.971  1.00  0.00     0.031 C 
ATOM     55  C   UNL A   1      42.879  30.047  30.511  1.00  0.00     0.029 A 
ATOM     56  C   UNL A   1      43.818  28.962  30.733  1.00  0.00     0.049 A 
ATOM     57  H   UNL A   1      43.677  27.036  29.845  1.00  0.00     0.167 HD
ATOM     58  C   UNL A   1      42.332  22.792  27.644  1.00  0.00     0.037 A 
ATOM     59  C   UNL A   1      44.956  28.956  31.508  1.00  0.00     0.037 A 
ATOM     60  C   UNL A   1      43.374  22.900  28.604  1.00  0.00     0.049 A 
ATOM     61  C   UNL A   1      45.599  27.679  31.199  1.00  0.00     0.074 A 
ATOM     62  C   UNL A   1      43.370  22.786  29.967  1.00  0.00     0.029 A 
ATOM     63  N   UNL A   1      44.510  23.553  28.196  1.00  0.00    -0.354 N 
ATOM     64  N   UNL A   1      46.248  27.445  30.100  1.00  0.00    -0.248 NA
ATOM     65  C   UNL A   1      45.476  26.567  32.149  1.00  0.00     0.031 C 
ATOM     66  C   UNL A   1      44.236  23.822  30.361  1.00  0.00     0.029 A 
ATOM     67  C   UNL A   1      44.941  24.306  29.252  1.00  0.00     0.049 A 
ATOM     68  H   UNL A   1      44.933  23.493  27.308  1.00  0.00     0.167 HD
ATOM     69  C   UNL A   1      46.273  26.075  30.086  1.00  0.00     0.074 A 
ATOM     70  C   UNL A   1      46.134  25.639  31.460  1.00  0.00     0.031 C 
ATOM     71  C   UNL A   1      45.793  25.436  28.989  1.00  0.00     0.037 A 
BRANCH  58  72
ATOM     72  C   UNL A   1      42.523  21.752  26.571  1.00  0.00     0.064 A 
ATOM     73  C   UNL A   1      42.093  20.426  26.851  1.00  0.00     0.173 A 
ATOM     74  C   UNL A   1      43.435  21.892  25.519  1.00  0.00     0.173 A 
ATOM     75  F   UNL A   1      41.174  20.185  27.800  1.00  0.00    -0.203 F 
ATOM     76  C   UNL A   1      42.677  19.316  26.246  1.00  0.00     0.198 A 
ATOM     77  C   UNL A   1      43.977  20.774  24.875  1.00  0.00     0.198 A 
ATOM     78  F   UNL A   1      43.905  23.092  25.162  1.00  0.00    -0.203 F 
ATOM     79  F   UNL A   1      42.364  18.082  26.669  1.00  0.00    -0.200 F 
ATOM     80  C   UNL A   1      43.637  19.490  25.273  1.00  0.00     0.200 A 
ATOM     81  F   UNL A   1      44.901  20.947  23.920  1.00  0.00    -0.200 F 
ATOM     82  F   UNL A   1      44.263  18.430  24.744  1.00  0.00    -0.200 F 
ENDBRANCH  58  72
BRANCH  59  83
ATOM     83  C   UNL A   1      45.707  29.798  32.533  1.00  0.00     0.064 A 
ATOM     84  C   UNL A   1      46.928  30.453  32.340  1.00  0.00     0.173 A 
ATOM     85  C   UNL A   1      45.122  30.054  33.816  1.00  0.00     0.173 A 
ATOM     86  F   UNL A   1      47.665  30.219  31.250  1.00  0.00    -0.203 F 
ATOM     87  C   UNL A   1      47.443  31.369  33.287  1.00  0.00     0.198 A 
ATOM     88  C   UNL A   1      45.594  31.002  34.722  1.00  0.00     0.198 A 
ATOM     89  F   UNL A   1      44.049  29.382  34.256  1.00  0.00    -0.203 F 
ATOM     90  F   UNL A   1      48.617  31.972  33.058  1.00  0.00    -0.200 F 
ATOM     91  C   UNL A   1      46.753  31.679  34.449  1.00  0.00     0.200 A 
ATOM     92  F   UNL A   1      44.901  31.256  35.842  1.00  0.00    -0.200 F 
ATOM     93  F   UNL A   1      47.206  32.606  35.303  1.00  0.00    -0.200 F 
ENDBRANCH  59  83
BRANCH  71  94
ATOM     94  C   UNL A   1      45.881  26.253  27.710  1.00  0.00     0.064 A 
ATOM     95  C   UNL A   1      44.709  26.528  26.982  1.00  0.00     0.173 A 
ATOM     96  C   UNL A   1      47.083  26.651  27.101  1.00  0.00     0.173 A 
ATOM     97  F   UNL A   1      43.512  26.215  27.503  1.00  0.00    -0.203 F 
ATOM     98  C   UNL A   1      44.743  27.117  25.715  1.00  0.00     0.198 A 
ATOM     99  C   UNL A   1      47.122  27.247  25.835  1.00  0.00     0.198 A 
ATOM    100  F   UNL A   1      48.250  26.479  27.720  1.00  0.00    -0.203 F 
ATOM    101  F   UNL A   1      43.601  27.345  25.054  1.00  0.00    -0.200 F 
ATOM    102  C   UNL A   1      45.950  27.470  25.138  1.00  0.00     0.200 A 
ATOM    103  F   UNL A   1      48.298  27.607  25.297  1.00  0.00    -0.200 F 
ATOM    104  F   UNL A   1      45.983  28.043  23.926  1.00  0.00    -0.200 F 
ENDBRANCH  71  94
ENDBRANCH  45  46
ENDBRANCH  37  40
ENDBRANCH  35  36
ENDBRANCH  34  35
ENDBRANCH  33  34
ENDBRANCH   1  33
TORSDOF 17
ENDMDL
MODEL 3
REMARK VINA RESULT:     -13.4      1.529      2.615
REMARK SMILES N#C/C(=C/c1cccn1-c1ccc(C(=O)NCCCCNC(=O)c2ccc(-c3c4nc(c(-c5c(F)c(F)c(F)c(F)c5F)c5ccc([nH]5)c(-c5c(F)c(F)c(F)c(F)c5F)c5nc(c(-c6c(F)c(F)c(F)c(F)c6F)c6ccc3[nH]6)C=C5)C=C4)cc2)cc1)C(=O)Nc1ccc(O)cc1
REMARK SMILES IDX 17 1 16 2 14 3 15 4 13 6 10 7 11 8 88 9 12 10 87 11 9 12
REMARK SMILES IDX 5 13 6 14 7 15 8 16 4 17 3 18 2 19 1 20 89 21 90 22 91 23
REMARK SMILES IDX 92 25 93 26 98 27 94 28 97 29 95 30 96 31 18 33 19 34 20 35
REMARK SMILES IDX 21 36 22 37 23 39 24 40 25 41 86 42 26 43 85 44 27 45 28 46
REMARK SMILES IDX 29 47 79 48 30 49 84 50 78 51 80 52 31 53 83 54 77 55 76 56
REMARK SMILES IDX 32 58 64 59 44 60 63 61 45 62 48 63 62 64 81 65 46 66 47 67
REMARK SMILES IDX 61 69 82 70 49 71 33 72 34 73 42 74 35 75 36 76 40 77 43 78
REMARK SMILES IDX 37 79 38 80 41 81 39 82 65 83 66 84 74 85 67 86 68 87 72 88
REMARK SMILES IDX 75 89 69 90 70 91 73 92 71 93 50 94 51 95 59 96 52 97 53 98
REMARK SMILES IDX 57 99 60 100 54 101 55 102 58 103 56 104
REMARK H PARENT 16 5 91 24 96 32 21 38 80 57 48 68
REMARK Flexibility Score: inf
ROOT
ATOM      1  C   UNL A   1      31.437  30.550  26.310  1.00  0.00     0.116 C 
ENDROOT
BRANCH   1   2
ATOM      2  N   UNL A   1      31.072  30.055  24.990  1.00  0.00    -0.352 N 
ATOM      3  C   UNL A   1      31.388  28.951  24.240  1.00  0.00     0.251 C 
ATOM      4  O   UNL A   1      30.908  28.895  23.106  1.00  0.00    -0.269 OA
ATOM      5  H   UNL A   1      30.448  30.657  24.524  1.00  0.00     0.163 HD
BRANCH   3   6
ATOM      6  C   UNL A   1      32.197  27.801  24.726  1.00  0.00     0.039 A 
ATOM      7  C   UNL A   1      33.753  25.515  25.355  1.00  0.00     0.046 A 
ATOM      8  C   UNL A   1      34.265  26.497  24.505  1.00  0.00     0.027 A 
ATOM      9  C   UNL A   1      32.492  25.725  25.918  1.00  0.00     0.027 A 
ATOM     10  C   UNL A   1      33.474  27.607  24.167  1.00  0.00     0.016 A 
ATOM     11  C   UNL A   1      31.770  26.895  25.684  1.00  0.00     0.016 A 
BRANCH   7  12
ATOM     12  N   UNL A   1      34.528  24.356  25.698  1.00  0.00    -0.317 N 
ATOM     13  C   UNL A   1      34.177  23.284  26.531  1.00  0.00     0.047 A 
ATOM     14  C   UNL A   1      35.263  22.432  26.625  1.00  0.00     0.028 A 
ATOM     15  C   UNL A   1      36.310  22.981  25.860  1.00  0.00     0.020 A 
ATOM     16  C   UNL A   1      35.831  24.133  25.282  1.00  0.00     0.092 A 
BRANCH  13  17
ATOM     17  C   UNL A   1      32.838  23.082  26.933  1.00  0.00     0.052 C 
ATOM     18  C   UNL A   1      31.850  22.364  26.348  1.00  0.00     0.119 C 
BRANCH  18  19
ATOM     19  C   UNL A   1      30.531  22.868  26.910  1.00  0.00     0.105 C 
ATOM     20  N   UNL A   1      29.437  23.287  27.377  1.00  0.00    -0.192 NA
ENDBRANCH  18  19
BRANCH  18  21
ATOM     21  C   UNL A   1      31.889  21.481  25.135  1.00  0.00     0.266 C 
ATOM     22  O   UNL A   1      31.878  20.258  25.320  1.00  0.00    -0.268 OA
ATOM     23  N   UNL A   1      31.810  21.896  23.823  1.00  0.00    -0.321 N 
ATOM     24  H   UNL A   1      31.485  21.179  23.231  1.00  0.00     0.170 HD
BRANCH  23  25
ATOM     25  C   UNL A   1      32.077  23.085  23.114  1.00  0.00     0.041 A 
ATOM     26  C   UNL A   1      33.327  23.206  22.487  1.00  0.00     0.030 A 
ATOM     27  C   UNL A   1      31.203  24.166  23.045  1.00  0.00     0.030 A 
ATOM     28  C   UNL A   1      33.605  24.285  21.636  1.00  0.00     0.048 A 
ATOM     29  C   UNL A   1      31.482  25.260  22.203  1.00  0.00     0.048 A 
ATOM     30  C   UNL A   1      32.653  25.276  21.456  1.00  0.00     0.115 A 
BRANCH  30  31
ATOM     31  O   UNL A   1      32.889  26.230  20.513  1.00  0.00    -0.508 OA
ATOM     32  H   UNL A   1      32.176  26.714  20.145  1.00  0.00     0.293 HD
ENDBRANCH  30  31
ENDBRANCH  23  25
ENDBRANCH  18  21
ENDBRANCH  13  17
ENDBRANCH   7  12
ENDBRANCH   3   6
ENDBRANCH   1   2
BRANCH   1  33
ATOM     33  C   UNL A   1      32.961  30.578  26.459  1.00  0.00     0.023 C 
BRANCH  33  34
ATOM     34  C   UNL A   1      33.503  29.406  27.295  1.00  0.00     0.023 C 
BRANCH  34  35
ATOM     35  C   UNL A   1      35.034  29.331  27.341  1.00  0.00     0.116 C 
BRANCH  35  36
ATOM     36  N   UNL A   1      35.619  30.647  27.527  1.00  0.00    -0.352 N 
ATOM     37  C   UNL A   1      36.759  31.008  28.200  1.00  0.00     0.251 C 
ATOM     38  H   UNL A   1      35.124  31.389  27.109  1.00  0.00     0.163 HD
ATOM     39  O   UNL A   1      36.861  32.152  28.625  1.00  0.00    -0.269 OA
BRANCH  37  40
ATOM     40  C   UNL A   1      37.866  30.054  28.427  1.00  0.00     0.039 A 
ATOM     41  C   UNL A   1      38.794  29.875  27.392  1.00  0.00     0.014 A 
ATOM     42  C   UNL A   1      37.937  29.260  29.577  1.00  0.00     0.014 A 
ATOM     43  C   UNL A   1      39.824  28.948  27.534  1.00  0.00     0.010 A 
ATOM     44  C   UNL A   1      38.974  28.334  29.727  1.00  0.00     0.010 A 
ATOM     45  C   UNL A   1      39.936  28.199  28.716  1.00  0.00    -0.014 A 
BRANCH  45  46
ATOM     46  C   UNL A   1      41.239  27.531  28.982  1.00  0.00     0.031 A 
ATOM     47  C   UNL A   1      41.201  26.070  28.450  1.00  0.00     0.074 A 
ATOM     48  C   UNL A   1      42.209  28.229  29.657  1.00  0.00     0.049 A 
ATOM     49  N   UNL A   1      41.861  25.019  28.830  1.00  0.00    -0.248 NA
ATOM     50  C   UNL A   1      40.237  25.711  27.366  1.00  0.00     0.031 C 
ATOM     51  C   UNL A   1      42.125  29.663  30.010  1.00  0.00     0.029 A 
ATOM     52  N   UNL A   1      43.452  27.902  30.187  1.00  0.00    -0.354 N 
ATOM     53  C   UNL A   1      41.563  23.969  27.925  1.00  0.00     0.074 A 
ATOM     54  C   UNL A   1      40.463  24.416  27.135  1.00  0.00     0.031 C 
ATOM     55  C   UNL A   1      43.188  30.052  30.752  1.00  0.00     0.029 A 
ATOM     56  C   UNL A   1      44.085  28.929  30.957  1.00  0.00     0.049 A 
ATOM     57  H   UNL A   1      43.869  27.022  30.042  1.00  0.00     0.167 HD
ATOM     58  C   UNL A   1      42.359  22.865  27.784  1.00  0.00     0.037 A 
ATOM     59  C   UNL A   1      45.223  28.868  31.729  1.00  0.00     0.037 A 
ATOM     60  C   UNL A   1      43.405  22.919  28.742  1.00  0.00     0.049 A 
ATOM     61  C   UNL A   1      45.816  27.572  31.401  1.00  0.00     0.074 A 
ATOM     62  C   UNL A   1      43.399  22.786  30.104  1.00  0.00     0.029 A 
ATOM     63  N   UNL A   1      44.565  23.534  28.342  1.00  0.00    -0.354 N 
ATOM     64  N   UNL A   1      46.454  27.329  30.297  1.00  0.00    -0.248 NA
ATOM     65  C   UNL A   1      45.652  26.452  32.335  1.00  0.00     0.031 C 
ATOM     66  C   UNL A   1      44.305  23.782  30.511  1.00  0.00     0.029 A 
ATOM     67  C   UNL A   1      45.027  24.254  29.408  1.00  0.00     0.049 A 
ATOM     68  H   UNL A   1      44.985  23.471  27.453  1.00  0.00     0.167 HD
ATOM     69  C   UNL A   1      46.427  25.959  30.264  1.00  0.00     0.074 A 
ATOM     70  C   UNL A   1      46.273  25.510  31.631  1.00  0.00     0.031 C 
ATOM     71  C   UNL A   1      45.921  25.355  29.159  1.00  0.00     0.037 A 
BRANCH  58  72
ATOM     72  C   UNL A   1      42.508  21.833  26.695  1.00  0.00     0.064 A 
ATOM     73  C   UNL A   1      42.073  20.509  26.975  1.00  0.00     0.173 A 
ATOM     74  C   UNL A   1      43.390  21.975  25.618  1.00  0.00     0.173 A 
ATOM     75  F   UNL A   1      41.180  20.268  27.948  1.00  0.00    -0.203 F 
ATOM     76  C   UNL A   1      42.628  19.399  26.342  1.00  0.00     0.198 A 
ATOM     77  C   UNL A   1      43.902  20.858  24.948  1.00  0.00     0.198 A 
ATOM     78  F   UNL A   1      43.862  23.174  25.259  1.00  0.00    -0.203 F 
ATOM     79  F   UNL A   1      42.316  18.164  26.762  1.00  0.00    -0.200 F 
ATOM     80  C   UNL A   1      43.562  19.574  25.343  1.00  0.00     0.200 A 
ATOM     81  F   UNL A   1      44.800  21.032  23.968  1.00  0.00    -0.200 F 
ATOM     82  F   UNL A   1      44.161  18.514  24.787  1.00  0.00    -0.200 F 
ENDBRANCH  58  72
BRANCH  59  83
ATOM     83  C   UNL A   1      46.008  29.666  32.764  1.00  0.00     0.064 A 
ATOM     84  C   UNL A   1      45.684  29.826  34.115  1.00  0.00     0.173 A 
ATOM     85  C   UNL A   1      47.256  30.272  32.404  1.00  0.00     0.173 A 
ATOM     86  F   UNL A   1      44.495  29.432  34.584  1.00  0.00    -0.203 F 
ATOM     87  C   UNL A   1      46.580  30.420  35.034  1.00  0.00     0.198 A 
ATOM     88  C   UNL A   1      48.166  30.801  33.317  1.00  0.00     0.198 A 
ATOM     89  F   UNL A   1      47.652  30.382  31.129  1.00  0.00    -0.203 F 
ATOM     90  F   UNL A   1      46.224  30.552  36.319  1.00  0.00    -0.200 F 
ATOM     91  C   UNL A   1      47.836  30.859  34.645  1.00  0.00     0.200 A 
ATOM     92  F   UNL A   1      49.364  31.230  32.891  1.00  0.00    -0.200 F 
ATOM     93  F   UNL A   1      48.711  31.348  35.534  1.00  0.00    -0.200 F 
ENDBRANCH  59  83
BRANCH  71  94
ATOM     94  C   UNL A   1      46.038  26.186  27.891  1.00  0.00     0.064 A 
ATOM     95  C   UNL A   1      47.310  26.589  27.443  1.00  0.00     0.173 A 
ATOM     96  C   UNL A   1      44.947  26.719  27.185  1.00  0.00     0.173 A 
ATOM     97  F   UNL A   1      48.411  26.101  28.036  1.00  0.00    -0.203 F 
ATOM     98  C   UNL A   1      47.473  27.495  26.392  1.00  0.00     0.198 A 
ATOM     99  C   UNL A   1      45.106  27.623  26.129  1.00  0.00     0.198 A 
ATOM    100  F   UNL A   1      43.699  26.372  27.496  1.00  0.00    -0.203 F 
ATOM    101  F   UNL A   1      48.705  27.860  26.012  1.00  0.00    -0.200 F 
ATOM    102  C   UNL A   1      46.371  28.019  25.739  1.00  0.00     0.200 A 
ATOM    103  F   UNL A   1      44.029  28.105  25.488  1.00  0.00    -0.200 F 
ATOM    104  F   UNL A   1      46.528  28.883  24.726  1.00  0.00    -0.200 F 
ENDBRANCH  71  94
ENDBRANCH  45  46
ENDBRANCH  37  40
ENDBRANCH  35  36
ENDBRANCH  34  35
ENDBRANCH  33  34
ENDBRANCH   1  33
TORSDOF 17
ENDMDL
