MODEL 1
REMARK VINA RESULT:     -12.8      0.000      0.000
REMARK SMILES [NH3+][C@@H](CNc1ccc(C(=O)NCCCCNC(=O)c2ccc(-c3c4nc(c(-c5c(F)c(F)c(F)c(F)c5F)c5ccc([nH]5)c(-c5c(F)c(F)c(F)c(F)c5F)c5nc(c(-c6c(F)c(F)c(F)c(F)c6F)c6ccc3[nH]6)C=C5)C=C4)cc2)c(F)c1F)c1ccccc1
REMARK SMILES IDX 12 1 11 2 9 3 10 4 8 6 5 7 6 8 84 9 7 10 82 11 85 12 83 13
REMARK SMILES IDX 4 14 3 16 2 17 1 18 86 22 87 23 91 24 88 25 90 26 89 27
REMARK SMILES IDX 13 28 14 29 15 30 16 31 17 32 18 34 19 35 20 36 81 37 21 38
REMARK SMILES IDX 80 39 22 40 23 41 24 42 74 43 25 44 79 45 73 46 75 47 26 48
REMARK SMILES IDX 78 49 72 50 71 51 27 53 59 54 39 55 58 56 40 57 43 58 57 59
REMARK SMILES IDX 76 60 41 61 42 62 56 64 77 65 44 66 28 67 29 68 37 69 30 70
REMARK SMILES IDX 31 71 35 72 38 73 32 74 33 75 36 76 34 77 60 78 61 79 69 80
REMARK SMILES IDX 62 81 63 82 67 83 70 84 64 85 65 86 68 87 66 88 45 89 46 90
REMARK SMILES IDX 54 91 47 92 48 93 52 94 55 95 49 96 50 97 53 98 51 99
REMARK H PARENT 11 5 4 15 1 19 1 20 1 21 16 33 75 52 43 63
REMARK Flexibility Score: inf
ROOT
ATOM      1  C   UNL A   1      30.927  26.852  23.804  1.00  0.00     0.116 C 
ENDROOT
BRANCH   1   2
ATOM      2  N   UNL A   1      31.890  27.223  22.780  1.00  0.00    -0.352 N 
ATOM      3  C   UNL A   1      33.044  26.601  22.368  1.00  0.00     0.254 C 
ATOM      4  O   UNL A   1      33.698  27.118  21.463  1.00  0.00    -0.269 OA
ATOM      5  H   UNL A   1      31.681  28.058  22.304  1.00  0.00     0.163 HD
BRANCH   3   6
ATOM      6  C   UNL A   1      33.584  25.395  23.031  1.00  0.00     0.078 A 
ATOM      7  C   UNL A   1      34.759  23.026  24.041  1.00  0.00     0.074 A 
ATOM      8  C   UNL A   1      33.969  22.996  22.888  1.00  0.00     0.030 A 
ATOM      9  C   UNL A   1      34.834  24.244  24.740  1.00  0.00     0.182 A 
ATOM     10  C   UNL A   1      33.395  24.168  22.380  1.00  0.00     0.019 A 
ATOM     11  C   UNL A   1      34.241  25.409  24.255  1.00  0.00     0.173 A 
ATOM     12  F   UNL A   1      35.559  24.303  25.870  1.00  0.00    -0.201 F 
ATOM     13  F   UNL A   1      34.344  26.535  24.976  1.00  0.00    -0.203 F 
BRANCH   7  14
ATOM     14  N   UNL A   1      35.530  21.944  24.445  1.00  0.00    -0.376 N 
ATOM     15  H   UNL A   1      36.332  21.716  23.921  1.00  0.00     0.160 HD
BRANCH  14  16
ATOM     16  C   UNL A   1      35.202  21.126  25.619  1.00  0.00     0.183 C 
BRANCH  16  17
ATOM     17  C   UNL A   1      33.779  20.474  25.536  1.00  0.00     0.231 C 
BRANCH  17  18
ATOM     18  N   UNL A   1      33.278  20.106  26.876  1.00  0.00    -0.350 N 
ATOM     19  H   UNL A   1      32.518  19.432  26.781  1.00  0.00     0.345 HD
ATOM     20  H   UNL A   1      32.934  20.941  27.352  1.00  0.00     0.345 HD
ATOM     21  H   UNL A   1      34.035  19.691  27.420  1.00  0.00     0.345 HD
ENDBRANCH  17  18
BRANCH  17  22
ATOM     22  C   UNL A   1      33.590  19.301  24.576  1.00  0.00     0.011 A 
ATOM     23  C   UNL A   1      32.553  19.214  23.637  1.00  0.00     0.010 A 
ATOM     24  C   UNL A   1      34.508  18.234  24.623  1.00  0.00     0.010 A 
ATOM     25  C   UNL A   1      32.453  18.132  22.757  1.00  0.00     0.001 A 
ATOM     26  C   UNL A   1      34.404  17.145  23.754  1.00  0.00     0.001 A 
ATOM     27  C   UNL A   1      33.380  17.098  22.814  1.00  0.00     0.000 A 
ENDBRANCH  17  22
ENDBRANCH  16  17
ENDBRANCH  14  16
ENDBRANCH   7  14
ENDBRANCH   3   6
ENDBRANCH   1   2
BRANCH   1  28
ATOM     28  C   UNL A   1      31.105  27.606  25.120  1.00  0.00     0.023 C 
BRANCH  28  29
ATOM     29  C   UNL A   1      31.727  28.998  25.034  1.00  0.00     0.023 C 
BRANCH  29  30
ATOM     30  C   UNL A   1      32.568  29.443  26.226  1.00  0.00     0.116 C 
BRANCH  30  31
ATOM     31  N   UNL A   1      32.443  30.858  26.538  1.00  0.00    -0.352 N 
ATOM     32  C   UNL A   1      33.274  31.696  27.247  1.00  0.00     0.251 C 
ATOM     33  H   UNL A   1      31.631  31.287  26.185  1.00  0.00     0.163 HD
ATOM     34  O   UNL A   1      32.935  32.851  27.461  1.00  0.00    -0.269 OA
BRANCH  32  35
ATOM     35  C   UNL A   1      34.559  31.199  27.796  1.00  0.00     0.039 A 
ATOM     36  C   UNL A   1      35.594  32.118  28.002  1.00  0.00     0.014 A 
ATOM     37  C   UNL A   1      34.755  29.853  28.107  1.00  0.00     0.014 A 
ATOM     38  C   UNL A   1      36.784  31.704  28.605  1.00  0.00     0.010 A 
ATOM     39  C   UNL A   1      35.909  29.455  28.781  1.00  0.00     0.010 A 
ATOM     40  C   UNL A   1      36.930  30.380  29.048  1.00  0.00    -0.014 A 
BRANCH  40  41
ATOM     41  C   UNL A   1      38.127  29.959  29.822  1.00  0.00     0.031 A 
ATOM     42  C   UNL A   1      38.366  30.479  31.209  1.00  0.00     0.074 A 
ATOM     43  C   UNL A   1      39.031  29.143  29.247  1.00  0.00     0.049 A 
ATOM     44  N   UNL A   1      39.369  30.246  32.018  1.00  0.00    -0.248 NA
ATOM     45  C   UNL A   1      37.358  31.402  31.751  1.00  0.00     0.031 C 
ATOM     46  C   UNL A   1      38.937  28.604  27.890  1.00  0.00     0.029 A 
ATOM     47  N   UNL A   1      40.205  28.621  29.731  1.00  0.00    -0.354 N 
ATOM     48  C   UNL A   1      39.113  30.992  33.160  1.00  0.00     0.074 A 
ATOM     49  C   UNL A   1      37.896  31.736  32.915  1.00  0.00     0.031 C 
ATOM     50  C   UNL A   1      39.981  27.792  27.665  1.00  0.00     0.029 A 
ATOM     51  C   UNL A   1      40.839  27.781  28.847  1.00  0.00     0.049 A 
ATOM     52  H   UNL A   1      40.560  28.828  30.625  1.00  0.00     0.167 HD
ATOM     53  C   UNL A   1      39.813  31.031  34.319  1.00  0.00     0.037 A 
ATOM     54  C   UNL A   1      41.979  27.075  28.975  1.00  0.00     0.037 A 
ATOM     55  C   UNL A   1      41.019  30.283  34.565  1.00  0.00     0.049 A 
ATOM     56  C   UNL A   1      42.755  27.152  30.258  1.00  0.00     0.074 A 
ATOM     57  C   UNL A   1      41.782  30.230  35.718  1.00  0.00     0.029 A 
ATOM     58  N   UNL A   1      41.638  29.457  33.637  1.00  0.00    -0.354 N 
ATOM     59  N   UNL A   1      42.481  27.826  31.349  1.00  0.00    -0.248 NA
ATOM     60  C   UNL A   1      43.998  26.372  30.331  1.00  0.00     0.031 C 
ATOM     61  C   UNL A   1      42.885  29.407  35.475  1.00  0.00     0.029 A 
ATOM     62  C   UNL A   1      42.785  28.906  34.187  1.00  0.00     0.049 A 
ATOM     63  H   UNL A   1      41.312  29.289  32.723  1.00  0.00     0.167 HD
ATOM     64  C   UNL A   1      43.501  27.538  32.244  1.00  0.00     0.074 A 
ATOM     65  C   UNL A   1      44.399  26.620  31.572  1.00  0.00     0.031 C 
ATOM     66  C   UNL A   1      43.671  27.992  33.508  1.00  0.00     0.037 A 
BRANCH  53  67
ATOM     67  C   UNL A   1      39.279  31.905  35.418  1.00  0.00     0.064 A 
ATOM     68  C   UNL A   1      39.585  33.273  35.461  1.00  0.00     0.173 A 
ATOM     69  C   UNL A   1      38.483  31.379  36.447  1.00  0.00     0.173 A 
ATOM     70  F   UNL A   1      40.349  33.827  34.506  1.00  0.00    -0.203 F 
ATOM     71  C   UNL A   1      39.111  34.082  36.491  1.00  0.00     0.198 A 
ATOM     72  C   UNL A   1      37.984  32.196  37.458  1.00  0.00     0.198 A 
ATOM     73  F   UNL A   1      38.152  30.078  36.447  1.00  0.00    -0.203 F 
ATOM     74  F   UNL A   1      39.432  35.383  36.522  1.00  0.00    -0.200 F 
ATOM     75  C   UNL A   1      38.303  33.545  37.482  1.00  0.00     0.200 A 
ATOM     76  F   UNL A   1      37.180  31.681  38.398  1.00  0.00    -0.200 F 
ATOM     77  F   UNL A   1      37.826  34.331  38.458  1.00  0.00    -0.200 F 
ENDBRANCH  53  67
BRANCH  54  78
ATOM     78  C   UNL A   1      42.401  26.180  27.868  1.00  0.00     0.064 A 
ATOM     79  C   UNL A   1      43.293  26.610  26.875  1.00  0.00     0.173 A 
ATOM     80  C   UNL A   1      41.850  24.898  27.745  1.00  0.00     0.173 A 
ATOM     81  F   UNL A   1      43.840  27.832  26.947  1.00  0.00    -0.203 F 
ATOM     82  C   UNL A   1      43.596  25.798  25.784  1.00  0.00     0.198 A 
ATOM     83  C   UNL A   1      42.170  24.080  26.664  1.00  0.00     0.198 A 
ATOM     84  F   UNL A   1      41.006  24.439  28.679  1.00  0.00    -0.203 F 
ATOM     85  F   UNL A   1      44.419  26.246  24.825  1.00  0.00    -0.200 F 
ATOM     86  C   UNL A   1      43.034  24.535  25.678  1.00  0.00     0.200 A 
ATOM     87  F   UNL A   1      41.637  22.853  26.573  1.00  0.00    -0.200 F 
ATOM     88  F   UNL A   1      43.321  23.757  24.626  1.00  0.00    -0.200 F 
ENDBRANCH  54  78
BRANCH  66  89
ATOM     89  C   UNL A   1      44.864  27.498  34.273  1.00  0.00     0.064 A 
ATOM     90  C   UNL A   1      44.772  26.343  35.063  1.00  0.00     0.173 A 
ATOM     91  C   UNL A   1      46.067  28.218  34.297  1.00  0.00     0.173 A 
ATOM     92  F   UNL A   1      43.639  25.623  35.078  1.00  0.00    -0.203 F 
ATOM     93  C   UNL A   1      45.833  25.936  35.865  1.00  0.00     0.198 A 
ATOM     94  C   UNL A   1      47.137  27.795  35.082  1.00  0.00     0.198 A 
ATOM     95  F   UNL A   1      46.208  29.322  33.548  1.00  0.00    -0.203 F 
ATOM     96  F   UNL A   1      45.710  24.850  36.640  1.00  0.00    -0.200 F 
ATOM     97  C   UNL A   1      47.016  26.662  35.873  1.00  0.00     0.200 A 
ATOM     98  F   UNL A   1      48.285  28.485  35.073  1.00  0.00    -0.200 F 
ATOM     99  F   UNL A   1      48.039  26.270  36.645  1.00  0.00    -0.200 F 
ENDBRANCH  66  89
ENDBRANCH  40  41
ENDBRANCH  32  35
ENDBRANCH  30  31
ENDBRANCH  29  30
ENDBRANCH  28  29
ENDBRANCH   1  28
TORSDOF 16
ENDMDL
MODEL 2
REMARK VINA RESULT:     -12.7      2.237      3.310
REMARK SMILES [NH3+][C@@H](CNc1ccc(C(=O)NCCCCNC(=O)c2ccc(-c3c4nc(c(-c5c(F)c(F)c(F)c(F)c5F)c5ccc([nH]5)c(-c5c(F)c(F)c(F)c(F)c5F)c5nc(c(-c6c(F)c(F)c(F)c(F)c6F)c6ccc3[nH]6)C=C5)C=C4)cc2)c(F)c1F)c1ccccc1
REMARK SMILES IDX 12 1 11 2 9 3 10 4 8 6 5 7 6 8 84 9 7 10 82 11 85 12 83 13
REMARK SMILES IDX 4 14 3 16 2 17 1 18 86 22 87 23 91 24 88 25 90 26 89 27
REMARK SMILES IDX 13 28 14 29 15 30 16 31 17 32 18 34 19 35 20 36 81 37 21 38
REMARK SMILES IDX 80 39 22 40 23 41 24 42 74 43 25 44 79 45 73 46 75 47 26 48
REMARK SMILES IDX 78 49 72 50 71 51 27 53 59 54 39 55 58 56 40 57 43 58 57 59
REMARK SMILES IDX 76 60 41 61 42 62 56 64 77 65 44 66 28 67 29 68 37 69 30 70
REMARK SMILES IDX 31 71 35 72 38 73 32 74 33 75 36 76 34 77 60 78 61 79 69 80
REMARK SMILES IDX 62 81 63 82 67 83 70 84 64 85 65 86 68 87 66 88 45 89 46 90
REMARK SMILES IDX 54 91 47 92 48 93 52 94 55 95 49 96 50 97 53 98 51 99
REMARK H PARENT 11 5 4 15 1 19 1 20 1 21 16 33 75 52 43 63
REMARK Flexibility Score: inf
ROOT
ATOM      1  C   UNL A   1      32.859  29.984  26.494  1.00  0.00     0.116 C 
ENDROOT
BRANCH   1   2
ATOM      2  N   UNL A   1      33.155  29.802  25.082  1.00  0.00    -0.352 N 
ATOM      3  C   UNL A   1      33.092  28.681  24.291  1.00  0.00     0.254 C 
ATOM      4  O   UNL A   1      33.393  28.784  23.102  1.00  0.00    -0.269 OA
ATOM      5  H   UNL A   1      33.452  30.617  24.617  1.00  0.00     0.163 HD
BRANCH   3   6
ATOM      6  C   UNL A   1      32.773  27.340  24.826  1.00  0.00     0.078 A 
ATOM      7  C   UNL A   1      32.303  24.858  26.102  1.00  0.00     0.074 A 
ATOM      8  C   UNL A   1      33.603  25.355  25.962  1.00  0.00     0.030 A 
ATOM      9  C   UNL A   1      31.268  25.572  25.473  1.00  0.00     0.182 A 
ATOM     10  C   UNL A   1      33.837  26.587  25.341  1.00  0.00     0.019 A 
ATOM     11  C   UNL A   1      31.499  26.786  24.827  1.00  0.00     0.173 A 
ATOM     12  F   UNL A   1      30.010  25.108  25.559  1.00  0.00    -0.201 F 
ATOM     13  F   UNL A   1      30.468  27.412  24.239  1.00  0.00    -0.203 F 
BRANCH   7  14
ATOM     14  N   UNL A   1      32.004  23.767  26.908  1.00  0.00    -0.376 N 
ATOM     15  H   UNL A   1      31.083  23.667  27.242  1.00  0.00     0.160 HD
BRANCH  14  16
ATOM     16  C   UNL A   1      33.001  22.757  27.283  1.00  0.00     0.183 C 
BRANCH  16  17
ATOM     17  C   UNL A   1      33.319  21.748  26.126  1.00  0.00     0.231 C 
BRANCH  17  18
ATOM     18  N   UNL A   1      33.377  20.358  26.626  1.00  0.00    -0.350 N 
ATOM     19  H   UNL A   1      32.509  19.877  26.392  1.00  0.00     0.345 HD
ATOM     20  H   UNL A   1      33.499  20.367  27.639  1.00  0.00     0.345 HD
ATOM     21  H   UNL A   1      34.163  19.873  26.192  1.00  0.00     0.345 HD
ENDBRANCH  17  18
BRANCH  17  22
ATOM     22  C   UNL A   1      34.540  22.030  25.252  1.00  0.00     0.011 A 
ATOM     23  C   UNL A   1      35.854  21.697  25.609  1.00  0.00     0.010 A 
ATOM     24  C   UNL A   1      34.349  22.659  24.007  1.00  0.00     0.010 A 
ATOM     25  C   UNL A   1      36.929  21.945  24.749  1.00  0.00     0.001 A 
ATOM     26  C   UNL A   1      35.423  22.920  23.151  1.00  0.00     0.001 A 
ATOM     27  C   UNL A   1      36.713  22.555  23.519  1.00  0.00     0.000 A 
ENDBRANCH  17  22
ENDBRANCH  16  17
ENDBRANCH  14  16
ENDBRANCH   7  14
ENDBRANCH   3   6
ENDBRANCH   1   2
BRANCH   1  28
ATOM     28  C   UNL A   1      31.512  30.654  26.760  1.00  0.00     0.023 C 
BRANCH  28  29
ATOM     29  C   UNL A   1      31.477  32.179  26.679  1.00  0.00     0.023 C 
BRANCH  29  30
ATOM     30  C   UNL A   1      32.694  32.919  27.227  1.00  0.00     0.116 C 
BRANCH  30  31
ATOM     31  N   UNL A   1      32.401  34.263  27.697  1.00  0.00    -0.352 N 
ATOM     32  C   UNL A   1      33.017  35.029  28.661  1.00  0.00     0.251 C 
ATOM     33  H   UNL A   1      31.638  34.698  27.253  1.00  0.00     0.163 HD
ATOM     34  O   UNL A   1      32.553  36.121  28.958  1.00  0.00    -0.269 OA
BRANCH  32  35
ATOM     35  C   UNL A   1      34.212  34.524  29.379  1.00  0.00     0.039 A 
ATOM     36  C   UNL A   1      34.031  33.916  30.626  1.00  0.00     0.014 A 
ATOM     37  C   UNL A   1      35.496  34.639  28.844  1.00  0.00     0.014 A 
ATOM     38  C   UNL A   1      35.120  33.344  31.287  1.00  0.00     0.010 A 
ATOM     39  C   UNL A   1      36.568  33.999  29.464  1.00  0.00     0.010 A 
ATOM     40  C   UNL A   1      36.389  33.334  30.686  1.00  0.00    -0.014 A 
BRANCH  40  41
ATOM     41  C   UNL A   1      37.524  32.604  31.305  1.00  0.00     0.031 A 
ATOM     42  C   UNL A   1      38.011  32.964  32.678  1.00  0.00     0.074 A 
ATOM     43  C   UNL A   1      38.155  31.645  30.601  1.00  0.00     0.049 A 
ATOM     44  N   UNL A   1      39.007  32.457  33.362  1.00  0.00    -0.248 NA
ATOM     45  C   UNL A   1      37.302  34.053  33.366  1.00  0.00     0.031 C 
ATOM     46  C   UNL A   1      37.807  31.232  29.241  1.00  0.00     0.029 A 
ATOM     47  N   UNL A   1      39.218  30.840  30.930  1.00  0.00    -0.354 N 
ATOM     48  C   UNL A   1      39.043  33.165  34.556  1.00  0.00     0.074 A 
ATOM     49  C   UNL A   1      38.014  34.179  34.477  1.00  0.00     0.031 C 
ATOM     50  C   UNL A   1      38.608  30.222  28.869  1.00  0.00     0.029 A 
ATOM     51  C   UNL A   1      39.551  29.939  29.948  1.00  0.00     0.049 A 
ATOM     52  H   UNL A   1      39.696  30.902  31.788  1.00  0.00     0.167 HD
ATOM     53  C   UNL A   1      39.842  32.969  35.631  1.00  0.00     0.037 A 
ATOM     54  C   UNL A   1      40.503  28.987  29.920  1.00  0.00     0.037 A 
ATOM     55  C   UNL A   1      40.860  31.953  35.711  1.00  0.00     0.049 A 
ATOM     56  C   UNL A   1      41.397  28.802  31.113  1.00  0.00     0.074 A 
ATOM     57  C   UNL A   1      41.699  31.653  36.771  1.00  0.00     0.029 A 
ATOM     58  N   UNL A   1      41.179  31.072  34.688  1.00  0.00    -0.354 N 
ATOM     59  N   UNL A   1      41.394  29.447  32.254  1.00  0.00    -0.248 NA
ATOM     60  C   UNL A   1      42.427  27.758  31.016  1.00  0.00     0.031 C 
ATOM     61  C   UNL A   1      42.553  30.620  36.374  1.00  0.00     0.029 A 
ATOM     62  C   UNL A   1      42.214  30.241  35.084  1.00  0.00     0.049 A 
ATOM     63  H   UNL A   1      40.735  31.042  33.809  1.00  0.00     0.167 HD
ATOM     64  C   UNL A   1      42.402  28.877  33.019  1.00  0.00     0.074 A 
ATOM     65  C   UNL A   1      42.993  27.827  32.215  1.00  0.00     0.031 C 
ATOM     66  C   UNL A   1      42.794  29.197  34.275  1.00  0.00     0.037 A 
BRANCH  53  67
ATOM     67  C   UNL A   1      39.634  33.866  36.817  1.00  0.00     0.064 A 
ATOM     68  C   UNL A   1      38.806  33.474  37.879  1.00  0.00     0.173 A 
ATOM     69  C   UNL A   1      40.236  35.132  36.889  1.00  0.00     0.173 A 
ATOM     70  F   UNL A   1      38.199  32.277  37.858  1.00  0.00    -0.203 F 
ATOM     71  C   UNL A   1      38.592  34.313  38.969  1.00  0.00     0.198 A 
ATOM     72  C   UNL A   1      40.045  35.956  37.995  1.00  0.00     0.198 A 
ATOM     73  F   UNL A   1      41.045  35.552  35.904  1.00  0.00    -0.203 F 
ATOM     74  F   UNL A   1      37.780  33.924  39.963  1.00  0.00    -0.200 F 
ATOM     75  C   UNL A   1      39.219  35.548  39.031  1.00  0.00     0.200 A 
ATOM     76  F   UNL A   1      40.675  37.136  38.066  1.00  0.00    -0.200 F 
ATOM     77  F   UNL A   1      39.032  36.344  40.094  1.00  0.00    -0.200 F 
ENDBRANCH  53  67
BRANCH  54  78
ATOM     78  C   UNL A   1      40.597  28.095  28.737  1.00  0.00     0.064 A 
ATOM     79  C   UNL A   1      41.347  28.450  27.607  1.00  0.00     0.173 A 
ATOM     80  C   UNL A   1      39.867  26.900  28.691  1.00  0.00     0.173 A 
ATOM     81  F   UNL A   1      42.056  29.588  27.601  1.00  0.00    -0.203 F 
ATOM     82  C   UNL A   1      41.339  27.654  26.463  1.00  0.00     0.198 A 
ATOM     83  C   UNL A   1      39.876  26.096  27.554  1.00  0.00     0.198 A 
ATOM     84  F   UNL A   1      39.150  26.513  29.755  1.00  0.00    -0.203 F 
ATOM     85  F   UNL A   1      42.028  28.036  25.378  1.00  0.00    -0.200 F 
ATOM     86  C   UNL A   1      40.603  26.480  26.436  1.00  0.00     0.200 A 
ATOM     87  F   UNL A   1      39.176  24.953  27.538  1.00  0.00    -0.200 F 
ATOM     88  F   UNL A   1      40.590  25.718  25.334  1.00  0.00    -0.200 F 
ENDBRANCH  54  78
BRANCH  66  89
ATOM     89  C   UNL A   1      43.909  28.397  34.883  1.00  0.00     0.064 A 
ATOM     90  C   UNL A   1      43.630  27.234  35.616  1.00  0.00     0.173 A 
ATOM     91  C   UNL A   1      45.241  28.831  34.818  1.00  0.00     0.173 A 
ATOM     92  F   UNL A   1      42.371  26.782  35.713  1.00  0.00    -0.203 F 
ATOM     93  C   UNL A   1      44.640  26.546  36.280  1.00  0.00     0.198 A 
ATOM     94  C   UNL A   1      46.254  28.126  35.463  1.00  0.00     0.198 A 
ATOM     95  F   UNL A   1      45.560  29.930  34.118  1.00  0.00    -0.203 F 
ATOM     96  F   UNL A   1      44.346  25.458  37.005  1.00  0.00    -0.200 F 
ATOM     97  C   UNL A   1      45.952  26.991  36.202  1.00  0.00     0.200 A 
ATOM     98  F   UNL A   1      47.523  28.545  35.370  1.00  0.00    -0.200 F 
ATOM     99  F   UNL A   1      46.926  26.327  36.839  1.00  0.00    -0.200 F 
ENDBRANCH  66  89
ENDBRANCH  40  41
ENDBRANCH  32  35
ENDBRANCH  30  31
ENDBRANCH  29  30
ENDBRANCH  28  29
ENDBRANCH   1  28
TORSDOF 16
ENDMDL
MODEL 3
REMARK VINA RESULT:     -12.7      2.049      7.896
REMARK SMILES [NH3+][C@@H](CNc1ccc(C(=O)NCCCCNC(=O)c2ccc(-c3c4nc(c(-c5c(F)c(F)c(F)c(F)c5F)c5ccc([nH]5)c(-c5c(F)c(F)c(F)c(F)c5F)c5nc(c(-c6c(F)c(F)c(F)c(F)c6F)c6ccc3[nH]6)C=C5)C=C4)cc2)c(F)c1F)c1ccccc1
REMARK SMILES IDX 12 1 11 2 9 3 10 4 8 6 5 7 6 8 84 9 7 10 82 11 85 12 83 13
REMARK SMILES IDX 4 14 3 16 2 17 1 18 86 22 87 23 91 24 88 25 90 26 89 27
REMARK SMILES IDX 13 28 14 29 15 30 16 31 17 32 18 34 19 35 20 36 81 37 21 38
REMARK SMILES IDX 80 39 22 40 23 41 24 42 74 43 25 44 79 45 73 46 75 47 26 48
REMARK SMILES IDX 78 49 72 50 71 51 27 53 59 54 39 55 58 56 40 57 43 58 57 59
REMARK SMILES IDX 76 60 41 61 42 62 56 64 77 65 44 66 28 67 29 68 37 69 30 70
REMARK SMILES IDX 31 71 35 72 38 73 32 74 33 75 36 76 34 77 60 78 61 79 69 80
REMARK SMILES IDX 62 81 63 82 67 83 70 84 64 85 65 86 68 87 66 88 45 89 46 90
REMARK SMILES IDX 54 91 47 92 48 93 52 94 55 95 49 96 50 97 53 98 51 99
REMARK H PARENT 11 5 4 15 1 19 1 20 1 21 16 33 75 52 43 63
REMARK Flexibility Score: inf
ROOT
ATOM      1  C   UNL A   1      32.967  29.944  26.277  1.00  0.00     0.116 C 
ENDROOT
BRANCH   1   2
ATOM      2  N   UNL A   1      33.430  29.809  24.907  1.00  0.00    -0.352 N 
ATOM      3  C   UNL A   1      33.310  28.767  24.018  1.00  0.00     0.254 C 
ATOM      4  O   UNL A   1      33.790  28.897  22.893  1.00  0.00    -0.269 OA
ATOM      5  H   UNL A   1      33.911  30.593  24.557  1.00  0.00     0.163 HD
BRANCH   3   6
ATOM      6  C   UNL A   1      32.718  27.464  24.388  1.00  0.00     0.078 A 
ATOM      7  C   UNL A   1      31.568  24.911  24.802  1.00  0.00     0.074 A 
ATOM      8  C   UNL A   1      30.926  25.863  24.003  1.00  0.00     0.030 A 
ATOM      9  C   UNL A   1      32.725  25.319  25.487  1.00  0.00     0.182 A 
ATOM     10  C   UNL A   1      31.497  27.122  23.788  1.00  0.00     0.019 A 
ATOM     11  C   UNL A   1      33.284  26.583  25.300  1.00  0.00     0.173 A 
ATOM     12  F   UNL A   1      33.352  24.441  26.289  1.00  0.00    -0.201 F 
ATOM     13  F   UNL A   1      34.386  26.911  25.991  1.00  0.00    -0.203 F 
BRANCH   7  14
ATOM     14  N   UNL A   1      31.160  23.585  24.855  1.00  0.00    -0.376 N 
ATOM     15  H   UNL A   1      30.512  23.319  25.546  1.00  0.00     0.160 HD
BRANCH  14  16
ATOM     16  C   UNL A   1      31.654  22.562  23.925  1.00  0.00     0.183 C 
BRANCH  16  17
ATOM     17  C   UNL A   1      32.624  21.533  24.601  1.00  0.00     0.231 C 
BRANCH  17  18
ATOM     18  N   UNL A   1      32.307  21.357  26.034  1.00  0.00    -0.350 N 
ATOM     19  H   UNL A   1      32.756  20.509  26.379  1.00  0.00     0.345 HD
ATOM     20  H   UNL A   1      31.296  21.279  26.150  1.00  0.00     0.345 HD
ATOM     21  H   UNL A   1      32.648  22.162  26.559  1.00  0.00     0.345 HD
ENDBRANCH  17  18
BRANCH  17  22
ATOM     22  C   UNL A   1      34.126  21.754  24.432  1.00  0.00     0.011 A 
ATOM     23  C   UNL A   1      35.109  20.964  25.041  1.00  0.00     0.010 A 
ATOM     24  C   UNL A   1      34.565  22.811  23.612  1.00  0.00     0.010 A 
ATOM     25  C   UNL A   1      36.472  21.190  24.818  1.00  0.00     0.001 A 
ATOM     26  C   UNL A   1      35.926  23.048  23.396  1.00  0.00     0.001 A 
ATOM     27  C   UNL A   1      36.879  22.231  23.993  1.00  0.00     0.000 A 
ENDBRANCH  17  22
ENDBRANCH  16  17
ENDBRANCH  14  16
ENDBRANCH   7  14
ENDBRANCH   3   6
ENDBRANCH   1   2
BRANCH   1  28
ATOM     28  C   UNL A   1      31.570  30.549  26.399  1.00  0.00     0.023 C 
BRANCH  28  29
ATOM     29  C   UNL A   1      31.492  32.065  26.570  1.00  0.00     0.023 C 
BRANCH  29  30
ATOM     30  C   UNL A   1      32.648  32.727  27.314  1.00  0.00     0.116 C 
BRANCH  30  31
ATOM     31  N   UNL A   1      32.397  34.113  27.675  1.00  0.00    -0.352 N 
ATOM     32  C   UNL A   1      33.036  34.934  28.577  1.00  0.00     0.251 C 
ATOM     33  H   UNL A   1      31.646  34.534  27.197  1.00  0.00     0.163 HD
ATOM     34  O   UNL A   1      32.606  36.060  28.786  1.00  0.00    -0.269 OA
BRANCH  32  35
ATOM     35  C   UNL A   1      34.216  34.451  29.335  1.00  0.00     0.039 A 
ATOM     36  C   UNL A   1      34.008  33.876  30.593  1.00  0.00     0.014 A 
ATOM     37  C   UNL A   1      35.511  34.556  28.825  1.00  0.00     0.014 A 
ATOM     38  C   UNL A   1      35.084  33.325  31.293  1.00  0.00     0.010 A 
ATOM     39  C   UNL A   1      36.571  33.936  29.485  1.00  0.00     0.010 A 
ATOM     40  C   UNL A   1      36.366  33.303  30.720  1.00  0.00    -0.014 A 
BRANCH  40  41
ATOM     41  C   UNL A   1      37.489  32.592  31.383  1.00  0.00     0.031 A 
ATOM     42  C   UNL A   1      38.203  31.469  30.689  1.00  0.00     0.074 A 
ATOM     43  C   UNL A   1      37.831  32.927  32.642  1.00  0.00     0.049 A 
ATOM     44  N   UNL A   1      39.182  30.716  31.126  1.00  0.00    -0.248 NA
ATOM     45  C   UNL A   1      37.741  31.130  29.335  1.00  0.00     0.031 C 
ATOM     46  C   UNL A   1      37.186  33.969  33.441  1.00  0.00     0.029 A 
ATOM     47  N   UNL A   1      38.807  32.430  33.470  1.00  0.00    -0.354 N 
ATOM     48  C   UNL A   1      39.451  29.817  30.103  1.00  0.00     0.074 A 
ATOM     49  C   UNL A   1      38.491  30.074  29.051  1.00  0.00     0.031 C 
ATOM     50  C   UNL A   1      37.811  34.067  34.624  1.00  0.00     0.029 A 
ATOM     51  C   UNL A   1      38.877  33.070  34.684  1.00  0.00     0.049 A 
ATOM     52  H   UNL A   1      39.400  31.685  33.219  1.00  0.00     0.167 HD
ATOM     53  C   UNL A   1      40.428  28.882  30.034  1.00  0.00     0.037 A 
ATOM     54  C   UNL A   1      39.710  32.881  35.726  1.00  0.00     0.037 A 
ATOM     55  C   UNL A   1      41.389  28.634  31.078  1.00  0.00     0.049 A 
ATOM     56  C   UNL A   1      40.770  31.822  35.641  1.00  0.00     0.074 A 
ATOM     57  C   UNL A   1      42.437  27.731  31.089  1.00  0.00     0.029 A 
ATOM     58  N   UNL A   1      41.414  29.292  32.300  1.00  0.00    -0.354 N 
ATOM     59  N   UNL A   1      41.045  31.007  34.651  1.00  0.00    -0.248 NA
ATOM     60  C   UNL A   1      41.637  31.653  36.816  1.00  0.00     0.031 C 
ATOM     61  C   UNL A   1      43.071  27.813  32.332  1.00  0.00     0.029 A 
ATOM     62  C   UNL A   1      42.450  28.801  33.079  1.00  0.00     0.049 A 
ATOM     63  H   UNL A   1      40.789  30.002  32.573  1.00  0.00     0.167 HD
ATOM     64  C   UNL A   1      42.125  30.245  35.071  1.00  0.00     0.074 A 
ATOM     65  C   UNL A   1      42.463  30.698  36.406  1.00  0.00     0.031 C 
ATOM     66  C   UNL A   1      42.778  29.261  34.406  1.00  0.00     0.037 A 
BRANCH  53  67
ATOM     67  C   UNL A   1      40.514  28.067  28.776  1.00  0.00     0.064 A 
ATOM     68  C   UNL A   1      39.852  26.835  28.671  1.00  0.00     0.173 A 
ATOM     69  C   UNL A   1      41.279  28.495  27.680  1.00  0.00     0.173 A 
ATOM     70  F   UNL A   1      39.114  26.374  29.693  1.00  0.00    -0.203 F 
ATOM     71  C   UNL A   1      39.949  26.065  27.515  1.00  0.00     0.198 A 
ATOM     72  C   UNL A   1      41.348  27.738  26.513  1.00  0.00     0.198 A 
ATOM     73  F   UNL A   1      41.924  29.671  27.724  1.00  0.00    -0.203 F 
ATOM     74  F   UNL A   1      39.323  24.882  27.445  1.00  0.00    -0.200 F 
ATOM     75  C   UNL A   1      40.688  26.521  26.434  1.00  0.00     0.200 A 
ATOM     76  F   UNL A   1      42.039  28.195  25.459  1.00  0.00    -0.200 F 
ATOM     77  F   UNL A   1      40.758  25.791  25.312  1.00  0.00    -0.200 F 
ENDBRANCH  53  67
BRANCH  54  78
ATOM     78  C   UNL A   1      39.603  33.777  36.905  1.00  0.00     0.064 A 
ATOM     79  C   UNL A   1      38.821  33.438  38.018  1.00  0.00     0.173 A 
ATOM     80  C   UNL A   1      40.227  35.032  36.900  1.00  0.00     0.173 A 
ATOM     81  F   UNL A   1      38.198  32.251  38.065  1.00  0.00    -0.203 F 
ATOM     82  C   UNL A   1      38.643  34.334  39.070  1.00  0.00     0.198 A 
ATOM     83  C   UNL A   1      40.065  35.919  37.961  1.00  0.00     0.198 A 
ATOM     84  F   UNL A   1      40.998  35.391  35.864  1.00  0.00    -0.203 F 
ATOM     85  F   UNL A   1      37.855  34.005  40.103  1.00  0.00    -0.200 F 
ATOM     86  C   UNL A   1      39.264  35.574  39.040  1.00  0.00     0.200 A 
ATOM     87  F   UNL A   1      40.679  37.110  37.937  1.00  0.00    -0.200 F 
ATOM     88  F   UNL A   1      39.088  36.438  40.049  1.00  0.00    -0.200 F 
ENDBRANCH  54  78
BRANCH  66  89
ATOM     89  C   UNL A   1      43.941  28.608  35.092  1.00  0.00     0.064 A 
ATOM     90  C   UNL A   1      45.242  29.098  34.904  1.00  0.00     0.173 A 
ATOM     91  C   UNL A   1      43.780  27.444  35.857  1.00  0.00     0.173 A 
ATOM     92  F   UNL A   1      45.449  30.205  34.175  1.00  0.00    -0.203 F 
ATOM     93  C   UNL A   1      46.342  28.436  35.441  1.00  0.00     0.198 A 
ATOM     94  C   UNL A   1      44.880  26.797  36.414  1.00  0.00     0.198 A 
ATOM     95  F   UNL A   1      42.554  26.944  36.076  1.00  0.00    -0.203 F 
ATOM     96  F   UNL A   1      47.578  28.901  35.218  1.00  0.00    -0.200 F 
ATOM     97  C   UNL A   1      46.160  27.286  36.196  1.00  0.00     0.200 A 
ATOM     98  F   UNL A   1      44.702  25.699  37.160  1.00  0.00    -0.200 F 
ATOM     99  F   UNL A   1      47.219  26.649  36.715  1.00  0.00    -0.200 F 
ENDBRANCH  66  89
ENDBRANCH  40  41
ENDBRANCH  32  35
ENDBRANCH  30  31
ENDBRANCH  29  30
ENDBRANCH  28  29
ENDBRANCH   1  28
TORSDOF 16
ENDMDL
