MODEL 1
REMARK VINA RESULT:     -12.5      0.000      0.000
REMARK SMILES O=C(NCCCCNC(=O)[C@]1(CCc2ccccc2)C[C@H]2CC[C@@H]1O2)c1ccc(-c2c3nc(c(-c4c(F)c(F)c(F)c(F)c4F)c4ccc([nH]4)c(-c4c(F)c(F)c(F)c(F)c4F)c4nc(c(-c5c(F)c(F)c(F)c(F)c5F)c5ccc2[nH]5)C=C4)C=C3)cc1
REMARK SMILES IDX 6 1 5 2 4 3 3 4 1 5 2 6 26 8 27 9 88 10 28 11 87 12 29 13
REMARK SMILES IDX 30 14 31 15 81 16 32 17 86 18 80 19 82 20 33 21 85 22 79 23
REMARK SMILES IDX 78 24 34 26 66 27 46 28 65 29 47 30 50 31 64 32 83 33 48 34
REMARK SMILES IDX 49 35 63 37 84 38 51 39 35 40 36 41 44 42 37 43 38 44 42 45
REMARK SMILES IDX 45 46 39 47 40 48 43 49 41 50 67 51 68 52 76 53 69 54 70 55
REMARK SMILES IDX 74 56 77 57 71 58 72 59 75 60 73 61 52 62 53 63 61 64 54 65
REMARK SMILES IDX 55 66 59 67 62 68 56 69 57 70 60 71 58 72 7 73 8 74 9 75
REMARK SMILES IDX 10 77 11 78 20 79 24 80 21 81 23 82 25 83 22 84 12 85 13 86
REMARK SMILES IDX 14 87 15 88 19 89 16 90 18 91 17 92
REMARK H PARENT 3 7 82 25 50 36 8 76
REMARK Flexibility Score: inf
ROOT
ATOM      1  C   UNL A   1      36.590  19.990  24.996  1.00  0.00     0.023 C 
ENDROOT
BRANCH   1   2
ATOM      2  C   UNL A   1      38.029  19.581  24.704  1.00  0.00     0.023 C 
BRANCH   2   3
ATOM      3  C   UNL A   1      39.036  20.025  25.755  1.00  0.00     0.116 C 
BRANCH   3   4
ATOM      4  N   UNL A   1      40.132  19.079  25.913  1.00  0.00    -0.352 N 
ATOM      5  O   UNL A   1      42.287  18.414  26.068  1.00  0.00    -0.269 OA
ATOM      6  C   UNL A   1      41.466  19.323  26.128  1.00  0.00     0.251 C 
ATOM      7  H   UNL A   1      39.880  18.128  25.857  1.00  0.00     0.163 HD
BRANCH   6   8
ATOM      8  C   UNL A   1      41.905  20.701  26.419  1.00  0.00     0.039 A 
ATOM      9  C   UNL A   1      42.056  21.618  25.378  1.00  0.00     0.014 A 
ATOM     10  C   UNL A   1      42.177  21.073  27.737  1.00  0.00     0.014 A 
ATOM     11  C   UNL A   1      42.618  22.859  25.633  1.00  0.00     0.010 A 
ATOM     12  C   UNL A   1      42.651  22.359  28.006  1.00  0.00     0.010 A 
ATOM     13  C   UNL A   1      42.894  23.253  26.953  1.00  0.00    -0.014 A 
BRANCH  13  14
ATOM     14  C   UNL A   1      43.328  24.648  27.201  1.00  0.00     0.031 A 
ATOM     15  C   UNL A   1      42.393  25.671  27.776  1.00  0.00     0.074 A 
ATOM     16  C   UNL A   1      44.605  24.967  26.914  1.00  0.00     0.049 A 
ATOM     17  N   UNL A   1      42.627  26.929  28.054  1.00  0.00    -0.248 NA
ATOM     18  C   UNL A   1      41.019  25.238  28.073  1.00  0.00     0.031 C 
ATOM     19  C   UNL A   1      45.588  24.048  26.333  1.00  0.00     0.029 A 
ATOM     20  N   UNL A   1      45.302  26.134  27.081  1.00  0.00    -0.354 N 
ATOM     21  C   UNL A   1      41.431  27.443  28.535  1.00  0.00     0.074 A 
ATOM     22  C   UNL A   1      40.464  26.365  28.502  1.00  0.00     0.031 C 
ATOM     23  C   UNL A   1      46.769  24.671  26.232  1.00  0.00     0.029 A 
ATOM     24  C   UNL A   1      46.611  26.051  26.674  1.00  0.00     0.049 A 
ATOM     25  H   UNL A   1      44.904  26.953  27.458  1.00  0.00     0.167 HD
ATOM     26  C   UNL A   1      41.173  28.701  28.964  1.00  0.00     0.037 A 
ATOM     27  C   UNL A   1      47.572  26.990  26.632  1.00  0.00     0.037 A 
ATOM     28  C   UNL A   1      42.153  29.756  29.020  1.00  0.00     0.049 A 
ATOM     29  C   UNL A   1      47.246  28.376  27.106  1.00  0.00     0.074 A 
ATOM     30  C   UNL A   1      42.006  31.045  29.503  1.00  0.00     0.029 A 
ATOM     31  N   UNL A   1      43.461  29.644  28.571  1.00  0.00    -0.354 N 
ATOM     32  N   UNL A   1      46.123  28.835  27.602  1.00  0.00    -0.248 NA
ATOM     33  C   UNL A   1      48.316  29.376  27.006  1.00  0.00     0.031 C 
ATOM     34  C   UNL A   1      43.211  31.728  29.303  1.00  0.00     0.029 A 
ATOM     35  C   UNL A   1      44.122  30.852  28.736  1.00  0.00     0.049 A 
ATOM     36  H   UNL A   1      43.861  28.828  28.192  1.00  0.00     0.167 HD
ATOM     37  C   UNL A   1      46.349  30.174  27.876  1.00  0.00     0.074 A 
ATOM     38  C   UNL A   1      47.728  30.445  27.522  1.00  0.00     0.031 C 
ATOM     39  C   UNL A   1      45.491  31.100  28.366  1.00  0.00     0.037 A 
BRANCH  26  40
ATOM     40  C   UNL A   1      39.775  29.030  29.401  1.00  0.00     0.064 A 
ATOM     41  C   UNL A   1      38.801  29.466  28.493  1.00  0.00     0.173 A 
ATOM     42  C   UNL A   1      39.382  28.809  30.731  1.00  0.00     0.173 A 
ATOM     43  F   UNL A   1      39.128  29.699  27.212  1.00  0.00    -0.203 F 
ATOM     44  C   UNL A   1      37.485  29.673  28.899  1.00  0.00     0.198 A 
ATOM     45  C   UNL A   1      38.062  28.997  31.129  1.00  0.00     0.198 A 
ATOM     46  F   UNL A   1      40.276  28.386  31.637  1.00  0.00    -0.203 F 
ATOM     47  F   UNL A   1      36.573  30.106  28.018  1.00  0.00    -0.200 F 
ATOM     48  C   UNL A   1      37.114  29.429  30.214  1.00  0.00     0.200 A 
ATOM     49  F   UNL A   1      37.703  28.748  32.397  1.00  0.00    -0.200 F 
ATOM     50  F   UNL A   1      35.843  29.608  30.598  1.00  0.00    -0.200 F 
ENDBRANCH  26  40
BRANCH  27  51
ATOM     51  C   UNL A   1      48.913  26.653  26.093  1.00  0.00     0.064 A 
ATOM     52  C   UNL A   1      49.250  26.932  24.763  1.00  0.00     0.173 A 
ATOM     53  C   UNL A   1      49.888  26.049  26.902  1.00  0.00     0.173 A 
ATOM     54  F   UNL A   1      48.346  27.493  23.946  1.00  0.00    -0.203 F 
ATOM     55  C   UNL A   1      50.505  26.601  24.256  1.00  0.00     0.198 A 
ATOM     56  C   UNL A   1      51.152  25.750  26.404  1.00  0.00     0.198 A 
ATOM     57  F   UNL A   1      49.617  25.769  28.186  1.00  0.00    -0.203 F 
ATOM     58  F   UNL A   1      50.788  26.836  22.968  1.00  0.00    -0.200 F 
ATOM     59  C   UNL A   1      51.458  26.017  25.078  1.00  0.00     0.200 A 
ATOM     60  F   UNL A   1      52.074  25.203  27.208  1.00  0.00    -0.200 F 
ATOM     61  F   UNL A   1      52.666  25.706  24.591  1.00  0.00    -0.200 F 
ENDBRANCH  27  51
BRANCH  39  62
ATOM     62  C   UNL A   1      46.028  32.488  28.547  1.00  0.00     0.064 A 
ATOM     63  C   UNL A   1      46.665  32.871  29.737  1.00  0.00     0.173 A 
ATOM     64  C   UNL A   1      45.918  33.436  27.521  1.00  0.00     0.173 A 
ATOM     65  F   UNL A   1      46.775  32.004  30.754  1.00  0.00    -0.203 F 
ATOM     66  C   UNL A   1      47.149  34.166  29.901  1.00  0.00     0.198 A 
ATOM     67  C   UNL A   1      46.428  34.720  27.678  1.00  0.00     0.198 A 
ATOM     68  F   UNL A   1      45.319  33.114  26.364  1.00  0.00    -0.203 F 
ATOM     69  F   UNL A   1      47.708  34.527  31.064  1.00  0.00    -0.200 F 
ATOM     70  C   UNL A   1      47.035  35.087  28.870  1.00  0.00     0.200 A 
ATOM     71  F   UNL A   1      46.327  35.607  26.678  1.00  0.00    -0.200 F 
ATOM     72  F   UNL A   1      47.503  36.333  29.029  1.00  0.00    -0.200 F 
ENDBRANCH  39  62
ENDBRANCH  13  14
ENDBRANCH   6   8
ENDBRANCH   3   4
ENDBRANCH   2   3
ENDBRANCH   1   2
BRANCH   1  73
ATOM     73  C   UNL A   1      36.415  21.422  25.490  1.00  0.00     0.116 C 
BRANCH  73  74
ATOM     74  N   UNL A   1      35.397  21.526  26.511  1.00  0.00    -0.356 N 
ATOM     75  C   UNL A   1      34.102  21.911  26.480  1.00  0.00     0.228 C 
ATOM     76  H   UNL A   1      35.709  21.264  27.406  1.00  0.00     0.163 HD
ATOM     77  O   UNL A   1      33.616  22.193  27.585  1.00  0.00    -0.274 OA
BRANCH  75  78
ATOM     78  C   UNL A   1      33.236  22.076  25.213  1.00  0.00     0.078 C 
ATOM     79  C   UNL A   1      33.879  22.347  23.841  1.00  0.00     0.051 C 
ATOM     80  C   UNL A   1      32.541  23.440  25.457  1.00  0.00     0.134 C 
ATOM     81  C   UNL A   1      33.727  23.872  23.690  1.00  0.00     0.120 C 
ATOM     82  C   UNL A   1      31.481  23.829  24.421  1.00  0.00     0.036 C 
ATOM     83  O   UNL A   1      33.624  24.331  25.054  1.00  0.00    -0.374 OA
ATOM     84  C   UNL A   1      32.326  24.222  23.208  1.00  0.00     0.035 C 
BRANCH  78  85
ATOM     85  C   UNL A   1      32.281  20.851  25.137  1.00  0.00     0.024 C 
BRANCH  85  86
ATOM     86  C   UNL A   1      32.521  19.899  23.937  1.00  0.00     0.037 C 
BRANCH  86  87
ATOM     87  C   UNL A   1      32.927  18.476  24.247  1.00  0.00    -0.048 A 
ATOM     88  C   UNL A   1      32.571  17.882  25.468  1.00  0.00     0.004 A 
ATOM     89  C   UNL A   1      33.694  17.729  23.343  1.00  0.00     0.004 A 
ATOM     90  C   UNL A   1      32.929  16.560  25.750  1.00  0.00     0.000 A 
ATOM     91  C   UNL A   1      34.034  16.402  23.616  1.00  0.00     0.000 A 
ATOM     92  C   UNL A   1      33.649  15.816  24.818  1.00  0.00     0.000 A 
ENDBRANCH  86  87
ENDBRANCH  85  86
ENDBRANCH  78  85
ENDBRANCH  75  78
ENDBRANCH  73  74
ENDBRANCH   1  73
TORSDOF 14
ENDMDL
MODEL 2
REMARK VINA RESULT:     -12.4      0.566      7.464
REMARK SMILES O=C(NCCCCNC(=O)[C@]1(CCc2ccccc2)C[C@H]2CC[C@@H]1O2)c1ccc(-c2c3nc(c(-c4c(F)c(F)c(F)c(F)c4F)c4ccc([nH]4)c(-c4c(F)c(F)c(F)c(F)c4F)c4nc(c(-c5c(F)c(F)c(F)c(F)c5F)c5ccc2[nH]5)C=C4)C=C3)cc1
REMARK SMILES IDX 6 1 5 2 4 3 3 4 1 5 2 6 26 8 27 9 88 10 28 11 87 12 29 13
REMARK SMILES IDX 30 14 31 15 81 16 32 17 86 18 80 19 82 20 33 21 85 22 79 23
REMARK SMILES IDX 78 24 34 26 66 27 46 28 65 29 47 30 50 31 64 32 83 33 48 34
REMARK SMILES IDX 49 35 63 37 84 38 51 39 35 40 36 41 44 42 37 43 38 44 42 45
REMARK SMILES IDX 45 46 39 47 40 48 43 49 41 50 67 51 68 52 76 53 69 54 70 55
REMARK SMILES IDX 74 56 77 57 71 58 72 59 75 60 73 61 52 62 53 63 61 64 54 65
REMARK SMILES IDX 55 66 59 67 62 68 56 69 57 70 60 71 58 72 7 73 8 74 9 75
REMARK SMILES IDX 10 77 11 78 20 79 24 80 21 81 23 82 25 83 22 84 12 85 13 86
REMARK SMILES IDX 14 87 15 88 19 89 16 90 18 91 17 92
REMARK H PARENT 3 7 82 25 50 36 8 76
REMARK Flexibility Score: inf
ROOT
ATOM      1  C   UNL A   1      36.462  20.072  25.024  1.00  0.00     0.023 C 
ENDROOT
BRANCH   1   2
ATOM      2  C   UNL A   1      37.910  19.734  24.686  1.00  0.00     0.023 C 
BRANCH   2   3
ATOM      3  C   UNL A   1      38.919  20.159  25.743  1.00  0.00     0.116 C 
BRANCH   3   4
ATOM      4  N   UNL A   1      40.012  19.207  25.886  1.00  0.00    -0.352 N 
ATOM      5  O   UNL A   1      42.164  18.535  26.051  1.00  0.00    -0.269 OA
ATOM      6  C   UNL A   1      41.343  19.442  26.129  1.00  0.00     0.251 C 
ATOM      7  H   UNL A   1      39.761  18.259  25.796  1.00  0.00     0.163 HD
BRANCH   6   8
ATOM      8  C   UNL A   1      41.779  20.809  26.471  1.00  0.00     0.039 A 
ATOM      9  C   UNL A   1      41.928  21.765  25.464  1.00  0.00     0.014 A 
ATOM     10  C   UNL A   1      42.050  21.133  27.802  1.00  0.00     0.014 A 
ATOM     11  C   UNL A   1      42.487  22.997  25.765  1.00  0.00     0.010 A 
ATOM     12  C   UNL A   1      42.521  22.410  28.118  1.00  0.00     0.010 A 
ATOM     13  C   UNL A   1      42.762  23.343  27.098  1.00  0.00    -0.014 A 
BRANCH  13  14
ATOM     14  C   UNL A   1      43.192  24.729  27.398  1.00  0.00     0.031 A 
ATOM     15  C   UNL A   1      44.591  25.195  27.120  1.00  0.00     0.074 A 
ATOM     16  C   UNL A   1      42.276  25.571  27.914  1.00  0.00     0.049 A 
ATOM     17  N   UNL A   1      45.116  26.376  27.323  1.00  0.00    -0.248 NA
ATOM     18  C   UNL A   1      45.526  24.215  26.546  1.00  0.00     0.031 C 
ATOM     19  C   UNL A   1      40.894  25.209  28.240  1.00  0.00     0.029 A 
ATOM     20  N   UNL A   1      42.355  26.900  28.238  1.00  0.00    -0.354 N 
ATOM     21  C   UNL A   1      46.443  26.279  26.927  1.00  0.00     0.074 A 
ATOM     22  C   UNL A   1      46.651  24.918  26.479  1.00  0.00     0.031 C 
ATOM     23  C   UNL A   1      40.244  26.296  28.676  1.00  0.00     0.029 A 
ATOM     24  C   UNL A   1      41.179  27.412  28.728  1.00  0.00     0.049 A 
ATOM     25  H   UNL A   1      43.174  27.435  28.130  1.00  0.00     0.167 HD
ATOM     26  C   UNL A   1      47.392  27.244  26.937  1.00  0.00     0.037 A 
ATOM     27  C   UNL A   1      40.891  28.639  29.197  1.00  0.00     0.037 A 
ATOM     28  C   UNL A   1      47.162  28.603  27.358  1.00  0.00     0.049 A 
ATOM     29  C   UNL A   1      41.972  29.679  29.203  1.00  0.00     0.074 A 
ATOM     30  C   UNL A   1      48.043  29.672  27.341  1.00  0.00     0.029 A 
ATOM     31  N   UNL A   1      45.967  29.079  27.876  1.00  0.00    -0.354 N 
ATOM     32  N   UNL A   1      43.210  29.586  28.781  1.00  0.00    -0.248 NA
ATOM     33  C   UNL A   1      41.621  30.992  29.758  1.00  0.00     0.031 C 
ATOM     34  C   UNL A   1      47.395  30.782  27.893  1.00  0.00     0.029 A 
ATOM     35  C   UNL A   1      46.098  30.418  28.213  1.00  0.00     0.049 A 
ATOM     36  H   UNL A   1      45.147  28.546  27.988  1.00  0.00     0.167 HD
ATOM     37  C   UNL A   1      43.785  30.823  29.017  1.00  0.00     0.074 A 
ATOM     38  C   UNL A   1      42.750  31.663  29.588  1.00  0.00     0.031 C 
ATOM     39  C   UNL A   1      45.057  31.228  28.790  1.00  0.00     0.037 A 
BRANCH  26  40
ATOM     40  C   UNL A   1      48.780  26.881  26.496  1.00  0.00     0.064 A 
ATOM     41  C   UNL A   1      49.708  26.308  27.376  1.00  0.00     0.173 A 
ATOM     42  C   UNL A   1      49.148  27.016  25.148  1.00  0.00     0.173 A 
ATOM     43  F   UNL A   1      49.406  26.163  28.675  1.00  0.00    -0.203 F 
ATOM     44  C   UNL A   1      50.957  25.888  26.924  1.00  0.00     0.198 A 
ATOM     45  C   UNL A   1      50.389  26.577  24.696  1.00  0.00     0.198 A 
ATOM     46  F   UNL A   1      48.293  27.553  24.265  1.00  0.00    -0.203 F 
ATOM     47  F   UNL A   1      51.836  25.358  27.786  1.00  0.00    -0.200 F 
ATOM     48  C   UNL A   1      51.293  26.013  25.584  1.00  0.00     0.200 A 
ATOM     49  F   UNL A   1      50.707  26.687  23.398  1.00  0.00    -0.200 F 
ATOM     50  F   UNL A   1      52.487  25.589  25.147  1.00  0.00    -0.200 F 
ENDBRANCH  26  40
BRANCH  27  51
ATOM     51  C   UNL A   1      39.535  28.930  29.725  1.00  0.00     0.064 A 
ATOM     52  C   UNL A   1      39.210  28.681  31.064  1.00  0.00     0.173 A 
ATOM     53  C   UNL A   1      38.537  29.470  28.899  1.00  0.00     0.173 A 
ATOM     54  F   UNL A   1      40.125  28.149  31.887  1.00  0.00    -0.203 F 
ATOM     55  C   UNL A   1      37.932  28.942  31.553  1.00  0.00     0.198 A 
ATOM     56  C   UNL A   1      37.271  29.762  29.396  1.00  0.00     0.198 A 
ATOM     57  F   UNL A   1      38.801  29.734  27.611  1.00  0.00    -0.203 F 
ATOM     58  F   UNL A   1      37.632  28.652  32.826  1.00  0.00    -0.200 F 
ATOM     59  C   UNL A   1      36.965  29.489  30.721  1.00  0.00     0.200 A 
ATOM     60  F   UNL A   1      36.347  30.307  28.594  1.00  0.00    -0.200 F 
ATOM     61  F   UNL A   1      35.738  29.746  31.195  1.00  0.00    -0.200 F 
ENDBRANCH  27  51
BRANCH  39  62
ATOM     62  C   UNL A   1      45.391  32.642  29.162  1.00  0.00     0.064 A 
ATOM     63  C   UNL A   1      45.878  32.963  30.437  1.00  0.00     0.173 A 
ATOM     64  C   UNL A   1      45.236  33.680  28.233  1.00  0.00     0.173 A 
ATOM     65  F   UNL A   1      46.023  32.006  31.365  1.00  0.00    -0.203 F 
ATOM     66  C   UNL A   1      46.174  34.280  30.777  1.00  0.00     0.198 A 
ATOM     67  C   UNL A   1      45.559  34.991  28.567  1.00  0.00     0.198 A 
ATOM     68  F   UNL A   1      44.776  33.421  26.999  1.00  0.00    -0.203 F 
ATOM     69  F   UNL A   1      46.590  34.572  32.018  1.00  0.00    -0.200 F 
ATOM     70  C   UNL A   1      46.020  35.291  29.841  1.00  0.00     0.200 A 
ATOM     71  F   UNL A   1      45.419  35.966  27.659  1.00  0.00    -0.200 F 
ATOM     72  F   UNL A   1      46.306  36.559  30.169  1.00  0.00    -0.200 F 
ENDBRANCH  39  62
ENDBRANCH  13  14
ENDBRANCH   6   8
ENDBRANCH   3   4
ENDBRANCH   2   3
ENDBRANCH   1   2
BRANCH   1  73
ATOM     73  C   UNL A   1      36.244  21.467  25.597  1.00  0.00     0.116 C 
BRANCH  73  74
ATOM     74  N   UNL A   1      35.221  21.482  26.618  1.00  0.00    -0.356 N 
ATOM     75  C   UNL A   1      33.915  21.829  26.604  1.00  0.00     0.228 C 
ATOM     76  H   UNL A   1      35.539  21.180  27.499  1.00  0.00     0.163 HD
ATOM     77  O   UNL A   1      33.418  22.033  27.722  1.00  0.00    -0.274 OA
BRANCH  75  78
ATOM     78  C   UNL A   1      33.047  22.040  25.345  1.00  0.00     0.078 C 
ATOM     79  C   UNL A   1      33.681  22.447  24.003  1.00  0.00     0.051 C 
ATOM     80  C   UNL A   1      32.276  23.340  25.683  1.00  0.00     0.134 C 
ATOM     81  C   UNL A   1      33.444  23.968  23.964  1.00  0.00     0.120 C 
ATOM     82  C   UNL A   1      31.200  23.745  24.670  1.00  0.00     0.036 C 
ATOM     83  O   UNL A   1      33.308  24.318  25.358  1.00  0.00    -0.374 OA
ATOM     84  C   UNL A   1      32.028  24.274  23.496  1.00  0.00     0.035 C 
BRANCH  78  85
ATOM     85  C   UNL A   1      32.164  20.772  25.170  1.00  0.00     0.024 C 
BRANCH  85  86
ATOM     86  C   UNL A   1      32.532  19.871  23.964  1.00  0.00     0.037 C 
BRANCH  86  87
ATOM     87  C   UNL A   1      32.965  18.452  24.261  1.00  0.00    -0.048 A 
ATOM     88  C   UNL A   1      32.646  17.851  25.487  1.00  0.00     0.004 A 
ATOM     89  C   UNL A   1      33.722  17.719  23.337  1.00  0.00     0.004 A 
ATOM     90  C   UNL A   1      33.028  16.533  25.757  1.00  0.00     0.000 A 
ATOM     91  C   UNL A   1      34.086  16.395  23.598  1.00  0.00     0.000 A 
ATOM     92  C   UNL A   1      33.737  15.801  24.807  1.00  0.00     0.000 A 
ENDBRANCH  86  87
ENDBRANCH  85  86
ENDBRANCH  78  85
ENDBRANCH  75  78
ENDBRANCH  73  74
ENDBRANCH   1  73
TORSDOF 14
ENDMDL
MODEL 3
REMARK VINA RESULT:     -12.4      0.307      1.630
REMARK SMILES O=C(NCCCCNC(=O)[C@]1(CCc2ccccc2)C[C@H]2CC[C@@H]1O2)c1ccc(-c2c3nc(c(-c4c(F)c(F)c(F)c(F)c4F)c4ccc([nH]4)c(-c4c(F)c(F)c(F)c(F)c4F)c4nc(c(-c5c(F)c(F)c(F)c(F)c5F)c5ccc2[nH]5)C=C4)C=C3)cc1
REMARK SMILES IDX 6 1 5 2 4 3 3 4 1 5 2 6 26 8 27 9 88 10 28 11 87 12 29 13
REMARK SMILES IDX 30 14 31 15 81 16 32 17 86 18 80 19 82 20 33 21 85 22 79 23
REMARK SMILES IDX 78 24 34 26 66 27 46 28 65 29 47 30 50 31 64 32 83 33 48 34
REMARK SMILES IDX 49 35 63 37 84 38 51 39 35 40 36 41 44 42 37 43 38 44 42 45
REMARK SMILES IDX 45 46 39 47 40 48 43 49 41 50 67 51 68 52 76 53 69 54 70 55
REMARK SMILES IDX 74 56 77 57 71 58 72 59 75 60 73 61 52 62 53 63 61 64 54 65
REMARK SMILES IDX 55 66 59 67 62 68 56 69 57 70 60 71 58 72 7 73 8 74 9 75
REMARK SMILES IDX 10 77 11 78 20 79 24 80 21 81 23 82 25 83 22 84 12 85 13 86
REMARK SMILES IDX 14 87 15 88 19 89 16 90 18 91 17 92
REMARK H PARENT 3 7 82 25 50 36 8 76
REMARK Flexibility Score: inf
ROOT
ATOM      1  C   UNL A   1      36.657  20.136  24.999  1.00  0.00     0.023 C 
ENDROOT
BRANCH   1   2
ATOM      2  C   UNL A   1      38.016  19.469  24.820  1.00  0.00     0.023 C 
BRANCH   2   3
ATOM      3  C   UNL A   1      39.081  19.937  25.800  1.00  0.00     0.116 C 
BRANCH   3   4
ATOM      4  N   UNL A   1      40.200  19.009  25.894  1.00  0.00    -0.352 N 
ATOM      5  O   UNL A   1      42.371  18.383  25.961  1.00  0.00    -0.269 OA
ATOM      6  C   UNL A   1      41.535  19.273  26.076  1.00  0.00     0.251 C 
ATOM      7  H   UNL A   1      39.965  18.055  25.816  1.00  0.00     0.163 HD
BRANCH   6   8
ATOM      8  C   UNL A   1      41.957  20.650  26.397  1.00  0.00     0.039 A 
ATOM      9  C   UNL A   1      42.109  21.588  25.374  1.00  0.00     0.014 A 
ATOM     10  C   UNL A   1      42.210  21.000  27.725  1.00  0.00     0.014 A 
ATOM     11  C   UNL A   1      42.656  22.830  25.658  1.00  0.00     0.010 A 
ATOM     12  C   UNL A   1      42.667  22.287  28.022  1.00  0.00     0.010 A 
ATOM     13  C   UNL A   1      42.912  23.202  26.988  1.00  0.00    -0.014 A 
BRANCH  13  14
ATOM     14  C   UNL A   1      43.329  24.597  27.267  1.00  0.00     0.031 A 
ATOM     15  C   UNL A   1      42.373  25.603  27.836  1.00  0.00     0.074 A 
ATOM     16  C   UNL A   1      44.609  24.931  27.011  1.00  0.00     0.049 A 
ATOM     17  N   UNL A   1      42.591  26.858  28.138  1.00  0.00    -0.248 NA
ATOM     18  C   UNL A   1      40.997  25.154  28.097  1.00  0.00     0.031 C 
ATOM     19  C   UNL A   1      45.612  24.029  26.438  1.00  0.00     0.029 A 
ATOM     20  N   UNL A   1      45.293  26.101  27.211  1.00  0.00    -0.354 N 
ATOM     21  C   UNL A   1      41.379  27.355  28.601  1.00  0.00     0.074 A 
ATOM     22  C   UNL A   1      40.423  26.270  28.530  1.00  0.00     0.031 C 
ATOM     23  C   UNL A   1      46.790  24.663  26.373  1.00  0.00     0.029 A 
ATOM     24  C   UNL A   1      46.610  26.034  26.832  1.00  0.00     0.049 A 
ATOM     25  H   UNL A   1      44.880  26.910  27.591  1.00  0.00     0.167 HD
ATOM     26  C   UNL A   1      41.102  28.604  29.043  1.00  0.00     0.037 A 
ATOM     27  C   UNL A   1      47.564  26.982  26.825  1.00  0.00     0.037 A 
ATOM     28  C   UNL A   1      42.071  29.666  29.135  1.00  0.00     0.049 A 
ATOM     29  C   UNL A   1      47.216  28.358  27.312  1.00  0.00     0.074 A 
ATOM     30  C   UNL A   1      41.903  30.947  29.634  1.00  0.00     0.029 A 
ATOM     31  N   UNL A   1      43.390  29.573  28.713  1.00  0.00    -0.354 N 
ATOM     32  N   UNL A   1      46.078  28.800  27.790  1.00  0.00    -0.248 NA
ATOM     33  C   UNL A   1      48.279  29.368  27.251  1.00  0.00     0.031 C 
ATOM     34  C   UNL A   1      43.106  31.642  29.471  1.00  0.00     0.029 A 
ATOM     35  C   UNL A   1      44.036  30.783  28.911  1.00  0.00     0.049 A 
ATOM     36  H   UNL A   1      43.805  28.766  28.331  1.00  0.00     0.167 HD
ATOM     37  C   UNL A   1      46.287  30.136  28.089  1.00  0.00     0.074 A 
ATOM     38  C   UNL A   1      47.671  30.425  27.769  1.00  0.00     0.031 C 
ATOM     39  C   UNL A   1      45.411  31.048  28.574  1.00  0.00     0.037 A 
BRANCH  26  40
ATOM     40  C   UNL A   1      39.692  28.915  29.454  1.00  0.00     0.064 A 
ATOM     41  C   UNL A   1      38.741  29.381  28.536  1.00  0.00     0.173 A 
ATOM     42  C   UNL A   1      39.266  28.647  30.765  1.00  0.00     0.173 A 
ATOM     43  F   UNL A   1      39.100  29.658  27.274  1.00  0.00    -0.203 F 
ATOM     44  C   UNL A   1      37.414  29.571  28.915  1.00  0.00     0.198 A 
ATOM     45  C   UNL A   1      37.935  28.819  31.135  1.00  0.00     0.198 A 
ATOM     46  F   UNL A   1      40.136  28.194  31.679  1.00  0.00    -0.203 F 
ATOM     47  F   UNL A   1      36.524  30.032  28.026  1.00  0.00    -0.200 F 
ATOM     48  C   UNL A   1      37.009  29.280  30.210  1.00  0.00     0.200 A 
ATOM     49  F   UNL A   1      37.543  28.525  32.383  1.00  0.00    -0.200 F 
ATOM     50  F   UNL A   1      35.728  29.443  30.568  1.00  0.00    -0.200 F 
ENDBRANCH  26  40
BRANCH  27  51
ATOM     51  C   UNL A   1      48.919  26.664  26.310  1.00  0.00     0.064 A 
ATOM     52  C   UNL A   1      49.893  26.092  27.137  1.00  0.00     0.173 A 
ATOM     53  C   UNL A   1      49.265  26.920  24.974  1.00  0.00     0.173 A 
ATOM     54  F   UNL A   1      49.616  25.844  28.426  1.00  0.00    -0.203 F 
ATOM     55  C   UNL A   1      51.168  25.807  26.654  1.00  0.00     0.198 A 
ATOM     56  C   UNL A   1      50.528  26.605  24.483  1.00  0.00     0.198 A 
ATOM     57  F   UNL A   1      48.364  27.460  24.138  1.00  0.00    -0.203 F 
ATOM     58  F   UNL A   1      52.097  25.303  27.478  1.00  0.00    -0.200 F 
ATOM     59  C   UNL A   1      51.483  26.057  25.326  1.00  0.00     0.200 A 
ATOM     60  F   UNL A   1      50.820  26.830  23.195  1.00  0.00    -0.200 F 
ATOM     61  F   UNL A   1      52.707  25.776  24.861  1.00  0.00    -0.200 F 
ENDBRANCH  27  51
BRANCH  39  62
ATOM     62  C   UNL A   1      45.932  32.437  28.788  1.00  0.00     0.064 A 
ATOM     63  C   UNL A   1      45.833  33.413  27.786  1.00  0.00     0.173 A 
ATOM     64  C   UNL A   1      46.522  32.798  30.007  1.00  0.00     0.173 A 
ATOM     65  F   UNL A   1      45.294  33.107  26.596  1.00  0.00    -0.203 F 
ATOM     66  C   UNL A   1      46.330  34.697  27.989  1.00  0.00     0.198 A 
ATOM     67  C   UNL A   1      46.993  34.091  30.217  1.00  0.00     0.198 A 
ATOM     68  F   UNL A   1      46.637  31.900  30.997  1.00  0.00    -0.203 F 
ATOM     69  F   UNL A   1      46.271  35.600  27.000  1.00  0.00    -0.200 F 
ATOM     70  C   UNL A   1      46.904  35.036  29.205  1.00  0.00     0.200 A 
ATOM     71  F   UNL A   1      47.539  34.421  31.395  1.00  0.00    -0.200 F 
ATOM     72  F   UNL A   1      47.383  36.273  29.400  1.00  0.00    -0.200 F 
ENDBRANCH  39  62
ENDBRANCH  13  14
ENDBRANCH   6   8
ENDBRANCH   3   4
ENDBRANCH   2   3
ENDBRANCH   1   2
BRANCH   1  73
ATOM     73  C   UNL A   1      36.702  21.648  25.191  1.00  0.00     0.116 C 
BRANCH  73  74
ATOM     74  N   UNL A   1      35.878  22.081  26.297  1.00  0.00    -0.356 N 
ATOM     75  C   UNL A   1      34.575  22.428  26.390  1.00  0.00     0.228 C 
ATOM     76  H   UNL A   1      36.362  22.133  27.152  1.00  0.00     0.163 HD
ATOM     77  O   UNL A   1      34.276  23.060  27.414  1.00  0.00    -0.274 OA
BRANCH  75  78
ATOM     78  C   UNL A   1      33.487  22.159  25.328  1.00  0.00     0.078 C 
ATOM     79  C   UNL A   1      33.814  22.216  23.825  1.00  0.00     0.051 C 
ATOM     80  C   UNL A   1      32.580  23.408  25.453  1.00  0.00     0.134 C 
ATOM     81  C   UNL A   1      33.327  23.621  23.426  1.00  0.00     0.120 C 
ATOM     82  C   UNL A   1      31.299  23.374  24.612  1.00  0.00     0.036 C 
ATOM     83  O   UNL A   1      33.369  24.352  24.669  1.00  0.00    -0.374 OA
ATOM     84  C   UNL A   1      31.822  23.617  23.195  1.00  0.00     0.035 C 
BRANCH  78  85
ATOM     85  C   UNL A   1      32.807  20.808  25.689  1.00  0.00     0.024 C 
BRANCH  85  86
ATOM     86  C   UNL A   1      32.450  19.904  24.481  1.00  0.00     0.037 C 
BRANCH  86  87
ATOM     87  C   UNL A   1      32.887  18.457  24.540  1.00  0.00    -0.048 A 
ATOM     88  C   UNL A   1      32.583  17.665  25.658  1.00  0.00     0.004 A 
ATOM     89  C   UNL A   1      33.632  17.884  23.501  1.00  0.00     0.004 A 
ATOM     90  C   UNL A   1      32.970  16.322  25.707  1.00  0.00     0.000 A 
ATOM     91  C   UNL A   1      34.001  16.536  23.541  1.00  0.00     0.000 A 
ATOM     92  C   UNL A   1      33.667  15.755  24.642  1.00  0.00     0.000 A 
ENDBRANCH  86  87
ENDBRANCH  85  86
ENDBRANCH  78  85
ENDBRANCH  75  78
ENDBRANCH  73  74
ENDBRANCH   1  73
TORSDOF 14
ENDMDL
