MODEL 1
REMARK VINA RESULT:     -11.6      0.000      0.000
REMARK SMILES CCOCCC[N@@H+]1[C@@H](C(=O)NCCCCNC(=O)c2ccc(-c3c4nc(c(-c5c(F)c(F)c(F)c(F)c5F)c5ccc([nH]5)c(-c5c(F)c(F)c(F)c(F)c5F)c5nc(c(-c6c(F)c(F)c(F)c(F)c6F)c6ccc3[nH]6)C=C5)C=C4)cc2)CC[C@H]2CCCC[C@H]21
REMARK SMILES IDX 12 1 11 2 9 3 10 4 8 6 7 7 89 8 82 10 84 11 88 12 83 13
REMARK SMILES IDX 85 14 87 15 86 16 6 17 5 18 4 19 3 20 2 21 1 22 13 23 14 24
REMARK SMILES IDX 15 25 16 26 17 27 18 29 19 30 20 31 81 32 21 33 80 34 22 35
REMARK SMILES IDX 23 36 24 37 74 38 25 39 79 40 73 41 75 42 26 43 78 44 72 45
REMARK SMILES IDX 71 46 27 48 59 49 39 50 58 51 40 52 43 53 57 54 76 55 41 56
REMARK SMILES IDX 42 57 56 59 77 60 44 61 28 62 29 63 37 64 30 65 31 66 35 67
REMARK SMILES IDX 38 68 32 69 33 70 36 71 34 72 60 73 61 74 69 75 62 76 63 77
REMARK SMILES IDX 67 78 70 79 64 80 65 81 68 82 66 83 45 84 46 85 54 86 47 87
REMARK SMILES IDX 48 88 52 89 55 90 49 91 50 92 53 93 51 94
REMARK H PARENT 11 5 7 9 16 28 75 47 43 58
REMARK Flexibility Score: inf
ROOT
ATOM      1  C   UNL A   1      31.841  28.690  26.074  1.00  0.00     0.116 C 
ENDROOT
BRANCH   1   2
ATOM      2  N   UNL A   1      31.291  27.450  26.581  1.00  0.00    -0.351 N 
ATOM      3  C   UNL A   1      31.614  26.166  26.245  1.00  0.00     0.278 C 
ATOM      4  O   UNL A   1      30.990  25.259  26.807  1.00  0.00    -0.268 OA
ATOM      5  H   UNL A   1      30.586  27.547  27.262  1.00  0.00     0.163 HD
BRANCH   3   6
ATOM      6  C   UNL A   1      32.710  25.838  25.189  1.00  0.00     0.274 C 
ATOM      7  N   UNL A   1      32.154  25.054  24.035  1.00  0.00    -0.322 N 
ATOM      8  C   UNL A   1      33.187  24.459  23.166  1.00  0.00     0.187 C 
ATOM      9  H   UNL A   1      31.702  24.205  24.374  1.00  0.00     0.349 HD
ATOM     10  C   UNL A   1      33.891  25.207  25.927  1.00  0.00     0.076 C 
ATOM     11  C   UNL A   1      34.361  23.788  23.924  1.00  0.00     0.048 C 
ATOM     12  C   UNL A   1      32.704  23.408  22.152  1.00  0.00     0.065 C 
ATOM     13  C   UNL A   1      34.960  24.738  24.959  1.00  0.00     0.016 C 
ATOM     14  C   UNL A   1      34.068  22.405  24.547  1.00  0.00     0.010 C 
ATOM     15  C   UNL A   1      32.389  22.001  22.641  1.00  0.00     0.006 C 
ATOM     16  C   UNL A   1      32.853  21.650  24.035  1.00  0.00     0.001 C 
BRANCH   7  17
ATOM     17  C   UNL A   1      31.080  25.850  23.382  1.00  0.00     0.265 C 
BRANCH  17  18
ATOM     18  C   UNL A   1      31.285  26.991  22.368  1.00  0.00     0.090 C 
BRANCH  18  19
ATOM     19  C   UNL A   1      30.716  28.397  22.602  1.00  0.00     0.166 C 
BRANCH  19  20
ATOM     20  O   UNL A   1      29.808  28.932  21.653  1.00  0.00    -0.382 OA
BRANCH  20  21
ATOM     21  C   UNL A   1      29.055  30.081  21.999  1.00  0.00     0.156 C 
ATOM     22  C   UNL A   1      27.771  29.581  22.651  1.00  0.00     0.035 C 
ENDBRANCH  20  21
ENDBRANCH  19  20
ENDBRANCH  18  19
ENDBRANCH  17  18
ENDBRANCH   7  17
ENDBRANCH   3   6
ENDBRANCH   1   2
BRANCH   1  23
ATOM     23  C   UNL A   1      32.168  29.674  27.192  1.00  0.00     0.023 C 
BRANCH  23  24
ATOM     24  C   UNL A   1      31.906  31.137  26.841  1.00  0.00     0.023 C 
BRANCH  24  25
ATOM     25  C   UNL A   1      33.016  32.100  27.243  1.00  0.00     0.116 C 
BRANCH  25  26
ATOM     26  N   UNL A   1      32.545  33.463  27.451  1.00  0.00    -0.352 N 
ATOM     27  C   UNL A   1      33.007  34.402  28.344  1.00  0.00     0.251 C 
ATOM     28  H   UNL A   1      31.798  33.749  26.876  1.00  0.00     0.163 HD
ATOM     29  O   UNL A   1      32.434  35.470  28.491  1.00  0.00    -0.269 OA
BRANCH  27  30
ATOM     30  C   UNL A   1      34.198  34.078  29.157  1.00  0.00     0.039 A 
ATOM     31  C   UNL A   1      34.040  33.330  30.326  1.00  0.00     0.014 A 
ATOM     32  C   UNL A   1      35.469  34.453  28.717  1.00  0.00     0.014 A 
ATOM     33  C   UNL A   1      35.169  32.880  31.011  1.00  0.00     0.010 A 
ATOM     34  C   UNL A   1      36.591  33.945  29.360  1.00  0.00     0.010 A 
ATOM     35  C   UNL A   1      36.452  33.144  30.506  1.00  0.00    -0.014 A 
BRANCH  35  36
ATOM     36  C   UNL A   1      37.676  32.589  31.138  1.00  0.00     0.031 A 
ATOM     37  C   UNL A   1      38.411  31.466  30.467  1.00  0.00     0.074 A 
ATOM     38  C   UNL A   1      38.052  33.013  32.359  1.00  0.00     0.049 A 
ATOM     39  N   UNL A   1      39.383  30.720  30.925  1.00  0.00    -0.248 NA
ATOM     40  C   UNL A   1      37.970  31.113  29.109  1.00  0.00     0.031 C 
ATOM     41  C   UNL A   1      37.397  34.072  33.129  1.00  0.00     0.029 A 
ATOM     42  N   UNL A   1      39.063  32.581  33.183  1.00  0.00    -0.354 N 
ATOM     43  C   UNL A   1      39.648  29.793  29.927  1.00  0.00     0.074 A 
ATOM     44  C   UNL A   1      38.709  30.043  28.855  1.00  0.00     0.031 C 
ATOM     45  C   UNL A   1      38.024  34.211  34.308  1.00  0.00     0.029 A 
ATOM     46  C   UNL A   1      39.094  33.221  34.398  1.00  0.00     0.049 A 
ATOM     47  H   UNL A   1      39.705  31.880  32.927  1.00  0.00     0.167 HD
ATOM     48  C   UNL A   1      40.599  28.829  29.902  1.00  0.00     0.037 A 
ATOM     49  C   UNL A   1      39.881  33.017  35.472  1.00  0.00     0.037 A 
ATOM     50  C   UNL A   1      41.552  28.608  30.957  1.00  0.00     0.049 A 
ATOM     51  C   UNL A   1      40.930  31.939  35.420  1.00  0.00     0.074 A 
ATOM     52  C   UNL A   1      42.595  27.700  31.001  1.00  0.00     0.029 A 
ATOM     53  N   UNL A   1      41.578  29.307  32.155  1.00  0.00    -0.354 N 
ATOM     54  N   UNL A   1      41.207  31.100  34.452  1.00  0.00    -0.248 NA
ATOM     55  C   UNL A   1      41.777  31.778  36.611  1.00  0.00     0.031 C 
ATOM     56  C   UNL A   1      43.226  27.819  32.242  1.00  0.00     0.029 A 
ATOM     57  C   UNL A   1      42.608  28.837  32.952  1.00  0.00     0.049 A 
ATOM     58  H   UNL A   1      40.956  30.028  32.403  1.00  0.00     0.167 HD
ATOM     59  C   UNL A   1      42.279  30.340  34.898  1.00  0.00     0.074 A 
ATOM     60  C   UNL A   1      42.604  30.816  36.226  1.00  0.00     0.031 C 
ATOM     61  C   UNL A   1      42.934  29.339  34.263  1.00  0.00     0.037 A 
BRANCH  48  62
ATOM     62  C   UNL A   1      40.653  27.939  28.696  1.00  0.00     0.064 A 
ATOM     63  C   UNL A   1      39.930  26.738  28.633  1.00  0.00     0.173 A 
ATOM     64  C   UNL A   1      41.411  28.308  27.574  1.00  0.00     0.173 A 
ATOM     65  F   UNL A   1      39.198  26.335  29.683  1.00  0.00    -0.203 F 
ATOM     66  C   UNL A   1      39.990  25.925  27.504  1.00  0.00     0.198 A 
ATOM     67  C   UNL A   1      41.444  27.507  26.436  1.00  0.00     0.198 A 
ATOM     68  F   UNL A   1      42.117  29.450  27.580  1.00  0.00    -0.203 F 
ATOM     69  F   UNL A   1      39.332  24.758  27.487  1.00  0.00    -0.200 F 
ATOM     70  C   UNL A   1      40.741  26.313  26.405  1.00  0.00     0.200 A 
ATOM     71  F   UNL A   1      42.160  27.890  25.370  1.00  0.00    -0.200 F 
ATOM     72  F   UNL A   1      40.792  25.531  25.317  1.00  0.00    -0.200 F 
ENDBRANCH  48  62
BRANCH  49  73
ATOM     73  C   UNL A   1      39.716  33.861  36.684  1.00  0.00     0.064 A 
ATOM     74  C   UNL A   1      40.363  35.100  36.787  1.00  0.00     0.173 A 
ATOM     75  C   UNL A   1      38.910  33.454  37.757  1.00  0.00     0.173 A 
ATOM     76  F   UNL A   1      41.160  35.523  35.795  1.00  0.00    -0.203 F 
ATOM     77  C   UNL A   1      40.225  35.892  37.924  1.00  0.00     0.198 A 
ATOM     78  C   UNL A   1      38.752  34.259  38.883  1.00  0.00     0.198 A 
ATOM     79  F   UNL A   1      38.267  32.279  37.705  1.00  0.00    -0.203 F 
ATOM     80  F   UNL A   1      40.888  37.053  38.014  1.00  0.00    -0.200 F 
ATOM     81  C   UNL A   1      39.415  35.474  38.969  1.00  0.00     0.200 A 
ATOM     82  F   UNL A   1      37.957  33.858  39.884  1.00  0.00    -0.200 F 
ATOM     83  F   UNL A   1      39.278  36.238  40.061  1.00  0.00    -0.200 F 
ENDBRANCH  49  73
BRANCH  61  84
ATOM     84  C   UNL A   1      44.109  28.724  34.963  1.00  0.00     0.064 A 
ATOM     85  C   UNL A   1      43.973  27.591  35.776  1.00  0.00     0.173 A 
ATOM     86  C   UNL A   1      45.400  29.237  34.758  1.00  0.00     0.173 A 
ATOM     87  F   UNL A   1      42.759  27.072  36.015  1.00  0.00    -0.203 F 
ATOM     88  C   UNL A   1      45.086  26.998  36.368  1.00  0.00     0.198 A 
ATOM     89  C   UNL A   1      46.512  28.627  35.329  1.00  0.00     0.198 A 
ATOM     90  F   UNL A   1      45.582  30.317  33.983  1.00  0.00    -0.203 F 
ATOM     91  F   UNL A   1      44.931  25.934  37.167  1.00  0.00    -0.200 F 
ATOM     92  C   UNL A   1      46.354  27.510  36.136  1.00  0.00     0.200 A 
ATOM     93  F   UNL A   1      47.738  29.115  35.092  1.00  0.00    -0.200 F 
ATOM     94  F   UNL A   1      47.426  26.930  36.693  1.00  0.00    -0.200 F 
ENDBRANCH  61  84
ENDBRANCH  35  36
ENDBRANCH  27  30
ENDBRANCH  25  26
ENDBRANCH  24  25
ENDBRANCH  23  24
ENDBRANCH   1  23
TORSDOF 16
ENDMDL
MODEL 2
REMARK VINA RESULT:     -11.6      0.753      7.532
REMARK SMILES CCOCCC[N@@H+]1[C@@H](C(=O)NCCCCNC(=O)c2ccc(-c3c4nc(c(-c5c(F)c(F)c(F)c(F)c5F)c5ccc([nH]5)c(-c5c(F)c(F)c(F)c(F)c5F)c5nc(c(-c6c(F)c(F)c(F)c(F)c6F)c6ccc3[nH]6)C=C5)C=C4)cc2)CC[C@H]2CCCC[C@H]21
REMARK SMILES IDX 12 1 11 2 9 3 10 4 8 6 7 7 89 8 82 10 84 11 88 12 83 13
REMARK SMILES IDX 85 14 87 15 86 16 6 17 5 18 4 19 3 20 2 21 1 22 13 23 14 24
REMARK SMILES IDX 15 25 16 26 17 27 18 29 19 30 20 31 81 32 21 33 80 34 22 35
REMARK SMILES IDX 23 36 24 37 74 38 25 39 79 40 73 41 75 42 26 43 78 44 72 45
REMARK SMILES IDX 71 46 27 48 59 49 39 50 58 51 40 52 43 53 57 54 76 55 41 56
REMARK SMILES IDX 42 57 56 59 77 60 44 61 28 62 29 63 37 64 30 65 31 66 35 67
REMARK SMILES IDX 38 68 32 69 33 70 36 71 34 72 60 73 61 74 69 75 62 76 63 77
REMARK SMILES IDX 67 78 70 79 64 80 65 81 68 82 66 83 45 84 46 85 54 86 47 87
REMARK SMILES IDX 48 88 52 89 55 90 49 91 50 92 53 93 51 94
REMARK H PARENT 11 5 7 9 16 28 75 47 43 58
REMARK Flexibility Score: inf
ROOT
ATOM      1  C   UNL A   1      32.254  29.561  27.060  1.00  0.00     0.116 C 
ENDROOT
BRANCH   1   2
ATOM      2  N   UNL A   1      31.388  28.402  27.029  1.00  0.00    -0.351 N 
ATOM      3  C   UNL A   1      31.573  27.208  26.390  1.00  0.00     0.278 C 
ATOM      4  O   UNL A   1      30.676  26.363  26.497  1.00  0.00    -0.268 OA
ATOM      5  H   UNL A   1      30.550  28.485  27.540  1.00  0.00     0.163 HD
BRANCH   3   6
ATOM      6  C   UNL A   1      32.846  26.912  25.543  1.00  0.00     0.274 C 
ATOM      7  N   UNL A   1      32.529  26.808  24.079  1.00  0.00    -0.322 N 
ATOM      8  C   UNL A   1      33.622  26.234  23.272  1.00  0.00     0.187 C 
ATOM      9  H   UNL A   1      31.810  26.102  23.925  1.00  0.00     0.349 HD
ATOM     10  C   UNL A   1      33.547  25.706  26.169  1.00  0.00     0.076 C 
ATOM     11  C   UNL A   1      34.302  24.989  23.896  1.00  0.00     0.048 C 
ATOM     12  C   UNL A   1      33.266  25.824  21.832  1.00  0.00     0.065 C 
ATOM     13  C   UNL A   1      34.735  25.265  25.336  1.00  0.00     0.016 C 
ATOM     14  C   UNL A   1      33.515  23.664  23.799  1.00  0.00     0.010 C 
ATOM     15  C   UNL A   1      32.497  24.531  21.602  1.00  0.00     0.006 C 
ATOM     16  C   UNL A   1      32.392  23.588  22.779  1.00  0.00     0.001 C 
BRANCH   7  17
ATOM     17  C   UNL A   1      31.935  28.094  23.621  1.00  0.00     0.265 C 
BRANCH  17  18
ATOM     18  C   UNL A   1      30.647  28.254  22.792  1.00  0.00     0.090 C 
BRANCH  18  19
ATOM     19  C   UNL A   1      30.064  29.633  22.457  1.00  0.00     0.166 C 
BRANCH  19  20
ATOM     20  O   UNL A   1      28.917  29.705  21.627  1.00  0.00    -0.382 OA
BRANCH  20  21
ATOM     21  C   UNL A   1      28.030  30.799  21.779  1.00  0.00     0.156 C 
ATOM     22  C   UNL A   1      27.698  30.887  23.264  1.00  0.00     0.035 C 
ENDBRANCH  20  21
ENDBRANCH  19  20
ENDBRANCH  18  19
ENDBRANCH  17  18
ENDBRANCH   7  17
ENDBRANCH   3   6
ENDBRANCH   1   2
BRANCH   1  23
ATOM     23  C   UNL A   1      31.751  30.680  26.153  1.00  0.00     0.023 C 
BRANCH  23  24
ATOM     24  C   UNL A   1      31.469  31.996  26.873  1.00  0.00     0.023 C 
BRANCH  24  25
ATOM     25  C   UNL A   1      32.709  32.780  27.284  1.00  0.00     0.116 C 
BRANCH  25  26
ATOM     26  N   UNL A   1      32.424  34.167  27.625  1.00  0.00    -0.352 N 
ATOM     27  C   UNL A   1      32.983  34.938  28.620  1.00  0.00     0.251 C 
ATOM     28  H   UNL A   1      31.741  34.611  27.072  1.00  0.00     0.163 HD
ATOM     29  O   UNL A   1      32.558  36.055  28.868  1.00  0.00    -0.269 OA
BRANCH  27  30
ATOM     30  C   UNL A   1      34.093  34.370  29.412  1.00  0.00     0.039 A 
ATOM     31  C   UNL A   1      33.802  33.667  30.583  1.00  0.00     0.014 A 
ATOM     32  C   UNL A   1      35.408  34.474  28.952  1.00  0.00     0.014 A 
ATOM     33  C   UNL A   1      34.824  32.989  31.249  1.00  0.00     0.010 A 
ATOM     34  C   UNL A   1      36.410  33.742  29.575  1.00  0.00     0.010 A 
ATOM     35  C   UNL A   1      36.125  32.982  30.724  1.00  0.00    -0.014 A 
BRANCH  35  36
ATOM     36  C   UNL A   1      37.217  32.183  31.334  1.00  0.00     0.031 A 
ATOM     37  C   UNL A   1      37.736  32.554  32.694  1.00  0.00     0.074 A 
ATOM     38  C   UNL A   1      37.815  31.209  30.623  1.00  0.00     0.049 A 
ATOM     39  N   UNL A   1      38.791  32.112  33.328  1.00  0.00    -0.248 NA
ATOM     40  C   UNL A   1      36.982  33.586  33.423  1.00  0.00     0.031 C 
ATOM     41  C   UNL A   1      37.426  30.780  29.278  1.00  0.00     0.029 A 
ATOM     42  N   UNL A   1      38.899  30.420  30.922  1.00  0.00    -0.354 N 
ATOM     43  C   UNL A   1      38.845  32.832  34.513  1.00  0.00     0.074 A 
ATOM     44  C   UNL A   1      37.741  33.767  34.493  1.00  0.00     0.031 C 
ATOM     45  C   UNL A   1      38.255  29.805  28.870  1.00  0.00     0.029 A 
ATOM     46  C   UNL A   1      39.260  29.572  29.903  1.00  0.00     0.049 A 
ATOM     47  H   UNL A   1      39.372  30.459  31.784  1.00  0.00     0.167 HD
ATOM     48  C   UNL A   1      39.729  32.712  35.532  1.00  0.00     0.037 A 
ATOM     49  C   UNL A   1      40.299  28.720  29.804  1.00  0.00     0.037 A 
ATOM     50  C   UNL A   1      40.805  31.757  35.560  1.00  0.00     0.049 A 
ATOM     51  C   UNL A   1      41.269  28.607  30.949  1.00  0.00     0.074 A 
ATOM     52  C   UNL A   1      41.715  31.514  36.573  1.00  0.00     0.029 A 
ATOM     53  N   UNL A   1      41.112  30.885  34.526  1.00  0.00    -0.354 N 
ATOM     54  N   UNL A   1      41.282  29.255  32.088  1.00  0.00    -0.248 NA
ATOM     55  C   UNL A   1      42.367  27.642  30.797  1.00  0.00     0.031 C 
ATOM     56  C   UNL A   1      42.600  30.524  36.136  1.00  0.00     0.029 A 
ATOM     57  C   UNL A   1      42.210  30.115  34.870  1.00  0.00     0.049 A 
ATOM     58  H   UNL A   1      40.623  30.824  33.674  1.00  0.00     0.167 HD
ATOM     59  C   UNL A   1      42.363  28.754  32.802  1.00  0.00     0.074 A 
ATOM     60  C   UNL A   1      42.983  27.746  31.967  1.00  0.00     0.031 C 
ATOM     61  C   UNL A   1      42.799  29.098  34.037  1.00  0.00     0.037 A 
BRANCH  48  62
ATOM     62  C   UNL A   1      39.570  33.641  36.700  1.00  0.00     0.064 A 
ATOM     63  C   UNL A   1      40.207  34.890  36.740  1.00  0.00     0.173 A 
ATOM     64  C   UNL A   1      38.743  33.291  37.778  1.00  0.00     0.173 A 
ATOM     65  F   UNL A   1      41.017  35.267  35.739  1.00  0.00    -0.203 F 
ATOM     66  C   UNL A   1      40.048  35.740  37.831  1.00  0.00     0.198 A 
ATOM     67  C   UNL A   1      38.562  34.157  38.853  1.00  0.00     0.198 A 
ATOM     68  F   UNL A   1      38.106  32.110  37.787  1.00  0.00    -0.203 F 
ATOM     69  F   UNL A   1      40.708  36.906  37.871  1.00  0.00    -0.200 F 
ATOM     70  C   UNL A   1      39.220  35.376  38.883  1.00  0.00     0.200 A 
ATOM     71  F   UNL A   1      37.752  33.809  39.862  1.00  0.00    -0.200 F 
ATOM     72  F   UNL A   1      39.063  36.199  39.929  1.00  0.00    -0.200 F 
ENDBRANCH  48  62
BRANCH  49  73
ATOM     73  C   UNL A   1      40.469  27.897  28.579  1.00  0.00     0.064 A 
ATOM     74  C   UNL A   1      39.884  26.626  28.482  1.00  0.00     0.173 A 
ATOM     75  C   UNL A   1      41.209  28.359  27.481  1.00  0.00     0.173 A 
ATOM     76  F   UNL A   1      39.184  26.133  29.514  1.00  0.00    -0.203 F 
ATOM     77  C   UNL A   1      40.049  25.843  27.343  1.00  0.00     0.198 A 
ATOM     78  C   UNL A   1      41.351  27.585  26.332  1.00  0.00     0.198 A 
ATOM     79  F   UNL A   1      41.785  29.569  27.522  1.00  0.00    -0.203 F 
ATOM     80  F   UNL A   1      39.514  24.615  27.294  1.00  0.00    -0.200 F 
ATOM     81  C   UNL A   1      40.777  26.325  26.266  1.00  0.00     0.200 A 
ATOM     82  F   UNL A   1      42.045  28.060  25.288  1.00  0.00    -0.200 F 
ATOM     83  F   UNL A   1      40.932  25.572  25.168  1.00  0.00    -0.200 F 
ENDBRANCH  49  73
BRANCH  61  84
ATOM     84  C   UNL A   1      43.969  28.343  34.595  1.00  0.00     0.064 A 
ATOM     85  C   UNL A   1      45.281  28.822  34.474  1.00  0.00     0.173 A 
ATOM     86  C   UNL A   1      43.762  27.161  35.322  1.00  0.00     0.173 A 
ATOM     87  F   UNL A   1      45.532  29.939  33.776  1.00  0.00    -0.203 F 
ATOM     88  C   UNL A   1      46.346  28.137  35.054  1.00  0.00     0.198 A 
ATOM     89  C   UNL A   1      44.826  26.494  35.923  1.00  0.00     0.198 A 
ATOM     90  F   UNL A   1      42.524  26.666  35.470  1.00  0.00    -0.203 F 
ATOM     91  F   UNL A   1      47.597  28.593  34.900  1.00  0.00    -0.200 F 
ATOM     92  C   UNL A   1      46.117  26.980  35.785  1.00  0.00     0.200 A 
ATOM     93  F   UNL A   1      44.600  25.384  36.640  1.00  0.00    -0.200 F 
ATOM     94  F   UNL A   1      47.142  26.332  36.355  1.00  0.00    -0.200 F 
ENDBRANCH  61  84
ENDBRANCH  35  36
ENDBRANCH  27  30
ENDBRANCH  25  26
ENDBRANCH  24  25
ENDBRANCH  23  24
ENDBRANCH   1  23
TORSDOF 16
ENDMDL
MODEL 3
REMARK VINA RESULT:     -11.5      5.488     10.940
REMARK SMILES CCOCCC[N@@H+]1[C@@H](C(=O)NCCCCNC(=O)c2ccc(-c3c4nc(c(-c5c(F)c(F)c(F)c(F)c5F)c5ccc([nH]5)c(-c5c(F)c(F)c(F)c(F)c5F)c5nc(c(-c6c(F)c(F)c(F)c(F)c6F)c6ccc3[nH]6)C=C5)C=C4)cc2)CC[C@H]2CCCC[C@H]21
REMARK SMILES IDX 12 1 11 2 9 3 10 4 8 6 7 7 89 8 82 10 84 11 88 12 83 13
REMARK SMILES IDX 85 14 87 15 86 16 6 17 5 18 4 19 3 20 2 21 1 22 13 23 14 24
REMARK SMILES IDX 15 25 16 26 17 27 18 29 19 30 20 31 81 32 21 33 80 34 22 35
REMARK SMILES IDX 23 36 24 37 74 38 25 39 79 40 73 41 75 42 26 43 78 44 72 45
REMARK SMILES IDX 71 46 27 48 59 49 39 50 58 51 40 52 43 53 57 54 76 55 41 56
REMARK SMILES IDX 42 57 56 59 77 60 44 61 28 62 29 63 37 64 30 65 31 66 35 67
REMARK SMILES IDX 38 68 32 69 33 70 36 71 34 72 60 73 61 74 69 75 62 76 63 77
REMARK SMILES IDX 67 78 70 79 64 80 65 81 68 82 66 83 45 84 46 85 54 86 47 87
REMARK SMILES IDX 48 88 52 89 55 90 49 91 50 92 53 93 51 94
REMARK H PARENT 11 5 7 9 16 28 75 47 43 58
REMARK Flexibility Score: inf
ROOT
ATOM      1  C   UNL A   1      35.818  22.250  24.524  1.00  0.00     0.116 C 
ENDROOT
BRANCH   1   2
ATOM      2  N   UNL A   1      35.248  22.954  23.394  1.00  0.00    -0.351 N 
ATOM      3  C   UNL A   1      34.302  23.940  23.385  1.00  0.00     0.278 C 
ATOM      4  O   UNL A   1      33.956  24.383  22.283  1.00  0.00    -0.268 OA
ATOM      5  H   UNL A   1      35.589  22.685  22.511  1.00  0.00     0.163 HD
BRANCH   3   6
ATOM      6  C   UNL A   1      33.662  24.485  24.696  1.00  0.00     0.274 C 
ATOM      7  N   UNL A   1      32.166  24.359  24.679  1.00  0.00    -0.322 N 
ATOM      8  C   UNL A   1      31.492  25.125  25.743  1.00  0.00     0.187 C 
ATOM      9  H   UNL A   1      31.784  24.828  23.858  1.00  0.00     0.349 HD
ATOM     10  C   UNL A   1      34.218  25.889  24.933  1.00  0.00     0.076 C 
ATOM     11  C   UNL A   1      32.037  26.561  25.952  1.00  0.00     0.048 C 
ATOM     12  C   UNL A   1      29.967  25.284  25.610  1.00  0.00     0.065 C 
ATOM     13  C   UNL A   1      33.555  26.552  26.125  1.00  0.00     0.016 C 
ATOM     14  C   UNL A   1      31.606  27.611  24.904  1.00  0.00     0.010 C 
ATOM     15  C   UNL A   1      29.415  26.295  24.614  1.00  0.00     0.006 C 
ATOM     16  C   UNL A   1      30.402  27.283  24.037  1.00  0.00     0.001 C 
BRANCH   7  17
ATOM     17  C   UNL A   1      31.804  22.923  24.528  1.00  0.00     0.265 C 
BRANCH  17  18
ATOM     18  C   UNL A   1      31.933  21.836  25.610  1.00  0.00     0.090 C 
BRANCH  18  19
ATOM     19  C   UNL A   1      32.740  20.552  25.379  1.00  0.00     0.166 C 
BRANCH  19  20
ATOM     20  O   UNL A   1      32.153  19.504  24.624  1.00  0.00    -0.382 OA
BRANCH  20  21
ATOM     21  C   UNL A   1      32.970  18.429  24.196  1.00  0.00     0.156 C 
ATOM     22  C   UNL A   1      32.524  18.080  22.781  1.00  0.00     0.035 C 
ENDBRANCH  20  21
ENDBRANCH  19  20
ENDBRANCH  18  19
ENDBRANCH  17  18
ENDBRANCH   7  17
ENDBRANCH   3   6
ENDBRANCH   1   2
BRANCH   1  23
ATOM     23  C   UNL A   1      37.290  21.914  24.309  1.00  0.00     0.023 C 
BRANCH  23  24
ATOM     24  C   UNL A   1      37.753  20.637  25.006  1.00  0.00     0.023 C 
BRANCH  24  25
ATOM     25  C   UNL A   1      38.991  20.797  25.878  1.00  0.00     0.116 C 
BRANCH  25  26
ATOM     26  N   UNL A   1      39.816  19.597  25.931  1.00  0.00    -0.352 N 
ATOM     27  C   UNL A   1      41.175  19.499  26.126  1.00  0.00     0.251 C 
ATOM     28  H   UNL A   1      39.337  18.745  25.811  1.00  0.00     0.163 HD
ATOM     29  O   UNL A   1      41.751  18.427  26.026  1.00  0.00    -0.269 OA
BRANCH  27  30
ATOM     30  C   UNL A   1      41.936  20.729  26.425  1.00  0.00     0.039 A 
ATOM     31  C   UNL A   1      42.301  21.574  25.375  1.00  0.00     0.014 A 
ATOM     32  C   UNL A   1      42.218  21.073  27.749  1.00  0.00     0.014 A 
ATOM     33  C   UNL A   1      42.874  22.815  25.660  1.00  0.00     0.010 A 
ATOM     34  C   UNL A   1      42.723  22.336  28.034  1.00  0.00     0.010 A 
ATOM     35  C   UNL A   1      43.045  23.223  26.992  1.00  0.00    -0.014 A 
BRANCH  35  36
ATOM     36  C   UNL A   1      43.543  24.577  27.343  1.00  0.00     0.031 A 
ATOM     37  C   UNL A   1      42.588  25.602  27.883  1.00  0.00     0.074 A 
ATOM     38  C   UNL A   1      44.816  24.916  27.065  1.00  0.00     0.049 A 
ATOM     39  N   UNL A   1      42.769  26.882  28.080  1.00  0.00    -0.248 NA
ATOM     40  C   UNL A   1      41.236  25.125  28.215  1.00  0.00     0.031 C 
ATOM     41  C   UNL A   1      45.830  24.021  26.506  1.00  0.00     0.029 A 
ATOM     42  N   UNL A   1      45.468  26.119  27.190  1.00  0.00    -0.354 N 
ATOM     43  C   UNL A   1      41.549  27.369  28.528  1.00  0.00     0.074 A 
ATOM     44  C   UNL A   1      40.624  26.256  28.536  1.00  0.00     0.031 C 
ATOM     45  C   UNL A   1      46.976  24.703  26.339  1.00  0.00     0.029 A 
ATOM     46  C   UNL A   1      46.764  26.092  26.736  1.00  0.00     0.049 A 
ATOM     47  H   UNL A   1      45.047  26.924  27.569  1.00  0.00     0.167 HD
ATOM     48  C   UNL A   1      41.233  28.629  28.912  1.00  0.00     0.037 A 
ATOM     49  C   UNL A   1      47.673  27.081  26.630  1.00  0.00     0.037 A 
ATOM     50  C   UNL A   1      42.166  29.724  28.934  1.00  0.00     0.049 A 
ATOM     51  C   UNL A   1      47.298  28.473  27.061  1.00  0.00     0.074 A 
ATOM     52  C   UNL A   1      41.962  31.022  29.365  1.00  0.00     0.029 A 
ATOM     53  N   UNL A   1      43.484  29.645  28.506  1.00  0.00    -0.354 N 
ATOM     54  N   UNL A   1      46.157  28.913  27.533  1.00  0.00    -0.248 NA
ATOM     55  C   UNL A   1      48.337  29.507  26.948  1.00  0.00     0.031 C 
ATOM     56  C   UNL A   1      43.143  31.741  29.160  1.00  0.00     0.029 A 
ATOM     57  C   UNL A   1      44.098  30.878  28.647  1.00  0.00     0.049 A 
ATOM     58  H   UNL A   1      43.917  28.835  28.154  1.00  0.00     0.167 HD
ATOM     59  C   UNL A   1      46.349  30.261  27.806  1.00  0.00     0.074 A 
ATOM     60  C   UNL A   1      47.718  30.568  27.448  1.00  0.00     0.031 C 
ATOM     61  C   UNL A   1      45.470  31.160  28.309  1.00  0.00     0.037 A 
BRANCH  48  62
ATOM     62  C   UNL A   1      39.818  28.890  29.337  1.00  0.00     0.064 A 
ATOM     63  C   UNL A   1      38.840  29.309  28.423  1.00  0.00     0.173 A 
ATOM     64  C   UNL A   1      39.428  28.686  30.669  1.00  0.00     0.173 A 
ATOM     65  F   UNL A   1      39.164  29.529  27.140  1.00  0.00    -0.203 F 
ATOM     66  C   UNL A   1      37.531  29.546  28.835  1.00  0.00     0.198 A 
ATOM     67  C   UNL A   1      38.111  28.894  31.070  1.00  0.00     0.198 A 
ATOM     68  F   UNL A   1      40.323  28.280  31.583  1.00  0.00    -0.203 F 
ATOM     69  F   UNL A   1      36.626  29.996  27.954  1.00  0.00    -0.200 F 
ATOM     70  C   UNL A   1      37.166  29.332  30.155  1.00  0.00     0.200 A 
ATOM     71  F   UNL A   1      37.757  28.674  32.343  1.00  0.00    -0.200 F 
ATOM     72  F   UNL A   1      35.903  29.554  30.547  1.00  0.00    -0.200 F 
ENDBRANCH  48  62
BRANCH  49  73
ATOM     73  C   UNL A   1      49.031  26.787  26.104  1.00  0.00     0.064 A 
ATOM     74  C   UNL A   1      49.338  26.998  24.753  1.00  0.00     0.173 A 
ATOM     75  C   UNL A   1      50.049  26.297  26.936  1.00  0.00     0.173 A 
ATOM     76  F   UNL A   1      48.391  27.446  23.915  1.00  0.00    -0.203 F 
ATOM     77  C   UNL A   1      50.604  26.712  24.249  1.00  0.00     0.198 A 
ATOM     78  C   UNL A   1      51.323  26.036  26.435  1.00  0.00     0.198 A 
ATOM     79  F   UNL A   1      49.808  26.082  28.237  1.00  0.00    -0.203 F 
ATOM     80  F   UNL A   1      50.858  26.884  22.944  1.00  0.00    -0.200 F 
ATOM     81  C   UNL A   1      51.597  26.237  25.091  1.00  0.00     0.200 A 
ATOM     82  F   UNL A   1      52.284  25.591  27.256  1.00  0.00    -0.200 F 
ATOM     83  F   UNL A   1      52.818  25.967  24.607  1.00  0.00    -0.200 F 
ENDBRANCH  49  73
BRANCH  61  84
ATOM     84  C   UNL A   1      45.969  32.552  28.562  1.00  0.00     0.064 A 
ATOM     85  C   UNL A   1      46.567  32.911  29.777  1.00  0.00     0.173 A 
ATOM     86  C   UNL A   1      45.910  33.517  27.545  1.00  0.00     0.173 A 
ATOM     87  F   UNL A   1      46.633  32.029  30.786  1.00  0.00    -0.203 F 
ATOM     88  C   UNL A   1      47.080  34.192  29.970  1.00  0.00     0.198 A 
ATOM     89  C   UNL A   1      46.448  34.787  27.731  1.00  0.00     0.198 A 
ATOM     90  F   UNL A   1      45.352  33.219  26.362  1.00  0.00    -0.203 F 
ATOM     91  F   UNL A   1      47.620  34.526  31.150  1.00  0.00    -0.200 F 
ATOM     92  C   UNL A   1      47.029  35.125  28.944  1.00  0.00     0.200 A 
ATOM     93  F   UNL A   1      46.409  35.682  26.734  1.00  0.00    -0.200 F 
ATOM     94  F   UNL A   1      47.537  36.351  29.124  1.00  0.00    -0.200 F 
ENDBRANCH  61  84
ENDBRANCH  35  36
ENDBRANCH  27  30
ENDBRANCH  25  26
ENDBRANCH  24  25
ENDBRANCH  23  24
ENDBRANCH   1  23
TORSDOF 16
ENDMDL
