MODEL 1
REMARK VINA RESULT:     -11.0      0.000      0.000
REMARK SMILES CS(=O)(=O)c1ccc(C2=NN(c3ccc(C(=O)NCCCCNC(=O)c4ccc(-c5c6nc(c(-c7c(F)c(F)c(F)c(F)c7F)c7ccc([nH]7)c(-c7c(F)c(F)c(F)c(F)c7F)c7nc(c(-c8c(F)c(F)c(F)c(F)c8F)c8ccc5[nH]8)C=C7)C=C6)cc4)cc3)[C@H](c3ccccc3)C2)cc1
REMARK SMILES IDX 20 1 19 2 18 3 16 4 17 5 15 7 12 8 13 9 90 10 14 11 89 12
REMARK SMILES IDX 11 13 9 14 10 15 98 16 91 17 8 18 5 19 6 20 100 21 7 22
REMARK SMILES IDX 99 23 2 24 1 25 3 26 4 27 92 28 93 29 97 30 94 31 96 32
REMARK SMILES IDX 95 33 21 34 22 35 23 36 24 37 25 39 26 40 27 41 88 42 28 43
REMARK SMILES IDX 87 44 29 45 30 46 31 47 81 48 32 49 86 50 80 51 82 52 33 53
REMARK SMILES IDX 85 54 79 55 78 56 34 58 66 59 46 60 65 61 47 62 50 63 64 64
REMARK SMILES IDX 83 65 48 66 49 67 63 69 84 70 51 71 35 72 36 73 44 74 37 75
REMARK SMILES IDX 38 76 42 77 45 78 39 79 40 80 43 81 41 82 67 83 68 84 76 85
REMARK SMILES IDX 69 86 70 87 74 88 77 89 71 90 72 91 75 92 73 93 52 94 53 95
REMARK SMILES IDX 61 96 54 97 55 98 59 99 62 100 56 101 57 102 60 103 58 104
REMARK H PARENT 18 6 23 38 82 57 50 68
REMARK Flexibility Score: inf
ROOT
ATOM      1  C   UNL A   1      34.819  35.108  29.233  1.00  0.00     0.023 C 
ENDROOT
BRANCH   1   2
ATOM      2  C   UNL A   1      33.762  34.926  30.325  1.00  0.00     0.116 C 
BRANCH   2   3
ATOM      3  N   UNL A   1      33.734  36.075  31.209  1.00  0.00    -0.352 N 
ATOM      4  C   UNL A   1      34.372  36.306  32.405  1.00  0.00     0.251 C 
ATOM      5  O   UNL A   1      34.232  37.404  32.940  1.00  0.00    -0.269 OA
ATOM      6  H   UNL A   1      33.162  36.815  30.901  1.00  0.00     0.163 HD
BRANCH   4   7
ATOM      7  C   UNL A   1      35.280  35.301  33.015  1.00  0.00     0.039 A 
ATOM      8  C   UNL A   1      37.016  33.567  34.391  1.00  0.00     0.060 A 
ATOM      9  C   UNL A   1      35.735  33.827  34.888  1.00  0.00     0.029 A 
ATOM     10  C   UNL A   1      37.373  34.097  33.151  1.00  0.00     0.029 A 
ATOM     11  C   UNL A   1      34.869  34.686  34.203  1.00  0.00     0.016 A 
ATOM     12  C   UNL A   1      36.509  34.942  32.460  1.00  0.00     0.016 A 
BRANCH   8  13
ATOM     13  N   UNL A   1      37.923  32.797  35.086  1.00  0.00    -0.257 N 
ATOM     14  C   UNL A   1      39.257  31.173  35.304  1.00  0.00     0.071 C 
ATOM     15  N   UNL A   1      38.695  31.922  34.411  1.00  0.00    -0.176 NA
ATOM     16  C   UNL A   1      38.869  31.457  36.732  1.00  0.00     0.091 C 
ATOM     17  C   UNL A   1      38.080  32.769  36.543  1.00  0.00     0.144 C 
BRANCH  14  18
ATOM     18  C   UNL A   1      40.183  30.096  34.924  1.00  0.00    -0.002 A 
ATOM     19  C   UNL A   1      42.097  28.199  34.255  1.00  0.00     0.067 A 
ATOM     20  C   UNL A   1      42.053  28.693  35.559  1.00  0.00     0.021 A 
ATOM     21  C   UNL A   1      41.199  28.653  33.280  1.00  0.00     0.021 A 
ATOM     22  C   UNL A   1      41.096  29.650  35.890  1.00  0.00     0.011 A 
ATOM     23  C   UNL A   1      40.226  29.598  33.620  1.00  0.00     0.011 A 
BRANCH  19  24
ATOM     24  S   UNL A   1      43.364  27.035  33.808  1.00  0.00     0.175 S 
ATOM     25  C   UNL A   1      44.851  27.830  34.354  1.00  0.00     0.163 C 
ATOM     26  O   UNL A   1      43.403  26.954  32.363  1.00  0.00    -0.224 OA
ATOM     27  O   UNL A   1      43.162  25.845  34.617  1.00  0.00    -0.224 OA
ENDBRANCH  19  24
ENDBRANCH  14  18
BRANCH  17  28
ATOM     28  C   UNL A   1      38.707  34.066  37.055  1.00  0.00    -0.023 A 
ATOM     29  C   UNL A   1      38.676  34.487  38.394  1.00  0.00     0.006 A 
ATOM     30  C   UNL A   1      39.388  34.892  36.135  1.00  0.00     0.006 A 
ATOM     31  C   UNL A   1      39.291  35.683  38.790  1.00  0.00     0.000 A 
ATOM     32  C   UNL A   1      40.028  36.067  36.535  1.00  0.00     0.000 A 
ATOM     33  C   UNL A   1      39.973  36.467  37.864  1.00  0.00     0.000 A 
ENDBRANCH  17  28
ENDBRANCH   8  13
ENDBRANCH   4   7
ENDBRANCH   2   3
ENDBRANCH   1   2
BRANCH   1  34
ATOM     34  C   UNL A   1      35.440  33.801  28.746  1.00  0.00     0.023 C 
BRANCH  34  35
ATOM     35  C   UNL A   1      34.940  32.559  29.467  1.00  0.00     0.116 C 
BRANCH  35  36
ATOM     36  N   UNL A   1      34.037  31.749  28.661  1.00  0.00    -0.352 N 
ATOM     37  C   UNL A   1      34.312  30.561  28.026  1.00  0.00     0.251 C 
ATOM     38  H   UNL A   1      33.120  32.093  28.559  1.00  0.00     0.163 HD
ATOM     39  O   UNL A   1      33.491  30.029  27.287  1.00  0.00    -0.269 OA
BRANCH  37  40
ATOM     40  C   UNL A   1      35.645  29.959  28.222  1.00  0.00     0.039 A 
ATOM     41  C   UNL A   1      36.619  30.133  27.239  1.00  0.00     0.014 A 
ATOM     42  C   UNL A   1      35.949  29.328  29.430  1.00  0.00     0.014 A 
ATOM     43  C   UNL A   1      37.933  29.743  27.503  1.00  0.00     0.010 A 
ATOM     44  C   UNL A   1      37.270  29.017  29.722  1.00  0.00     0.010 A 
ATOM     45  C   UNL A   1      38.276  29.228  28.765  1.00  0.00    -0.014 A 
BRANCH  45  46
ATOM     46  C   UNL A   1      39.680  28.909  29.123  1.00  0.00     0.031 A 
ATOM     47  C   UNL A   1      40.511  29.927  29.849  1.00  0.00     0.074 A 
ATOM     48  C   UNL A   1      40.234  27.752  28.709  1.00  0.00     0.049 A 
ATOM     49  N   UNL A   1      41.790  29.912  30.125  1.00  0.00    -0.248 NA
ATOM     50  C   UNL A   1      39.813  31.143  30.297  1.00  0.00     0.031 C 
ATOM     51  C   UNL A   1      39.542  26.701  27.962  1.00  0.00     0.029 A 
ATOM     52  N   UNL A   1      41.516  27.278  28.837  1.00  0.00    -0.354 N 
ATOM     53  C   UNL A   1      42.050  31.117  30.763  1.00  0.00     0.074 A 
ATOM     54  C   UNL A   1      40.812  31.866  30.777  1.00  0.00     0.031 C 
ATOM     55  C   UNL A   1      40.403  25.703  27.707  1.00  0.00     0.029 A 
ATOM     56  C   UNL A   1      41.718  26.065  28.227  1.00  0.00     0.049 A 
ATOM     57  H   UNL A   1      42.224  27.762  29.322  1.00  0.00     0.167 HD
ATOM     58  C   UNL A   1      43.212  31.549  31.309  1.00  0.00     0.037 A 
ATOM     59  C   UNL A   1      42.843  25.337  28.081  1.00  0.00     0.037 A 
ATOM     60  C   UNL A   1      44.436  30.794  31.299  1.00  0.00     0.049 A 
ATOM     61  C   UNL A   1      44.131  25.854  28.666  1.00  0.00     0.074 A 
ATOM     62  C   UNL A   1      45.657  31.123  31.859  1.00  0.00     0.029 A 
ATOM     63  N   UNL A   1      44.596  29.556  30.691  1.00  0.00    -0.354 N 
ATOM     64  N   UNL A   1      44.356  26.970  29.317  1.00  0.00    -0.248 NA
ATOM     65  C   UNL A   1      45.321  25.008  28.501  1.00  0.00     0.031 C 
ATOM     66  C   UNL A   1      46.571  30.113  31.541  1.00  0.00     0.029 A 
ATOM     67  C   UNL A   1      45.902  29.120  30.843  1.00  0.00     0.049 A 
ATOM     68  H   UNL A   1      43.887  29.061  30.221  1.00  0.00     0.167 HD
ATOM     69  C   UNL A   1      45.699  26.943  29.669  1.00  0.00     0.074 A 
ATOM     70  C   UNL A   1      46.237  25.697  29.167  1.00  0.00     0.031 C 
ATOM     71  C   UNL A   1      46.420  27.867  30.351  1.00  0.00     0.037 A 
BRANCH  58  72
ATOM     72  C   UNL A   1      43.208  32.902  31.960  1.00  0.00     0.064 A 
ATOM     73  C   UNL A   1      43.443  34.075  31.225  1.00  0.00     0.173 A 
ATOM     74  C   UNL A   1      42.946  33.033  33.332  1.00  0.00     0.173 A 
ATOM     75  F   UNL A   1      43.711  34.007  29.912  1.00  0.00    -0.203 F 
ATOM     76  C   UNL A   1      43.452  35.321  31.845  1.00  0.00     0.198 A 
ATOM     77  C   UNL A   1      42.919  34.284  33.942  1.00  0.00     0.198 A 
ATOM     78  F   UNL A   1      42.709  31.947  34.083  1.00  0.00    -0.203 F 
ATOM     79  F   UNL A   1      43.741  36.420  31.133  1.00  0.00    -0.200 F 
ATOM     80  C   UNL A   1      43.183  35.425  33.201  1.00  0.00     0.200 A 
ATOM     81  F   UNL A   1      42.643  34.384  35.249  1.00  0.00    -0.200 F 
ATOM     82  F   UNL A   1      43.186  36.627  33.796  1.00  0.00    -0.200 F 
ENDBRANCH  58  72
BRANCH  59  83
ATOM     83  C   UNL A   1      42.801  24.040  27.355  1.00  0.00     0.064 A 
ATOM     84  C   UNL A   1      42.426  22.859  28.010  1.00  0.00     0.173 A 
ATOM     85  C   UNL A   1      43.140  23.951  25.997  1.00  0.00     0.173 A 
ATOM     86  F   UNL A   1      42.113  22.887  29.313  1.00  0.00    -0.203 F 
ATOM     87  C   UNL A   1      42.415  21.636  27.341  1.00  0.00     0.198 A 
ATOM     88  C   UNL A   1      43.097  22.733  25.321  1.00  0.00     0.198 A 
ATOM     89  F   UNL A   1      43.500  25.052  25.321  1.00  0.00    -0.203 F 
ATOM     90  F   UNL A   1      42.102  20.515  28.006  1.00  0.00    -0.200 F 
ATOM     91  C   UNL A   1      42.744  21.575  25.996  1.00  0.00     0.200 A 
ATOM     92  F   UNL A   1      43.399  22.683  24.016  1.00  0.00    -0.200 F 
ATOM     93  F   UNL A   1      42.729  20.400  25.353  1.00  0.00    -0.200 F 
ENDBRANCH  59  83
BRANCH  71  94
ATOM     94  C   UNL A   1      47.857  27.548  30.648  1.00  0.00     0.064 A 
ATOM     95  C   UNL A   1      48.904  28.017  29.841  1.00  0.00     0.173 A 
ATOM     96  C   UNL A   1      48.192  26.811  31.796  1.00  0.00     0.173 A 
ATOM     97  F   UNL A   1      48.637  28.712  28.725  1.00  0.00    -0.203 F 
ATOM     98  C   UNL A   1      50.232  27.742  30.160  1.00  0.00     0.198 A 
ATOM     99  C   UNL A   1      49.521  26.568  32.130  1.00  0.00     0.198 A 
ATOM    100  F   UNL A   1      47.230  26.346  32.606  1.00  0.00    -0.203 F 
ATOM    101  F   UNL A   1      51.213  28.162  29.351  1.00  0.00    -0.200 F 
ATOM    102  C   UNL A   1      50.539  27.027  31.309  1.00  0.00     0.200 A 
ATOM    103  F   UNL A   1      49.816  25.893  33.249  1.00  0.00    -0.200 F 
ATOM    104  F   UNL A   1      51.817  26.778  31.622  1.00  0.00    -0.200 F 
ENDBRANCH  71  94
ENDBRANCH  45  46
ENDBRANCH  37  40
ENDBRANCH  35  36
ENDBRANCH  34  35
ENDBRANCH   1  34
TORSDOF 15
ENDMDL
MODEL 2
REMARK VINA RESULT:     -10.8      2.418      4.294
REMARK SMILES CS(=O)(=O)c1ccc(C2=NN(c3ccc(C(=O)NCCCCNC(=O)c4ccc(-c5c6nc(c(-c7c(F)c(F)c(F)c(F)c7F)c7ccc([nH]7)c(-c7c(F)c(F)c(F)c(F)c7F)c7nc(c(-c8c(F)c(F)c(F)c(F)c8F)c8ccc5[nH]8)C=C7)C=C6)cc4)cc3)[C@H](c3ccccc3)C2)cc1
REMARK SMILES IDX 20 1 19 2 18 3 16 4 17 5 15 7 12 8 13 9 90 10 14 11 89 12
REMARK SMILES IDX 11 13 9 14 10 15 98 16 91 17 8 18 5 19 6 20 100 21 7 22
REMARK SMILES IDX 99 23 2 24 1 25 3 26 4 27 92 28 93 29 97 30 94 31 96 32
REMARK SMILES IDX 95 33 21 34 22 35 23 36 24 37 25 39 26 40 27 41 88 42 28 43
REMARK SMILES IDX 87 44 29 45 30 46 31 47 81 48 32 49 86 50 80 51 82 52 33 53
REMARK SMILES IDX 85 54 79 55 78 56 34 58 66 59 46 60 65 61 47 62 50 63 64 64
REMARK SMILES IDX 83 65 48 66 49 67 63 69 84 70 51 71 35 72 36 73 44 74 37 75
REMARK SMILES IDX 38 76 42 77 45 78 39 79 40 80 43 81 41 82 67 83 68 84 76 85
REMARK SMILES IDX 69 86 70 87 74 88 77 89 71 90 72 91 75 92 73 93 52 94 53 95
REMARK SMILES IDX 61 96 54 97 55 98 59 99 62 100 56 101 57 102 60 103 58 104
REMARK H PARENT 18 6 23 38 82 57 50 68
REMARK Flexibility Score: inf
ROOT
ATOM      1  C   UNL A   1      33.305  34.566  28.846  1.00  0.00     0.023 C 
ENDROOT
BRANCH   1   2
ATOM      2  C   UNL A   1      34.567  34.936  29.629  1.00  0.00     0.116 C 
BRANCH   2   3
ATOM      3  N   UNL A   1      35.757  34.618  28.864  1.00  0.00    -0.352 N 
ATOM      4  C   UNL A   1      36.944  34.041  29.247  1.00  0.00     0.251 C 
ATOM      5  O   UNL A   1      37.791  33.817  28.384  1.00  0.00    -0.269 OA
ATOM      6  H   UNL A   1      35.707  34.856  27.910  1.00  0.00     0.163 HD
BRANCH   4   7
ATOM      7  C   UNL A   1      37.191  33.612  30.648  1.00  0.00     0.039 A 
ATOM      8  C   UNL A   1      37.924  32.759  33.227  1.00  0.00     0.060 A 
ATOM      9  C   UNL A   1      38.462  33.933  32.691  1.00  0.00     0.029 A 
ATOM     10  C   UNL A   1      36.942  32.081  32.504  1.00  0.00     0.029 A 
ATOM     11  C   UNL A   1      38.096  34.361  31.409  1.00  0.00     0.016 A 
ATOM     12  C   UNL A   1      36.565  32.513  31.235  1.00  0.00     0.016 A 
BRANCH   8  13
ATOM     13  N   UNL A   1      38.331  32.264  34.447  1.00  0.00    -0.257 N 
ATOM     14  C   UNL A   1      38.203  32.055  36.546  1.00  0.00     0.071 C 
ATOM     15  N   UNL A   1      37.498  32.355  35.502  1.00  0.00    -0.176 NA
ATOM     16  C   UNL A   1      39.657  31.758  36.287  1.00  0.00     0.091 C 
ATOM     17  C   UNL A   1      39.652  31.707  34.745  1.00  0.00     0.144 C 
BRANCH  14  18
ATOM     18  C   UNL A   1      37.610  32.047  37.891  1.00  0.00    -0.002 A 
ATOM     19  C   UNL A   1      36.691  32.068  40.511  1.00  0.00     0.067 A 
ATOM     20  C   UNL A   1      37.312  33.207  39.996  1.00  0.00     0.021 A 
ATOM     21  C   UNL A   1      36.535  30.916  39.730  1.00  0.00     0.021 A 
ATOM     22  C   UNL A   1      37.777  33.191  38.684  1.00  0.00     0.011 A 
ATOM     23  C   UNL A   1      36.986  30.909  38.406  1.00  0.00     0.011 A 
BRANCH  19  24
ATOM     24  S   UNL A   1      36.163  32.056  42.209  1.00  0.00     0.175 S 
ATOM     25  C   UNL A   1      37.201  30.821  42.944  1.00  0.00     0.163 C 
ATOM     26  O   UNL A   1      34.798  31.576  42.246  1.00  0.00    -0.224 OA
ATOM     27  O   UNL A   1      36.518  33.345  42.779  1.00  0.00    -0.224 OA
ENDBRANCH  19  24
ENDBRANCH  14  18
BRANCH  17  28
ATOM     28  C   UNL A   1      39.844  30.348  34.069  1.00  0.00    -0.023 A 
ATOM     29  C   UNL A   1      38.813  29.609  33.469  1.00  0.00     0.006 A 
ATOM     30  C   UNL A   1      41.145  29.802  34.017  1.00  0.00     0.006 A 
ATOM     31  C   UNL A   1      39.072  28.376  32.853  1.00  0.00     0.000 A 
ATOM     32  C   UNL A   1      41.408  28.590  33.374  1.00  0.00     0.000 A 
ATOM     33  C   UNL A   1      40.368  27.872  32.798  1.00  0.00     0.000 A 
ENDBRANCH  17  28
ENDBRANCH   8  13
ENDBRANCH   4   7
ENDBRANCH   2   3
ENDBRANCH   1   2
BRANCH   1  34
ATOM     34  C   UNL A   1      33.478  33.361  27.923  1.00  0.00     0.023 C 
BRANCH  34  35
ATOM     35  C   UNL A   1      34.028  32.118  28.605  1.00  0.00     0.116 C 
BRANCH  35  36
ATOM     36  N   UNL A   1      33.607  30.877  27.968  1.00  0.00    -0.352 N 
ATOM     37  C   UNL A   1      34.375  29.770  27.694  1.00  0.00     0.251 C 
ATOM     38  H   UNL A   1      32.661  30.825  27.703  1.00  0.00     0.163 HD
ATOM     39  O   UNL A   1      33.926  28.826  27.056  1.00  0.00    -0.269 OA
BRANCH  37  40
ATOM     40  C   UNL A   1      35.778  29.765  28.153  1.00  0.00     0.039 A 
ATOM     41  C   UNL A   1      36.066  29.334  29.448  1.00  0.00     0.014 A 
ATOM     42  C   UNL A   1      36.801  30.079  27.256  1.00  0.00     0.014 A 
ATOM     43  C   UNL A   1      37.397  29.137  29.821  1.00  0.00     0.010 A 
ATOM     44  C   UNL A   1      38.117  29.803  27.601  1.00  0.00     0.010 A 
ATOM     45  C   UNL A   1      38.427  29.322  28.884  1.00  0.00    -0.014 A 
BRANCH  45  46
ATOM     46  C   UNL A   1      39.842  29.014  29.208  1.00  0.00     0.031 A 
ATOM     47  C   UNL A   1      40.685  30.042  29.906  1.00  0.00     0.074 A 
ATOM     48  C   UNL A   1      40.393  27.858  28.787  1.00  0.00     0.049 A 
ATOM     49  N   UNL A   1      41.971  30.036  30.149  1.00  0.00    -0.248 NA
ATOM     50  C   UNL A   1      39.991  31.257  30.363  1.00  0.00     0.031 C 
ATOM     51  C   UNL A   1      39.688  26.798  28.065  1.00  0.00     0.029 A 
ATOM     52  N   UNL A   1      41.681  27.393  28.885  1.00  0.00    -0.354 N 
ATOM     53  C   UNL A   1      42.240  31.247  30.772  1.00  0.00     0.074 A 
ATOM     54  C   UNL A   1      40.998  31.989  30.814  1.00  0.00     0.031 C 
ATOM     55  C   UNL A   1      40.549  25.803  27.794  1.00  0.00     0.029 A 
ATOM     56  C   UNL A   1      41.875  26.177  28.277  1.00  0.00     0.049 A 
ATOM     57  H   UNL A   1      42.398  27.884  29.348  1.00  0.00     0.167 HD
ATOM     58  C   UNL A   1      43.413  31.690  31.285  1.00  0.00     0.037 A 
ATOM     59  C   UNL A   1      43.000  25.455  28.107  1.00  0.00     0.037 A 
ATOM     60  C   UNL A   1      44.641  30.942  31.248  1.00  0.00     0.049 A 
ATOM     61  C   UNL A   1      44.299  25.983  28.655  1.00  0.00     0.074 A 
ATOM     62  C   UNL A   1      45.874  31.283  31.775  1.00  0.00     0.029 A 
ATOM     63  N   UNL A   1      44.793  29.701  30.644  1.00  0.00    -0.354 N 
ATOM     64  N   UNL A   1      44.534  27.105  29.293  1.00  0.00    -0.248 NA
ATOM     65  C   UNL A   1      45.490  25.144  28.464  1.00  0.00     0.031 C 
ATOM     66  C   UNL A   1      46.785  30.276  31.440  1.00  0.00     0.029 A 
ATOM     67  C   UNL A   1      46.105  29.274  30.765  1.00  0.00     0.049 A 
ATOM     68  H   UNL A   1      44.075  29.199  30.196  1.00  0.00     0.167 HD
ATOM     69  C   UNL A   1      45.886  27.089  29.611  1.00  0.00     0.074 A 
ATOM     70  C   UNL A   1      46.419  25.843  29.103  1.00  0.00     0.031 C 
ATOM     71  C   UNL A   1      46.618  28.022  30.268  1.00  0.00     0.037 A 
BRANCH  58  72
ATOM     72  C   UNL A   1      43.418  33.048  31.927  1.00  0.00     0.064 A 
ATOM     73  C   UNL A   1      43.300  33.207  33.317  1.00  0.00     0.173 A 
ATOM     74  C   UNL A   1      43.563  34.205  31.147  1.00  0.00     0.173 A 
ATOM     75  F   UNL A   1      43.147  32.134  34.109  1.00  0.00    -0.203 F 
ATOM     76  C   UNL A   1      43.290  34.472  33.897  1.00  0.00     0.198 A 
ATOM     77  C   UNL A   1      43.590  35.467  31.734  1.00  0.00     0.198 A 
ATOM     78  F   UNL A   1      43.684  34.113  29.814  1.00  0.00    -0.203 F 
ATOM     79  F   UNL A   1      43.114  34.600  35.219  1.00  0.00    -0.200 F 
ATOM     80  C   UNL A   1      43.442  35.601  33.105  1.00  0.00     0.200 A 
ATOM     81  F   UNL A   1      43.753  36.555  30.969  1.00  0.00    -0.200 F 
ATOM     82  F   UNL A   1      43.438  36.819  33.665  1.00  0.00    -0.200 F 
ENDBRANCH  58  72
BRANCH  59  83
ATOM     83  C   UNL A   1      42.947  24.154  27.390  1.00  0.00     0.064 A 
ATOM     84  C   UNL A   1      43.243  24.070  26.022  1.00  0.00     0.173 A 
ATOM     85  C   UNL A   1      42.594  22.968  28.052  1.00  0.00     0.173 A 
ATOM     86  F   UNL A   1      43.566  25.178  25.339  1.00  0.00    -0.203 F 
ATOM     87  C   UNL A   1      43.165  22.857  25.340  1.00  0.00     0.198 A 
ATOM     88  C   UNL A   1      42.548  21.751  27.376  1.00  0.00     0.198 A 
ATOM     89  F   UNL A   1      42.307  22.991  29.362  1.00  0.00    -0.203 F 
ATOM     90  F   UNL A   1      43.403  22.817  24.022  1.00  0.00    -0.200 F 
ATOM     91  C   UNL A   1      42.823  21.698  26.018  1.00  0.00     0.200 A 
ATOM     92  F   UNL A   1      42.234  20.630  28.040  1.00  0.00    -0.200 F 
ATOM     93  F   UNL A   1      42.753  20.531  25.363  1.00  0.00    -0.200 F 
ENDBRANCH  59  83
BRANCH  71  94
ATOM     94  C   UNL A   1      48.065  27.713  30.530  1.00  0.00     0.064 A 
ATOM     95  C   UNL A   1      48.476  26.972  31.646  1.00  0.00     0.173 A 
ATOM     96  C   UNL A   1      49.047  28.116  29.611  1.00  0.00     0.173 A 
ATOM     97  F   UNL A   1      47.578  26.576  32.562  1.00  0.00    -0.203 F 
ATOM     98  C   UNL A   1      49.820  26.663  31.845  1.00  0.00     0.198 A 
ATOM     99  C   UNL A   1      50.384  27.776  29.794  1.00  0.00     0.198 A 
ATOM    100  F   UNL A   1      48.707  28.821  28.522  1.00  0.00    -0.203 F 
ATOM    101  F   UNL A   1      50.195  25.992  32.943  1.00  0.00    -0.200 F 
ATOM    102  C   UNL A   1      50.770  27.057  30.915  1.00  0.00     0.200 A 
ATOM    103  F   UNL A   1      51.298  28.142  28.885  1.00  0.00    -0.200 F 
ATOM    104  F   UNL A   1      52.060  26.745  31.100  1.00  0.00    -0.200 F 
ENDBRANCH  71  94
ENDBRANCH  45  46
ENDBRANCH  37  40
ENDBRANCH  35  36
ENDBRANCH  34  35
ENDBRANCH   1  34
TORSDOF 15
ENDMDL
MODEL 3
REMARK VINA RESULT:     -10.7      4.738     11.086
REMARK SMILES CS(=O)(=O)c1ccc(C2=NN(c3ccc(C(=O)NCCCCNC(=O)c4ccc(-c5c6nc(c(-c7c(F)c(F)c(F)c(F)c7F)c7ccc([nH]7)c(-c7c(F)c(F)c(F)c(F)c7F)c7nc(c(-c8c(F)c(F)c(F)c(F)c8F)c8ccc5[nH]8)C=C7)C=C6)cc4)cc3)[C@H](c3ccccc3)C2)cc1
REMARK SMILES IDX 20 1 19 2 18 3 16 4 17 5 15 7 12 8 13 9 90 10 14 11 89 12
REMARK SMILES IDX 11 13 9 14 10 15 98 16 91 17 8 18 5 19 6 20 100 21 7 22
REMARK SMILES IDX 99 23 2 24 1 25 3 26 4 27 92 28 93 29 97 30 94 31 96 32
REMARK SMILES IDX 95 33 21 34 22 35 23 36 24 37 25 39 26 40 27 41 88 42 28 43
REMARK SMILES IDX 87 44 29 45 30 46 31 47 81 48 32 49 86 50 80 51 82 52 33 53
REMARK SMILES IDX 85 54 79 55 78 56 34 58 66 59 46 60 65 61 47 62 50 63 64 64
REMARK SMILES IDX 83 65 48 66 49 67 63 69 84 70 51 71 35 72 36 73 44 74 37 75
REMARK SMILES IDX 38 76 42 77 45 78 39 79 40 80 43 81 41 82 67 83 68 84 76 85
REMARK SMILES IDX 69 86 70 87 74 88 77 89 71 90 72 91 75 92 73 93 52 94 53 95
REMARK SMILES IDX 61 96 54 97 55 98 59 99 62 100 56 101 57 102 60 103 58 104
REMARK H PARENT 18 6 23 38 82 57 50 68
REMARK Flexibility Score: inf
ROOT
ATOM      1  C   UNL A   1      37.344  21.207  24.652  1.00  0.00     0.023 C 
ENDROOT
BRANCH   1   2
ATOM      2  C   UNL A   1      36.048  21.244  25.466  1.00  0.00     0.116 C 
BRANCH   2   3
ATOM      3  N   UNL A   1      34.899  21.017  24.610  1.00  0.00    -0.352 N 
ATOM      4  C   UNL A   1      33.848  21.840  24.279  1.00  0.00     0.251 C 
ATOM      5  O   UNL A   1      33.017  21.431  23.471  1.00  0.00    -0.269 OA
ATOM      6  H   UNL A   1      34.865  20.125  24.197  1.00  0.00     0.163 HD
BRANCH   4   7
ATOM      7  C   UNL A   1      33.742  23.226  24.806  1.00  0.00     0.039 A 
ATOM      8  C   UNL A   1      33.264  25.821  25.780  1.00  0.00     0.060 A 
ATOM      9  C   UNL A   1      32.832  24.704  26.501  1.00  0.00     0.029 A 
ATOM     10  C   UNL A   1      34.026  25.621  24.629  1.00  0.00     0.029 A 
ATOM     11  C   UNL A   1      33.071  23.412  26.020  1.00  0.00     0.016 A 
ATOM     12  C   UNL A   1      34.279  24.336  24.155  1.00  0.00     0.016 A 
BRANCH   8  13
ATOM     13  N   UNL A   1      32.966  27.105  26.182  1.00  0.00    -0.257 N 
ATOM     14  C   UNL A   1      33.432  28.979  27.041  1.00  0.00     0.071 C 
ATOM     15  N   UNL A   1      33.974  27.955  26.463  1.00  0.00    -0.176 NA
ATOM     16  C   UNL A   1      31.942  28.896  27.251  1.00  0.00     0.091 C 
ATOM     17  C   UNL A   1      31.622  27.634  26.424  1.00  0.00     0.144 C 
BRANCH  14  18
ATOM     18  C   UNL A   1      34.243  30.121  27.487  1.00  0.00    -0.002 A 
ATOM     19  C   UNL A   1      35.858  32.147  28.485  1.00  0.00     0.067 A 
ATOM     20  C   UNL A   1      36.450  30.983  27.993  1.00  0.00     0.021 A 
ATOM     21  C   UNL A   1      34.466  32.301  28.493  1.00  0.00     0.021 A 
ATOM     22  C   UNL A   1      35.637  29.966  27.499  1.00  0.00     0.011 A 
ATOM     23  C   UNL A   1      33.653  31.287  27.977  1.00  0.00     0.011 A 
BRANCH  19  24
ATOM     24  S   UNL A   1      36.887  33.416  29.187  1.00  0.00     0.175 S 
ATOM     25  C   UNL A   1      37.325  32.749  30.769  1.00  0.00     0.163 C 
ATOM     26  O   UNL A   1      36.062  34.586  29.405  1.00  0.00    -0.224 OA
ATOM     27  O   UNL A   1      38.091  33.491  28.377  1.00  0.00    -0.224 OA
ENDBRANCH  19  24
ENDBRANCH  14  18
BRANCH  17  28
ATOM     28  C   UNL A   1      30.852  27.807  25.114  1.00  0.00    -0.023 A 
ATOM     29  C   UNL A   1      29.995  26.841  24.564  1.00  0.00     0.006 A 
ATOM     30  C   UNL A   1      30.983  29.026  24.415  1.00  0.00     0.006 A 
ATOM     31  C   UNL A   1      29.309  27.082  23.366  1.00  0.00     0.000 A 
ATOM     32  C   UNL A   1      30.275  29.279  23.238  1.00  0.00     0.000 A 
ATOM     33  C   UNL A   1      29.442  28.302  22.709  1.00  0.00     0.000 A 
ENDBRANCH  17  28
ENDBRANCH   8  13
ENDBRANCH   4   7
ENDBRANCH   2   3
ENDBRANCH   1   2
BRANCH   1  34
ATOM     34  C   UNL A   1      38.263  20.038  25.001  1.00  0.00     0.023 C 
BRANCH  34  35
ATOM     35  C   UNL A   1      39.308  20.353  26.060  1.00  0.00     0.116 C 
BRANCH  35  36
ATOM     36  N   UNL A   1      40.286  19.288  26.239  1.00  0.00    -0.352 N 
ATOM     37  C   UNL A   1      41.643  19.413  26.416  1.00  0.00     0.251 C 
ATOM     38  H   UNL A   1      39.932  18.369  26.232  1.00  0.00     0.163 HD
ATOM     39  O   UNL A   1      42.375  18.430  26.449  1.00  0.00    -0.269 OA
BRANCH  37  40
ATOM     40  C   UNL A   1      42.209  20.772  26.523  1.00  0.00     0.039 A 
ATOM     41  C   UNL A   1      42.308  21.558  25.375  1.00  0.00     0.014 A 
ATOM     42  C   UNL A   1      42.527  21.293  27.779  1.00  0.00     0.014 A 
ATOM     43  C   UNL A   1      42.651  22.905  25.497  1.00  0.00     0.010 A 
ATOM     44  C   UNL A   1      42.787  22.651  27.907  1.00  0.00     0.010 A 
ATOM     45  C   UNL A   1      42.844  23.471  26.768  1.00  0.00    -0.014 A 
BRANCH  45  46
ATOM     46  C   UNL A   1      43.098  24.922  26.947  1.00  0.00     0.031 A 
ATOM     47  C   UNL A   1      44.334  25.537  26.358  1.00  0.00     0.074 A 
ATOM     48  C   UNL A   1      42.276  25.660  27.718  1.00  0.00     0.049 A 
ATOM     49  N   UNL A   1      44.821  26.742  26.517  1.00  0.00    -0.248 NA
ATOM     50  C   UNL A   1      45.154  24.667  25.498  1.00  0.00     0.031 C 
ATOM     51  C   UNL A   1      41.065  25.169  28.377  1.00  0.00     0.029 A 
ATOM     52  N   UNL A   1      42.348  26.978  28.098  1.00  0.00    -0.354 N 
ATOM     53  C   UNL A   1      46.005  26.768  25.792  1.00  0.00     0.074 A 
ATOM     54  C   UNL A   1      46.196  25.443  25.245  1.00  0.00     0.031 C 
ATOM     55  C   UNL A   1      40.503  26.172  29.071  1.00  0.00     0.029 A 
ATOM     56  C   UNL A   1      41.340  27.362  28.948  1.00  0.00     0.049 A 
ATOM     57  H   UNL A   1      43.055  27.590  27.790  1.00  0.00     0.167 HD
ATOM     58  C   UNL A   1      46.843  27.811  25.583  1.00  0.00     0.037 A 
ATOM     59  C   UNL A   1      41.128  28.534  29.578  1.00  0.00     0.037 A 
ATOM     60  C   UNL A   1      46.640  29.128  26.123  1.00  0.00     0.049 A 
ATOM     61  C   UNL A   1      42.092  29.670  29.357  1.00  0.00     0.074 A 
ATOM     62  C   UNL A   1      47.408  30.264  25.938  1.00  0.00     0.029 A 
ATOM     63  N   UNL A   1      45.592  29.486  26.962  1.00  0.00    -0.354 N 
ATOM     64  N   UNL A   1      43.180  29.702  28.625  1.00  0.00    -0.248 NA
ATOM     65  C   UNL A   1      41.799  30.933  30.047  1.00  0.00     0.031 C 
ATOM     66  C   UNL A   1      46.858  31.293  26.710  1.00  0.00     0.029 A 
ATOM     67  C   UNL A   1      45.709  30.819  27.321  1.00  0.00     0.049 A 
ATOM     68  H   UNL A   1      44.874  28.882  27.257  1.00  0.00     0.167 HD
ATOM     69  C   UNL A   1      43.678  30.993  28.736  1.00  0.00     0.074 A 
ATOM     70  C   UNL A   1      42.770  31.717  29.600  1.00  0.00     0.031 C 
ATOM     71  C   UNL A   1      44.786  31.531  28.169  1.00  0.00     0.037 A 
BRANCH  58  72
ATOM     72  C   UNL A   1      48.057  27.562  24.734  1.00  0.00     0.064 A 
ATOM     73  C   UNL A   1      49.262  27.103  25.287  1.00  0.00     0.173 A 
ATOM     74  C   UNL A   1      48.010  27.763  23.346  1.00  0.00     0.173 A 
ATOM     75  F   UNL A   1      49.365  26.905  26.611  1.00  0.00    -0.203 F 
ATOM     76  C   UNL A   1      50.384  26.892  24.491  1.00  0.00     0.198 A 
ATOM     77  C   UNL A   1      49.122  27.515  22.547  1.00  0.00     0.198 A 
ATOM     78  F   UNL A   1      46.882  28.196  22.762  1.00  0.00    -0.203 F 
ATOM     79  F   UNL A   1      51.541  26.513  25.051  1.00  0.00    -0.200 F 
ATOM     80  C   UNL A   1      50.311  27.091  23.120  1.00  0.00     0.200 A 
ATOM     81  F   UNL A   1      49.045  27.694  21.221  1.00  0.00    -0.200 F 
ATOM     82  F   UNL A   1      51.390  26.882  22.353  1.00  0.00    -0.200 F 
ENDBRANCH  58  72
BRANCH  59  83
ATOM     83  C   UNL A   1      39.951  28.696  30.471  1.00  0.00     0.064 A 
ATOM     84  C   UNL A   1      38.649  28.736  29.950  1.00  0.00     0.173 A 
ATOM     85  C   UNL A   1      40.098  28.821  31.860  1.00  0.00     0.173 A 
ATOM     86  F   UNL A   1      38.456  28.642  28.627  1.00  0.00    -0.203 F 
ATOM     87  C   UNL A   1      37.545  28.918  30.781  1.00  0.00     0.198 A 
ATOM     88  C   UNL A   1      38.991  28.970  32.693  1.00  0.00     0.198 A 
ATOM     89  F   UNL A   1      41.321  28.783  32.412  1.00  0.00    -0.203 F 
ATOM     90  F   UNL A   1      36.318  29.004  30.249  1.00  0.00    -0.200 F 
ATOM     91  C   UNL A   1      37.716  29.029  32.152  1.00  0.00     0.200 A 
ATOM     92  F   UNL A   1      39.161  29.060  34.019  1.00  0.00    -0.200 F 
ATOM     93  F   UNL A   1      36.654  29.200  32.950  1.00  0.00    -0.200 F 
ENDBRANCH  59  83
BRANCH  71  94
ATOM     94  C   UNL A   1      45.056  32.988  28.415  1.00  0.00     0.064 A 
ATOM     95  C   UNL A   1      45.861  33.425  29.477  1.00  0.00     0.173 A 
ATOM     96  C   UNL A   1      44.548  33.956  27.534  1.00  0.00     0.173 A 
ATOM     97  F   UNL A   1      46.358  32.542  30.356  1.00  0.00    -0.203 F 
ATOM     98  C   UNL A   1      46.130  34.780  29.660  1.00  0.00     0.198 A 
ATOM     99  C   UNL A   1      44.847  35.305  27.700  1.00  0.00     0.198 A 
ATOM    100  F   UNL A   1      43.778  33.592  26.498  1.00  0.00    -0.203 F 
ATOM    101  F   UNL A   1      46.865  35.179  30.707  1.00  0.00    -0.200 F 
ATOM    102  C   UNL A   1      45.632  35.716  28.766  1.00  0.00     0.200 A 
ATOM    103  F   UNL A   1      44.380  36.207  26.825  1.00  0.00    -0.200 F 
ATOM    104  F   UNL A   1      45.906  37.017  28.935  1.00  0.00    -0.200 F 
ENDBRANCH  71  94
ENDBRANCH  45  46
ENDBRANCH  37  40
ENDBRANCH  35  36
ENDBRANCH  34  35
ENDBRANCH   1  34
TORSDOF 15
ENDMDL
