MODEL 1
REMARK VINA RESULT:     -14.1      0.000      0.000
REMARK SMILES O=C1C[C@@H](C(=O)NCCCCNC(=O)c2ccc(-c3c4nc(c(-c5c(F)c(F)c(F)c(F)c5F)c5ccc([nH]5)c(-c5c(F)c(F)c(F)c(F)c5F)c5nc(c(-c6c(F)c(F)c(F)c(F)c6F)c6ccc3[nH]6)C=C5)C=C4)cc2)C2(CC[NH+](Cc3c[nH]nc3-c3ccc(Cl)cc3)CC2)N1
REMARK SMILES IDX 9 1 8 2 7 3 5 4 6 5 4 7 1 8 2 9 3 10 97 11 78 12 79 14 96 15
REMARK SMILES IDX 80 16 95 17 81 18 82 20 83 21 84 22 87 23 85 24 86 25 88 27
REMARK SMILES IDX 89 28 94 29 90 30 93 31 91 32 92 33 10 34 11 35 12 36 13 37
REMARK SMILES IDX 14 39 15 40 16 41 77 42 17 43 76 44 18 45 19 46 20 47 70 48
REMARK SMILES IDX 21 49 75 50 69 51 71 52 22 53 74 54 68 55 67 56 23 58 55 59
REMARK SMILES IDX 35 60 54 61 36 62 39 63 53 64 72 65 37 66 38 67 52 69 73 70
REMARK SMILES IDX 40 71 24 72 25 73 33 74 26 75 27 76 31 77 34 78 28 79 29 80
REMARK SMILES IDX 32 81 30 82 56 83 57 84 65 85 58 86 59 87 63 88 66 89 60 90
REMARK SMILES IDX 61 91 64 92 62 93 41 94 42 95 50 96 43 97 44 98 48 99 51 100
REMARK SMILES IDX 45 101 46 102 49 103 47 104
REMARK H PARENT 7 6 97 13 81 19 85 26 12 38 71 57 39 68
REMARK Flexibility Score: inf
ROOT
ATOM      1  C   UNL A   1      32.296  30.284  26.649  1.00  0.00     0.023 C 
ENDROOT
BRANCH   1   2
ATOM      2  C   UNL A   1      31.946  29.723  25.269  1.00  0.00     0.116 C 
BRANCH   2   3
ATOM      3  N   UNL A   1      33.091  29.539  24.392  1.00  0.00    -0.356 N 
ATOM      4  C   UNL A   1      33.319  28.749  23.308  1.00  0.00     0.226 C 
ATOM      5  O   UNL A   1      34.431  28.863  22.779  1.00  0.00    -0.275 OA
ATOM      6  H   UNL A   1      33.860  30.105  24.631  1.00  0.00     0.163 HD
BRANCH   4   7
ATOM      7  C   UNL A   1      32.335  27.719  22.742  1.00  0.00     0.114 C 
ATOM      8  O   UNL A   1      28.891  28.261  23.521  1.00  0.00    -0.275 OA
ATOM      9  C   UNL A   1      30.032  27.877  23.366  1.00  0.00     0.221 C 
ATOM     10  C   UNL A   1      31.003  28.350  22.316  1.00  0.00     0.116 C 
ATOM     11  N   UNL A   1      30.674  26.958  24.167  1.00  0.00    -0.349 N 
ATOM     12  C   UNL A   1      31.960  26.519  23.639  1.00  0.00     0.063 C 
ATOM     13  H   UNL A   1      30.300  26.628  25.016  1.00  0.00     0.164 HD
ATOM     14  C   UNL A   1      32.968  26.253  24.768  1.00  0.00     0.091 C 
ATOM     15  C   UNL A   1      31.644  25.243  22.803  1.00  0.00     0.091 C 
ATOM     16  C   UNL A   1      34.048  25.247  24.425  1.00  0.00     0.264 C 
ATOM     17  C   UNL A   1      32.726  24.163  22.759  1.00  0.00     0.264 C 
ATOM     18  N   UNL A   1      33.493  23.989  23.980  1.00  0.00    -0.331 N 
ATOM     19  H   UNL A   1      34.272  23.394  23.697  1.00  0.00     0.348 HD
BRANCH  18  20
ATOM     20  C   UNL A   1      33.011  23.063  25.016  1.00  0.00     0.303 C 
BRANCH  20  21
ATOM     21  C   UNL A   1      33.188  21.600  24.738  1.00  0.00     0.052 A 
ATOM     22  C   UNL A   1      32.248  20.746  24.189  1.00  0.00     0.115 A 
ATOM     23  C   UNL A   1      34.372  20.780  24.829  1.00  0.00     0.101 A 
ATOM     24  N   UNL A   1      32.813  19.512  24.140  1.00  0.00    -0.285 N 
ATOM     25  N   UNL A   1      34.090  19.500  24.526  1.00  0.00    -0.175 NA
ATOM     26  H   UNL A   1      32.328  18.706  23.851  1.00  0.00     0.189 HD
BRANCH  23  27
ATOM     27  C   UNL A   1      35.757  21.139  25.137  1.00  0.00     0.003 A 
ATOM     28  C   UNL A   1      36.762  20.182  24.924  1.00  0.00     0.012 A 
ATOM     29  C   UNL A   1      36.119  22.379  25.673  1.00  0.00     0.012 A 
ATOM     30  C   UNL A   1      38.101  20.471  25.203  1.00  0.00     0.021 A 
ATOM     31  C   UNL A   1      37.460  22.676  25.947  1.00  0.00     0.021 A 
ATOM     32  C   UNL A   1      38.445  21.723  25.704  1.00  0.00     0.041 A 
ATOM     33  Cl  UNL A   1      40.092  22.090  26.038  1.00  0.00    -0.084 Cl
ENDBRANCH  23  27
ENDBRANCH  20  21
ENDBRANCH  18  20
ENDBRANCH   4   7
ENDBRANCH   2   3
ENDBRANCH   1   2
BRANCH   1  34
ATOM     34  C   UNL A   1      31.859  31.727  26.873  1.00  0.00     0.023 C 
BRANCH  34  35
ATOM     35  C   UNL A   1      32.927  32.599  27.510  1.00  0.00     0.116 C 
BRANCH  35  36
ATOM     36  N   UNL A   1      32.501  33.983  27.680  1.00  0.00    -0.352 N 
ATOM     37  C   UNL A   1      32.985  34.923  28.557  1.00  0.00     0.251 C 
ATOM     38  H   UNL A   1      31.771  34.283  27.091  1.00  0.00     0.163 HD
ATOM     39  O   UNL A   1      32.438  36.010  28.691  1.00  0.00    -0.269 OA
BRANCH  37  40
ATOM     40  C   UNL A   1      34.165  34.572  29.364  1.00  0.00     0.039 A 
ATOM     41  C   UNL A   1      33.979  34.090  30.660  1.00  0.00     0.014 A 
ATOM     42  C   UNL A   1      35.436  34.610  28.785  1.00  0.00     0.014 A 
ATOM     43  C   UNL A   1      35.069  33.563  31.349  1.00  0.00     0.010 A 
ATOM     44  C   UNL A   1      36.496  33.997  29.434  1.00  0.00     0.010 A 
ATOM     45  C   UNL A   1      36.322  33.464  30.721  1.00  0.00    -0.014 A 
BRANCH  45  46
ATOM     46  C   UNL A   1      37.467  32.795  31.384  1.00  0.00     0.031 A 
ATOM     47  C   UNL A   1      38.125  31.618  30.725  1.00  0.00     0.074 A 
ATOM     48  C   UNL A   1      37.854  33.198  32.611  1.00  0.00     0.049 A 
ATOM     49  N   UNL A   1      39.074  30.840  31.179  1.00  0.00    -0.248 NA
ATOM     50  C   UNL A   1      37.629  31.245  29.390  1.00  0.00     0.031 C 
ATOM     51  C   UNL A   1      37.252  34.295  33.373  1.00  0.00     0.029 A 
ATOM     52  N   UNL A   1      38.837  32.719  33.440  1.00  0.00    -0.354 N 
ATOM     53  C   UNL A   1      39.275  29.880  30.197  1.00  0.00     0.074 A 
ATOM     54  C   UNL A   1      38.312  30.136  29.148  1.00  0.00     0.031 C 
ATOM     55  C   UNL A   1      37.893  34.417  34.547  1.00  0.00     0.029 A 
ATOM     56  C   UNL A   1      38.915  33.381  34.642  1.00  0.00     0.049 A 
ATOM     57  H   UNL A   1      39.431  31.972  33.197  1.00  0.00     0.167 HD
ATOM     58  C   UNL A   1      40.197  28.891  30.163  1.00  0.00     0.037 A 
ATOM     59  C   UNL A   1      39.710  33.163  35.707  1.00  0.00     0.037 A 
ATOM     60  C   UNL A   1      41.166  28.659  31.200  1.00  0.00     0.049 A 
ATOM     61  C   UNL A   1      40.718  32.045  35.646  1.00  0.00     0.074 A 
ATOM     62  C   UNL A   1      42.190  27.729  31.229  1.00  0.00     0.029 A 
ATOM     63  N   UNL A   1      41.228  29.361  32.395  1.00  0.00    -0.354 N 
ATOM     64  N   UNL A   1      40.956  31.196  34.677  1.00  0.00    -0.248 NA
ATOM     65  C   UNL A   1      41.572  31.859  36.827  1.00  0.00     0.031 C 
ATOM     66  C   UNL A   1      42.830  27.825  32.468  1.00  0.00     0.029 A 
ATOM     67  C   UNL A   1      42.251  28.861  33.184  1.00  0.00     0.049 A 
ATOM     68  H   UNL A   1      40.634  30.106  32.644  1.00  0.00     0.167 HD
ATOM     69  C   UNL A   1      42.001  30.395  35.117  1.00  0.00     0.074 A 
ATOM     70  C   UNL A   1      42.367  30.875  36.433  1.00  0.00     0.031 C 
ATOM     71  C   UNL A   1      42.603  29.354  34.491  1.00  0.00     0.037 A 
BRANCH  58  72
ATOM     72  C   UNL A   1      40.201  27.980  28.969  1.00  0.00     0.064 A 
ATOM     73  C   UNL A   1      40.910  28.296  27.800  1.00  0.00     0.173 A 
ATOM     74  C   UNL A   1      39.525  26.751  29.014  1.00  0.00     0.173 A 
ATOM     75  F   UNL A   1      41.562  29.464  27.700  1.00  0.00    -0.203 F 
ATOM     76  C   UNL A   1      40.921  27.427  26.712  1.00  0.00     0.198 A 
ATOM     77  C   UNL A   1      39.567  25.869  27.937  1.00  0.00     0.198 A 
ATOM     78  F   UNL A   1      38.833  26.398  30.108  1.00  0.00    -0.203 F 
ATOM     79  F   UNL A   1      41.566  27.772  25.589  1.00  0.00    -0.200 F 
ATOM     80  C   UNL A   1      40.259  26.211  26.785  1.00  0.00     0.200 A 
ATOM     81  F   UNL A   1      38.939  24.689  28.015  1.00  0.00    -0.200 F 
ATOM     82  F   UNL A   1      40.283  25.370  25.742  1.00  0.00    -0.200 F 
ENDBRANCH  58  72
BRANCH  59  83
ATOM     83  C   UNL A   1      39.589  34.016  36.919  1.00  0.00     0.064 A 
ATOM     84  C   UNL A   1      38.826  33.603  38.021  1.00  0.00     0.173 A 
ATOM     85  C   UNL A   1      40.215  35.270  36.996  1.00  0.00     0.173 A 
ATOM     86  F   UNL A   1      38.192  32.422  37.991  1.00  0.00    -0.203 F 
ATOM     87  C   UNL A   1      38.666  34.424  39.137  1.00  0.00     0.198 A 
ATOM     88  C   UNL A   1      40.083  36.074  38.125  1.00  0.00     0.198 A 
ATOM     89  F   UNL A   1      40.961  35.711  35.973  1.00  0.00    -0.203 F 
ATOM     90  F   UNL A   1      37.880  34.029  40.148  1.00  0.00    -0.200 F 
ATOM     91  C   UNL A   1      39.298  35.656  39.189  1.00  0.00     0.200 A 
ATOM     92  F   UNL A   1      40.709  37.257  38.179  1.00  0.00    -0.200 F 
ATOM     93  F   UNL A   1      39.143  36.446  40.261  1.00  0.00    -0.200 F 
ENDBRANCH  59  83
BRANCH  71  94
ATOM     94  C   UNL A   1      43.742  28.684  35.206  1.00  0.00     0.064 A 
ATOM     95  C   UNL A   1      43.531  27.631  36.108  1.00  0.00     0.173 A 
ATOM     96  C   UNL A   1      45.066  29.075  34.953  1.00  0.00     0.173 A 
ATOM     97  F   UNL A   1      42.284  27.229  36.396  1.00  0.00    -0.203 F 
ATOM     98  C   UNL A   1      44.600  27.016  36.753  1.00  0.00     0.198 A 
ATOM     99  C   UNL A   1      46.134  28.432  35.570  1.00  0.00     0.198 A 
ATOM    100  F   UNL A   1      45.325  30.071  34.091  1.00  0.00    -0.203 F 
ATOM    101  F   UNL A   1      44.371  26.050  37.653  1.00  0.00    -0.200 F 
ATOM    102  C   UNL A   1      45.901  27.410  36.477  1.00  0.00     0.200 A 
ATOM    103  F   UNL A   1      47.391  28.803  35.288  1.00  0.00    -0.200 F 
ATOM    104  F   UNL A   1      46.930  26.810  37.090  1.00  0.00    -0.200 F 
ENDBRANCH  71  94
ENDBRANCH  45  46
ENDBRANCH  37  40
ENDBRANCH  35  36
ENDBRANCH  34  35
ENDBRANCH   1  34
TORSDOF 14
ENDMDL
MODEL 2
REMARK VINA RESULT:     -13.9      5.627     11.343
REMARK SMILES O=C1C[C@@H](C(=O)NCCCCNC(=O)c2ccc(-c3c4nc(c(-c5c(F)c(F)c(F)c(F)c5F)c5ccc([nH]5)c(-c5c(F)c(F)c(F)c(F)c5F)c5nc(c(-c6c(F)c(F)c(F)c(F)c6F)c6ccc3[nH]6)C=C5)C=C4)cc2)C2(CC[NH+](Cc3c[nH]nc3-c3ccc(Cl)cc3)CC2)N1
REMARK SMILES IDX 9 1 8 2 7 3 5 4 6 5 4 7 1 8 2 9 3 10 97 11 78 12 79 14 96 15
REMARK SMILES IDX 80 16 95 17 81 18 82 20 83 21 84 22 87 23 85 24 86 25 88 27
REMARK SMILES IDX 89 28 94 29 90 30 93 31 91 32 92 33 10 34 11 35 12 36 13 37
REMARK SMILES IDX 14 39 15 40 16 41 77 42 17 43 76 44 18 45 19 46 20 47 70 48
REMARK SMILES IDX 21 49 75 50 69 51 71 52 22 53 74 54 68 55 67 56 23 58 55 59
REMARK SMILES IDX 35 60 54 61 36 62 39 63 53 64 72 65 37 66 38 67 52 69 73 70
REMARK SMILES IDX 40 71 24 72 25 73 33 74 26 75 27 76 31 77 34 78 28 79 29 80
REMARK SMILES IDX 32 81 30 82 56 83 57 84 65 85 58 86 59 87 63 88 66 89 60 90
REMARK SMILES IDX 61 91 64 92 62 93 41 94 42 95 50 96 43 97 44 98 48 99 51 100
REMARK SMILES IDX 45 101 46 102 49 103 47 104
REMARK H PARENT 7 6 97 13 81 19 85 26 12 38 71 57 39 68
REMARK Flexibility Score: inf
ROOT
ATOM      1  C   UNL A   1      37.233  21.408  24.950  1.00  0.00     0.023 C 
ENDROOT
BRANCH   1   2
ATOM      2  C   UNL A   1      35.755  21.105  25.207  1.00  0.00     0.116 C 
BRANCH   2   3
ATOM      3  N   UNL A   1      35.265  21.573  26.492  1.00  0.00    -0.356 N 
ATOM      4  C   UNL A   1      34.030  21.910  26.955  1.00  0.00     0.226 C 
ATOM      5  O   UNL A   1      33.971  22.260  28.139  1.00  0.00    -0.275 OA
ATOM      6  H   UNL A   1      35.972  21.665  27.170  1.00  0.00     0.163 HD
BRANCH   4   7
ATOM      7  C   UNL A   1      32.747  21.930  26.115  1.00  0.00     0.114 C 
ATOM      8  O   UNL A   1      32.761  19.869  23.197  1.00  0.00    -0.275 OA
ATOM      9  C   UNL A   1      32.722  20.742  24.040  1.00  0.00     0.221 C 
ATOM     10  C   UNL A   1      32.422  20.560  25.505  1.00  0.00     0.116 C 
ATOM     11  N   UNL A   1      32.998  22.073  23.816  1.00  0.00    -0.349 N 
ATOM     12  C   UNL A   1      32.673  22.935  24.945  1.00  0.00     0.063 C 
ATOM     13  H   UNL A   1      33.377  22.411  22.972  1.00  0.00     0.164 HD
ATOM     14  C   UNL A   1      33.670  24.098  25.066  1.00  0.00     0.091 C 
ATOM     15  C   UNL A   1      31.215  23.419  24.684  1.00  0.00     0.091 C 
ATOM     16  C   UNL A   1      33.115  25.336  25.743  1.00  0.00     0.264 C 
ATOM     17  C   UNL A   1      30.854  24.818  25.183  1.00  0.00     0.264 C 
ATOM     18  N   UNL A   1      31.911  25.810  25.100  1.00  0.00    -0.331 N 
ATOM     19  H   UNL A   1      31.557  26.592  25.651  1.00  0.00     0.348 HD
BRANCH  18  20
ATOM     20  C   UNL A   1      32.072  26.600  23.869  1.00  0.00     0.303 C 
BRANCH  20  21
ATOM     21  C   UNL A   1      31.082  27.705  23.651  1.00  0.00     0.052 A 
ATOM     22  C   UNL A   1      29.909  27.629  22.922  1.00  0.00     0.115 A 
ATOM     23  C   UNL A   1      31.026  29.022  24.238  1.00  0.00     0.101 A 
ATOM     24  N   UNL A   1      29.336  28.859  22.961  1.00  0.00    -0.285 N 
ATOM     25  N   UNL A   1      29.990  29.721  23.742  1.00  0.00    -0.175 NA
ATOM     26  H   UNL A   1      28.519  29.092  22.463  1.00  0.00     0.189 HD
BRANCH  23  27
ATOM     27  C   UNL A   1      31.859  29.641  25.270  1.00  0.00     0.003 A 
ATOM     28  C   UNL A   1      31.402  30.817  25.886  1.00  0.00     0.012 A 
ATOM     29  C   UNL A   1      33.109  29.136  25.641  1.00  0.00     0.012 A 
ATOM     30  C   UNL A   1      32.159  31.451  26.875  1.00  0.00     0.021 A 
ATOM     31  C   UNL A   1      33.868  29.763  26.638  1.00  0.00     0.021 A 
ATOM     32  C   UNL A   1      33.385  30.913  27.255  1.00  0.00     0.041 A 
ATOM     33  Cl  UNL A   1      34.315  31.681  28.481  1.00  0.00    -0.084 Cl
ENDBRANCH  23  27
ENDBRANCH  20  21
ENDBRANCH  18  20
ENDBRANCH   4   7
ENDBRANCH   2   3
ENDBRANCH   1   2
BRANCH   1  34
ATOM     34  C   UNL A   1      38.145  20.188  25.001  1.00  0.00     0.023 C 
BRANCH  34  35
ATOM     35  C   UNL A   1      39.443  20.425  25.754  1.00  0.00     0.116 C 
BRANCH  35  36
ATOM     36  N   UNL A   1      40.258  19.221  25.872  1.00  0.00    -0.352 N 
ATOM     37  C   UNL A   1      41.603  19.122  26.126  1.00  0.00     0.251 C 
ATOM     38  H   UNL A   1      39.781  18.367  25.755  1.00  0.00     0.163 HD
ATOM     39  O   UNL A   1      42.187  18.048  26.058  1.00  0.00    -0.269 OA
BRANCH  37  40
ATOM     40  C   UNL A   1      42.338  20.357  26.444  1.00  0.00     0.039 A 
ATOM     41  C   UNL A   1      42.984  21.045  25.416  1.00  0.00     0.014 A 
ATOM     42  C   UNL A   1      42.279  20.884  27.737  1.00  0.00     0.014 A 
ATOM     43  C   UNL A   1      43.500  22.314  25.671  1.00  0.00     0.010 A 
ATOM     44  C   UNL A   1      42.705  22.183  27.961  1.00  0.00     0.010 A 
ATOM     45  C   UNL A   1      43.317  22.913  26.928  1.00  0.00    -0.014 A 
BRANCH  45  46
ATOM     46  C   UNL A   1      43.746  24.307  27.189  1.00  0.00     0.031 A 
ATOM     47  C   UNL A   1      42.743  25.319  27.662  1.00  0.00     0.074 A 
ATOM     48  C   UNL A   1      45.014  24.676  26.919  1.00  0.00     0.049 A 
ATOM     49  N   UNL A   1      42.892  26.604  27.857  1.00  0.00    -0.248 NA
ATOM     50  C   UNL A   1      41.380  24.827  27.921  1.00  0.00     0.031 C 
ATOM     51  C   UNL A   1      46.063  23.793  26.402  1.00  0.00     0.029 A 
ATOM     52  N   UNL A   1      45.633  25.896  27.027  1.00  0.00    -0.354 N 
ATOM     53  C   UNL A   1      41.644  27.073  28.242  1.00  0.00     0.074 A 
ATOM     54  C   UNL A   1      40.735  25.950  28.200  1.00  0.00     0.031 C 
ATOM     55  C   UNL A   1      47.198  24.495  26.260  1.00  0.00     0.029 A 
ATOM     56  C   UNL A   1      46.947  25.885  26.627  1.00  0.00     0.049 A 
ATOM     57  H   UNL A   1      45.179  26.703  27.361  1.00  0.00     0.167 HD
ATOM     58  C   UNL A   1      41.297  28.324  28.623  1.00  0.00     0.037 A 
ATOM     59  C   UNL A   1      47.843  26.887  26.548  1.00  0.00     0.037 A 
ATOM     60  C   UNL A   1      42.214  29.430  28.686  1.00  0.00     0.049 A 
ATOM     61  C   UNL A   1      47.423  28.273  26.964  1.00  0.00     0.074 A 
ATOM     62  C   UNL A   1      41.979  30.720  29.126  1.00  0.00     0.029 A 
ATOM     63  N   UNL A   1      43.543  29.378  28.290  1.00  0.00    -0.354 N 
ATOM     64  N   UNL A   1      46.262  28.689  27.407  1.00  0.00    -0.248 NA
ATOM     65  C   UNL A   1      48.442  29.328  26.874  1.00  0.00     0.031 C 
ATOM     66  C   UNL A   1      43.147  31.465  28.937  1.00  0.00     0.029 A 
ATOM     67  C   UNL A   1      44.131  30.623  28.444  1.00  0.00     0.049 A 
ATOM     68  H   UNL A   1      44.001  28.574  27.952  1.00  0.00     0.167 HD
ATOM     69  C   UNL A   1      46.417  30.042  27.675  1.00  0.00     0.074 A 
ATOM     70  C   UNL A   1      47.791  30.373  27.365  1.00  0.00     0.031 C 
ATOM     71  C   UNL A   1      45.502  30.933  28.133  1.00  0.00     0.037 A 
BRANCH  58  72
ATOM     72  C   UNL A   1      39.863  28.568  28.997  1.00  0.00     0.064 A 
ATOM     73  C   UNL A   1      39.388  28.335  30.297  1.00  0.00     0.173 A 
ATOM     74  C   UNL A   1      38.963  29.085  28.053  1.00  0.00     0.173 A 
ATOM     75  F   UNL A   1      40.204  27.828  31.234  1.00  0.00    -0.203 F 
ATOM     76  C   UNL A   1      38.061  28.590  30.631  1.00  0.00     0.198 A 
ATOM     77  C   UNL A   1      37.645  29.371  28.400  1.00  0.00     0.198 A 
ATOM     78  F   UNL A   1      39.365  29.328  26.796  1.00  0.00    -0.203 F 
ATOM     79  F   UNL A   1      37.619  28.316  31.866  1.00  0.00    -0.200 F 
ATOM     80  C   UNL A   1      37.193  29.117  29.686  1.00  0.00     0.200 A 
ATOM     81  F   UNL A   1      36.813  29.893  27.489  1.00  0.00    -0.200 F 
ATOM     82  F   UNL A   1      35.920  29.375  30.014  1.00  0.00    -0.200 F 
ENDBRANCH  58  72
BRANCH  59  83
ATOM     83  C   UNL A   1      49.222  26.624  26.055  1.00  0.00     0.064 A 
ATOM     84  C   UNL A   1      49.581  26.901  24.728  1.00  0.00     0.173 A 
ATOM     85  C   UNL A   1      50.202  26.070  26.892  1.00  0.00     0.173 A 
ATOM     86  F   UNL A   1      48.676  27.413  23.882  1.00  0.00    -0.203 F 
ATOM     87  C   UNL A   1      50.857  26.604  24.249  1.00  0.00     0.198 A 
ATOM     88  C   UNL A   1      51.486  25.806  26.422  1.00  0.00     0.198 A 
ATOM     89  F   UNL A   1      49.914  25.790  28.171  1.00  0.00    -0.203 F 
ATOM     90  F   UNL A   1      51.152  26.823  22.960  1.00  0.00    -0.200 F 
ATOM     91  C   UNL A   1      51.809  26.062  25.097  1.00  0.00     0.200 A 
ATOM     92  F   UNL A   1      52.409  25.297  27.249  1.00  0.00    -0.200 F 
ATOM     93  F   UNL A   1      53.035  25.775  24.636  1.00  0.00    -0.200 F 
ENDBRANCH  59  83
BRANCH  71  94
ATOM     94  C   UNL A   1      45.968  32.344  28.358  1.00  0.00     0.064 A 
ATOM     95  C   UNL A   1      45.866  33.324  27.361  1.00  0.00     0.173 A 
ATOM     96  C   UNL A   1      46.484  32.729  29.606  1.00  0.00     0.173 A 
ATOM     97  F   UNL A   1      45.393  33.005  26.147  1.00  0.00    -0.203 F 
ATOM     98  C   UNL A   1      46.292  34.628  27.593  1.00  0.00     0.198 A 
ATOM     99  C   UNL A   1      46.874  34.042  29.846  1.00  0.00     0.198 A 
ATOM    100  F   UNL A   1      46.595  31.832  30.599  1.00  0.00    -0.203 F 
ATOM    101  F   UNL A   1      46.237  35.534  26.607  1.00  0.00    -0.200 F 
ATOM    102  C   UNL A   1      46.787  34.989  28.838  1.00  0.00     0.200 A 
ATOM    103  F   UNL A   1      47.335  34.392  31.055  1.00  0.00    -0.200 F 
ATOM    104  F   UNL A   1      47.187  36.248  29.062  1.00  0.00    -0.200 F 
ENDBRANCH  71  94
ENDBRANCH  45  46
ENDBRANCH  37  40
ENDBRANCH  35  36
ENDBRANCH  34  35
ENDBRANCH   1  34
TORSDOF 14
ENDMDL
MODEL 3
REMARK VINA RESULT:     -13.9      5.178     10.402
REMARK SMILES O=C1C[C@@H](C(=O)NCCCCNC(=O)c2ccc(-c3c4nc(c(-c5c(F)c(F)c(F)c(F)c5F)c5ccc([nH]5)c(-c5c(F)c(F)c(F)c(F)c5F)c5nc(c(-c6c(F)c(F)c(F)c(F)c6F)c6ccc3[nH]6)C=C5)C=C4)cc2)C2(CC[NH+](Cc3c[nH]nc3-c3ccc(Cl)cc3)CC2)N1
REMARK SMILES IDX 9 1 8 2 7 3 5 4 6 5 4 7 1 8 2 9 3 10 97 11 78 12 79 14 96 15
REMARK SMILES IDX 80 16 95 17 81 18 82 20 83 21 84 22 87 23 85 24 86 25 88 27
REMARK SMILES IDX 89 28 94 29 90 30 93 31 91 32 92 33 10 34 11 35 12 36 13 37
REMARK SMILES IDX 14 39 15 40 16 41 77 42 17 43 76 44 18 45 19 46 20 47 70 48
REMARK SMILES IDX 21 49 75 50 69 51 71 52 22 53 74 54 68 55 67 56 23 58 55 59
REMARK SMILES IDX 35 60 54 61 36 62 39 63 53 64 72 65 37 66 38 67 52 69 73 70
REMARK SMILES IDX 40 71 24 72 25 73 33 74 26 75 27 76 31 77 34 78 28 79 29 80
REMARK SMILES IDX 32 81 30 82 56 83 57 84 65 85 58 86 59 87 63 88 66 89 60 90
REMARK SMILES IDX 61 91 64 92 62 93 41 94 42 95 50 96 43 97 44 98 48 99 51 100
REMARK SMILES IDX 45 101 46 102 49 103 47 104
REMARK H PARENT 7 6 97 13 81 19 85 26 12 38 71 57 39 68
REMARK Flexibility Score: inf
ROOT
ATOM      1  C   UNL A   1      35.928  21.528  24.786  1.00  0.00     0.023 C 
ENDROOT
BRANCH   1   2
ATOM      2  C   UNL A   1      35.414  20.120  25.096  1.00  0.00     0.116 C 
BRANCH   2   3
ATOM      3  N   UNL A   1      33.977  19.962  24.936  1.00  0.00    -0.356 N 
ATOM      4  C   UNL A   1      32.915  20.778  25.176  1.00  0.00     0.226 C 
ATOM      5  O   UNL A   1      31.802  20.314  24.903  1.00  0.00    -0.275 OA
ATOM      6  H   UNL A   1      33.719  19.081  24.580  1.00  0.00     0.163 HD
BRANCH   4   7
ATOM      7  C   UNL A   1      32.999  22.180  25.790  1.00  0.00     0.114 C 
ATOM      8  O   UNL A   1      30.085  23.298  27.529  1.00  0.00    -0.275 OA
ATOM      9  C   UNL A   1      31.040  23.101  26.804  1.00  0.00     0.221 C 
ATOM     10  C   UNL A   1      32.260  22.280  27.131  1.00  0.00     0.116 C 
ATOM     11  N   UNL A   1      31.160  23.562  25.511  1.00  0.00    -0.349 N 
ATOM     12  C   UNL A   1      32.488  23.365  24.942  1.00  0.00     0.063 C 
ATOM     13  H   UNL A   1      30.420  23.985  25.018  1.00  0.00     0.164 HD
ATOM     14  C   UNL A   1      32.412  23.060  23.438  1.00  0.00     0.091 C 
ATOM     15  C   UNL A   1      33.263  24.681  25.251  1.00  0.00     0.091 C 
ATOM     16  C   UNL A   1      33.649  23.450  22.653  1.00  0.00     0.264 C 
ATOM     17  C   UNL A   1      34.312  25.118  24.227  1.00  0.00     0.264 C 
ATOM     18  N   UNL A   1      33.990  24.842  22.838  1.00  0.00    -0.331 N 
ATOM     19  H   UNL A   1      34.868  25.011  22.346  1.00  0.00     0.348 HD
BRANCH  18  20
ATOM     20  C   UNL A   1      33.228  25.830  22.058  1.00  0.00     0.303 C 
BRANCH  20  21
ATOM     21  C   UNL A   1      33.315  27.254  22.520  1.00  0.00     0.052 A 
ATOM     22  C   UNL A   1      34.391  28.109  22.360  1.00  0.00     0.115 A 
ATOM     23  C   UNL A   1      32.296  28.102  23.091  1.00  0.00     0.101 A 
ATOM     24  N   UNL A   1      34.055  29.285  22.950  1.00  0.00    -0.285 N 
ATOM     25  N   UNL A   1      32.801  29.309  23.405  1.00  0.00    -0.175 NA
ATOM     26  H   UNL A   1      34.676  30.045  23.034  1.00  0.00     0.189 HD
BRANCH  23  27
ATOM     27  C   UNL A   1      30.869  27.860  23.313  1.00  0.00     0.003 A 
ATOM     28  C   UNL A   1      29.947  28.815  22.856  1.00  0.00     0.012 A 
ATOM     29  C   UNL A   1      30.386  26.741  23.998  1.00  0.00     0.012 A 
ATOM     30  C   UNL A   1      28.574  28.635  23.043  1.00  0.00     0.021 A 
ATOM     31  C   UNL A   1      29.011  26.552  24.182  1.00  0.00     0.021 A 
ATOM     32  C   UNL A   1      28.112  27.497  23.698  1.00  0.00     0.041 A 
ATOM     33  Cl  UNL A   1      26.422  27.263  23.921  1.00  0.00    -0.084 Cl
ENDBRANCH  23  27
ENDBRANCH  20  21
ENDBRANCH  18  20
ENDBRANCH   4   7
ENDBRANCH   2   3
ENDBRANCH   1   2
BRANCH   1  34
ATOM     34  C   UNL A   1      37.413  21.597  24.450  1.00  0.00     0.023 C 
BRANCH  34  35
ATOM     35  C   UNL A   1      38.323  21.454  25.658  1.00  0.00     0.116 C 
BRANCH  35  36
ATOM     36  N   UNL A   1      39.041  20.185  25.679  1.00  0.00    -0.352 N 
ATOM     37  C   UNL A   1      40.358  19.955  25.995  1.00  0.00     0.251 C 
ATOM     38  H   UNL A   1      38.514  19.389  25.436  1.00  0.00     0.163 HD
ATOM     39  O   UNL A   1      40.868  18.854  25.834  1.00  0.00    -0.269 OA
BRANCH  37  40
ATOM     40  C   UNL A   1      41.155  21.086  26.496  1.00  0.00     0.039 A 
ATOM     41  C   UNL A   1      41.770  21.939  25.580  1.00  0.00     0.014 A 
ATOM     42  C   UNL A   1      41.185  21.357  27.866  1.00  0.00     0.014 A 
ATOM     43  C   UNL A   1      42.348  23.121  26.039  1.00  0.00     0.010 A 
ATOM     44  C   UNL A   1      41.673  22.578  28.306  1.00  0.00     0.010 A 
ATOM     45  C   UNL A   1      42.256  23.474  27.395  1.00  0.00    -0.014 A 
BRANCH  45  46
ATOM     46  C   UNL A   1      42.752  24.781  27.889  1.00  0.00     0.031 A 
ATOM     47  C   UNL A   1      41.773  25.866  28.234  1.00  0.00     0.074 A 
ATOM     48  C   UNL A   1      44.078  25.013  27.944  1.00  0.00     0.049 A 
ATOM     49  N   UNL A   1      42.002  27.103  28.590  1.00  0.00    -0.248 NA
ATOM     50  C   UNL A   1      40.345  25.525  28.134  1.00  0.00     0.031 C 
ATOM     51  C   UNL A   1      45.123  24.053  27.580  1.00  0.00     0.029 A 
ATOM     52  N   UNL A   1      44.774  26.136  28.313  1.00  0.00    -0.354 N 
ATOM     53  C   UNL A   1      40.753  27.689  28.740  1.00  0.00     0.074 A 
ATOM     54  C   UNL A   1      39.769  26.691  28.381  1.00  0.00     0.031 C 
ATOM     55  C   UNL A   1      46.326  24.621  27.765  1.00  0.00     0.029 A 
ATOM     56  C   UNL A   1      46.138  25.998  28.212  1.00  0.00     0.049 A 
ATOM     57  H   UNL A   1      44.340  26.963  28.622  1.00  0.00     0.167 HD
ATOM     58  C   UNL A   1      40.454  28.938  29.164  1.00  0.00     0.037 A 
ATOM     59  C   UNL A   1      47.124  26.886  28.437  1.00  0.00     0.037 A 
ATOM     60  C   UNL A   1      41.439  29.916  29.543  1.00  0.00     0.049 A 
ATOM     61  C   UNL A   1      46.761  28.275  28.895  1.00  0.00     0.074 A 
ATOM     62  C   UNL A   1      41.240  31.186  30.054  1.00  0.00     0.029 A 
ATOM     63  N   UNL A   1      42.811  29.734  29.445  1.00  0.00    -0.354 N 
ATOM     64  N   UNL A   1      45.577  28.792  29.113  1.00  0.00    -0.248 NA
ATOM     65  C   UNL A   1      47.873  29.202  29.142  1.00  0.00     0.031 C 
ATOM     66  C   UNL A   1      42.488  31.796  30.205  1.00  0.00     0.029 A 
ATOM     67  C   UNL A   1      43.469  30.883  29.854  1.00  0.00     0.049 A 
ATOM     68  H   UNL A   1      43.251  28.911  29.133  1.00  0.00     0.167 HD
ATOM     69  C   UNL A   1      45.801  30.091  29.549  1.00  0.00     0.074 A 
ATOM     70  C   UNL A   1      47.236  30.277  29.585  1.00  0.00     0.031 C 
ATOM     71  C   UNL A   1      44.900  31.047  29.886  1.00  0.00     0.037 A 
BRANCH  58  72
ATOM     72  C   UNL A   1      39.005  29.324  29.238  1.00  0.00     0.064 A 
ATOM     73  C   UNL A   1      38.310  29.359  30.457  1.00  0.00     0.173 A 
ATOM     74  C   UNL A   1      38.314  29.709  28.079  1.00  0.00     0.173 A 
ATOM     75  F   UNL A   1      38.919  28.989  31.593  1.00  0.00    -0.203 F 
ATOM     76  C   UNL A   1      36.973  29.743  30.508  1.00  0.00     0.198 A 
ATOM     77  C   UNL A   1      36.986  30.124  28.139  1.00  0.00     0.198 A 
ATOM     78  F   UNL A   1      38.931  29.695  26.887  1.00  0.00    -0.203 F 
ATOM     79  F   UNL A   1      36.317  29.724  31.677  1.00  0.00    -0.200 F 
ATOM     80  C   UNL A   1      36.315  30.134  29.352  1.00  0.00     0.200 A 
ATOM     81  F   UNL A   1      36.358  30.516  27.022  1.00  0.00    -0.200 F 
ATOM     82  F   UNL A   1      35.032  30.517  29.406  1.00  0.00    -0.200 F 
ENDBRANCH  58  72
BRANCH  59  83
ATOM     83  C   UNL A   1      48.545  26.498  28.234  1.00  0.00     0.064 A 
ATOM     84  C   UNL A   1      49.342  26.080  29.310  1.00  0.00     0.173 A 
ATOM     85  C   UNL A   1      49.144  26.557  26.967  1.00  0.00     0.173 A 
ATOM     86  F   UNL A   1      48.823  26.025  30.545  1.00  0.00    -0.203 F 
ATOM     87  C   UNL A   1      50.689  25.768  29.132  1.00  0.00     0.198 A 
ATOM     88  C   UNL A   1      50.481  26.212  26.784  1.00  0.00     0.198 A 
ATOM     89  F   UNL A   1      48.427  26.945  25.902  1.00  0.00    -0.203 F 
ATOM     90  F   UNL A   1      51.441  25.432  30.189  1.00  0.00    -0.200 F 
ATOM     91  C   UNL A   1      51.256  25.830  27.869  1.00  0.00     0.200 A 
ATOM     92  F   UNL A   1      51.020  26.257  25.558  1.00  0.00    -0.200 F 
ATOM     93  F   UNL A   1      52.551  25.531  27.698  1.00  0.00    -0.200 F 
ENDBRANCH  59  83
BRANCH  71  94
ATOM     94  C   UNL A   1      45.440  32.369  30.355  1.00  0.00     0.064 A 
ATOM     95  C   UNL A   1      45.668  33.431  29.469  1.00  0.00     0.173 A 
ATOM     96  C   UNL A   1      45.694  32.587  31.719  1.00  0.00     0.173 A 
ATOM     97  F   UNL A   1      45.456  33.270  28.154  1.00  0.00    -0.203 F 
ATOM     98  C   UNL A   1      46.159  34.651  29.924  1.00  0.00     0.198 A 
ATOM     99  C   UNL A   1      46.148  33.820  32.175  1.00  0.00     0.198 A 
ATOM    100  F   UNL A   1      45.484  31.607  32.612  1.00  0.00    -0.203 F 
ATOM    101  F   UNL A   1      46.422  35.633  29.051  1.00  0.00    -0.200 F 
ATOM    102  C   UNL A   1      46.389  34.848  31.278  1.00  0.00     0.200 A 
ATOM    103  F   UNL A   1      46.352  34.013  33.486  1.00  0.00    -0.200 F 
ATOM    104  F   UNL A   1      46.851  36.027  31.716  1.00  0.00    -0.200 F 
ENDBRANCH  71  94
ENDBRANCH  45  46
ENDBRANCH  37  40
ENDBRANCH  35  36
ENDBRANCH  34  35
ENDBRANCH   1  34
TORSDOF 14
ENDMDL
