MODEL 1
REMARK VINA RESULT:     -10.7      0.000      0.000
REMARK SMILES CCN(CCC(=O)NCCCCNC(=O)c1ccc(-c2c3nc(c(-c4c(F)c(F)c(F)c(F)c4F)c4ccc([nH]4)c(-c4c(F)c(F)c(F)c(F)c4F)c4nc(c(-c5c(F)c(F)c(F)c(F)c5F)c5ccc2[nH]5)C=C4)C=C3)cc1)C(=O)N(C)CCc1cccs1
REMARK SMILES IDX 6 1 7 2 8 3 5 5 4 6 3 7 2 8 1 9 79 10 80 11 81 12 82 13
REMARK SMILES IDX 83 14 84 15 85 16 86 17 89 18 87 19 88 20 9 21 10 22 11 23
REMARK SMILES IDX 12 24 13 25 14 26 15 28 16 29 17 30 78 31 18 32 77 33 19 34
REMARK SMILES IDX 20 35 21 36 71 37 22 38 76 39 70 40 72 41 23 42 75 43 69 44
REMARK SMILES IDX 68 45 24 47 56 48 36 49 55 50 37 51 40 52 54 53 73 54 38 55
REMARK SMILES IDX 39 56 53 58 74 59 41 60 25 61 26 62 34 63 27 64 28 65 32 66
REMARK SMILES IDX 35 67 29 68 30 69 33 70 31 71 57 72 58 73 66 74 59 75 60 76
REMARK SMILES IDX 64 77 67 78 61 79 62 80 65 81 63 82 42 83 43 84 51 85 44 86
REMARK SMILES IDX 45 87 49 88 52 89 46 90 47 91 50 92 48 93
REMARK H PARENT 8 4 13 27 72 46 40 57
REMARK Flexibility Score: inf
ROOT
ATOM      1  C   UNL A   1      31.403  24.018  26.746  1.00  0.00     0.221 C 
ATOM      2  O   UNL A   1      31.183  23.179  27.627  1.00  0.00    -0.275 OA
ATOM      3  N   UNL A   1      30.465  24.976  26.524  1.00  0.00    -0.356 N 
ATOM      4  H   UNL A   1      29.671  24.819  27.085  1.00  0.00     0.163 HD
ENDROOT
BRANCH   1   5
ATOM      5  C   UNL A   1      32.668  23.952  25.964  1.00  0.00     0.121 C 
BRANCH   5   6
ATOM      6  C   UNL A   1      32.391  23.437  24.572  1.00  0.00     0.131 C 
BRANCH   6   7
ATOM      7  N   UNL A   1      33.176  24.118  23.542  1.00  0.00    -0.324 N 
BRANCH   7   8
ATOM      8  C   UNL A   1      34.262  23.249  23.011  1.00  0.00     0.118 C 
ATOM      9  C   UNL A   1      35.713  23.323  23.458  1.00  0.00     0.027 C 
ENDBRANCH   7   8
BRANCH   7  10
ATOM     10  C   UNL A   1      32.943  25.461  23.167  1.00  0.00     0.319 C 
ATOM     11  O   UNL A   1      33.588  26.400  23.630  1.00  0.00    -0.248 OA
BRANCH  10  12
ATOM     12  N   UNL A   1      31.909  25.682  22.192  1.00  0.00    -0.327 N 
ATOM     13  C   UNL A   1      32.531  25.738  20.867  1.00  0.00     0.148 C 
BRANCH  12  14
ATOM     14  C   UNL A   1      30.867  26.787  22.378  1.00  0.00     0.126 C 
BRANCH  14  15
ATOM     15  C   UNL A   1      30.922  28.418  22.296  1.00  0.00     0.068 C 
BRANCH  15  16
ATOM     16  C   UNL A   1      30.019  29.643  22.750  1.00  0.00     0.006 A 
ATOM     17  C   UNL A   1      29.870  30.462  23.866  1.00  0.00     0.015 A 
ATOM     18  S   UNL A   1      28.802  30.198  21.609  1.00  0.00    -0.149 S 
ATOM     19  C   UNL A   1      28.773  31.373  23.879  1.00  0.00     0.012 A 
ATOM     20  C   UNL A   1      28.096  31.319  22.695  1.00  0.00     0.065 A 
ENDBRANCH  15  16
ENDBRANCH  14  15
ENDBRANCH  12  14
ENDBRANCH  10  12
ENDBRANCH   7  10
ENDBRANCH   6   7
ENDBRANCH   5   6
ENDBRANCH   1   5
BRANCH   3  21
ATOM     21  C   UNL A   1      30.282  26.182  25.692  1.00  0.00     0.116 C 
BRANCH  21  22
ATOM     22  C   UNL A   1      31.028  27.611  25.848  1.00  0.00     0.023 C 
BRANCH  22  23
ATOM     23  C   UNL A   1      32.282  28.345  26.485  1.00  0.00     0.023 C 
BRANCH  23  24
ATOM     24  C   UNL A   1      33.167  29.477  25.937  1.00  0.00     0.116 C 
BRANCH  24  25
ATOM     25  N   UNL A   1      32.852  30.792  26.445  1.00  0.00    -0.352 N 
ATOM     26  C   UNL A   1      33.596  31.584  27.298  1.00  0.00     0.251 C 
ATOM     27  H   UNL A   1      31.996  31.172  26.143  1.00  0.00     0.163 HD
ATOM     28  O   UNL A   1      33.181  32.661  27.658  1.00  0.00    -0.269 OA
BRANCH  26  29
ATOM     29  C   UNL A   1      34.874  31.061  27.843  1.00  0.00     0.039 A 
ATOM     30  C   UNL A   1      35.927  31.968  27.998  1.00  0.00     0.014 A 
ATOM     31  C   UNL A   1      35.037  29.723  28.207  1.00  0.00     0.014 A 
ATOM     32  C   UNL A   1      37.117  31.553  28.594  1.00  0.00     0.010 A 
ATOM     33  C   UNL A   1      36.207  29.322  28.853  1.00  0.00     0.010 A 
ATOM     34  C   UNL A   1      37.248  30.237  29.067  1.00  0.00    -0.014 A 
BRANCH  34  35
ATOM     35  C   UNL A   1      38.462  29.840  29.822  1.00  0.00     0.031 A 
ATOM     36  C   UNL A   1      38.687  30.339  31.217  1.00  0.00     0.074 A 
ATOM     37  C   UNL A   1      39.372  29.053  29.215  1.00  0.00     0.049 A 
ATOM     38  N   UNL A   1      39.665  30.074  32.046  1.00  0.00    -0.248 NA
ATOM     39  C   UNL A   1      37.694  31.287  31.745  1.00  0.00     0.031 C 
ATOM     40  C   UNL A   1      39.281  28.582  27.831  1.00  0.00     0.029 A 
ATOM     41  N   UNL A   1      40.541  28.503  29.674  1.00  0.00    -0.354 N 
ATOM     42  C   UNL A   1      39.411  30.830  33.183  1.00  0.00     0.074 A 
ATOM     43  C   UNL A   1      38.221  31.609  32.916  1.00  0.00     0.031 C 
ATOM     44  C   UNL A   1      40.327  27.784  27.566  1.00  0.00     0.029 A 
ATOM     45  C   UNL A   1      41.170  27.700  28.753  1.00  0.00     0.049 A 
ATOM     46  H   UNL A   1      40.897  28.669  30.577  1.00  0.00     0.167 HD
ATOM     47  C   UNL A   1      40.097  30.850  34.351  1.00  0.00     0.037 A 
ATOM     48  C   UNL A   1      42.292  26.964  28.867  1.00  0.00     0.037 A 
ATOM     49  C   UNL A   1      41.270  30.050  34.597  1.00  0.00     0.049 A 
ATOM     50  C   UNL A   1      43.001  26.949  30.193  1.00  0.00     0.074 A 
ATOM     51  C   UNL A   1      42.026  29.944  35.749  1.00  0.00     0.029 A 
ATOM     52  N   UNL A   1      41.854  29.211  33.655  1.00  0.00    -0.354 N 
ATOM     53  N   UNL A   1      42.708  27.605  31.290  1.00  0.00    -0.248 NA
ATOM     54  C   UNL A   1      44.181  26.083  30.305  1.00  0.00     0.031 C 
ATOM     55  C   UNL A   1      43.084  29.063  35.496  1.00  0.00     0.029 A 
ATOM     56  C   UNL A   1      42.966  28.589  34.197  1.00  0.00     0.049 A 
ATOM     57  H   UNL A   1      41.526  29.078  32.737  1.00  0.00     0.167 HD
ATOM     58  C   UNL A   1      43.654  27.221  32.230  1.00  0.00     0.074 A 
ATOM     59  C   UNL A   1      44.517  26.256  31.576  1.00  0.00     0.031 C 
ATOM     60  C   UNL A   1      43.802  27.632  33.514  1.00  0.00     0.037 A 
BRANCH  47  61
ATOM     61  C   UNL A   1      39.589  31.763  35.433  1.00  0.00     0.064 A 
ATOM     62  C   UNL A   1      38.622  31.339  36.358  1.00  0.00     0.173 A 
ATOM     63  C   UNL A   1      40.053  33.083  35.536  1.00  0.00     0.173 A 
ATOM     64  F   UNL A   1      38.135  30.089  36.301  1.00  0.00    -0.203 F 
ATOM     65  C   UNL A   1      38.100  32.214  37.308  1.00  0.00     0.198 A 
ATOM     66  C   UNL A   1      39.553  33.946  36.508  1.00  0.00     0.198 A 
ATOM     67  F   UNL A   1      40.985  33.541  34.686  1.00  0.00    -0.203 F 
ATOM     68  F   UNL A   1      37.124  31.804  38.131  1.00  0.00    -0.200 F 
ATOM     69  C   UNL A   1      38.567  33.517  37.383  1.00  0.00     0.200 A 
ATOM     70  F   UNL A   1      40.013  35.203  36.588  1.00  0.00    -0.200 F 
ATOM     71  F   UNL A   1      38.056  34.361  38.290  1.00  0.00    -0.200 F 
ENDBRANCH  47  61
BRANCH  48  72
ATOM     72  C   UNL A   1      42.753  26.138  27.719  1.00  0.00     0.064 A 
ATOM     73  C   UNL A   1      43.709  26.626  26.817  1.00  0.00     0.173 A 
ATOM     74  C   UNL A   1      42.285  24.830  27.524  1.00  0.00     0.173 A 
ATOM     75  F   UNL A   1      44.179  27.874  26.952  1.00  0.00    -0.203 F 
ATOM     76  C   UNL A   1      44.172  25.843  25.761  1.00  0.00     0.198 A 
ATOM     77  C   UNL A   1      42.766  24.038  26.481  1.00  0.00     0.198 A 
ATOM     78  F   UNL A   1      41.377  24.309  28.363  1.00  0.00    -0.203 F 
ATOM     79  F   UNL A   1      45.067  26.346  24.898  1.00  0.00    -0.200 F 
ATOM     80  C   UNL A   1      43.707  24.547  25.598  1.00  0.00     0.200 A 
ATOM     81  F   UNL A   1      42.327  22.781  26.339  1.00  0.00    -0.200 F 
ATOM     82  F   UNL A   1      44.164  23.790  24.592  1.00  0.00    -0.200 F 
ENDBRANCH  48  72
BRANCH  60  83
ATOM     83  C   UNL A   1      44.932  27.029  34.291  1.00  0.00     0.064 A 
ATOM     84  C   UNL A   1      46.194  27.638  34.333  1.00  0.00     0.173 A 
ATOM     85  C   UNL A   1      44.735  25.859  35.038  1.00  0.00     0.173 A 
ATOM     86  F   UNL A   1      46.433  28.750  33.622  1.00  0.00    -0.203 F 
ATOM     87  C   UNL A   1      47.227  27.083  35.083  1.00  0.00     0.198 A 
ATOM     88  C   UNL A   1      45.762  25.323  35.808  1.00  0.00     0.198 A 
ATOM     89  F   UNL A   1      43.542  25.245  35.032  1.00  0.00    -0.203 F 
ATOM     90  F   UNL A   1      48.438  27.657  35.079  1.00  0.00    -0.200 F 
ATOM     91  C   UNL A   1      47.008  25.931  35.825  1.00  0.00     0.200 A 
ATOM     92  F   UNL A   1      45.546  24.218  36.534  1.00  0.00    -0.200 F 
ATOM     93  F   UNL A   1      48.001  25.405  36.554  1.00  0.00    -0.200 F 
ENDBRANCH  60  83
ENDBRANCH  34  35
ENDBRANCH  26  29
ENDBRANCH  24  25
ENDBRANCH  23  24
ENDBRANCH  22  23
ENDBRANCH  21  22
ENDBRANCH   3  21
TORSDOF 19
ENDMDL
MODEL 2
REMARK VINA RESULT:     -10.6      2.271      4.007
REMARK SMILES CCN(CCC(=O)NCCCCNC(=O)c1ccc(-c2c3nc(c(-c4c(F)c(F)c(F)c(F)c4F)c4ccc([nH]4)c(-c4c(F)c(F)c(F)c(F)c4F)c4nc(c(-c5c(F)c(F)c(F)c(F)c5F)c5ccc2[nH]5)C=C4)C=C3)cc1)C(=O)N(C)CCc1cccs1
REMARK SMILES IDX 6 1 7 2 8 3 5 5 4 6 3 7 2 8 1 9 79 10 80 11 81 12 82 13
REMARK SMILES IDX 83 14 84 15 85 16 86 17 89 18 87 19 88 20 9 21 10 22 11 23
REMARK SMILES IDX 12 24 13 25 14 26 15 28 16 29 17 30 78 31 18 32 77 33 19 34
REMARK SMILES IDX 20 35 21 36 71 37 22 38 76 39 70 40 72 41 23 42 75 43 69 44
REMARK SMILES IDX 68 45 24 47 56 48 36 49 55 50 37 51 40 52 54 53 73 54 38 55
REMARK SMILES IDX 39 56 53 58 74 59 41 60 25 61 26 62 34 63 27 64 28 65 32 66
REMARK SMILES IDX 35 67 29 68 30 69 33 70 31 71 57 72 58 73 66 74 59 75 60 76
REMARK SMILES IDX 64 77 67 78 61 79 62 80 65 81 63 82 42 83 43 84 51 85 44 86
REMARK SMILES IDX 45 87 49 88 52 89 46 90 47 91 50 92 48 93
REMARK H PARENT 8 4 13 27 72 46 40 57
REMARK Flexibility Score: inf
ROOT
ATOM      1  C   UNL A   1      32.589  24.020  26.658  1.00  0.00     0.221 C 
ATOM      2  O   UNL A   1      32.606  22.990  27.341  1.00  0.00    -0.275 OA
ATOM      3  N   UNL A   1      31.424  24.715  26.573  1.00  0.00    -0.356 N 
ATOM      4  H   UNL A   1      30.702  24.237  27.042  1.00  0.00     0.163 HD
ENDROOT
BRANCH   1   5
ATOM      5  C   UNL A   1      33.827  24.460  25.957  1.00  0.00     0.121 C 
BRANCH   5   6
ATOM      6  C   UNL A   1      34.835  23.336  25.931  1.00  0.00     0.131 C 
BRANCH   6   7
ATOM      7  N   UNL A   1      35.119  22.851  24.580  1.00  0.00    -0.324 N 
BRANCH   7   8
ATOM      8  C   UNL A   1      36.447  22.185  24.500  1.00  0.00     0.118 C 
ATOM      9  C   UNL A   1      36.715  20.754  24.936  1.00  0.00     0.027 C 
ENDBRANCH   7   8
BRANCH   7  10
ATOM     10  C   UNL A   1      34.241  23.065  23.493  1.00  0.00     0.319 C 
ATOM     11  O   UNL A   1      34.399  23.977  22.682  1.00  0.00    -0.248 OA
BRANCH  10  12
ATOM     12  N   UNL A   1      33.145  22.143  23.366  1.00  0.00    -0.327 N 
ATOM     13  C   UNL A   1      31.923  22.913  23.123  1.00  0.00     0.148 C 
BRANCH  12  14
ATOM     14  C   UNL A   1      32.922  21.030  24.392  1.00  0.00     0.126 C 
BRANCH  14  15
ATOM     15  C   UNL A   1      32.668  19.420  24.276  1.00  0.00     0.068 C 
BRANCH  15  16
ATOM     16  C   UNL A   1      33.452  18.084  24.628  1.00  0.00     0.006 A 
ATOM     17  C   UNL A   1      34.750  17.590  24.533  1.00  0.00     0.015 A 
ATOM     18  S   UNL A   1      32.511  16.770  25.319  1.00  0.00    -0.149 S 
ATOM     19  C   UNL A   1      34.962  16.216  24.850  1.00  0.00     0.012 A 
ATOM     20  C   UNL A   1      33.802  15.644  25.287  1.00  0.00     0.065 A 
ENDBRANCH  15  16
ENDBRANCH  14  15
ENDBRANCH  12  14
ENDBRANCH  10  12
ENDBRANCH   7  10
ENDBRANCH   6   7
ENDBRANCH   5   6
ENDBRANCH   1   5
BRANCH   3  21
ATOM     21  C   UNL A   1      30.919  25.971  25.984  1.00  0.00     0.116 C 
BRANCH  21  22
ATOM     22  C   UNL A   1      31.093  27.473  26.566  1.00  0.00     0.023 C 
BRANCH  22  23
ATOM     23  C   UNL A   1      32.148  28.532  27.098  1.00  0.00     0.023 C 
BRANCH  23  24
ATOM     24  C   UNL A   1      33.012  29.554  26.341  1.00  0.00     0.116 C 
BRANCH  24  25
ATOM     25  N   UNL A   1      32.799  30.930  26.725  1.00  0.00    -0.352 N 
ATOM     26  C   UNL A   1      33.635  31.759  27.449  1.00  0.00     0.251 C 
ATOM     27  H   UNL A   1      31.948  31.328  26.432  1.00  0.00     0.163 HD
ATOM     28  O   UNL A   1      33.300  32.889  27.717  1.00  0.00    -0.269 OA
BRANCH  26  29
ATOM     29  C   UNL A   1      34.913  31.218  27.976  1.00  0.00     0.039 A 
ATOM     30  C   UNL A   1      36.000  32.094  28.052  1.00  0.00     0.014 A 
ATOM     31  C   UNL A   1      35.044  29.893  28.399  1.00  0.00     0.014 A 
ATOM     32  C   UNL A   1      37.196  31.666  28.629  1.00  0.00     0.010 A 
ATOM     33  C   UNL A   1      36.222  29.483  29.024  1.00  0.00     0.010 A 
ATOM     34  C   UNL A   1      37.300  30.371  29.159  1.00  0.00    -0.014 A 
BRANCH  34  35
ATOM     35  C   UNL A   1      38.525  29.968  29.892  1.00  0.00     0.031 A 
ATOM     36  C   UNL A   1      38.778  30.466  31.283  1.00  0.00     0.074 A 
ATOM     37  C   UNL A   1      39.420  29.175  29.269  1.00  0.00     0.049 A 
ATOM     38  N   UNL A   1      39.770  30.197  32.094  1.00  0.00    -0.248 NA
ATOM     39  C   UNL A   1      37.801  31.420  31.828  1.00  0.00     0.031 C 
ATOM     40  C   UNL A   1      39.301  28.704  27.887  1.00  0.00     0.029 A 
ATOM     41  N   UNL A   1      40.594  28.620  29.707  1.00  0.00    -0.354 N 
ATOM     42  C   UNL A   1      39.541  30.956  33.235  1.00  0.00     0.074 A 
ATOM     43  C   UNL A   1      38.351  31.740  32.989  1.00  0.00     0.031 C 
ATOM     44  C   UNL A   1      40.337  27.901  27.603  1.00  0.00     0.029 A 
ATOM     45  C   UNL A   1      41.201  27.813  28.775  1.00  0.00     0.049 A 
ATOM     46  H   UNL A   1      40.968  28.784  30.603  1.00  0.00     0.167 HD
ATOM     47  C   UNL A   1      40.249  30.972  34.390  1.00  0.00     0.037 A 
ATOM     48  C   UNL A   1      42.321  27.071  28.869  1.00  0.00     0.037 A 
ATOM     49  C   UNL A   1      41.422  30.166  34.614  1.00  0.00     0.049 A 
ATOM     50  C   UNL A   1      43.055  27.054  30.181  1.00  0.00     0.074 A 
ATOM     51  C   UNL A   1      42.199  30.057  35.752  1.00  0.00     0.029 A 
ATOM     52  N   UNL A   1      41.984  29.324  33.663  1.00  0.00    -0.354 N 
ATOM     53  N   UNL A   1      42.786  27.712  31.283  1.00  0.00    -0.248 NA
ATOM     54  C   UNL A   1      44.232  26.181  30.272  1.00  0.00     0.031 C 
ATOM     55  C   UNL A   1      43.247  29.171  35.480  1.00  0.00     0.029 A 
ATOM     56  C   UNL A   1      43.103  28.696  34.184  1.00  0.00     0.049 A 
ATOM     57  H   UNL A   1      41.638  29.192  32.751  1.00  0.00     0.167 HD
ATOM     58  C   UNL A   1      43.747  27.324  32.205  1.00  0.00     0.074 A 
ATOM     59  C   UNL A   1      44.593  26.354  31.537  1.00  0.00     0.031 C 
ATOM     60  C   UNL A   1      43.921  27.735  33.486  1.00  0.00     0.037 A 
BRANCH  47  61
ATOM     61  C   UNL A   1      39.766  31.888  35.480  1.00  0.00     0.064 A 
ATOM     62  C   UNL A   1      38.763  31.494  36.380  1.00  0.00     0.173 A 
ATOM     63  C   UNL A   1      40.290  33.183  35.616  1.00  0.00     0.173 A 
ATOM     64  F   UNL A   1      38.218  30.270  36.291  1.00  0.00    -0.203 F 
ATOM     65  C   UNL A   1      38.266  32.376  37.338  1.00  0.00     0.198 A 
ATOM     66  C   UNL A   1      39.814  34.051  36.596  1.00  0.00     0.198 A 
ATOM     67  F   UNL A   1      41.258  33.611  34.791  1.00  0.00    -0.203 F 
ATOM     68  F   UNL A   1      37.257  31.998  38.136  1.00  0.00    -0.200 F 
ATOM     69  C   UNL A   1      38.794  33.653  37.446  1.00  0.00     0.200 A 
ATOM     70  F   UNL A   1      40.333  35.282  36.708  1.00  0.00    -0.200 F 
ATOM     71  F   UNL A   1      38.308  34.505  38.360  1.00  0.00    -0.200 F 
ENDBRANCH  47  61
BRANCH  48  72
ATOM     72  C   UNL A   1      42.757  26.242  27.713  1.00  0.00     0.064 A 
ATOM     73  C   UNL A   1      42.190  24.981  27.476  1.00  0.00     0.173 A 
ATOM     74  C   UNL A   1      43.713  26.706  26.798  1.00  0.00     0.173 A 
ATOM     75  F   UNL A   1      41.281  24.486  28.328  1.00  0.00    -0.203 F 
ATOM     76  C   UNL A   1      42.568  24.215  26.374  1.00  0.00     0.198 A 
ATOM     77  C   UNL A   1      44.073  25.949  25.683  1.00  0.00     0.198 A 
ATOM     78  F   UNL A   1      44.280  27.909  26.971  1.00  0.00    -0.203 F 
ATOM     79  F   UNL A   1      42.028  23.002  26.188  1.00  0.00    -0.200 F 
ATOM     80  C   UNL A   1      43.502  24.703  25.474  1.00  0.00     0.200 A 
ATOM     81  F   UNL A   1      44.963  26.432  24.806  1.00  0.00    -0.200 F 
ATOM     82  F   UNL A   1      43.853  23.972  24.407  1.00  0.00    -0.200 F 
ENDBRANCH  48  72
BRANCH  60  83
ATOM     83  C   UNL A   1      45.062  27.126  34.243  1.00  0.00     0.064 A 
ATOM     84  C   UNL A   1      46.326  27.732  34.266  1.00  0.00     0.173 A 
ATOM     85  C   UNL A   1      44.874  25.954  34.989  1.00  0.00     0.173 A 
ATOM     86  F   UNL A   1      46.556  28.845  33.555  1.00  0.00    -0.203 F 
ATOM     87  C   UNL A   1      47.370  27.172  34.997  1.00  0.00     0.198 A 
ATOM     88  C   UNL A   1      45.913  25.413  35.740  1.00  0.00     0.198 A 
ATOM     89  F   UNL A   1      43.680  25.343  35.001  1.00  0.00    -0.203 F 
ATOM     90  F   UNL A   1      48.582  27.743  34.975  1.00  0.00    -0.200 F 
ATOM     91  C   UNL A   1      47.160  26.019  35.739  1.00  0.00     0.200 A 
ATOM     92  F   UNL A   1      45.706  24.306  36.466  1.00  0.00    -0.200 F 
ATOM     93  F   UNL A   1      48.163  25.487  36.450  1.00  0.00    -0.200 F 
ENDBRANCH  60  83
ENDBRANCH  34  35
ENDBRANCH  26  29
ENDBRANCH  24  25
ENDBRANCH  23  24
ENDBRANCH  22  23
ENDBRANCH  21  22
ENDBRANCH   3  21
TORSDOF 19
ENDMDL
MODEL 3
REMARK VINA RESULT:     -10.5      4.190      9.374
REMARK SMILES CCN(CCC(=O)NCCCCNC(=O)c1ccc(-c2c3nc(c(-c4c(F)c(F)c(F)c(F)c4F)c4ccc([nH]4)c(-c4c(F)c(F)c(F)c(F)c4F)c4nc(c(-c5c(F)c(F)c(F)c(F)c5F)c5ccc2[nH]5)C=C4)C=C3)cc1)C(=O)N(C)CCc1cccs1
REMARK SMILES IDX 6 1 7 2 8 3 5 5 4 6 3 7 2 8 1 9 79 10 80 11 81 12 82 13
REMARK SMILES IDX 83 14 84 15 85 16 86 17 89 18 87 19 88 20 9 21 10 22 11 23
REMARK SMILES IDX 12 24 13 25 14 26 15 28 16 29 17 30 78 31 18 32 77 33 19 34
REMARK SMILES IDX 20 35 21 36 71 37 22 38 76 39 70 40 72 41 23 42 75 43 69 44
REMARK SMILES IDX 68 45 24 47 56 48 36 49 55 50 37 51 40 52 54 53 73 54 38 55
REMARK SMILES IDX 39 56 53 58 74 59 41 60 25 61 26 62 34 63 27 64 28 65 32 66
REMARK SMILES IDX 35 67 29 68 30 69 33 70 31 71 57 72 58 73 66 74 59 75 60 76
REMARK SMILES IDX 64 77 67 78 61 79 62 80 65 81 63 82 42 83 43 84 51 85 44 86
REMARK SMILES IDX 45 87 49 88 52 89 46 90 47 91 50 92 48 93
REMARK H PARENT 8 4 13 27 72 46 40 57
REMARK Flexibility Score: inf
ROOT
ATOM      1  C   UNL A   1      31.126  22.990  26.997  1.00  0.00     0.221 C 
ATOM      2  O   UNL A   1      30.020  23.037  27.548  1.00  0.00    -0.275 OA
ATOM      3  N   UNL A   1      32.145  22.380  27.657  1.00  0.00    -0.356 N 
ATOM      4  H   UNL A   1      31.858  22.102  28.557  1.00  0.00     0.163 HD
ENDROOT
BRANCH   1   5
ATOM      5  C   UNL A   1      31.305  23.597  25.650  1.00  0.00     0.121 C 
BRANCH   5   6
ATOM      6  C   UNL A   1      31.952  24.956  25.775  1.00  0.00     0.131 C 
BRANCH   6   7
ATOM      7  N   UNL A   1      32.380  25.508  24.490  1.00  0.00    -0.324 N 
BRANCH   7   8
ATOM      8  C   UNL A   1      33.832  25.288  24.251  1.00  0.00     0.118 C 
ATOM      9  C   UNL A   1      34.842  24.972  25.343  1.00  0.00     0.027 C 
ENDBRANCH   7   8
BRANCH   7  10
ATOM     10  C   UNL A   1      31.506  26.215  23.633  1.00  0.00     0.319 C 
ATOM     11  O   UNL A   1      31.490  26.045  22.414  1.00  0.00    -0.248 OA
BRANCH  10  12
ATOM     12  N   UNL A   1      30.609  27.146  24.262  1.00  0.00    -0.327 N 
ATOM     13  C   UNL A   1      29.256  26.888  23.766  1.00  0.00     0.148 C 
BRANCH  12  14
ATOM     14  C   UNL A   1      30.923  28.643  24.305  1.00  0.00     0.126 C 
BRANCH  14  15
ATOM     15  C   UNL A   1      30.049  29.991  24.004  1.00  0.00     0.068 C 
BRANCH  15  16
ATOM     16  C   UNL A   1      29.182  30.580  22.810  1.00  0.00     0.006 A 
ATOM     17  C   UNL A   1      28.610  30.127  21.625  1.00  0.00     0.015 A 
ATOM     18  S   UNL A   1      28.793  32.292  22.882  1.00  0.00    -0.149 S 
ATOM     19  C   UNL A   1      28.025  31.096  20.758  1.00  0.00     0.012 A 
ATOM     20  C   UNL A   1      28.070  32.334  21.329  1.00  0.00     0.065 A 
ENDBRANCH  15  16
ENDBRANCH  14  15
ENDBRANCH  12  14
ENDBRANCH  10  12
ENDBRANCH   7  10
ENDBRANCH   6   7
ENDBRANCH   5   6
ENDBRANCH   1   5
BRANCH   3  21
ATOM     21  C   UNL A   1      33.556  22.011  27.426  1.00  0.00     0.116 C 
BRANCH  21  22
ATOM     22  C   UNL A   1      34.218  21.449  26.059  1.00  0.00     0.023 C 
BRANCH  22  23
ATOM     23  C   UNL A   1      35.580  21.286  25.261  1.00  0.00     0.023 C 
BRANCH  23  24
ATOM     24  C   UNL A   1      36.973  21.882  25.523  1.00  0.00     0.116 C 
BRANCH  24  25
ATOM     25  N   UNL A   1      38.038  20.911  25.626  1.00  0.00    -0.352 N 
ATOM     26  C   UNL A   1      39.313  21.084  26.130  1.00  0.00     0.251 C 
ATOM     27  H   UNL A   1      37.826  20.009  25.294  1.00  0.00     0.163 HD
ATOM     28  O   UNL A   1      40.107  20.173  26.122  1.00  0.00    -0.269 OA
BRANCH  26  29
ATOM     29  C   UNL A   1      39.729  22.429  26.600  1.00  0.00     0.039 A 
ATOM     30  C   UNL A   1      40.689  22.488  27.616  1.00  0.00     0.014 A 
ATOM     31  C   UNL A   1      39.208  23.604  26.054  1.00  0.00     0.014 A 
ATOM     32  C   UNL A   1      41.187  23.724  28.027  1.00  0.00     0.010 A 
ATOM     33  C   UNL A   1      39.746  24.837  26.428  1.00  0.00     0.010 A 
ATOM     34  C   UNL A   1      40.751  24.904  27.404  1.00  0.00    -0.014 A 
BRANCH  34  35
ATOM     35  C   UNL A   1      41.385  26.200  27.751  1.00  0.00     0.031 A 
ATOM     36  C   UNL A   1      42.782  26.508  27.304  1.00  0.00     0.074 A 
ATOM     37  C   UNL A   1      40.691  27.077  28.503  1.00  0.00     0.049 A 
ATOM     38  N   UNL A   1      43.488  27.596  27.478  1.00  0.00    -0.248 NA
ATOM     39  C   UNL A   1      43.495  25.438  26.590  1.00  0.00     0.031 C 
ATOM     40  C   UNL A   1      39.355  26.835  29.054  1.00  0.00     0.029 A 
ATOM     41  N   UNL A   1      40.999  28.343  28.931  1.00  0.00    -0.354 N 
ATOM     42  C   UNL A   1      44.727  27.336  26.907  1.00  0.00     0.074 A 
ATOM     43  C   UNL A   1      44.698  25.970  26.435  1.00  0.00     0.031 C 
ATOM     44  C   UNL A   1      38.943  27.929  29.711  1.00  0.00     0.029 A 
ATOM     45  C   UNL A   1      39.990  28.943  29.644  1.00  0.00     0.049 A 
ATOM     46  H   UNL A   1      41.862  28.780  28.745  1.00  0.00     0.167 HD
ATOM     47  C   UNL A   1      45.783  28.176  26.769  1.00  0.00     0.037 A 
ATOM     48  C   UNL A   1      39.915  30.182  30.166  1.00  0.00     0.037 A 
ATOM     49  C   UNL A   1      45.779  29.540  27.233  1.00  0.00     0.049 A 
ATOM     50  C   UNL A   1      41.071  31.118  29.945  1.00  0.00     0.074 A 
ATOM     51  C   UNL A   1      46.763  30.503  27.113  1.00  0.00     0.029 A 
ATOM     52  N   UNL A   1      44.720  30.130  27.912  1.00  0.00    -0.354 N 
ATOM     53  N   UNL A   1      42.209  30.891  29.332  1.00  0.00    -0.248 NA
ATOM     54  C   UNL A   1      40.929  32.483  30.466  1.00  0.00     0.031 C 
ATOM     55  C   UNL A   1      46.311  31.668  27.745  1.00  0.00     0.029 A 
ATOM     56  C   UNL A   1      45.029  31.443  28.225  1.00  0.00     0.049 A 
ATOM     57  H   UNL A   1      43.874  29.681  28.138  1.00  0.00     0.167 HD
ATOM     58  C   UNL A   1      42.914  32.084  29.379  1.00  0.00     0.074 A 
ATOM     59  C   UNL A   1      42.063  33.041  30.061  1.00  0.00     0.031 C 
ATOM     60  C   UNL A   1      44.154  32.365  28.906  1.00  0.00     0.037 A 
BRANCH  47  61
ATOM     61  C   UNL A   1      47.011  27.631  26.093  1.00  0.00     0.064 A 
ATOM     62  C   UNL A   1      47.176  27.703  24.700  1.00  0.00     0.173 A 
ATOM     63  C   UNL A   1      48.025  27.010  26.838  1.00  0.00     0.173 A 
ATOM     64  F   UNL A   1      46.233  28.278  23.938  1.00  0.00    -0.203 F 
ATOM     65  C   UNL A   1      48.280  27.128  24.074  1.00  0.00     0.198 A 
ATOM     66  C   UNL A   1      49.144  26.465  26.212  1.00  0.00     0.198 A 
ATOM     67  F   UNL A   1      47.927  26.921  28.173  1.00  0.00    -0.203 F 
ATOM     68  F   UNL A   1      48.375  27.145  22.738  1.00  0.00    -0.200 F 
ATOM     69  C   UNL A   1      49.263  26.510  24.832  1.00  0.00     0.200 A 
ATOM     70  F   UNL A   1      50.101  25.878  26.945  1.00  0.00    -0.200 F 
ATOM     71  F   UNL A   1      50.320  25.947  24.227  1.00  0.00    -0.200 F 
ENDBRANCH  47  61
BRANCH  48  72
ATOM     72  C   UNL A   1      38.680  30.613  30.874  1.00  0.00     0.064 A 
ATOM     73  C   UNL A   1      38.600  30.576  32.274  1.00  0.00     0.173 A 
ATOM     74  C   UNL A   1      37.571  31.110  30.174  1.00  0.00     0.173 A 
ATOM     75  F   UNL A   1      39.628  30.097  32.989  1.00  0.00    -0.203 F 
ATOM     76  C   UNL A   1      37.459  31.012  32.944  1.00  0.00     0.198 A 
ATOM     77  C   UNL A   1      36.438  31.569  30.847  1.00  0.00     0.198 A 
ATOM     78  F   UNL A   1      37.597  31.178  28.835  1.00  0.00    -0.203 F 
ATOM     79  F   UNL A   1      37.402  30.940  34.282  1.00  0.00    -0.200 F 
ATOM     80  C   UNL A   1      36.382  31.516  32.232  1.00  0.00     0.200 A 
ATOM     81  F   UNL A   1      35.407  32.072  30.155  1.00  0.00    -0.200 F 
ATOM     82  F   UNL A   1      35.291  31.950  32.878  1.00  0.00    -0.200 F 
ENDBRANCH  48  72
BRANCH  60  83
ATOM     83  C   UNL A   1      44.652  33.765  29.107  1.00  0.00     0.064 A 
ATOM     84  C   UNL A   1      45.409  34.114  30.233  1.00  0.00     0.173 A 
ATOM     85  C   UNL A   1      44.411  34.749  28.138  1.00  0.00     0.173 A 
ATOM     86  F   UNL A   1      45.651  33.209  31.193  1.00  0.00    -0.203 F 
ATOM     87  C   UNL A   1      45.891  35.410  30.393  1.00  0.00     0.198 A 
ATOM     88  C   UNL A   1      44.918  36.036  28.288  1.00  0.00     0.198 A 
ATOM     89  F   UNL A   1      43.696  34.458  27.041  1.00  0.00    -0.203 F 
ATOM     90  F   UNL A   1      46.579  35.736  31.496  1.00  0.00    -0.200 F 
ATOM     91  C   UNL A   1      45.652  36.367  29.417  1.00  0.00     0.200 A 
ATOM     92  F   UNL A   1      44.697  36.956  27.339  1.00  0.00    -0.200 F 
ATOM     93  F   UNL A   1      46.126  37.610  29.567  1.00  0.00    -0.200 F 
ENDBRANCH  60  83
ENDBRANCH  34  35
ENDBRANCH  26  29
ENDBRANCH  24  25
ENDBRANCH  23  24
ENDBRANCH  22  23
ENDBRANCH  21  22
ENDBRANCH   3  21
TORSDOF 19
ENDMDL
