MODEL 1
REMARK VINA RESULT:     -12.7      0.000      0.000
REMARK SMILES O=C(NCCCCNC(=O)[C@@H]1CN(C(=O)CCC(F)(F)F)C[C@H]1c1ccc2c(c1)OCO2)c1ccc(-c2c3nc(c(-c4c(F)c(F)c(F)c(F)c4F)c4ccc([nH]4)c(-c4c(F)c(F)c(F)c(F)c4F)c4nc(c(-c5c(F)c(F)c(F)c(F)c5F)c5ccc2[nH]5)C=C4)C=C3)cc1
REMARK SMILES IDX 6 1 5 2 4 3 3 4 1 5 2 6 33 8 34 9 95 10 35 11 94 12 36 13
REMARK SMILES IDX 37 14 38 15 88 16 39 17 93 18 87 19 89 20 40 21 92 22 86 23
REMARK SMILES IDX 85 24 41 26 73 27 53 28 72 29 54 30 57 31 71 32 90 33 55 34
REMARK SMILES IDX 56 35 70 37 91 38 58 39 42 40 43 41 51 42 44 43 45 44 49 45
REMARK SMILES IDX 52 46 46 47 47 48 50 49 48 50 74 51 75 52 83 53 76 54 77 55
REMARK SMILES IDX 81 56 84 57 78 58 79 59 82 60 80 61 59 62 60 63 68 64 61 65
REMARK SMILES IDX 62 66 66 67 69 68 63 69 64 70 67 71 65 72 7 73 8 74 9 75
REMARK SMILES IDX 10 77 11 78 12 79 23 80 13 81 22 82 24 83 25 84 29 85 26 86
REMARK SMILES IDX 28 87 27 88 30 89 32 90 31 91 14 92 15 93 16 94 17 95 18 96
REMARK SMILES IDX 19 97 20 98 21 99
REMARK H PARENT 3 7 89 25 57 36 8 76
REMARK Flexibility Score: inf
ROOT
ATOM      1  C   UNL A   1      39.190  22.351  26.353  1.00  0.00     0.023 C 
ENDROOT
BRANCH   1   2
ATOM      2  C   UNL A   1      39.550  21.069  25.604  1.00  0.00     0.023 C 
BRANCH   2   3
ATOM      3  C   UNL A   1      39.875  19.880  26.495  1.00  0.00     0.116 C 
BRANCH   3   4
ATOM      4  N   UNL A   1      41.001  19.099  26.010  1.00  0.00    -0.352 N 
ATOM      5  O   UNL A   1      43.114  18.759  25.288  1.00  0.00    -0.269 OA
ATOM      6  C   UNL A   1      42.302  19.500  25.824  1.00  0.00     0.251 C 
ATOM      7  H   UNL A   1      40.807  18.160  25.786  1.00  0.00     0.163 HD
BRANCH   6   8
ATOM      8  C   UNL A   1      42.702  20.856  26.252  1.00  0.00     0.039 A 
ATOM      9  C   UNL A   1      42.694  21.204  27.605  1.00  0.00     0.014 A 
ATOM     10  C   UNL A   1      43.070  21.791  25.281  1.00  0.00     0.014 A 
ATOM     11  C   UNL A   1      42.931  22.520  27.978  1.00  0.00     0.010 A 
ATOM     12  C   UNL A   1      43.385  23.095  25.665  1.00  0.00     0.010 A 
ATOM     13  C   UNL A   1      43.292  23.474  27.013  1.00  0.00    -0.014 A 
BRANCH  13  14
ATOM     14  C   UNL A   1      43.643  24.846  27.448  1.00  0.00     0.031 A 
ATOM     15  C   UNL A   1      45.073  25.286  27.549  1.00  0.00     0.074 A 
ATOM     16  C   UNL A   1      42.644  25.694  27.751  1.00  0.00     0.049 A 
ATOM     17  N   UNL A   1      45.553  26.444  27.927  1.00  0.00    -0.248 NA
ATOM     18  C   UNL A   1      46.101  24.297  27.192  1.00  0.00     0.031 C 
ATOM     19  C   UNL A   1      41.218  25.361  27.705  1.00  0.00     0.029 A 
ATOM     20  N   UNL A   1      42.668  27.004  28.149  1.00  0.00    -0.354 N 
ATOM     21  C   UNL A   1      46.934  26.319  27.874  1.00  0.00     0.074 A 
ATOM     22  C   UNL A   1      47.219  24.965  27.446  1.00  0.00     0.031 C 
ATOM     23  C   UNL A   1      40.504  26.445  28.038  1.00  0.00     0.029 A 
ATOM     24  C   UNL A   1      41.419  27.530  28.371  1.00  0.00     0.049 A 
ATOM     25  H   UNL A   1      43.499  27.520  28.264  1.00  0.00     0.167 HD
ATOM     26  C   UNL A   1      47.873  27.254  28.153  1.00  0.00     0.037 A 
ATOM     27  C   UNL A   1      41.052  28.744  28.818  1.00  0.00     0.037 A 
ATOM     28  C   UNL A   1      47.577  28.605  28.559  1.00  0.00     0.049 A 
ATOM     29  C   UNL A   1      42.112  29.758  29.123  1.00  0.00     0.074 A 
ATOM     30  C   UNL A   1      48.455  29.645  28.810  1.00  0.00     0.029 A 
ATOM     31  N   UNL A   1      46.300  29.099  28.784  1.00  0.00    -0.354 N 
ATOM     32  N   UNL A   1      43.415  29.643  29.025  1.00  0.00    -0.248 NA
ATOM     33  C   UNL A   1      41.656  31.068  29.600  1.00  0.00     0.031 C 
ATOM     34  C   UNL A   1      47.713  30.755  29.228  1.00  0.00     0.029 A 
ATOM     35  C   UNL A   1      46.368  30.421  29.195  1.00  0.00     0.049 A 
ATOM     36  H   UNL A   1      45.467  28.587  28.668  1.00  0.00     0.167 HD
ATOM     37  C   UNL A   1      43.935  30.865  29.423  1.00  0.00     0.074 A 
ATOM     38  C   UNL A   1      42.805  31.715  29.742  1.00  0.00     0.031 C 
ATOM     39  C   UNL A   1      45.232  31.246  29.518  1.00  0.00     0.037 A 
BRANCH  26  40
ATOM     40  C   UNL A   1      49.314  26.846  28.050  1.00  0.00     0.064 A 
ATOM     41  C   UNL A   1      49.996  26.842  26.824  1.00  0.00     0.173 A 
ATOM     42  C   UNL A   1      50.034  26.492  29.202  1.00  0.00     0.173 A 
ATOM     43  F   UNL A   1      49.351  27.162  25.692  1.00  0.00    -0.203 F 
ATOM     44  C   UNL A   1      51.337  26.475  26.752  1.00  0.00     0.198 A 
ATOM     45  C   UNL A   1      51.382  26.150  29.129  1.00  0.00     0.198 A 
ATOM     46  F   UNL A   1      49.432  26.485  30.400  1.00  0.00    -0.203 F 
ATOM     47  F   UNL A   1      51.957  26.438  25.563  1.00  0.00    -0.200 F 
ATOM     48  C   UNL A   1      52.031  26.135  27.904  1.00  0.00     0.200 A 
ATOM     49  F   UNL A   1      52.054  25.831  30.244  1.00  0.00    -0.200 F 
ATOM     50  F   UNL A   1      53.323  25.786  27.832  1.00  0.00    -0.200 F 
ENDBRANCH  26  40
BRANCH  27  51
ATOM     51  C   UNL A   1      39.610  29.040  29.005  1.00  0.00     0.064 A 
ATOM     52  C   UNL A   1      38.799  29.394  27.921  1.00  0.00     0.173 A 
ATOM     53  C   UNL A   1      39.007  28.922  30.267  1.00  0.00     0.173 A 
ATOM     54  F   UNL A   1      39.334  29.533  26.700  1.00  0.00    -0.203 F 
ATOM     55  C   UNL A   1      37.434  29.624  28.093  1.00  0.00     0.198 A 
ATOM     56  C   UNL A   1      37.640  29.125  30.432  1.00  0.00     0.198 A 
ATOM     57  F   UNL A   1      39.743  28.575  31.333  1.00  0.00    -0.203 F 
ATOM     58  F   UNL A   1      36.682  29.986  27.045  1.00  0.00    -0.200 F 
ATOM     59  C   UNL A   1      36.855  29.480  29.345  1.00  0.00     0.200 A 
ATOM     60  F   UNL A   1      37.082  28.967  31.639  1.00  0.00    -0.200 F 
ATOM     61  F   UNL A   1      35.540  29.683  29.505  1.00  0.00    -0.200 F 
ENDBRANCH  27  51
BRANCH  39  62
ATOM     62  C   UNL A   1      45.493  32.648  29.982  1.00  0.00     0.064 A 
ATOM     63  C   UNL A   1      45.689  32.943  31.339  1.00  0.00     0.173 A 
ATOM     64  C   UNL A   1      45.579  33.699  29.058  1.00  0.00     0.173 A 
ATOM     65  F   UNL A   1      45.599  31.973  32.261  1.00  0.00    -0.203 F 
ATOM     66  C   UNL A   1      45.940  34.247  31.757  1.00  0.00     0.198 A 
ATOM     67  C   UNL A   1      45.854  34.998  29.477  1.00  0.00     0.198 A 
ATOM     68  F   UNL A   1      45.401  33.465  27.749  1.00  0.00    -0.203 F 
ATOM     69  F   UNL A   1      46.081  34.515  33.062  1.00  0.00    -0.200 F 
ATOM     70  C   UNL A   1      46.029  35.271  30.825  1.00  0.00     0.200 A 
ATOM     71  F   UNL A   1      45.948  35.984  28.576  1.00  0.00    -0.200 F 
ATOM     72  F   UNL A   1      46.274  36.525  31.228  1.00  0.00    -0.200 F 
ENDBRANCH  39  62
ENDBRANCH  13  14
ENDBRANCH   6   8
ENDBRANCH   3   4
ENDBRANCH   2   3
ENDBRANCH   1   2
BRANCH   1  73
ATOM     73  C   UNL A   1      37.842  22.965  25.962  1.00  0.00     0.116 C 
BRANCH  73  74
ATOM     74  N   UNL A   1      37.691  23.027  24.520  1.00  0.00    -0.356 N 
ATOM     75  C   UNL A   1      36.599  22.931  23.718  1.00  0.00     0.225 C 
ATOM     76  H   UNL A   1      38.536  23.164  24.033  1.00  0.00     0.163 HD
ATOM     77  O   UNL A   1      36.803  22.952  22.500  1.00  0.00    -0.275 OA
BRANCH  75  78
ATOM     78  C   UNL A   1      35.173  22.873  24.240  1.00  0.00     0.107 C 
ATOM     79  C   UNL A   1      34.780  21.424  24.471  1.00  0.00     0.133 C 
ATOM     80  C   UNL A   1      34.057  23.508  23.387  1.00  0.00     0.053 C 
ATOM     81  N   UNL A   1      33.371  21.330  24.156  1.00  0.00    -0.341 N 
ATOM     82  C   UNL A   1      32.858  22.563  23.587  1.00  0.00     0.128 C 
BRANCH  80  83
ATOM     83  C   UNL A   1      33.863  24.992  23.675  1.00  0.00    -0.038 A 
ATOM     84  C   UNL A   1      33.565  25.868  22.595  1.00  0.00     0.008 A 
ATOM     85  C   UNL A   1      33.932  25.535  24.968  1.00  0.00     0.054 A 
ATOM     86  C   UNL A   1      33.400  27.244  22.782  1.00  0.00     0.051 A 
ATOM     87  C   UNL A   1      33.775  26.899  25.122  1.00  0.00     0.166 A 
ATOM     88  C   UNL A   1      33.523  27.731  24.060  1.00  0.00     0.165 A 
ATOM     89  O   UNL A   1      33.851  27.573  26.302  1.00  0.00    -0.454 OA
ATOM     90  O   UNL A   1      33.413  29.033  24.432  1.00  0.00    -0.454 OA
ATOM     91  C   UNL A   1      33.671  28.931  25.847  1.00  0.00     0.468 C 
ENDBRANCH  80  83
BRANCH  81  92
ATOM     92  C   UNL A   1      32.535  20.255  24.344  1.00  0.00     0.222 C 
ATOM     93  O   UNL A   1      31.789  20.173  25.322  1.00  0.00    -0.275 OA
BRANCH  92  94
ATOM     94  C   UNL A   1      32.562  19.132  23.326  1.00  0.00     0.109 C 
BRANCH  94  95
ATOM     95  C   UNL A   1      32.735  17.763  23.967  1.00  0.00     0.125 C 
BRANCH  95  96
ATOM     96  C   UNL A   1      34.107  17.180  23.730  1.00  0.00     0.389 C 
ATOM     97  F   UNL A   1      35.070  18.002  24.204  1.00  0.00    -0.171 F 
ATOM     98  F   UNL A   1      34.241  15.994  24.362  1.00  0.00    -0.171 F 
ATOM     99  F   UNL A   1      34.354  16.973  22.419  1.00  0.00    -0.171 F 
ENDBRANCH  95  96
ENDBRANCH  94  95
ENDBRANCH  92  94
ENDBRANCH  81  92
ENDBRANCH  75  78
ENDBRANCH  73  74
ENDBRANCH   1  73
TORSDOF 16
ENDMDL
MODEL 2
REMARK VINA RESULT:     -12.7      0.372      7.168
REMARK SMILES O=C(NCCCCNC(=O)[C@@H]1CN(C(=O)CCC(F)(F)F)C[C@H]1c1ccc2c(c1)OCO2)c1ccc(-c2c3nc(c(-c4c(F)c(F)c(F)c(F)c4F)c4ccc([nH]4)c(-c4c(F)c(F)c(F)c(F)c4F)c4nc(c(-c5c(F)c(F)c(F)c(F)c5F)c5ccc2[nH]5)C=C4)C=C3)cc1
REMARK SMILES IDX 6 1 5 2 4 3 3 4 1 5 2 6 33 8 34 9 95 10 35 11 94 12 36 13
REMARK SMILES IDX 37 14 38 15 88 16 39 17 93 18 87 19 89 20 40 21 92 22 86 23
REMARK SMILES IDX 85 24 41 26 73 27 53 28 72 29 54 30 57 31 71 32 90 33 55 34
REMARK SMILES IDX 56 35 70 37 91 38 58 39 42 40 43 41 51 42 44 43 45 44 49 45
REMARK SMILES IDX 52 46 46 47 47 48 50 49 48 50 74 51 75 52 83 53 76 54 77 55
REMARK SMILES IDX 81 56 84 57 78 58 79 59 82 60 80 61 59 62 60 63 68 64 61 65
REMARK SMILES IDX 62 66 66 67 69 68 63 69 64 70 67 71 65 72 7 73 8 74 9 75
REMARK SMILES IDX 10 77 11 78 12 79 23 80 13 81 22 82 24 83 25 84 29 85 26 86
REMARK SMILES IDX 28 87 27 88 30 89 32 90 31 91 14 92 15 93 16 94 17 95 18 96
REMARK SMILES IDX 19 97 20 98 21 99
REMARK H PARENT 3 7 89 25 57 36 8 76
REMARK Flexibility Score: inf
ROOT
ATOM      1  C   UNL A   1      39.130  22.381  26.318  1.00  0.00     0.023 C 
ENDROOT
BRANCH   1   2
ATOM      2  C   UNL A   1      39.334  21.021  25.651  1.00  0.00     0.023 C 
BRANCH   2   3
ATOM      3  C   UNL A   1      39.833  19.925  26.579  1.00  0.00     0.116 C 
BRANCH   3   4
ATOM      4  N   UNL A   1      40.964  19.192  26.034  1.00  0.00    -0.352 N 
ATOM      5  O   UNL A   1      43.068  18.931  25.255  1.00  0.00    -0.269 OA
ATOM      6  C   UNL A   1      42.253  19.628  25.842  1.00  0.00     0.251 C 
ATOM      7  H   UNL A   1      40.783  18.261  25.768  1.00  0.00     0.163 HD
BRANCH   6   8
ATOM      8  C   UNL A   1      42.634  20.970  26.328  1.00  0.00     0.039 A 
ATOM      9  C   UNL A   1      42.663  21.246  27.698  1.00  0.00     0.014 A 
ATOM     10  C   UNL A   1      42.948  21.964  25.397  1.00  0.00     0.014 A 
ATOM     11  C   UNL A   1      42.881  22.547  28.132  1.00  0.00     0.010 A 
ATOM     12  C   UNL A   1      43.244  23.253  25.840  1.00  0.00     0.010 A 
ATOM     13  C   UNL A   1      43.187  23.559  27.208  1.00  0.00    -0.014 A 
BRANCH  13  14
ATOM     14  C   UNL A   1      43.520  24.914  27.704  1.00  0.00     0.031 A 
ATOM     15  C   UNL A   1      42.444  25.901  28.045  1.00  0.00     0.074 A 
ATOM     16  C   UNL A   1      44.817  25.242  27.844  1.00  0.00     0.049 A 
ATOM     17  N   UNL A   1      42.562  27.132  28.477  1.00  0.00    -0.248 NA
ATOM     18  C   UNL A   1      41.053  25.457  27.869  1.00  0.00     0.031 C 
ATOM     19  C   UNL A   1      45.943  24.362  27.522  1.00  0.00     0.029 A 
ATOM     20  N   UNL A   1      45.409  26.391  28.296  1.00  0.00    -0.354 N 
ATOM     21  C   UNL A   1      41.269  27.617  28.604  1.00  0.00     0.074 A 
ATOM     22  C   UNL A   1      40.377  26.555  28.186  1.00  0.00     0.031 C 
ATOM     23  C   UNL A   1      47.090  24.995  27.809  1.00  0.00     0.029 A 
ATOM     24  C   UNL A   1      46.781  26.339  28.283  1.00  0.00     0.049 A 
ATOM     25  H   UNL A   1      44.901  27.178  28.601  1.00  0.00     0.167 HD
ATOM     26  C   UNL A   1      40.867  28.836  29.037  1.00  0.00     0.037 A 
ATOM     27  C   UNL A   1      47.691  27.278  28.594  1.00  0.00     0.037 A 
ATOM     28  C   UNL A   1      41.763  29.878  29.469  1.00  0.00     0.049 A 
ATOM     29  C   UNL A   1      47.219  28.621  29.067  1.00  0.00     0.074 A 
ATOM     30  C   UNL A   1      41.455  31.128  29.979  1.00  0.00     0.029 A 
ATOM     31  N   UNL A   1      43.148  29.794  29.432  1.00  0.00    -0.354 N 
ATOM     32  N   UNL A   1      45.992  29.053  29.227  1.00  0.00    -0.248 NA
ATOM     33  C   UNL A   1      48.255  29.605  29.400  1.00  0.00     0.031 C 
ATOM     34  C   UNL A   1      42.652  31.815  30.210  1.00  0.00     0.029 A 
ATOM     35  C   UNL A   1      43.708  30.978  29.886  1.00  0.00     0.049 A 
ATOM     36  H   UNL A   1      43.659  29.008  29.129  1.00  0.00     0.167 HD
ATOM     37  C   UNL A   1      46.105  30.356  29.684  1.00  0.00     0.074 A 
ATOM     38  C   UNL A   1      47.522  30.637  29.798  1.00  0.00     0.031 C 
ATOM     39  C   UNL A   1      45.122  31.241  29.980  1.00  0.00     0.037 A 
BRANCH  26  40
ATOM     40  C   UNL A   1      39.393  29.121  29.046  1.00  0.00     0.064 A 
ATOM     41  C   UNL A   1      38.695  29.444  27.872  1.00  0.00     0.173 A 
ATOM     42  C   UNL A   1      38.662  29.032  30.240  1.00  0.00     0.173 A 
ATOM     43  F   UNL A   1      39.349  29.551  26.706  1.00  0.00    -0.203 F 
ATOM     44  C   UNL A   1      37.325  29.689  27.899  1.00  0.00     0.198 A 
ATOM     45  C   UNL A   1      37.287  29.255  30.259  1.00  0.00     0.198 A 
ATOM     46  F   UNL A   1      39.280  28.723  31.390  1.00  0.00    -0.203 F 
ATOM     47  F   UNL A   1      36.686  30.037  26.772  1.00  0.00    -0.200 F 
ATOM     48  C   UNL A   1      36.621  29.590  29.090  1.00  0.00     0.200 A 
ATOM     49  F   UNL A   1      36.607  29.148  31.409  1.00  0.00    -0.200 F 
ATOM     50  F   UNL A   1      35.301  29.823  29.112  1.00  0.00    -0.200 F 
ENDBRANCH  26  40
BRANCH  27  51
ATOM     51  C   UNL A   1      49.134  26.963  28.452  1.00  0.00     0.064 A 
ATOM     52  C   UNL A   1      49.873  26.460  29.529  1.00  0.00     0.173 A 
ATOM     53  C   UNL A   1      49.787  27.111  27.219  1.00  0.00     0.173 A 
ATOM     54  F   UNL A   1      49.294  26.316  30.730  1.00  0.00    -0.203 F 
ATOM     55  C   UNL A   1      51.216  26.119  29.379  1.00  0.00     0.198 A 
ATOM     56  C   UNL A   1      51.121  26.744  27.063  1.00  0.00     0.198 A 
ATOM     57  F   UNL A   1      49.117  27.581  26.156  1.00  0.00    -0.203 F 
ATOM     58  F   UNL A   1      51.909  25.662  30.430  1.00  0.00    -0.200 F 
ATOM     59  C   UNL A   1      51.836  26.253  28.145  1.00  0.00     0.200 A 
ATOM     60  F   UNL A   1      51.710  26.857  25.865  1.00  0.00    -0.200 F 
ATOM     61  F   UNL A   1      53.122  25.906  27.998  1.00  0.00    -0.200 F 
ENDBRANCH  27  51
BRANCH  39  62
ATOM     62  C   UNL A   1      45.552  32.595  30.460  1.00  0.00     0.064 A 
ATOM     63  C   UNL A   1      45.745  33.658  29.567  1.00  0.00     0.173 A 
ATOM     64  C   UNL A   1      45.742  32.838  31.828  1.00  0.00     0.173 A 
ATOM     65  F   UNL A   1      45.592  33.469  28.248  1.00  0.00    -0.203 F 
ATOM     66  C   UNL A   1      46.136  34.914  30.025  1.00  0.00     0.198 A 
ATOM     67  C   UNL A   1      46.109  34.100  32.285  1.00  0.00     0.198 A 
ATOM     68  F   UNL A   1      45.567  31.852  32.721  1.00  0.00    -0.203 F 
ATOM     69  F   UNL A   1      46.357  35.905  29.151  1.00  0.00    -0.200 F 
ATOM     70  C   UNL A   1      46.310  35.135  31.384  1.00  0.00     0.200 A 
ATOM     71  F   UNL A   1      46.270  34.315  33.598  1.00  0.00    -0.200 F 
ATOM     72  F   UNL A   1      46.682  36.344  31.824  1.00  0.00    -0.200 F 
ENDBRANCH  39  62
ENDBRANCH  13  14
ENDBRANCH   6   8
ENDBRANCH   3   4
ENDBRANCH   2   3
ENDBRANCH   1   2
BRANCH   1  73
ATOM     73  C   UNL A   1      37.830  23.095  25.934  1.00  0.00     0.116 C 
BRANCH  73  74
ATOM     74  N   UNL A   1      37.664  23.146  24.493  1.00  0.00    -0.356 N 
ATOM     75  C   UNL A   1      36.567  23.025  23.702  1.00  0.00     0.225 C 
ATOM     76  H   UNL A   1      38.502  23.295  23.997  1.00  0.00     0.163 HD
ATOM     77  O   UNL A   1      36.760  23.044  22.482  1.00  0.00    -0.275 OA
BRANCH  75  78
ATOM     78  C   UNL A   1      35.147  22.946  24.238  1.00  0.00     0.107 C 
ATOM     79  C   UNL A   1      34.765  21.489  24.434  1.00  0.00     0.133 C 
ATOM     80  C   UNL A   1      34.019  23.596  23.414  1.00  0.00     0.053 C 
ATOM     81  N   UNL A   1      33.353  21.395  24.132  1.00  0.00    -0.341 N 
ATOM     82  C   UNL A   1      32.827  22.640  23.601  1.00  0.00     0.128 C 
BRANCH  80  83
ATOM     83  C   UNL A   1      33.819  25.071  23.743  1.00  0.00    -0.038 A 
ATOM     84  C   UNL A   1      33.503  25.973  22.690  1.00  0.00     0.008 A 
ATOM     85  C   UNL A   1      33.900  25.580  25.049  1.00  0.00     0.054 A 
ATOM     86  C   UNL A   1      33.333  27.343  22.916  1.00  0.00     0.051 A 
ATOM     87  C   UNL A   1      33.737  26.938  25.241  1.00  0.00     0.166 A 
ATOM     88  C   UNL A   1      33.468  27.797  24.205  1.00  0.00     0.165 A 
ATOM     89  O   UNL A   1      33.822  27.582  26.437  1.00  0.00    -0.454 OA
ATOM     90  O   UNL A   1      33.355  29.088  24.613  1.00  0.00    -0.454 OA
ATOM     91  C   UNL A   1      33.630  28.950  26.021  1.00  0.00     0.468 C 
ENDBRANCH  80  83
BRANCH  81  92
ATOM     92  C   UNL A   1      32.525  20.310  24.301  1.00  0.00     0.222 C 
ATOM     93  O   UNL A   1      31.820  20.179  25.302  1.00  0.00    -0.275 OA
BRANCH  92  94
ATOM     94  C   UNL A   1      32.512  19.238  23.228  1.00  0.00     0.109 C 
BRANCH  94  95
ATOM     95  C   UNL A   1      32.608  17.832  23.803  1.00  0.00     0.125 C 
BRANCH  95  96
ATOM     96  C   UNL A   1      33.992  17.245  23.672  1.00  0.00     0.389 C 
ATOM     97  F   UNL A   1      34.923  18.083  24.178  1.00  0.00    -0.171 F 
ATOM     98  F   UNL A   1      34.084  16.080  24.349  1.00  0.00    -0.171 F 
ATOM     99  F   UNL A   1      34.320  16.995  22.387  1.00  0.00    -0.171 F 
ENDBRANCH  95  96
ENDBRANCH  94  95
ENDBRANCH  92  94
ENDBRANCH  81  92
ENDBRANCH  75  78
ENDBRANCH  73  74
ENDBRANCH   1  73
TORSDOF 16
ENDMDL
MODEL 3
REMARK VINA RESULT:     -12.7      5.285     10.209
REMARK SMILES O=C(NCCCCNC(=O)[C@@H]1CN(C(=O)CCC(F)(F)F)C[C@H]1c1ccc2c(c1)OCO2)c1ccc(-c2c3nc(c(-c4c(F)c(F)c(F)c(F)c4F)c4ccc([nH]4)c(-c4c(F)c(F)c(F)c(F)c4F)c4nc(c(-c5c(F)c(F)c(F)c(F)c5F)c5ccc2[nH]5)C=C4)C=C3)cc1
REMARK SMILES IDX 6 1 5 2 4 3 3 4 1 5 2 6 33 8 34 9 95 10 35 11 94 12 36 13
REMARK SMILES IDX 37 14 38 15 88 16 39 17 93 18 87 19 89 20 40 21 92 22 86 23
REMARK SMILES IDX 85 24 41 26 73 27 53 28 72 29 54 30 57 31 71 32 90 33 55 34
REMARK SMILES IDX 56 35 70 37 91 38 58 39 42 40 43 41 51 42 44 43 45 44 49 45
REMARK SMILES IDX 52 46 46 47 47 48 50 49 48 50 74 51 75 52 83 53 76 54 77 55
REMARK SMILES IDX 81 56 84 57 78 58 79 59 82 60 80 61 59 62 60 63 68 64 61 65
REMARK SMILES IDX 62 66 66 67 69 68 63 69 64 70 67 71 65 72 7 73 8 74 9 75
REMARK SMILES IDX 10 77 11 78 12 79 23 80 13 81 22 82 24 83 25 84 29 85 26 86
REMARK SMILES IDX 28 87 27 88 30 89 32 90 31 91 14 92 15 93 16 94 17 95 18 96
REMARK SMILES IDX 19 97 20 98 21 99
REMARK H PARENT 3 7 89 25 57 36 8 76
REMARK Flexibility Score: inf
ROOT
ATOM      1  C   UNL A   1      31.546  30.380  25.703  1.00  0.00     0.023 C 
ENDROOT
BRANCH   1   2
ATOM      2  C   UNL A   1      31.373  31.640  26.549  1.00  0.00     0.023 C 
BRANCH   2   3
ATOM      3  C   UNL A   1      32.669  32.352  26.904  1.00  0.00     0.116 C 
BRANCH   3   4
ATOM      4  N   UNL A   1      32.457  33.704  27.395  1.00  0.00    -0.352 N 
ATOM      5  O   UNL A   1      32.754  35.463  28.781  1.00  0.00    -0.269 OA
ATOM      6  C   UNL A   1      33.131  34.366  28.393  1.00  0.00     0.251 C 
ATOM      7  H   UNL A   1      31.737  34.212  26.955  1.00  0.00     0.163 HD
BRANCH   6   8
ATOM      8  C   UNL A   1      34.302  33.718  29.018  1.00  0.00     0.039 A 
ATOM      9  C   UNL A   1      34.131  32.681  29.940  1.00  0.00     0.014 A 
ATOM     10  C   UNL A   1      35.582  34.170  28.688  1.00  0.00     0.014 A 
ATOM     11  C   UNL A   1      35.230  32.183  30.625  1.00  0.00     0.010 A 
ATOM     12  C   UNL A   1      36.694  33.613  29.322  1.00  0.00     0.010 A 
ATOM     13  C   UNL A   1      36.523  32.634  30.313  1.00  0.00    -0.014 A 
BRANCH  13  14
ATOM     14  C   UNL A   1      37.688  32.011  30.983  1.00  0.00     0.031 A 
ATOM     15  C   UNL A   1      38.098  32.421  32.366  1.00  0.00     0.074 A 
ATOM     16  C   UNL A   1      38.374  31.063  30.319  1.00  0.00     0.049 A 
ATOM     17  N   UNL A   1      39.099  31.988  33.090  1.00  0.00    -0.248 NA
ATOM     18  C   UNL A   1      37.287  33.459  33.020  1.00  0.00     0.031 C 
ATOM     19  C   UNL A   1      38.071  30.605  28.961  1.00  0.00     0.029 A 
ATOM     20  N   UNL A   1      39.457  30.312  30.692  1.00  0.00    -0.354 N 
ATOM     21  C   UNL A   1      39.054  32.711  34.273  1.00  0.00     0.074 A 
ATOM     22  C   UNL A   1      37.938  33.627  34.165  1.00  0.00     0.031 C 
ATOM     23  C   UNL A   1      38.932  29.635  28.624  1.00  0.00     0.029 A 
ATOM     24  C   UNL A   1      39.877  29.441  29.717  1.00  0.00     0.049 A 
ATOM     25  H   UNL A   1      39.891  30.388  31.573  1.00  0.00     0.167 HD
ATOM     26  C   UNL A   1      39.870  32.612  35.350  1.00  0.00     0.037 A 
ATOM     27  C   UNL A   1      40.924  28.598  29.696  1.00  0.00     0.037 A 
ATOM     28  C   UNL A   1      40.967  31.683  35.453  1.00  0.00     0.049 A 
ATOM     29  C   UNL A   1      41.813  28.511  30.900  1.00  0.00     0.074 A 
ATOM     30  C   UNL A   1      41.817  31.464  36.524  1.00  0.00     0.029 A 
ATOM     31  N   UNL A   1      41.370  30.823  34.441  1.00  0.00    -0.354 N 
ATOM     32  N   UNL A   1      41.734  29.168  32.032  1.00  0.00    -0.248 NA
ATOM     33  C   UNL A   1      42.936  27.569  30.825  1.00  0.00     0.031 C 
ATOM     34  C   UNL A   1      42.761  30.503  36.144  1.00  0.00     0.029 A 
ATOM     35  C   UNL A   1      42.473  30.090  34.853  1.00  0.00     0.049 A 
ATOM     36  H   UNL A   1      40.937  30.743  33.561  1.00  0.00     0.167 HD
ATOM     37  C   UNL A   1      42.791  28.717  32.807  1.00  0.00     0.074 A 
ATOM     38  C   UNL A   1      43.484  27.714  32.025  1.00  0.00     0.031 C 
ATOM     39  C   UNL A   1      43.155  29.104  34.054  1.00  0.00     0.037 A 
BRANCH  26  40
ATOM     40  C   UNL A   1      39.624  33.547  36.499  1.00  0.00     0.064 A 
ATOM     41  C   UNL A   1      38.819  33.183  37.588  1.00  0.00     0.173 A 
ATOM     42  C   UNL A   1      40.234  34.810  36.527  1.00  0.00     0.173 A 
ATOM     43  F   UNL A   1      38.204  31.990  37.605  1.00  0.00    -0.203 F 
ATOM     44  C   UNL A   1      38.616  34.058  38.652  1.00  0.00     0.198 A 
ATOM     45  C   UNL A   1      40.048  35.673  37.604  1.00  0.00     0.198 A 
ATOM     46  F   UNL A   1      41.018  35.206  35.513  1.00  0.00    -0.203 F 
ATOM     47  F   UNL A   1      37.809  33.705  39.663  1.00  0.00    -0.200 F 
ATOM     48  C   UNL A   1      39.234  35.300  38.662  1.00  0.00     0.200 A 
ATOM     49  F   UNL A   1      40.655  36.868  37.617  1.00  0.00    -0.200 F 
ATOM     50  F   UNL A   1      39.040  36.139  39.690  1.00  0.00    -0.200 F 
ENDBRANCH  26  40
BRANCH  27  51
ATOM     51  C   UNL A   1      41.175  27.786  28.479  1.00  0.00     0.064 A 
ATOM     52  C   UNL A   1      40.532  26.559  28.286  1.00  0.00     0.173 A 
ATOM     53  C   UNL A   1      42.024  28.251  27.463  1.00  0.00     0.173 A 
ATOM     54  F   UNL A   1      39.723  26.068  29.236  1.00  0.00    -0.203 F 
ATOM     55  C   UNL A   1      40.731  25.821  27.119  1.00  0.00     0.198 A 
ATOM     56  C   UNL A   1      42.201  27.527  26.287  1.00  0.00     0.198 A 
ATOM     57  F   UNL A   1      42.655  29.427  27.600  1.00  0.00    -0.203 F 
ATOM     58  F   UNL A   1      40.124  24.637  26.966  1.00  0.00    -0.200 F 
ATOM     59  C   UNL A   1      41.558  26.311  26.118  1.00  0.00     0.200 A 
ATOM     60  F   UNL A   1      42.986  28.013  25.316  1.00  0.00    -0.200 F 
ATOM     61  F   UNL A   1      41.734  25.610  24.990  1.00  0.00    -0.200 F 
ENDBRANCH  27  51
BRANCH  39  62
ATOM     62  C   UNL A   1      44.356  28.431  34.647  1.00  0.00     0.064 A 
ATOM     63  C   UNL A   1      45.639  28.983  34.521  1.00  0.00     0.173 A 
ATOM     64  C   UNL A   1      44.218  27.240  35.374  1.00  0.00     0.173 A 
ATOM     65  F   UNL A   1      45.822  30.112  33.820  1.00  0.00    -0.203 F 
ATOM     66  C   UNL A   1      46.746  28.354  35.084  1.00  0.00     0.198 A 
ATOM     67  C   UNL A   1      45.324  26.626  35.957  1.00  0.00     0.198 A 
ATOM     68  F   UNL A   1      43.011  26.674  35.525  1.00  0.00    -0.203 F 
ATOM     69  F   UNL A   1      47.969  28.876  34.915  1.00  0.00    -0.200 F 
ATOM     70  C   UNL A   1      46.586  27.181  35.806  1.00  0.00     0.200 A 
ATOM     71  F   UNL A   1      45.167  25.497  36.661  1.00  0.00    -0.200 F 
ATOM     72  F   UNL A   1      47.652  26.578  36.351  1.00  0.00    -0.200 F 
ENDBRANCH  39  62
ENDBRANCH  13  14
ENDBRANCH   6   8
ENDBRANCH   3   4
ENDBRANCH   2   3
ENDBRANCH   1   2
BRANCH   1  73
ATOM     73  C   UNL A   1      32.811  29.570  26.010  1.00  0.00     0.116 C 
BRANCH  73  74
ATOM     74  N   UNL A   1      33.669  29.475  24.843  1.00  0.00    -0.356 N 
ATOM     75  C   UNL A   1      33.756  28.546  23.856  1.00  0.00     0.225 C 
ATOM     76  H   UNL A   1      34.305  30.221  24.750  1.00  0.00     0.163 HD
ATOM     77  O   UNL A   1      34.652  28.708  23.022  1.00  0.00    -0.275 OA
BRANCH  75  78
ATOM     78  C   UNL A   1      32.782  27.390  23.698  1.00  0.00     0.107 C 
ATOM     79  C   UNL A   1      33.547  26.079  23.738  1.00  0.00     0.133 C 
ATOM     80  C   UNL A   1      31.894  27.351  22.439  1.00  0.00     0.053 C 
ATOM     81  N   UNL A   1      32.860  25.180  22.835  1.00  0.00    -0.341 N 
ATOM     82  C   UNL A   1      31.809  25.854  22.094  1.00  0.00     0.128 C 
BRANCH  80  83
ATOM     83  C   UNL A   1      30.594  28.129  22.606  1.00  0.00    -0.038 A 
ATOM     84  C   UNL A   1      29.472  27.476  23.185  1.00  0.00     0.008 A 
ATOM     85  C   UNL A   1      30.459  29.479  22.242  1.00  0.00     0.054 A 
ATOM     86  C   UNL A   1      28.241  28.120  23.344  1.00  0.00     0.051 A 
ATOM     87  C   UNL A   1      29.229  30.087  22.402  1.00  0.00     0.166 A 
ATOM     88  C   UNL A   1      28.149  29.426  22.931  1.00  0.00     0.165 A 
ATOM     89  O   UNL A   1      28.935  31.372  22.063  1.00  0.00    -0.454 OA
ATOM     90  O   UNL A   1      27.038  30.206  22.989  1.00  0.00    -0.454 OA
ATOM     91  C   UNL A   1      27.531  31.422  22.392  1.00  0.00     0.468 C 
ENDBRANCH  80  83
BRANCH  81  92
ATOM     92  C   UNL A   1      33.094  23.839  22.640  1.00  0.00     0.222 C 
ATOM     93  O   UNL A   1      34.104  23.432  22.064  1.00  0.00    -0.275 OA
BRANCH  92  94
ATOM     94  C   UNL A   1      32.058  22.847  23.130  1.00  0.00     0.109 C 
BRANCH  94  95
ATOM     95  C   UNL A   1      32.092  22.660  24.640  1.00  0.00     0.125 C 
BRANCH  95  96
ATOM     96  C   UNL A   1      31.060  23.499  25.352  1.00  0.00     0.389 C 
ATOM     97  F   UNL A   1      30.223  22.725  26.078  1.00  0.00    -0.171 F 
ATOM     98  F   UNL A   1      31.650  24.365  26.203  1.00  0.00    -0.171 F 
ATOM     99  F   UNL A   1      30.309  24.221  24.493  1.00  0.00    -0.171 F 
ENDBRANCH  95  96
ENDBRANCH  94  95
ENDBRANCH  92  94
ENDBRANCH  81  92
ENDBRANCH  75  78
ENDBRANCH  73  74
ENDBRANCH   1  73
TORSDOF 16
ENDMDL
