MODEL 1
REMARK VINA RESULT:     -12.2      0.000      0.000
REMARK SMILES O=C(NCCCCNC(=O)[C@@H]1CCc2[nH]ncc2C1)c1ccc(-c2c3nc(c(-c4c(F)c(F)c(F)c(F)c4F)c4ccc([nH]4)c(-c4c(F)c(F)c(F)c(F)c4F)c4nc(c(-c5c(F)c(F)c(F)c(F)c5F)c5ccc2[nH]5)C=C4)C=C3)cc1
REMARK SMILES IDX 4 1 3 2 1 3 2 4 20 6 21 7 82 8 22 9 81 10 23 11 24 12 25 13
REMARK SMILES IDX 75 14 26 15 80 16 74 17 76 18 27 19 79 20 73 21 72 22 28 24
REMARK SMILES IDX 60 25 40 26 59 27 41 28 44 29 58 30 77 31 42 32 43 33 57 35
REMARK SMILES IDX 78 36 45 37 29 38 30 39 38 40 31 41 32 42 36 43 39 44 33 45
REMARK SMILES IDX 34 46 37 47 35 48 61 49 62 50 70 51 63 52 64 53 68 54 71 55
REMARK SMILES IDX 65 56 66 57 69 58 67 59 46 60 47 61 55 62 48 63 49 64 53 65
REMARK SMILES IDX 56 66 50 67 51 68 54 69 52 70 5 71 6 72 7 73 8 74 9 75 10 77
REMARK SMILES IDX 11 78 12 79 19 80 13 81 18 82 14 83 17 84 15 85 16 86
REMARK H PARENT 3 5 76 23 44 34 8 76 15 87
REMARK Flexibility Score: inf
ROOT
ATOM      1  C   UNL A   1      32.574  32.775  27.246  1.00  0.00     0.116 C 
ENDROOT
BRANCH   1   2
ATOM      2  N   UNL A   1      32.343  34.154  27.647  1.00  0.00    -0.352 N 
ATOM      3  O   UNL A   1      32.625  36.014  28.898  1.00  0.00    -0.269 OA
ATOM      4  C   UNL A   1      33.013  34.891  28.594  1.00  0.00     0.251 C 
ATOM      5  H   UNL A   1      31.612  34.619  27.180  1.00  0.00     0.163 HD
BRANCH   4   6
ATOM      6  C   UNL A   1      34.186  34.304  29.273  1.00  0.00     0.039 A 
ATOM      7  C   UNL A   1      35.478  34.558  28.806  1.00  0.00     0.014 A 
ATOM      8  C   UNL A   1      33.987  33.473  30.378  1.00  0.00     0.014 A 
ATOM      9  C   UNL A   1      36.556  33.877  29.358  1.00  0.00     0.010 A 
ATOM     10  C   UNL A   1      35.081  32.848  30.981  1.00  0.00     0.010 A 
ATOM     11  C   UNL A   1      36.371  33.022  30.456  1.00  0.00    -0.014 A 
BRANCH  11  12
ATOM     12  C   UNL A   1      37.552  32.367  31.071  1.00  0.00     0.031 A 
ATOM     13  C   UNL A   1      38.016  32.734  32.450  1.00  0.00     0.074 A 
ATOM     14  C   UNL A   1      38.188  31.407  30.373  1.00  0.00     0.049 A 
ATOM     15  N   UNL A   1      39.014  32.242  33.141  1.00  0.00    -0.248 NA
ATOM     16  C   UNL A   1      37.271  33.794  33.146  1.00  0.00     0.031 C 
ATOM     17  C   UNL A   1      37.835  30.981  29.017  1.00  0.00     0.029 A 
ATOM     18  N   UNL A   1      39.251  30.607  30.708  1.00  0.00    -0.354 N 
ATOM     19  C   UNL A   1      39.029  32.942  34.341  1.00  0.00     0.074 A 
ATOM     20  C   UNL A   1      37.954  33.909  34.277  1.00  0.00     0.031 C 
ATOM     21  C   UNL A   1      38.638  29.971  28.651  1.00  0.00     0.029 A 
ATOM     22  C   UNL A   1      39.595  29.716  29.723  1.00  0.00     0.049 A 
ATOM     23  H   UNL A   1      39.720  30.667  31.570  1.00  0.00     0.167 HD
ATOM     24  C   UNL A   1      39.863  32.785  35.397  1.00  0.00     0.037 A 
ATOM     25  C   UNL A   1      40.582  28.804  29.678  1.00  0.00     0.037 A 
ATOM     26  C   UNL A   1      40.919  31.806  35.461  1.00  0.00     0.049 A 
ATOM     27  C   UNL A   1      41.491  28.654  30.862  1.00  0.00     0.074 A 
ATOM     28  C   UNL A   1      41.788  31.540  36.505  1.00  0.00     0.029 A 
ATOM     29  N   UNL A   1      41.251  30.932  34.435  1.00  0.00    -0.354 N 
ATOM     30  N   UNL A   1      41.473  29.298  32.004  1.00  0.00    -0.248 NA
ATOM     31  C   UNL A   1      42.559  27.652  30.752  1.00  0.00     0.031 C 
ATOM     32  C   UNL A   1      42.673  30.536  36.096  1.00  0.00     0.029 A 
ATOM     33  C   UNL A   1      42.325  30.143  34.814  1.00  0.00     0.049 A 
ATOM     34  H   UNL A   1      40.790  30.881  33.566  1.00  0.00     0.167 HD
ATOM     35  C   UNL A   1      42.516  28.776  32.752  1.00  0.00     0.074 A 
ATOM     36  C   UNL A   1      43.133  27.743  31.944  1.00  0.00     0.031 C 
ATOM     37  C   UNL A   1      42.929  29.123  33.995  1.00  0.00     0.037 A 
BRANCH  24  38
ATOM     38  C   UNL A   1      39.682  33.698  36.574  1.00  0.00     0.064 A 
ATOM     39  C   UNL A   1      40.275  34.968  36.621  1.00  0.00     0.173 A 
ATOM     40  C   UNL A   1      38.855  33.321  37.643  1.00  0.00     0.173 A 
ATOM     41  F   UNL A   1      41.083  35.373  35.629  1.00  0.00    -0.203 F 
ATOM     42  C   UNL A   1      40.061  35.820  37.702  1.00  0.00     0.198 A 
ATOM     43  C   UNL A   1      38.623  34.185  38.711  1.00  0.00     0.198 A 
ATOM     44  F   UNL A   1      38.258  32.120  37.645  1.00  0.00    -0.203 F 
ATOM     45  F   UNL A   1      40.665  37.015  37.741  1.00  0.00    -0.200 F 
ATOM     46  C   UNL A   1      39.230  35.431  38.742  1.00  0.00     0.200 A 
ATOM     47  F   UNL A   1      37.810  33.812  39.710  1.00  0.00    -0.200 F 
ATOM     48  F   UNL A   1      39.016  36.256  39.776  1.00  0.00    -0.200 F 
ENDBRANCH  24  38
BRANCH  25  49
ATOM     49  C   UNL A   1      40.750  27.966  28.464  1.00  0.00     0.064 A 
ATOM     50  C   UNL A   1      40.129  26.716  28.358  1.00  0.00     0.173 A 
ATOM     51  C   UNL A   1      41.515  28.413  27.375  1.00  0.00     0.173 A 
ATOM     52  F   UNL A   1      39.402  26.240  29.380  1.00  0.00    -0.203 F 
ATOM     53  C   UNL A   1      40.273  25.939  27.211  1.00  0.00     0.198 A 
ATOM     54  C   UNL A   1      41.634  27.647  26.219  1.00  0.00     0.198 A 
ATOM     55  F   UNL A   1      42.123  29.608  27.427  1.00  0.00    -0.203 F 
ATOM     56  F   UNL A   1      39.695  24.731  27.146  1.00  0.00    -0.200 F 
ATOM     57  C   UNL A   1      41.019  26.408  26.140  1.00  0.00     0.200 A 
ATOM     58  F   UNL A   1      42.341  28.114  25.180  1.00  0.00    -0.200 F 
ATOM     59  F   UNL A   1      41.146  25.665  25.033  1.00  0.00    -0.200 F 
ENDBRANCH  25  49
BRANCH  37  60
ATOM     60  C   UNL A   1      44.095  28.368  34.559  1.00  0.00     0.064 A 
ATOM     61  C   UNL A   1      45.409  28.835  34.416  1.00  0.00     0.173 A 
ATOM     62  C   UNL A   1      43.892  27.174  35.269  1.00  0.00     0.173 A 
ATOM     63  F   UNL A   1      45.654  29.961  33.730  1.00  0.00    -0.203 F 
ATOM     64  C   UNL A   1      46.482  28.120  34.942  1.00  0.00     0.198 A 
ATOM     65  C   UNL A   1      44.965  26.478  35.817  1.00  0.00     0.198 A 
ATOM     66  F   UNL A   1      42.654  26.689  35.437  1.00  0.00    -0.203 F 
ATOM     67  F   UNL A   1      47.734  28.560  34.752  1.00  0.00    -0.200 F 
ATOM     68  C   UNL A   1      46.260  26.947  35.646  1.00  0.00     0.200 A 
ATOM     69  F   UNL A   1      44.748  25.349  36.505  1.00  0.00    -0.200 F 
ATOM     70  F   UNL A   1      47.294  26.262  36.153  1.00  0.00    -0.200 F 
ENDBRANCH  37  60
ENDBRANCH  11  12
ENDBRANCH   4   6
ENDBRANCH   1   2
BRANCH   1  71
ATOM     71  C   UNL A   1      31.389  32.149  26.523  1.00  0.00     0.023 C 
BRANCH  71  72
ATOM     72  C   UNL A   1      31.540  30.659  26.200  1.00  0.00     0.023 C 
BRANCH  72  73
ATOM     73  C   UNL A   1      32.985  30.164  26.174  1.00  0.00     0.116 C 
BRANCH  73  74
ATOM     74  N   UNL A   1      33.388  29.756  24.840  1.00  0.00    -0.356 N 
ATOM     75  C   UNL A   1      33.545  28.484  24.355  1.00  0.00     0.223 C 
ATOM     76  H   UNL A   1      33.572  30.484  24.204  1.00  0.00     0.163 HD
ATOM     77  O   UNL A   1      33.995  28.328  23.222  1.00  0.00    -0.275 OA
BRANCH  75  78
ATOM     78  C   UNL A   1      33.096  27.332  25.229  1.00  0.00     0.083 C 
ATOM     79  C   UNL A   1      33.932  26.046  25.012  1.00  0.00     0.020 C 
ATOM     80  C   UNL A   1      31.598  27.056  24.955  1.00  0.00     0.052 C 
ATOM     81  C   UNL A   1      33.545  24.956  26.041  1.00  0.00     0.057 C 
ATOM     82  C   UNL A   1      31.174  25.875  25.746  1.00  0.00    -0.006 A 
ATOM     83  C   UNL A   1      32.068  24.940  26.216  1.00  0.00     0.038 A 
ATOM     84  C   UNL A   1      29.923  25.433  26.202  1.00  0.00     0.138 A 
ATOM     85  N   UNL A   1      31.340  24.037  26.928  1.00  0.00    -0.282 N 
ATOM     86  N   UNL A   1      30.022  24.317  26.932  1.00  0.00    -0.184 NA
ATOM     87  H   UNL A   1      31.734  23.263  27.391  1.00  0.00     0.190 HD
ENDBRANCH  75  78
ENDBRANCH  73  74
ENDBRANCH  72  73
ENDBRANCH  71  72
ENDBRANCH   1  71
TORSDOF 11
ENDMDL
MODEL 2
REMARK VINA RESULT:     -12.1      1.246      1.687
REMARK SMILES O=C(NCCCCNC(=O)[C@@H]1CCc2[nH]ncc2C1)c1ccc(-c2c3nc(c(-c4c(F)c(F)c(F)c(F)c4F)c4ccc([nH]4)c(-c4c(F)c(F)c(F)c(F)c4F)c4nc(c(-c5c(F)c(F)c(F)c(F)c5F)c5ccc2[nH]5)C=C4)C=C3)cc1
REMARK SMILES IDX 4 1 3 2 1 3 2 4 20 6 21 7 82 8 22 9 81 10 23 11 24 12 25 13
REMARK SMILES IDX 75 14 26 15 80 16 74 17 76 18 27 19 79 20 73 21 72 22 28 24
REMARK SMILES IDX 60 25 40 26 59 27 41 28 44 29 58 30 77 31 42 32 43 33 57 35
REMARK SMILES IDX 78 36 45 37 29 38 30 39 38 40 31 41 32 42 36 43 39 44 33 45
REMARK SMILES IDX 34 46 37 47 35 48 61 49 62 50 70 51 63 52 64 53 68 54 71 55
REMARK SMILES IDX 65 56 66 57 69 58 67 59 46 60 47 61 55 62 48 63 49 64 53 65
REMARK SMILES IDX 56 66 50 67 51 68 54 69 52 70 5 71 6 72 7 73 8 74 9 75 10 77
REMARK SMILES IDX 11 78 12 79 19 80 13 81 18 82 14 83 17 84 15 85 16 86
REMARK H PARENT 3 5 76 23 44 34 8 76 15 87
REMARK Flexibility Score: inf
ROOT
ATOM      1  C   UNL A   1      32.611  32.849  27.202  1.00  0.00     0.116 C 
ENDROOT
BRANCH   1   2
ATOM      2  N   UNL A   1      32.366  34.216  27.634  1.00  0.00    -0.352 N 
ATOM      3  O   UNL A   1      32.620  36.047  28.935  1.00  0.00    -0.269 OA
ATOM      4  C   UNL A   1      33.019  34.934  28.608  1.00  0.00     0.251 C 
ATOM      5  H   UNL A   1      31.638  34.689  27.169  1.00  0.00     0.163 HD
BRANCH   4   6
ATOM      6  C   UNL A   1      34.187  34.336  29.288  1.00  0.00     0.039 A 
ATOM      7  C   UNL A   1      35.482  34.596  28.834  1.00  0.00     0.014 A 
ATOM      8  C   UNL A   1      33.978  33.491  30.380  1.00  0.00     0.014 A 
ATOM      9  C   UNL A   1      36.555  33.906  29.385  1.00  0.00     0.010 A 
ATOM     10  C   UNL A   1      35.067  32.857  30.983  1.00  0.00     0.010 A 
ATOM     11  C   UNL A   1      36.361  33.037  30.470  1.00  0.00    -0.014 A 
BRANCH  11  12
ATOM     12  C   UNL A   1      37.537  32.372  31.085  1.00  0.00     0.031 A 
ATOM     13  C   UNL A   1      38.001  32.732  32.467  1.00  0.00     0.074 A 
ATOM     14  C   UNL A   1      38.168  31.411  30.386  1.00  0.00     0.049 A 
ATOM     15  N   UNL A   1      38.995  32.232  33.158  1.00  0.00    -0.248 NA
ATOM     16  C   UNL A   1      37.261  33.794  33.164  1.00  0.00     0.031 C 
ATOM     17  C   UNL A   1      37.815  30.991  29.028  1.00  0.00     0.029 A 
ATOM     18  N   UNL A   1      39.225  30.603  30.720  1.00  0.00    -0.354 N 
ATOM     19  C   UNL A   1      39.012  32.929  34.359  1.00  0.00     0.074 A 
ATOM     20  C   UNL A   1      37.943  33.902  34.297  1.00  0.00     0.031 C 
ATOM     21  C   UNL A   1      38.612  29.977  28.660  1.00  0.00     0.029 A 
ATOM     22  C   UNL A   1      39.566  29.713  29.733  1.00  0.00     0.049 A 
ATOM     23  H   UNL A   1      39.694  30.657  31.584  1.00  0.00     0.167 HD
ATOM     24  C   UNL A   1      39.843  32.762  35.417  1.00  0.00     0.037 A 
ATOM     25  C   UNL A   1      40.547  28.794  29.687  1.00  0.00     0.037 A 
ATOM     26  C   UNL A   1      40.893  31.777  35.480  1.00  0.00     0.049 A 
ATOM     27  C   UNL A   1      41.453  28.635  30.872  1.00  0.00     0.074 A 
ATOM     28  C   UNL A   1      41.758  31.502  36.524  1.00  0.00     0.029 A 
ATOM     29  N   UNL A   1      41.220  30.904  34.452  1.00  0.00    -0.354 N 
ATOM     30  N   UNL A   1      41.436  29.276  32.016  1.00  0.00    -0.248 NA
ATOM     31  C   UNL A   1      42.514  27.627  30.761  1.00  0.00     0.031 C 
ATOM     32  C   UNL A   1      42.637  30.494  36.114  1.00  0.00     0.029 A 
ATOM     33  C   UNL A   1      42.289  30.107  34.830  1.00  0.00     0.049 A 
ATOM     34  H   UNL A   1      40.761  30.858  33.582  1.00  0.00     0.167 HD
ATOM     35  C   UNL A   1      42.475  28.745  32.764  1.00  0.00     0.074 A 
ATOM     36  C   UNL A   1      43.087  27.710  31.955  1.00  0.00     0.031 C 
ATOM     37  C   UNL A   1      42.888  29.086  34.009  1.00  0.00     0.037 A 
BRANCH  24  38
ATOM     38  C   UNL A   1      39.665  33.674  36.596  1.00  0.00     0.064 A 
ATOM     39  C   UNL A   1      40.267  34.939  36.648  1.00  0.00     0.173 A 
ATOM     40  C   UNL A   1      38.834  33.299  37.663  1.00  0.00     0.173 A 
ATOM     41  F   UNL A   1      41.079  35.342  35.658  1.00  0.00    -0.203 F 
ATOM     42  C   UNL A   1      40.056  35.789  37.731  1.00  0.00     0.198 A 
ATOM     43  C   UNL A   1      38.606  34.161  38.732  1.00  0.00     0.198 A 
ATOM     44  F   UNL A   1      38.230  32.101  37.660  1.00  0.00    -0.203 F 
ATOM     45  F   UNL A   1      40.668  36.981  37.775  1.00  0.00    -0.200 F 
ATOM     46  C   UNL A   1      39.220  35.403  38.768  1.00  0.00     0.200 A 
ATOM     47  F   UNL A   1      37.788  33.790  39.729  1.00  0.00    -0.200 F 
ATOM     48  F   UNL A   1      39.010  36.226  39.804  1.00  0.00    -0.200 F 
ENDBRANCH  24  38
BRANCH  25  49
ATOM     49  C   UNL A   1      40.712  27.959  28.471  1.00  0.00     0.064 A 
ATOM     50  C   UNL A   1      40.086  26.711  28.362  1.00  0.00     0.173 A 
ATOM     51  C   UNL A   1      41.477  28.407  27.383  1.00  0.00     0.173 A 
ATOM     52  F   UNL A   1      39.359  26.235  29.383  1.00  0.00    -0.203 F 
ATOM     53  C   UNL A   1      40.228  25.936  27.213  1.00  0.00     0.198 A 
ATOM     54  C   UNL A   1      41.594  27.643  26.225  1.00  0.00     0.198 A 
ATOM     55  F   UNL A   1      42.089  29.599  27.438  1.00  0.00    -0.203 F 
ATOM     56  F   UNL A   1      39.646  24.730  27.146  1.00  0.00    -0.200 F 
ATOM     57  C   UNL A   1      40.974  26.406  26.143  1.00  0.00     0.200 A 
ATOM     58  F   UNL A   1      42.301  28.110  25.187  1.00  0.00    -0.200 F 
ATOM     59  F   UNL A   1      41.099  25.665  25.033  1.00  0.00    -0.200 F 
ENDBRANCH  25  49
BRANCH  37  60
ATOM     60  C   UNL A   1      44.048  28.321  34.573  1.00  0.00     0.064 A 
ATOM     61  C   UNL A   1      45.366  28.776  34.426  1.00  0.00     0.173 A 
ATOM     62  C   UNL A   1      43.836  27.132  35.287  1.00  0.00     0.173 A 
ATOM     63  F   UNL A   1      45.620  29.898  33.736  1.00  0.00    -0.203 F 
ATOM     64  C   UNL A   1      46.434  28.053  34.952  1.00  0.00     0.198 A 
ATOM     65  C   UNL A   1      44.903  26.427  35.834  1.00  0.00     0.198 A 
ATOM     66  F   UNL A   1      42.593  26.658  35.458  1.00  0.00    -0.203 F 
ATOM     67  F   UNL A   1      47.689  28.481  34.759  1.00  0.00    -0.200 F 
ATOM     68  C   UNL A   1      46.202  26.884  35.659  1.00  0.00     0.200 A 
ATOM     69  F   UNL A   1      44.677  25.302  36.526  1.00  0.00    -0.200 F 
ATOM     70  F   UNL A   1      47.231  26.191  36.166  1.00  0.00    -0.200 F 
ENDBRANCH  37  60
ENDBRANCH  11  12
ENDBRANCH   4   6
ENDBRANCH   1   2
BRANCH   1  71
ATOM     71  C   UNL A   1      31.347  32.115  26.774  1.00  0.00     0.023 C 
BRANCH  71  72
ATOM     72  C   UNL A   1      31.582  30.846  25.949  1.00  0.00     0.023 C 
BRANCH  72  73
ATOM     73  C   UNL A   1      32.633  29.903  26.532  1.00  0.00     0.116 C 
BRANCH  73  74
ATOM     74  N   UNL A   1      32.026  28.724  27.124  1.00  0.00    -0.356 N 
ATOM     75  C   UNL A   1      31.482  27.641  26.485  1.00  0.00     0.223 C 
ATOM     76  H   UNL A   1      32.002  28.700  28.108  1.00  0.00     0.163 HD
ATOM     77  O   UNL A   1      30.917  26.777  27.151  1.00  0.00    -0.275 OA
BRANCH  75  78
ATOM     78  C   UNL A   1      31.661  27.538  24.985  1.00  0.00     0.083 C 
ATOM     79  C   UNL A   1      30.318  27.516  24.215  1.00  0.00     0.020 C 
ATOM     80  C   UNL A   1      32.487  26.268  24.670  1.00  0.00     0.052 C 
ATOM     81  C   UNL A   1      30.556  27.580  22.687  1.00  0.00     0.057 C 
ATOM     82  C   UNL A   1      32.595  26.117  23.198  1.00  0.00    -0.006 A 
ATOM     83  C   UNL A   1      31.709  26.711  22.327  1.00  0.00     0.038 A 
ATOM     84  C   UNL A   1      33.507  25.442  22.374  1.00  0.00     0.138 A 
ATOM     85  N   UNL A   1      32.137  26.399  21.074  1.00  0.00    -0.282 N 
ATOM     86  N   UNL A   1      33.236  25.620  21.076  1.00  0.00    -0.184 NA
ATOM     87  H   UNL A   1      31.691  26.709  20.252  1.00  0.00     0.190 HD
ENDBRANCH  75  78
ENDBRANCH  73  74
ENDBRANCH  72  73
ENDBRANCH  71  72
ENDBRANCH   1  71
TORSDOF 11
ENDMDL
MODEL 3
REMARK VINA RESULT:     -12.1      0.170      1.668
REMARK SMILES O=C(NCCCCNC(=O)[C@@H]1CCc2[nH]ncc2C1)c1ccc(-c2c3nc(c(-c4c(F)c(F)c(F)c(F)c4F)c4ccc([nH]4)c(-c4c(F)c(F)c(F)c(F)c4F)c4nc(c(-c5c(F)c(F)c(F)c(F)c5F)c5ccc2[nH]5)C=C4)C=C3)cc1
REMARK SMILES IDX 4 1 3 2 1 3 2 4 20 6 21 7 82 8 22 9 81 10 23 11 24 12 25 13
REMARK SMILES IDX 75 14 26 15 80 16 74 17 76 18 27 19 79 20 73 21 72 22 28 24
REMARK SMILES IDX 60 25 40 26 59 27 41 28 44 29 58 30 77 31 42 32 43 33 57 35
REMARK SMILES IDX 78 36 45 37 29 38 30 39 38 40 31 41 32 42 36 43 39 44 33 45
REMARK SMILES IDX 34 46 37 47 35 48 61 49 62 50 70 51 63 52 64 53 68 54 71 55
REMARK SMILES IDX 65 56 66 57 69 58 67 59 46 60 47 61 55 62 48 63 49 64 53 65
REMARK SMILES IDX 56 66 50 67 51 68 54 69 52 70 5 71 6 72 7 73 8 74 9 75 10 77
REMARK SMILES IDX 11 78 12 79 19 80 13 81 18 82 14 83 17 84 15 85 16 86
REMARK H PARENT 3 5 76 23 44 34 8 76 15 87
REMARK Flexibility Score: inf
ROOT
ATOM      1  C   UNL A   1      32.599  32.708  27.220  1.00  0.00     0.116 C 
ENDROOT
BRANCH   1   2
ATOM      2  N   UNL A   1      32.382  34.088  27.626  1.00  0.00    -0.352 N 
ATOM      3  O   UNL A   1      32.686  35.942  28.882  1.00  0.00    -0.269 OA
ATOM      4  C   UNL A   1      33.061  34.816  28.574  1.00  0.00     0.251 C 
ATOM      5  H   UNL A   1      31.654  34.562  27.162  1.00  0.00     0.163 HD
BRANCH   4   6
ATOM      6  C   UNL A   1      34.231  34.214  29.248  1.00  0.00     0.039 A 
ATOM      7  C   UNL A   1      35.525  34.475  28.792  1.00  0.00     0.014 A 
ATOM      8  C   UNL A   1      34.025  33.365  30.337  1.00  0.00     0.014 A 
ATOM      9  C   UNL A   1      36.599  33.783  29.337  1.00  0.00     0.010 A 
ATOM     10  C   UNL A   1      35.115  32.728  30.935  1.00  0.00     0.010 A 
ATOM     11  C   UNL A   1      36.407  32.909  30.419  1.00  0.00    -0.014 A 
BRANCH  11  12
ATOM     12  C   UNL A   1      37.584  32.241  31.028  1.00  0.00     0.031 A 
ATOM     13  C   UNL A   1      38.049  32.591  32.412  1.00  0.00     0.074 A 
ATOM     14  C   UNL A   1      38.216  31.285  30.321  1.00  0.00     0.049 A 
ATOM     15  N   UNL A   1      39.044  32.087  33.099  1.00  0.00    -0.248 NA
ATOM     16  C   UNL A   1      37.309  33.648  33.118  1.00  0.00     0.031 C 
ATOM     17  C   UNL A   1      37.862  30.875  28.960  1.00  0.00     0.029 A 
ATOM     18  N   UNL A   1      39.274  30.476  30.649  1.00  0.00    -0.354 N 
ATOM     19  C   UNL A   1      39.062  32.775  34.305  1.00  0.00     0.074 A 
ATOM     20  C   UNL A   1      37.991  33.748  34.251  1.00  0.00     0.031 C 
ATOM     21  C   UNL A   1      38.659  29.865  28.585  1.00  0.00     0.029 A 
ATOM     22  C   UNL A   1      39.615  29.594  29.655  1.00  0.00     0.049 A 
ATOM     23  H   UNL A   1      39.743  30.524  31.512  1.00  0.00     0.167 HD
ATOM     24  C   UNL A   1      39.894  32.602  35.360  1.00  0.00     0.037 A 
ATOM     25  C   UNL A   1      40.597  28.676  29.601  1.00  0.00     0.037 A 
ATOM     26  C   UNL A   1      40.945  31.617  35.415  1.00  0.00     0.049 A 
ATOM     27  C   UNL A   1      41.504  28.510  30.785  1.00  0.00     0.074 A 
ATOM     28  C   UNL A   1      41.811  31.335  36.457  1.00  0.00     0.029 A 
ATOM     29  N   UNL A   1      41.272  30.752  34.381  1.00  0.00    -0.354 N 
ATOM     30  N   UNL A   1      41.488  29.142  31.933  1.00  0.00    -0.248 NA
ATOM     31  C   UNL A   1      42.566  27.503  30.665  1.00  0.00     0.031 C 
ATOM     32  C   UNL A   1      42.691  30.331  36.039  1.00  0.00     0.029 A 
ATOM     33  C   UNL A   1      42.342  29.953  34.753  1.00  0.00     0.049 A 
ATOM     34  H   UNL A   1      40.812  30.712  33.511  1.00  0.00     0.167 HD
ATOM     35  C   UNL A   1      42.527  28.607  32.677  1.00  0.00     0.074 A 
ATOM     36  C   UNL A   1      43.140  27.578  31.859  1.00  0.00     0.031 C 
ATOM     37  C   UNL A   1      42.941  28.939  33.924  1.00  0.00     0.037 A 
BRANCH  24  38
ATOM     38  C   UNL A   1      39.716  33.504  36.546  1.00  0.00     0.064 A 
ATOM     39  C   UNL A   1      40.348  34.754  36.624  1.00  0.00     0.173 A 
ATOM     40  C   UNL A   1      38.856  33.139  37.593  1.00  0.00     0.173 A 
ATOM     41  F   UNL A   1      41.188  35.147  35.655  1.00  0.00    -0.203 F 
ATOM     42  C   UNL A   1      40.137  35.597  37.713  1.00  0.00     0.198 A 
ATOM     43  C   UNL A   1      38.629  33.995  38.668  1.00  0.00     0.198 A 
ATOM     44  F   UNL A   1      38.222  31.956  37.566  1.00  0.00    -0.203 F 
ATOM     45  F   UNL A   1      40.777  36.772  37.781  1.00  0.00    -0.200 F 
ATOM     46  C   UNL A   1      39.273  35.220  38.730  1.00  0.00     0.200 A 
ATOM     47  F   UNL A   1      37.784  33.633  39.645  1.00  0.00    -0.200 F 
ATOM     48  F   UNL A   1      39.063  36.037  39.771  1.00  0.00    -0.200 F 
ENDBRANCH  24  38
BRANCH  25  49
ATOM     49  C   UNL A   1      40.762  27.850  28.379  1.00  0.00     0.064 A 
ATOM     50  C   UNL A   1      41.556  28.289  27.313  1.00  0.00     0.173 A 
ATOM     51  C   UNL A   1      40.149  26.593  28.266  1.00  0.00     0.173 A 
ATOM     52  F   UNL A   1      42.148  29.492  27.369  1.00  0.00    -0.203 F 
ATOM     53  C   UNL A   1      41.725  27.505  26.174  1.00  0.00     0.198 A 
ATOM     54  C   UNL A   1      40.342  25.799  27.139  1.00  0.00     0.198 A 
ATOM     55  F   UNL A   1      39.385  26.126  29.265  1.00  0.00    -0.203 F 
ATOM     56  F   UNL A   1      42.464  27.962  25.153  1.00  0.00    -0.200 F 
ATOM     57  C   UNL A   1      41.124  26.258  26.092  1.00  0.00     0.200 A 
ATOM     58  F   UNL A   1      39.774  24.587  27.073  1.00  0.00    -0.200 F 
ATOM     59  F   UNL A   1      41.297  25.499  25.001  1.00  0.00    -0.200 F 
ENDBRANCH  25  49
BRANCH  37  60
ATOM     60  C   UNL A   1      44.102  28.171  34.481  1.00  0.00     0.064 A 
ATOM     61  C   UNL A   1      43.919  26.964  35.171  1.00  0.00     0.173 A 
ATOM     62  C   UNL A   1      45.414  28.638  34.305  1.00  0.00     0.173 A 
ATOM     63  F   UNL A   1      42.683  26.487  35.380  1.00  0.00    -0.203 F 
ATOM     64  C   UNL A   1      45.007  26.264  35.687  1.00  0.00     0.198 A 
ATOM     65  C   UNL A   1      46.500  27.922  34.798  1.00  0.00     0.198 A 
ATOM     66  F   UNL A   1      45.641  29.785  33.649  1.00  0.00    -0.203 F 
ATOM     67  F   UNL A   1      44.806  25.137  36.385  1.00  0.00    -0.200 F 
ATOM     68  C   UNL A   1      46.295  26.740  35.496  1.00  0.00     0.200 A 
ATOM     69  F   UNL A   1      47.745  28.377  34.605  1.00  0.00    -0.200 F 
ATOM     70  F   UNL A   1      47.340  26.063  35.992  1.00  0.00    -0.200 F 
ENDBRANCH  37  60
ENDBRANCH  11  12
ENDBRANCH   4   6
ENDBRANCH   1   2
BRANCH   1  71
ATOM     71  C   UNL A   1      31.403  32.094  26.505  1.00  0.00     0.023 C 
BRANCH  71  72
ATOM     72  C   UNL A   1      31.555  30.614  26.141  1.00  0.00     0.023 C 
BRANCH  72  73
ATOM     73  C   UNL A   1      33.001  30.122  26.098  1.00  0.00     0.116 C 
BRANCH  73  74
ATOM     74  N   UNL A   1      33.385  29.703  24.761  1.00  0.00    -0.356 N 
ATOM     75  C   UNL A   1      33.524  28.428  24.281  1.00  0.00     0.223 C 
ATOM     76  H   UNL A   1      33.570  30.426  24.119  1.00  0.00     0.163 HD
ATOM     77  O   UNL A   1      33.960  28.261  23.144  1.00  0.00    -0.275 OA
BRANCH  75  78
ATOM     78  C   UNL A   1      33.073  27.284  25.166  1.00  0.00     0.083 C 
ATOM     79  C   UNL A   1      33.923  26.003  24.979  1.00  0.00     0.020 C 
ATOM     80  C   UNL A   1      31.581  26.992  24.876  1.00  0.00     0.052 C 
ATOM     81  C   UNL A   1      33.531  24.925  26.019  1.00  0.00     0.057 C 
ATOM     82  C   UNL A   1      31.156  25.819  25.679  1.00  0.00    -0.006 A 
ATOM     83  C   UNL A   1      32.053  24.898  26.175  1.00  0.00     0.038 A 
ATOM     84  C   UNL A   1      29.903  25.373  26.125  1.00  0.00     0.138 A 
ATOM     85  N   UNL A   1      31.322  24.000  26.890  1.00  0.00    -0.282 N 
ATOM     86  N   UNL A   1      30.002  24.268  26.873  1.00  0.00    -0.184 NA
ATOM     87  H   UNL A   1      31.717  23.236  27.370  1.00  0.00     0.190 HD
ENDBRANCH  75  78
ENDBRANCH  73  74
ENDBRANCH  72  73
ENDBRANCH  71  72
ENDBRANCH   1  71
TORSDOF 11
ENDMDL
