MODEL 1
REMARK VINA RESULT:     -12.9      0.000      0.000
REMARK SMILES CSCC[C@@H](C(=O)NCCCCNC(=O)c1ccc(-c2c3nc(c(-c4c(F)c(F)c(F)c(F)c4F)c4ccc([nH]4)c(-c4c(F)c(F)c(F)c(F)c4F)c4nc(c(-c5c(F)c(F)c(F)c(F)c5F)c5ccc2[nH]5)C=C4)C=C3)cc1)N1C(=O)/C(=C/c2ccc(-c3ccccc3Cl)o2)SC1=S
REMARK SMILES IDX 10 1 9 2 8 3 6 4 7 5 5 7 4 8 3 9 2 10 1 11 79 12 80 13 97 14
REMARK SMILES IDX 81 15 82 16 96 17 98 18 83 19 84 20 85 21 95 22 86 23 87 24
REMARK SMILES IDX 88 25 89 26 93 27 90 28 92 29 94 30 91 31 11 32 12 33 13 34
REMARK SMILES IDX 14 35 15 37 16 38 17 39 78 40 18 41 77 42 19 43 20 44 21 45
REMARK SMILES IDX 71 46 22 47 76 48 70 49 72 50 23 51 75 52 69 53 68 54 24 56
REMARK SMILES IDX 56 57 36 58 55 59 37 60 40 61 54 62 73 63 38 64 39 65 53 67
REMARK SMILES IDX 74 68 41 69 25 70 26 71 34 72 27 73 28 74 32 75 35 76 29 77
REMARK SMILES IDX 30 78 33 79 31 80 57 81 58 82 66 83 59 84 60 85 64 86 67 87
REMARK SMILES IDX 61 88 62 89 65 90 63 91 42 92 43 93 51 94 44 95 45 96 49 97
REMARK SMILES IDX 52 98 46 99 47 100 50 101 48 102
REMARK H PARENT 8 6 13 36 72 55 40 66
REMARK Flexibility Score: inf
ROOT
ATOM      1  C   UNL A   1      31.586  31.092  25.825  1.00  0.00     0.023 C 
ENDROOT
BRANCH   1   2
ATOM      2  C   UNL A   1      32.069  29.647  25.952  1.00  0.00     0.116 C 
BRANCH   2   3
ATOM      3  N   UNL A   1      33.186  29.405  25.072  1.00  0.00    -0.354 N 
ATOM      4  C   UNL A   1      33.286  28.606  23.975  1.00  0.00     0.243 C 
ATOM      5  O   UNL A   1      34.382  28.611  23.404  1.00  0.00    -0.273 OA
ATOM      6  H   UNL A   1      34.008  29.896  25.302  1.00  0.00     0.163 HD
BRANCH   4   7
ATOM      7  C   UNL A   1      32.074  27.778  23.450  1.00  0.00     0.182 C 
BRANCH   7   8
ATOM      8  C   UNL A   1      30.762  27.979  24.237  1.00  0.00     0.046 C 
BRANCH   8   9
ATOM      9  C   UNL A   1      29.442  28.036  23.462  1.00  0.00     0.072 C 
BRANCH   9  10
ATOM     10  S   UNL A   1      29.267  29.435  22.304  1.00  0.00    -0.165 SA
ATOM     11  C   UNL A   1      28.890  30.803  23.428  1.00  0.00     0.085 C 
ENDBRANCH   9  10
ENDBRANCH   8   9
ENDBRANCH   7   8
BRANCH   7  12
ATOM     12  N   UNL A   1      32.557  26.370  23.491  1.00  0.00    -0.280 N 
ATOM     13  C   UNL A   1      33.020  25.839  24.689  1.00  0.00     0.267 C 
ATOM     14  C   UNL A   1      32.799  25.607  22.364  1.00  0.00     0.149 C 
ATOM     15  O   UNL A   1      33.005  26.385  25.785  1.00  0.00    -0.268 OA
ATOM     16  C   UNL A   1      33.597  24.491  24.477  1.00  0.00     0.084 C 
ATOM     17  S   UNL A   1      33.568  24.090  22.810  1.00  0.00    -0.054 SA
ATOM     18  S   UNL A   1      32.464  25.982  20.771  1.00  0.00    -0.052 S 
ATOM     19  C   UNL A   1      34.053  23.773  25.511  1.00  0.00     0.068 C 
BRANCH  19  20
ATOM     20  C   UNL A   1      34.682  22.514  25.357  1.00  0.00     0.128 A 
ATOM     21  C   UNL A   1      36.015  22.176  25.545  1.00  0.00     0.051 A 
ATOM     22  O   UNL A   1      34.003  21.371  25.005  1.00  0.00    -0.457 OA
ATOM     23  C   UNL A   1      36.153  20.798  25.270  1.00  0.00     0.051 A 
ATOM     24  C   UNL A   1      34.902  20.353  24.910  1.00  0.00     0.136 A 
BRANCH  24  25
ATOM     25  C   UNL A   1      34.387  19.057  24.497  1.00  0.00     0.036 A 
ATOM     26  C   UNL A   1      35.144  17.911  24.802  1.00  0.00     0.013 A 
ATOM     27  C   UNL A   1      33.204  18.899  23.754  1.00  0.00     0.052 A 
ATOM     28  C   UNL A   1      34.739  16.645  24.373  1.00  0.00     0.001 A 
ATOM     29  C   UNL A   1      32.803  17.627  23.325  1.00  0.00     0.021 A 
ATOM     30  Cl  UNL A   1      32.218  20.237  23.271  1.00  0.00    -0.084 Cl
ATOM     31  C   UNL A   1      33.571  16.503  23.631  1.00  0.00     0.002 A 
ENDBRANCH  24  25
ENDBRANCH  19  20
ENDBRANCH   7  12
ENDBRANCH   4   7
ENDBRANCH   2   3
ENDBRANCH   1   2
BRANCH   1  32
ATOM     32  C   UNL A   1      31.611  31.861  27.144  1.00  0.00     0.023 C 
BRANCH  32  33
ATOM     33  C   UNL A   1      32.803  32.799  27.297  1.00  0.00     0.116 C 
BRANCH  33  34
ATOM     34  N   UNL A   1      32.433  34.164  27.643  1.00  0.00    -0.352 N 
ATOM     35  C   UNL A   1      33.001  34.985  28.592  1.00  0.00     0.251 C 
ATOM     36  H   UNL A   1      31.682  34.549  27.135  1.00  0.00     0.163 HD
ATOM     37  O   UNL A   1      32.533  36.086  28.835  1.00  0.00    -0.269 OA
BRANCH  35  38
ATOM     38  C   UNL A   1      34.162  34.479  29.351  1.00  0.00     0.039 A 
ATOM     39  C   UNL A   1      33.940  33.813  30.557  1.00  0.00     0.014 A 
ATOM     40  C   UNL A   1      35.448  34.581  28.815  1.00  0.00     0.014 A 
ATOM     41  C   UNL A   1      35.005  33.170  31.187  1.00  0.00     0.010 A 
ATOM     42  C   UNL A   1      36.488  33.872  29.402  1.00  0.00     0.010 A 
ATOM     43  C   UNL A   1      36.276  33.154  30.589  1.00  0.00    -0.014 A 
BRANCH  43  44
ATOM     44  C   UNL A   1      37.400  32.392  31.184  1.00  0.00     0.031 A 
ATOM     45  C   UNL A   1      37.909  32.753  32.550  1.00  0.00     0.074 A 
ATOM     46  C   UNL A   1      38.015  31.435  30.462  1.00  0.00     0.049 A 
ATOM     47  N   UNL A   1      38.937  32.278  33.204  1.00  0.00    -0.248 NA
ATOM     48  C   UNL A   1      37.185  33.819  33.260  1.00  0.00     0.031 C 
ATOM     49  C   UNL A   1      37.655  31.039  29.099  1.00  0.00     0.029 A 
ATOM     50  N   UNL A   1      39.084  30.632  30.769  1.00  0.00    -0.354 N 
ATOM     51  C   UNL A   1      38.995  32.998  34.389  1.00  0.00     0.074 A 
ATOM     52  C   UNL A   1      37.936  33.983  34.339  1.00  0.00     0.031 C 
ATOM     53  C   UNL A   1      38.474  30.054  28.696  1.00  0.00     0.029 A 
ATOM     54  C   UNL A   1      39.436  29.771  29.757  1.00  0.00     0.049 A 
ATOM     55  H   UNL A   1      39.556  30.669  31.633  1.00  0.00     0.167 HD
ATOM     56  C   UNL A   1      39.836  32.836  35.437  1.00  0.00     0.037 A 
ATOM     57  C   UNL A   1      40.426  28.860  29.695  1.00  0.00     0.037 A 
ATOM     58  C   UNL A   1      40.864  31.831  35.497  1.00  0.00     0.049 A 
ATOM     59  C   UNL A   1      41.332  28.680  30.883  1.00  0.00     0.074 A 
ATOM     60  C   UNL A   1      41.727  31.541  36.538  1.00  0.00     0.029 A 
ATOM     61  N   UNL A   1      41.160  30.946  34.471  1.00  0.00    -0.354 N 
ATOM     62  N   UNL A   1      41.334  29.322  32.026  1.00  0.00    -0.248 NA
ATOM     63  C   UNL A   1      42.366  27.641  30.775  1.00  0.00     0.031 C 
ATOM     64  C   UNL A   1      42.570  30.501  36.129  1.00  0.00     0.029 A 
ATOM     65  C   UNL A   1      42.203  30.116  34.849  1.00  0.00     0.049 A 
ATOM     66  H   UNL A   1      40.699  30.913  33.602  1.00  0.00     0.167 HD
ATOM     67  C   UNL A   1      42.348  28.751  32.782  1.00  0.00     0.074 A 
ATOM     68  C   UNL A   1      42.931  27.701  31.973  1.00  0.00     0.031 C 
ATOM     69  C   UNL A   1      42.761  29.070  34.032  1.00  0.00     0.037 A 
BRANCH  56  70
ATOM     70  C   UNL A   1      39.667  33.760  36.606  1.00  0.00     0.064 A 
ATOM     71  C   UNL A   1      40.296  35.013  36.647  1.00  0.00     0.173 A 
ATOM     72  C   UNL A   1      38.852  33.398  37.689  1.00  0.00     0.173 A 
ATOM     73  F   UNL A   1      41.097  35.399  35.643  1.00  0.00    -0.203 F 
ATOM     74  C   UNL A   1      40.144  35.856  37.745  1.00  0.00     0.198 A 
ATOM     75  C   UNL A   1      38.679  34.257  38.772  1.00  0.00     0.198 A 
ATOM     76  F   UNL A   1      38.225  32.212  37.699  1.00  0.00    -0.203 F 
ATOM     77  F   UNL A   1      40.801  37.023  37.786  1.00  0.00    -0.200 F 
ATOM     78  C   UNL A   1      39.332  35.480  38.803  1.00  0.00     0.200 A 
ATOM     79  F   UNL A   1      37.885  33.897  39.790  1.00  0.00    -0.200 F 
ATOM     80  F   UNL A   1      39.185  36.293  39.858  1.00  0.00    -0.200 F 
ENDBRANCH  56  70
BRANCH  57  81
ATOM     81  C   UNL A   1      40.591  28.027  28.476  1.00  0.00     0.064 A 
ATOM     82  C   UNL A   1      41.364  28.480  27.397  1.00  0.00     0.173 A 
ATOM     83  C   UNL A   1      39.985  26.769  28.361  1.00  0.00     0.173 A 
ATOM     84  F   UNL A   1      41.948  29.687  27.454  1.00  0.00    -0.203 F 
ATOM     85  C   UNL A   1      41.509  27.714  26.243  1.00  0.00     0.198 A 
ATOM     86  C   UNL A   1      40.151  25.992  27.216  1.00  0.00     0.198 A 
ATOM     87  F   UNL A   1      39.241  26.287  29.368  1.00  0.00    -0.203 F 
ATOM     88  F   UNL A   1      42.219  28.190  25.211  1.00  0.00    -0.200 F 
ATOM     89  C   UNL A   1      40.906  26.468  26.155  1.00  0.00     0.200 A 
ATOM     90  F   UNL A   1      39.579  24.783  27.140  1.00  0.00    -0.200 F 
ATOM     91  F   UNL A   1      41.049  25.731  25.046  1.00  0.00    -0.200 F 
ENDBRANCH  57  81
BRANCH  69  92
ATOM     92  C   UNL A   1      43.876  28.253  34.616  1.00  0.00     0.064 A 
ATOM     93  C   UNL A   1      45.215  28.658  34.513  1.00  0.00     0.173 A 
ATOM     94  C   UNL A   1      43.595  27.076  35.327  1.00  0.00     0.173 A 
ATOM     95  F   UNL A   1      45.533  29.768  33.831  1.00  0.00    -0.203 F 
ATOM     96  C   UNL A   1      46.235  27.902  35.084  1.00  0.00     0.198 A 
ATOM     97  C   UNL A   1      44.615  26.337  35.917  1.00  0.00     0.198 A 
ATOM     98  F   UNL A   1      42.330  26.651  35.457  1.00  0.00    -0.203 F 
ATOM     99  F   UNL A   1      47.511  28.285  34.938  1.00  0.00    -0.200 F 
ATOM    100  C   UNL A   1      45.934  26.747  35.790  1.00  0.00     0.200 A 
ATOM    101  F   UNL A   1      44.322  25.228  36.611  1.00  0.00    -0.200 F 
ATOM    102  F   UNL A   1      46.917  26.024  36.346  1.00  0.00    -0.200 F 
ENDBRANCH  69  92
ENDBRANCH  43  44
ENDBRANCH  35  38
ENDBRANCH  33  34
ENDBRANCH  32  33
ENDBRANCH   1  32
TORSDOF 17
ENDMDL
MODEL 2
REMARK VINA RESULT:     -12.9      0.555      7.151
REMARK SMILES CSCC[C@@H](C(=O)NCCCCNC(=O)c1ccc(-c2c3nc(c(-c4c(F)c(F)c(F)c(F)c4F)c4ccc([nH]4)c(-c4c(F)c(F)c(F)c(F)c4F)c4nc(c(-c5c(F)c(F)c(F)c(F)c5F)c5ccc2[nH]5)C=C4)C=C3)cc1)N1C(=O)/C(=C/c2ccc(-c3ccccc3Cl)o2)SC1=S
REMARK SMILES IDX 10 1 9 2 8 3 6 4 7 5 5 7 4 8 3 9 2 10 1 11 79 12 80 13 97 14
REMARK SMILES IDX 81 15 82 16 96 17 98 18 83 19 84 20 85 21 95 22 86 23 87 24
REMARK SMILES IDX 88 25 89 26 93 27 90 28 92 29 94 30 91 31 11 32 12 33 13 34
REMARK SMILES IDX 14 35 15 37 16 38 17 39 78 40 18 41 77 42 19 43 20 44 21 45
REMARK SMILES IDX 71 46 22 47 76 48 70 49 72 50 23 51 75 52 69 53 68 54 24 56
REMARK SMILES IDX 56 57 36 58 55 59 37 60 40 61 54 62 73 63 38 64 39 65 53 67
REMARK SMILES IDX 74 68 41 69 25 70 26 71 34 72 27 73 28 74 32 75 35 76 29 77
REMARK SMILES IDX 30 78 33 79 31 80 57 81 58 82 66 83 59 84 60 85 64 86 67 87
REMARK SMILES IDX 61 88 62 89 65 90 63 91 42 92 43 93 51 94 44 95 45 96 49 97
REMARK SMILES IDX 52 98 46 99 47 100 50 101 48 102
REMARK H PARENT 8 6 13 36 72 55 40 66
REMARK Flexibility Score: inf
ROOT
ATOM      1  C   UNL A   1      31.767  30.910  25.888  1.00  0.00     0.023 C 
ENDROOT
BRANCH   1   2
ATOM      2  C   UNL A   1      32.234  29.456  25.833  1.00  0.00     0.116 C 
BRANCH   2   3
ATOM      3  N   UNL A   1      33.270  29.292  24.843  1.00  0.00    -0.354 N 
ATOM      4  C   UNL A   1      33.293  28.544  23.707  1.00  0.00     0.243 C 
ATOM      5  O   UNL A   1      34.329  28.613  23.037  1.00  0.00    -0.273 OA
ATOM      6  H   UNL A   1      34.093  29.803  25.018  1.00  0.00     0.163 HD
BRANCH   4   7
ATOM      7  C   UNL A   1      32.064  27.695  23.259  1.00  0.00     0.182 C 
BRANCH   7   8
ATOM      8  C   UNL A   1      30.782  27.923  24.087  1.00  0.00     0.046 C 
BRANCH   8   9
ATOM      9  C   UNL A   1      29.499  28.330  23.358  1.00  0.00     0.072 C 
BRANCH   9  10
ATOM     10  S   UNL A   1      29.294  30.118  23.059  1.00  0.00    -0.165 SA
ATOM     11  C   UNL A   1      28.110  30.134  21.690  1.00  0.00     0.085 C 
ENDBRANCH   9  10
ENDBRANCH   8   9
ENDBRANCH   7   8
BRANCH   7  12
ATOM     12  N   UNL A   1      32.553  26.290  23.334  1.00  0.00    -0.280 N 
ATOM     13  C   UNL A   1      33.001  25.784  24.548  1.00  0.00     0.267 C 
ATOM     14  C   UNL A   1      32.814  25.507  22.226  1.00  0.00     0.149 C 
ATOM     15  O   UNL A   1      32.967  26.351  25.634  1.00  0.00    -0.268 OA
ATOM     16  C   UNL A   1      33.587  24.435  24.371  1.00  0.00     0.084 C 
ATOM     17  S   UNL A   1      33.583  24.002  22.711  1.00  0.00    -0.054 SA
ATOM     18  S   UNL A   1      32.499  25.850  20.621  1.00  0.00    -0.052 S 
ATOM     19  C   UNL A   1      34.031  23.739  25.425  1.00  0.00     0.068 C 
BRANCH  19  20
ATOM     20  C   UNL A   1      34.667  22.480  25.304  1.00  0.00     0.128 A 
ATOM     21  C   UNL A   1      36.000  22.152  25.517  1.00  0.00     0.051 A 
ATOM     22  O   UNL A   1      33.999  21.328  24.962  1.00  0.00    -0.457 OA
ATOM     23  C   UNL A   1      36.147  20.770  25.270  1.00  0.00     0.051 A 
ATOM     24  C   UNL A   1      34.904  20.312  24.900  1.00  0.00     0.136 A 
BRANCH  24  25
ATOM     25  C   UNL A   1      34.401  19.007  24.503  1.00  0.00     0.036 A 
ATOM     26  C   UNL A   1      35.166  17.872  24.826  1.00  0.00     0.013 A 
ATOM     27  C   UNL A   1      33.222  18.829  23.758  1.00  0.00     0.052 A 
ATOM     28  C   UNL A   1      34.773  16.596  24.414  1.00  0.00     0.001 A 
ATOM     29  C   UNL A   1      32.833  17.548  23.346  1.00  0.00     0.021 A 
ATOM     30  Cl  UNL A   1      32.226  20.152  23.254  1.00  0.00    -0.084 Cl
ATOM     31  C   UNL A   1      33.608  16.435  23.670  1.00  0.00     0.002 A 
ENDBRANCH  24  25
ENDBRANCH  19  20
ENDBRANCH   7  12
ENDBRANCH   4   7
ENDBRANCH   2   3
ENDBRANCH   1   2
BRANCH   1  32
ATOM     32  C   UNL A   1      31.945  31.557  27.260  1.00  0.00     0.023 C 
BRANCH  32  33
ATOM     33  C   UNL A   1      33.041  32.615  27.313  1.00  0.00     0.116 C 
BRANCH  33  34
ATOM     34  N   UNL A   1      32.546  33.956  27.589  1.00  0.00    -0.352 N 
ATOM     35  C   UNL A   1      32.999  34.853  28.531  1.00  0.00     0.251 C 
ATOM     36  H   UNL A   1      31.793  34.261  27.032  1.00  0.00     0.163 HD
ATOM     37  O   UNL A   1      32.433  35.920  28.709  1.00  0.00    -0.269 OA
BRANCH  35  38
ATOM     38  C   UNL A   1      34.158  34.471  29.362  1.00  0.00     0.039 A 
ATOM     39  C   UNL A   1      33.932  33.808  30.569  1.00  0.00     0.014 A 
ATOM     40  C   UNL A   1      35.457  34.683  28.894  1.00  0.00     0.014 A 
ATOM     41  C   UNL A   1      35.015  33.277  31.269  1.00  0.00     0.010 A 
ATOM     42  C   UNL A   1      36.524  34.083  29.550  1.00  0.00     0.010 A 
ATOM     43  C   UNL A   1      36.313  33.369  30.741  1.00  0.00    -0.014 A 
BRANCH  43  44
ATOM     44  C   UNL A   1      37.467  32.724  31.411  1.00  0.00     0.031 A 
ATOM     45  C   UNL A   1      38.177  31.582  30.743  1.00  0.00     0.074 A 
ATOM     46  C   UNL A   1      37.819  33.109  32.654  1.00  0.00     0.049 A 
ATOM     47  N   UNL A   1      39.141  30.824  31.199  1.00  0.00    -0.248 NA
ATOM     48  C   UNL A   1      37.717  31.222  29.392  1.00  0.00     0.031 C 
ATOM     49  C   UNL A   1      37.164  34.161  33.433  1.00  0.00     0.029 A 
ATOM     50  N   UNL A   1      38.807  32.647  33.486  1.00  0.00    -0.354 N 
ATOM     51  C   UNL A   1      39.385  29.888  30.204  1.00  0.00     0.074 A 
ATOM     52  C   UNL A   1      38.432  30.135  29.145  1.00  0.00     0.031 C 
ATOM     53  C   UNL A   1      37.781  34.278  34.620  1.00  0.00     0.029 A 
ATOM     54  C   UNL A   1      38.853  33.290  34.699  1.00  0.00     0.049 A 
ATOM     55  H   UNL A   1      39.425  31.921  33.238  1.00  0.00     0.167 HD
ATOM     56  C   UNL A   1      40.338  28.927  30.164  1.00  0.00     0.037 A 
ATOM     57  C   UNL A   1      39.667  33.100  35.755  1.00  0.00     0.037 A 
ATOM     58  C   UNL A   1      41.308  28.709  31.204  1.00  0.00     0.049 A 
ATOM     59  C   UNL A   1      40.735  32.044  35.676  1.00  0.00     0.074 A 
ATOM     60  C   UNL A   1      42.354  27.805  31.233  1.00  0.00     0.029 A 
ATOM     61  N   UNL A   1      41.352  29.413  32.399  1.00  0.00    -0.354 N 
ATOM     62  N   UNL A   1      41.001  31.209  34.701  1.00  0.00    -0.248 NA
ATOM     63  C   UNL A   1      41.622  31.910  36.840  1.00  0.00     0.031 C 
ATOM     64  C   UNL A   1      43.012  27.938  32.461  1.00  0.00     0.029 A 
ATOM     65  C   UNL A   1      42.401  28.954  33.179  1.00  0.00     0.049 A 
ATOM     66  H   UNL A   1      40.730  30.131  32.655  1.00  0.00     0.167 HD
ATOM     67  C   UNL A   1      42.098  30.469  35.121  1.00  0.00     0.074 A 
ATOM     68  C   UNL A   1      42.457  30.964  36.433  1.00  0.00     0.031 C 
ATOM     69  C   UNL A   1      42.748  29.468  34.478  1.00  0.00     0.037 A 
BRANCH  56  70
ATOM     70  C   UNL A   1      40.381  28.050  28.948  1.00  0.00     0.064 A 
ATOM     71  C   UNL A   1      39.675  26.839  28.892  1.00  0.00     0.173 A 
ATOM     72  C   UNL A   1      41.121  28.431  27.819  1.00  0.00     0.173 A 
ATOM     73  F   UNL A   1      38.964  26.423  29.952  1.00  0.00    -0.203 F 
ATOM     74  C   UNL A   1      39.735  26.025  27.764  1.00  0.00     0.198 A 
ATOM     75  C   UNL A   1      41.155  27.629  26.681  1.00  0.00     0.198 A 
ATOM     76  F   UNL A   1      41.813  29.580  27.819  1.00  0.00    -0.203 F 
ATOM     77  F   UNL A   1      39.097  24.846  27.756  1.00  0.00    -0.200 F 
ATOM     78  C   UNL A   1      40.469  26.423  26.658  1.00  0.00     0.200 A 
ATOM     79  F   UNL A   1      41.857  28.019  25.609  1.00  0.00    -0.200 F 
ATOM     80  F   UNL A   1      40.524  25.640  25.572  1.00  0.00    -0.200 F 
ENDBRANCH  56  70
BRANCH  57  81
ATOM     81  C   UNL A   1      39.524  33.951  36.963  1.00  0.00     0.064 A 
ATOM     82  C   UNL A   1      38.750  33.525  38.053  1.00  0.00     0.173 A 
ATOM     83  C   UNL A   1      40.151  35.201  37.059  1.00  0.00     0.173 A 
ATOM     84  F   UNL A   1      38.114  32.345  38.000  1.00  0.00    -0.203 F 
ATOM     85  C   UNL A   1      38.595  34.325  39.183  1.00  0.00     0.198 A 
ATOM     86  C   UNL A   1      40.016  35.989  38.200  1.00  0.00     0.198 A 
ATOM     87  F   UNL A   1      40.908  35.651  36.047  1.00  0.00    -0.203 F 
ATOM     88  F   UNL A   1      37.816  33.911  40.191  1.00  0.00    -0.200 F 
ATOM     89  C   UNL A   1      39.232  35.554  39.257  1.00  0.00     0.200 A 
ATOM     90  F   UNL A   1      40.644  37.170  38.274  1.00  0.00    -0.200 F 
ATOM     91  F   UNL A   1      39.085  36.321  40.346  1.00  0.00    -0.200 F 
ENDBRANCH  57  81
BRANCH  69  92
ATOM     92  C   UNL A   1      43.934  28.864  35.171  1.00  0.00     0.064 A 
ATOM     93  C   UNL A   1      43.805  27.742  36.002  1.00  0.00     0.173 A 
ATOM     94  C   UNL A   1      45.219  29.387  34.962  1.00  0.00     0.173 A 
ATOM     95  F   UNL A   1      42.595  27.216  36.243  1.00  0.00    -0.203 F 
ATOM     96  C   UNL A   1      44.920  27.177  36.616  1.00  0.00     0.198 A 
ATOM     97  C   UNL A   1      46.333  28.804  35.556  1.00  0.00     0.198 A 
ATOM     98  F   UNL A   1      45.393  30.456  34.170  1.00  0.00    -0.203 F 
ATOM     99  F   UNL A   1      44.770  26.130  37.439  1.00  0.00    -0.200 F 
ATOM    100  C   UNL A   1      46.182  27.704  36.387  1.00  0.00     0.200 A 
ATOM    101  F   UNL A   1      47.554  29.306  35.325  1.00  0.00    -0.200 F 
ATOM    102  F   UNL A   1      47.255  27.154  36.973  1.00  0.00    -0.200 F 
ENDBRANCH  69  92
ENDBRANCH  43  44
ENDBRANCH  35  38
ENDBRANCH  33  34
ENDBRANCH  32  33
ENDBRANCH   1  32
TORSDOF 17
ENDMDL
MODEL 3
REMARK VINA RESULT:     -12.5      0.766      2.068
REMARK SMILES CSCC[C@@H](C(=O)NCCCCNC(=O)c1ccc(-c2c3nc(c(-c4c(F)c(F)c(F)c(F)c4F)c4ccc([nH]4)c(-c4c(F)c(F)c(F)c(F)c4F)c4nc(c(-c5c(F)c(F)c(F)c(F)c5F)c5ccc2[nH]5)C=C4)C=C3)cc1)N1C(=O)/C(=C/c2ccc(-c3ccccc3Cl)o2)SC1=S
REMARK SMILES IDX 10 1 9 2 8 3 6 4 7 5 5 7 4 8 3 9 2 10 1 11 79 12 80 13 97 14
REMARK SMILES IDX 81 15 82 16 96 17 98 18 83 19 84 20 85 21 95 22 86 23 87 24
REMARK SMILES IDX 88 25 89 26 93 27 90 28 92 29 94 30 91 31 11 32 12 33 13 34
REMARK SMILES IDX 14 35 15 37 16 38 17 39 78 40 18 41 77 42 19 43 20 44 21 45
REMARK SMILES IDX 71 46 22 47 76 48 70 49 72 50 23 51 75 52 69 53 68 54 24 56
REMARK SMILES IDX 56 57 36 58 55 59 37 60 40 61 54 62 73 63 38 64 39 65 53 67
REMARK SMILES IDX 74 68 41 69 25 70 26 71 34 72 27 73 28 74 32 75 35 76 29 77
REMARK SMILES IDX 30 78 33 79 31 80 57 81 58 82 66 83 59 84 60 85 64 86 67 87
REMARK SMILES IDX 61 88 62 89 65 90 63 91 42 92 43 93 51 94 44 95 45 96 49 97
REMARK SMILES IDX 52 98 46 99 47 100 50 101 48 102
REMARK H PARENT 8 6 13 36 72 55 40 66
REMARK Flexibility Score: inf
ROOT
ATOM      1  C   UNL A   1      31.141  31.243  25.614  1.00  0.00     0.023 C 
ENDROOT
BRANCH   1   2
ATOM      2  C   UNL A   1      31.661  29.811  25.730  1.00  0.00     0.116 C 
BRANCH   2   3
ATOM      3  N   UNL A   1      32.760  29.594  24.821  1.00  0.00    -0.354 N 
ATOM      4  C   UNL A   1      32.860  28.776  23.738  1.00  0.00     0.243 C 
ATOM      5  O   UNL A   1      33.937  28.812  23.134  1.00  0.00    -0.273 OA
ATOM      6  H   UNL A   1      33.568  30.123  25.016  1.00  0.00     0.163 HD
BRANCH   4   7
ATOM      7  C   UNL A   1      31.668  27.888  23.268  1.00  0.00     0.182 C 
BRANCH   7   8
ATOM      8  C   UNL A   1      30.352  28.107  24.044  1.00  0.00     0.046 C 
BRANCH   8   9
ATOM      9  C   UNL A   1      29.046  27.589  23.436  1.00  0.00     0.072 C 
BRANCH   9  10
ATOM     10  S   UNL A   1      27.852  28.871  22.924  1.00  0.00    -0.165 SA
ATOM     11  C   UNL A   1      28.885  30.356  22.906  1.00  0.00     0.085 C 
ENDBRANCH   9  10
ENDBRANCH   8   9
ENDBRANCH   7   8
BRANCH   7  12
ATOM     12  N   UNL A   1      32.184  26.498  23.394  1.00  0.00    -0.280 N 
ATOM     13  C   UNL A   1      32.624  26.040  24.630  1.00  0.00     0.267 C 
ATOM     14  C   UNL A   1      32.479  25.686  22.315  1.00  0.00     0.149 C 
ATOM     15  O   UNL A   1      32.562  26.639  25.697  1.00  0.00    -0.268 OA
ATOM     16  C   UNL A   1      33.241  24.698  24.504  1.00  0.00     0.084 C 
ATOM     17  S   UNL A   1      33.272  24.214  22.859  1.00  0.00    -0.054 SA
ATOM     18  S   UNL A   1      32.181  25.972  20.696  1.00  0.00    -0.052 S 
ATOM     19  C   UNL A   1      33.683  24.045  25.585  1.00  0.00     0.068 C 
BRANCH  19  20
ATOM     20  C   UNL A   1      34.347  22.797  25.513  1.00  0.00     0.128 A 
ATOM     21  C   UNL A   1      35.628  22.465  25.934  1.00  0.00     0.051 A 
ATOM     22  O   UNL A   1      33.762  21.660  25.008  1.00  0.00    -0.457 OA
ATOM     23  C   UNL A   1      35.834  21.097  25.649  1.00  0.00     0.051 A 
ATOM     24  C   UNL A   1      34.678  20.653  25.051  1.00  0.00     0.136 A 
BRANCH  24  25
ATOM     25  C   UNL A   1      34.266  19.366  24.512  1.00  0.00     0.036 A 
ATOM     26  C   UNL A   1      35.074  18.245  24.773  1.00  0.00     0.013 A 
ATOM     27  C   UNL A   1      33.137  19.200  23.691  1.00  0.00     0.052 A 
ATOM     28  C   UNL A   1      34.772  16.996  24.227  1.00  0.00     0.001 A 
ATOM     29  C   UNL A   1      32.839  17.945  23.145  1.00  0.00     0.021 A 
ATOM     30  Cl  UNL A   1      32.097  20.514  23.254  1.00  0.00    -0.084 Cl
ATOM     31  C   UNL A   1      33.656  16.847  23.410  1.00  0.00     0.002 A 
ENDBRANCH  24  25
ENDBRANCH  19  20
ENDBRANCH   7  12
ENDBRANCH   4   7
ENDBRANCH   2   3
ENDBRANCH   1   2
BRANCH   1  32
ATOM     32  C   UNL A   1      31.359  32.075  26.877  1.00  0.00     0.023 C 
BRANCH  32  33
ATOM     33  C   UNL A   1      32.648  32.888  26.874  1.00  0.00     0.116 C 
BRANCH  33  34
ATOM     34  N   UNL A   1      32.560  34.126  27.635  1.00  0.00    -0.352 N 
ATOM     35  C   UNL A   1      33.376  34.555  28.658  1.00  0.00     0.251 C 
ATOM     36  H   UNL A   1      31.826  34.733  27.387  1.00  0.00     0.163 HD
ATOM     37  O   UNL A   1      33.136  35.586  29.266  1.00  0.00    -0.269 OA
BRANCH  35  38
ATOM     38  C   UNL A   1      34.524  33.710  29.041  1.00  0.00     0.039 A 
ATOM     39  C   UNL A   1      35.816  34.179  28.799  1.00  0.00     0.014 A 
ATOM     40  C   UNL A   1      34.314  32.509  29.723  1.00  0.00     0.014 A 
ATOM     41  C   UNL A   1      36.905  33.481  29.321  1.00  0.00     0.010 A 
ATOM     42  C   UNL A   1      35.394  31.861  30.310  1.00  0.00     0.010 A 
ATOM     43  C   UNL A   1      36.698  32.344  30.120  1.00  0.00    -0.014 A 
BRANCH  43  44
ATOM     44  C   UNL A   1      37.830  31.644  30.773  1.00  0.00     0.031 A 
ATOM     45  C   UNL A   1      38.228  32.011  32.174  1.00  0.00     0.074 A 
ATOM     46  C   UNL A   1      38.551  30.743  30.077  1.00  0.00     0.049 A 
ATOM     47  N   UNL A   1      39.242  31.589  32.885  1.00  0.00    -0.248 NA
ATOM     48  C   UNL A   1      37.392  33.013  32.854  1.00  0.00     0.031 C 
ATOM     49  C   UNL A   1      38.304  30.351  28.688  1.00  0.00     0.029 A 
ATOM     50  N   UNL A   1      39.649  30.005  30.439  1.00  0.00    -0.354 N 
ATOM     51  C   UNL A   1      39.178  32.289  34.082  1.00  0.00     0.074 A 
ATOM     52  C   UNL A   1      38.062  33.203  33.980  1.00  0.00     0.031 C 
ATOM     53  C   UNL A   1      39.210  29.430  28.323  1.00  0.00     0.029 A 
ATOM     54  C   UNL A   1      40.120  29.189  29.438  1.00  0.00     0.049 A 
ATOM     55  H   UNL A   1      40.063  30.056  31.332  1.00  0.00     0.167 HD
ATOM     56  C   UNL A   1      39.961  32.160  35.179  1.00  0.00     0.037 A 
ATOM     57  C   UNL A   1      41.169  28.345  29.425  1.00  0.00     0.037 A 
ATOM     58  C   UNL A   1      41.046  31.223  35.289  1.00  0.00     0.049 A 
ATOM     59  C   UNL A   1      42.009  28.200  30.665  1.00  0.00     0.074 A 
ATOM     60  C   UNL A   1      41.860  30.969  36.378  1.00  0.00     0.029 A 
ATOM     61  N   UNL A   1      41.464  30.379  34.270  1.00  0.00    -0.354 N 
ATOM     62  N   UNL A   1      41.897  28.818  31.816  1.00  0.00    -0.248 NA
ATOM     63  C   UNL A   1      43.114  27.233  30.608  1.00  0.00     0.031 C 
ATOM     64  C   UNL A   1      42.794  29.994  36.008  1.00  0.00     0.029 A 
ATOM     65  C   UNL A   1      42.534  29.611  34.701  1.00  0.00     0.049 A 
ATOM     66  H   UNL A   1      41.061  30.333  33.373  1.00  0.00     0.167 HD
ATOM     67  C   UNL A   1      42.898  28.300  32.626  1.00  0.00     0.074 A 
ATOM     68  C   UNL A   1      43.598  27.305  31.840  1.00  0.00     0.031 C 
ATOM     69  C   UNL A   1      43.210  28.620  33.906  1.00  0.00     0.037 A 
BRANCH  56  70
ATOM     70  C   UNL A   1      39.658  33.048  36.350  1.00  0.00     0.064 A 
ATOM     71  C   UNL A   1      38.742  32.666  37.341  1.00  0.00     0.173 A 
ATOM     72  C   UNL A   1      40.303  34.285  36.493  1.00  0.00     0.173 A 
ATOM     73  F   UNL A   1      38.088  31.499  37.242  1.00  0.00    -0.203 F 
ATOM     74  C   UNL A   1      38.458  33.505  38.416  1.00  0.00     0.198 A 
ATOM     75  C   UNL A   1      40.038  35.108  37.585  1.00  0.00     0.198 A 
ATOM     76  F   UNL A   1      41.190  34.696  35.575  1.00  0.00    -0.203 F 
ATOM     77  F   UNL A   1      37.537  33.143  39.320  1.00  0.00    -0.200 F 
ATOM     78  C   UNL A   1      39.110  34.721  38.539  1.00  0.00     0.200 A 
ATOM     79  F   UNL A   1      40.677  36.279  37.709  1.00  0.00    -0.200 F 
ATOM     80  F   UNL A   1      38.837  35.527  39.575  1.00  0.00    -0.200 F 
ENDBRANCH  56  70
BRANCH  57  81
ATOM     81  C   UNL A   1      41.465  27.549  28.207  1.00  0.00     0.064 A 
ATOM     82  C   UNL A   1      40.911  26.273  28.032  1.00  0.00     0.173 A 
ATOM     83  C   UNL A   1      42.302  28.040  27.196  1.00  0.00     0.173 A 
ATOM     84  F   UNL A   1      40.119  25.752  28.982  1.00  0.00    -0.203 F 
ATOM     85  C   UNL A   1      41.198  25.511  26.901  1.00  0.00     0.198 A 
ATOM     86  C   UNL A   1      42.568  27.289  26.053  1.00  0.00     0.198 A 
ATOM     87  F   UNL A   1      42.851  29.259  27.311  1.00  0.00    -0.203 F 
ATOM     88  F   UNL A   1      40.688  24.278  26.780  1.00  0.00    -0.200 F 
ATOM     89  C   UNL A   1      42.023  26.022  25.910  1.00  0.00     0.200 A 
ATOM     90  F   UNL A   1      43.355  27.790  25.091  1.00  0.00    -0.200 F 
ATOM     91  F   UNL A   1      42.296  25.290  24.822  1.00  0.00    -0.200 F 
ENDBRANCH  57  81
BRANCH  69  92
ATOM     92  C   UNL A   1      44.337  27.865  34.547  1.00  0.00     0.064 A 
ATOM     93  C   UNL A   1      44.119  26.653  35.218  1.00  0.00     0.173 A 
ATOM     94  C   UNL A   1      45.654  28.336  34.446  1.00  0.00     0.173 A 
ATOM     95  F   UNL A   1      42.875  26.170  35.352  1.00  0.00    -0.203 F 
ATOM     96  C   UNL A   1      45.179  25.950  35.785  1.00  0.00     0.198 A 
ATOM     97  C   UNL A   1      46.714  27.619  34.991  1.00  0.00     0.198 A 
ATOM     98  F   UNL A   1      45.913  29.488  33.809  1.00  0.00    -0.203 F 
ATOM     99  F   UNL A   1      44.945  24.816  36.458  1.00  0.00    -0.200 F 
ATOM    100  C   UNL A   1      46.475  26.430  35.665  1.00  0.00     0.200 A 
ATOM    101  F   UNL A   1      47.967  28.077  34.864  1.00  0.00    -0.200 F 
ATOM    102  F   UNL A   1      47.496  25.749  36.204  1.00  0.00    -0.200 F 
ENDBRANCH  69  92
ENDBRANCH  43  44
ENDBRANCH  35  38
ENDBRANCH  33  34
ENDBRANCH  32  33
ENDBRANCH   1  32
TORSDOF 17
ENDMDL
