MODEL 1
REMARK VINA RESULT:     -12.5      0.000      0.000
REMARK SMILES C[NH2+]C[C@@H](C)C(=O)N1CCC([N@@H+]2CCC[C@@H]2C(=O)NCCCCNC(=O)c2ccc(-c3c4nc(c(-c5c(F)c(F)c(F)c(F)c5F)c5ccc([nH]5)c(-c5c(F)c(F)c(F)c(F)c5F)c5nc(c(-c6c(F)c(F)c(F)c(F)c6F)c6ccc3[nH]6)C=C5)C=C4)cc2)CC1
REMARK SMILES IDX 20 1 19 2 17 3 18 4 16 6 12 7 13 8 14 10 15 11 11 12 6 13
REMARK SMILES IDX 7 14 8 15 9 16 91 17 10 18 90 19 4 20 5 21 3 22 2 23 1 24
REMARK SMILES IDX 21 27 22 28 23 29 24 30 25 31 26 33 27 34 28 35 89 36 29 37
REMARK SMILES IDX 88 38 30 39 31 40 32 41 82 42 33 43 87 44 81 45 83 46 34 47
REMARK SMILES IDX 86 48 80 49 79 50 35 52 67 53 47 54 66 55 48 56 51 57 65 58
REMARK SMILES IDX 84 59 49 60 50 61 64 63 85 64 52 65 36 66 37 67 45 68 38 69
REMARK SMILES IDX 39 70 43 71 46 72 40 73 41 74 44 75 42 76 68 77 69 78 77 79
REMARK SMILES IDX 70 80 71 81 75 82 78 83 72 84 73 85 76 86 74 87 53 88 54 89
REMARK SMILES IDX 62 90 55 91 56 92 60 93 63 94 57 95 58 96 61 97 59 98
REMARK H PARENT 19 5 12 9 2 25 2 26 24 32 83 51 51 62
REMARK Flexibility Score: inf
ROOT
ATOM      1  C   UNL A   1      33.452  29.696  26.732  1.00  0.00     0.116 C 
ENDROOT
BRANCH   1   2
ATOM      2  N   UNL A   1      33.695  29.717  25.304  1.00  0.00    -0.351 N 
ATOM      3  C   UNL A   1      33.050  29.228  24.217  1.00  0.00     0.278 C 
ATOM      4  O   UNL A   1      33.650  29.387  23.141  1.00  0.00    -0.268 OA
ATOM      5  H   UNL A   1      34.521  30.199  25.068  1.00  0.00     0.163 HD
BRANCH   3   6
ATOM      6  C   UNL A   1      31.682  28.508  24.199  1.00  0.00     0.274 C 
ATOM      7  N   UNL A   1      31.642  27.063  23.850  1.00  0.00    -0.322 N 
ATOM      8  C   UNL A   1      30.581  26.820  22.878  1.00  0.00     0.263 C 
ATOM      9  H   UNL A   1      31.439  26.654  24.762  1.00  0.00     0.349 HD
ATOM     10  C   UNL A   1      30.270  28.177  22.276  1.00  0.00     0.068 C 
ATOM     11  C   UNL A   1      30.563  29.158  23.396  1.00  0.00     0.081 C 
BRANCH   7  12
ATOM     12  C   UNL A   1      32.822  26.196  23.785  1.00  0.00     0.188 C 
ATOM     13  C   UNL A   1      32.646  22.240  24.414  1.00  0.00     0.231 C 
ATOM     14  O   UNL A   1      31.615  22.255  25.094  1.00  0.00    -0.274 OA
ATOM     15  N   UNL A   1      33.379  23.389  24.173  1.00  0.00    -0.342 N 
ATOM     16  C   UNL A   1      33.750  24.252  25.271  1.00  0.00     0.125 C 
ATOM     17  C   UNL A   1      33.602  23.929  22.847  1.00  0.00     0.125 C 
ATOM     18  C   UNL A   1      33.223  25.672  25.170  1.00  0.00     0.086 C 
ATOM     19  C   UNL A   1      32.778  25.188  22.623  1.00  0.00     0.086 C 
BRANCH  13  20
ATOM     20  C   UNL A   1      33.362  20.904  24.175  1.00  0.00     0.130 C 
ATOM     21  C   UNL A   1      32.305  19.892  23.728  1.00  0.00     0.024 C 
BRANCH  20  22
ATOM     22  C   UNL A   1      34.206  20.382  25.339  1.00  0.00     0.273 C 
BRANCH  22  23
ATOM     23  N   UNL A   1      33.554  20.370  26.657  1.00  0.00    -0.348 N 
ATOM     24  C   UNL A   1      34.001  21.436  27.542  1.00  0.00     0.330 C 
ATOM     25  H   UNL A   1      32.548  20.465  26.520  1.00  0.00     0.346 HD
ATOM     26  H   UNL A   1      33.804  19.487  27.104  1.00  0.00     0.346 HD
ENDBRANCH  22  23
ENDBRANCH  20  22
ENDBRANCH  13  20
ENDBRANCH   7  12
ENDBRANCH   3   6
ENDBRANCH   1   2
BRANCH   1  27
ATOM     27  C   UNL A   1      32.084  30.249  27.125  1.00  0.00     0.023 C 
BRANCH  27  28
ATOM     28  C   UNL A   1      31.836  31.733  26.839  1.00  0.00     0.023 C 
BRANCH  28  29
ATOM     29  C   UNL A   1      32.903  32.722  27.298  1.00  0.00     0.116 C 
BRANCH  29  30
ATOM     30  N   UNL A   1      32.405  34.040  27.664  1.00  0.00    -0.352 N 
ATOM     31  C   UNL A   1      32.937  34.956  28.545  1.00  0.00     0.251 C 
ATOM     32  H   UNL A   1      31.570  34.316  27.221  1.00  0.00     0.163 HD
ATOM     33  O   UNL A   1      32.407  36.051  28.703  1.00  0.00    -0.269 OA
BRANCH  31  34
ATOM     34  C   UNL A   1      34.126  34.596  29.347  1.00  0.00     0.039 A 
ATOM     35  C   UNL A   1      33.949  34.163  30.660  1.00  0.00     0.014 A 
ATOM     36  C   UNL A   1      35.403  34.624  28.787  1.00  0.00     0.014 A 
ATOM     37  C   UNL A   1      35.039  33.652  31.372  1.00  0.00     0.010 A 
ATOM     38  C   UNL A   1      36.477  34.047  29.468  1.00  0.00     0.010 A 
ATOM     39  C   UNL A   1      36.301  33.529  30.759  1.00  0.00    -0.014 A 
BRANCH  39  40
ATOM     40  C   UNL A   1      37.399  32.782  31.434  1.00  0.00     0.031 A 
ATOM     41  C   UNL A   1      38.069  31.608  30.778  1.00  0.00     0.074 A 
ATOM     42  C   UNL A   1      37.756  33.129  32.688  1.00  0.00     0.049 A 
ATOM     43  N   UNL A   1      39.042  30.854  31.228  1.00  0.00    -0.248 NA
ATOM     44  C   UNL A   1      37.567  31.208  29.456  1.00  0.00     0.031 C 
ATOM     45  C   UNL A   1      37.129  34.190  33.481  1.00  0.00     0.029 A 
ATOM     46  N   UNL A   1      38.727  32.627  33.519  1.00  0.00    -0.354 N 
ATOM     47  C   UNL A   1      39.260  29.889  30.254  1.00  0.00     0.074 A 
ATOM     48  C   UNL A   1      38.283  30.121  29.210  1.00  0.00     0.031 C 
ATOM     49  C   UNL A   1      37.754  34.283  34.665  1.00  0.00     0.029 A 
ATOM     50  C   UNL A   1      38.804  33.272  34.730  1.00  0.00     0.049 A 
ATOM     51  H   UNL A   1      39.313  31.876  33.271  1.00  0.00     0.167 HD
ATOM     52  C   UNL A   1      40.202  28.916  30.220  1.00  0.00     0.037 A 
ATOM     53  C   UNL A   1      39.631  33.078  35.777  1.00  0.00     0.037 A 
ATOM     54  C   UNL A   1      41.196  28.701  31.241  1.00  0.00     0.049 A 
ATOM     55  C   UNL A   1      40.689  32.014  35.699  1.00  0.00     0.074 A 
ATOM     56  C   UNL A   1      42.245  27.798  31.247  1.00  0.00     0.029 A 
ATOM     57  N   UNL A   1      41.262  29.397  32.439  1.00  0.00    -0.354 N 
ATOM     58  N   UNL A   1      40.950  31.176  34.726  1.00  0.00    -0.248 NA
ATOM     59  C   UNL A   1      41.576  31.875  36.863  1.00  0.00     0.031 C 
ATOM     60  C   UNL A   1      42.922  27.918  32.466  1.00  0.00     0.029 A 
ATOM     61  C   UNL A   1      42.321  28.926  33.201  1.00  0.00     0.049 A 
ATOM     62  H   UNL A   1      40.648  30.117  32.709  1.00  0.00     0.167 HD
ATOM     63  C   UNL A   1      42.041  30.430  35.148  1.00  0.00     0.074 A 
ATOM     64  C   UNL A   1      42.406  30.922  36.460  1.00  0.00     0.031 C 
ATOM     65  C   UNL A   1      42.680  29.424  34.503  1.00  0.00     0.037 A 
BRANCH  52  66
ATOM     66  C   UNL A   1      40.217  28.006  29.026  1.00  0.00     0.064 A 
ATOM     67  C   UNL A   1      40.949  28.324  27.873  1.00  0.00     0.173 A 
ATOM     68  C   UNL A   1      39.535  26.781  29.054  1.00  0.00     0.173 A 
ATOM     69  F   UNL A   1      41.613  29.487  27.794  1.00  0.00    -0.203 F 
ATOM     70  C   UNL A   1      40.974  27.462  26.779  1.00  0.00     0.198 A 
ATOM     71  C   UNL A   1      39.584  25.908  27.969  1.00  0.00     0.198 A 
ATOM     72  F   UNL A   1      38.827  26.424  30.136  1.00  0.00    -0.203 F 
ATOM     73  F   UNL A   1      41.643  27.808  25.671  1.00  0.00    -0.200 F 
ATOM     74  C   UNL A   1      40.297  26.253  26.831  1.00  0.00     0.200 A 
ATOM     75  F   UNL A   1      38.941  24.735  28.025  1.00  0.00    -0.200 F 
ATOM     76  F   UNL A   1      40.327  25.421  25.780  1.00  0.00    -0.200 F 
ENDBRANCH  52  66
BRANCH  53  77
ATOM     77  C   UNL A   1      39.514  33.943  36.979  1.00  0.00     0.064 A 
ATOM     78  C   UNL A   1      38.772  33.525  38.093  1.00  0.00     0.173 A 
ATOM     79  C   UNL A   1      40.134  35.198  37.040  1.00  0.00     0.173 A 
ATOM     80  F   UNL A   1      38.142  32.342  38.071  1.00  0.00    -0.203 F 
ATOM     81  C   UNL A   1      38.641  34.340  39.216  1.00  0.00     0.198 A 
ATOM     82  C   UNL A   1      40.025  36.000  38.174  1.00  0.00     0.198 A 
ATOM     83  F   UNL A   1      40.858  35.640  36.001  1.00  0.00    -0.203 F 
ATOM     84  F   UNL A   1      37.891  33.935  40.250  1.00  0.00    -0.200 F 
ATOM     85  C   UNL A   1      39.272  35.573  39.258  1.00  0.00     0.200 A 
ATOM     86  F   UNL A   1      40.645  37.187  38.215  1.00  0.00    -0.200 F 
ATOM     87  F   UNL A   1      39.148  36.354  40.339  1.00  0.00    -0.200 F 
ENDBRANCH  53  77
BRANCH  65  88
ATOM     88  C   UNL A   1      43.860  28.803  35.194  1.00  0.00     0.064 A 
ATOM     89  C   UNL A   1      45.161  29.291  35.005  1.00  0.00     0.173 A 
ATOM     90  C   UNL A   1      43.681  27.732  36.082  1.00  0.00     0.173 A 
ATOM     91  F   UNL A   1      45.386  30.302  34.152  1.00  0.00    -0.203 F 
ATOM     92  C   UNL A   1      46.243  28.715  35.665  1.00  0.00     0.198 A 
ATOM     93  C   UNL A   1      44.762  27.175  36.760  1.00  0.00     0.198 A 
ATOM     94  F   UNL A   1      42.456  27.232  36.300  1.00  0.00    -0.203 F 
ATOM     95  F   UNL A   1      47.483  29.169  35.437  1.00  0.00    -0.200 F 
ATOM     96  C   UNL A   1      46.043  27.663  36.546  1.00  0.00     0.200 A 
ATOM     97  F   UNL A   1      44.565  26.166  37.620  1.00  0.00    -0.200 F 
ATOM     98  F   UNL A   1      47.085  27.114  37.185  1.00  0.00    -0.200 F 
ENDBRANCH  65  88
ENDBRANCH  39  40
ENDBRANCH  31  34
ENDBRANCH  29  30
ENDBRANCH  28  29
ENDBRANCH  27  28
ENDBRANCH   1  27
TORSDOF 15
ENDMDL
MODEL 2
REMARK VINA RESULT:     -12.1      1.218      2.467
REMARK SMILES C[NH2+]C[C@@H](C)C(=O)N1CCC([N@@H+]2CCC[C@@H]2C(=O)NCCCCNC(=O)c2ccc(-c3c4nc(c(-c5c(F)c(F)c(F)c(F)c5F)c5ccc([nH]5)c(-c5c(F)c(F)c(F)c(F)c5F)c5nc(c(-c6c(F)c(F)c(F)c(F)c6F)c6ccc3[nH]6)C=C5)C=C4)cc2)CC1
REMARK SMILES IDX 20 1 19 2 17 3 18 4 16 6 12 7 13 8 14 10 15 11 11 12 6 13
REMARK SMILES IDX 7 14 8 15 9 16 91 17 10 18 90 19 4 20 5 21 3 22 2 23 1 24
REMARK SMILES IDX 21 27 22 28 23 29 24 30 25 31 26 33 27 34 28 35 89 36 29 37
REMARK SMILES IDX 88 38 30 39 31 40 32 41 82 42 33 43 87 44 81 45 83 46 34 47
REMARK SMILES IDX 86 48 80 49 79 50 35 52 67 53 47 54 66 55 48 56 51 57 65 58
REMARK SMILES IDX 84 59 49 60 50 61 64 63 85 64 52 65 36 66 37 67 45 68 38 69
REMARK SMILES IDX 39 70 43 71 46 72 40 73 41 74 44 75 42 76 68 77 69 78 77 79
REMARK SMILES IDX 70 80 71 81 75 82 78 83 72 84 73 85 76 86 74 87 53 88 54 89
REMARK SMILES IDX 62 90 55 91 56 92 60 93 63 94 57 95 58 96 61 97 59 98
REMARK H PARENT 19 5 12 9 2 25 2 26 24 32 83 51 51 62
REMARK Flexibility Score: inf
ROOT
ATOM      1  C   UNL A   1      34.385  29.254  27.214  1.00  0.00     0.116 C 
ENDROOT
BRANCH   1   2
ATOM      2  N   UNL A   1      33.106  28.797  27.716  1.00  0.00    -0.351 N 
ATOM      3  C   UNL A   1      32.005  28.235  27.159  1.00  0.00     0.278 C 
ATOM      4  O   UNL A   1      31.055  28.068  27.941  1.00  0.00    -0.268 OA
ATOM      5  H   UNL A   1      33.015  28.923  28.688  1.00  0.00     0.163 HD
BRANCH   3   6
ATOM      6  C   UNL A   1      31.832  27.804  25.685  1.00  0.00     0.274 C 
ATOM      7  N   UNL A   1      32.411  26.506  25.249  1.00  0.00    -0.322 N 
ATOM      8  C   UNL A   1      33.137  26.686  23.996  1.00  0.00     0.263 C 
ATOM      9  H   UNL A   1      31.563  25.950  25.134  1.00  0.00     0.349 HD
ATOM     10  C   UNL A   1      33.402  28.176  23.896  1.00  0.00     0.068 C 
ATOM     11  C   UNL A   1      32.225  28.813  24.613  1.00  0.00     0.081 C 
BRANCH   7  12
ATOM     12  C   UNL A   1      32.899  25.470  26.164  1.00  0.00     0.188 C 
ATOM     13  C   UNL A   1      32.987  21.581  25.194  1.00  0.00     0.231 C 
ATOM     14  O   UNL A   1      32.101  21.634  24.336  1.00  0.00    -0.274 OA
ATOM     15  N   UNL A   1      33.172  22.596  26.117  1.00  0.00    -0.342 N 
ATOM     16  C   UNL A   1      32.047  23.100  26.870  1.00  0.00     0.125 C 
ATOM     17  C   UNL A   1      34.391  23.373  26.214  1.00  0.00     0.125 C 
ATOM     18  C   UNL A   1      31.762  24.578  26.678  1.00  0.00     0.086 C 
ATOM     19  C   UNL A   1      34.187  24.782  25.677  1.00  0.00     0.086 C 
BRANCH  13  20
ATOM     20  C   UNL A   1      33.624  20.225  25.526  1.00  0.00     0.130 C 
ATOM     21  C   UNL A   1      34.983  20.174  24.824  1.00  0.00     0.024 C 
BRANCH  20  22
ATOM     22  C   UNL A   1      32.769  18.994  25.220  1.00  0.00     0.273 C 
BRANCH  22  23
ATOM     23  N   UNL A   1      32.745  17.950  26.255  1.00  0.00    -0.348 N 
ATOM     24  C   UNL A   1      33.024  16.614  25.746  1.00  0.00     0.330 C 
ATOM     25  H   UNL A   1      33.446  18.179  26.960  1.00  0.00     0.346 HD
ATOM     26  H   UNL A   1      31.800  17.932  26.638  1.00  0.00     0.346 HD
ENDBRANCH  22  23
ENDBRANCH  20  22
ENDBRANCH  13  20
ENDBRANCH   7  12
ENDBRANCH   3   6
ENDBRANCH   1   2
BRANCH   1  27
ATOM     27  C   UNL A   1      34.869  30.548  27.867  1.00  0.00     0.023 C 
BRANCH  27  28
ATOM     28  C   UNL A   1      34.281  31.853  27.322  1.00  0.00     0.023 C 
BRANCH  28  29
ATOM     29  C   UNL A   1      32.838  32.180  27.695  1.00  0.00     0.116 C 
BRANCH  29  30
ATOM     30  N   UNL A   1      32.539  33.599  27.815  1.00  0.00    -0.352 N 
ATOM     31  C   UNL A   1      33.221  34.574  28.509  1.00  0.00     0.251 C 
ATOM     32  H   UNL A   1      31.738  33.907  27.332  1.00  0.00     0.163 HD
ATOM     33  O   UNL A   1      32.855  35.744  28.466  1.00  0.00    -0.269 OA
BRANCH  31  34
ATOM     34  C   UNL A   1      34.373  34.199  29.358  1.00  0.00     0.039 A 
ATOM     35  C   UNL A   1      34.142  33.486  30.533  1.00  0.00     0.014 A 
ATOM     36  C   UNL A   1      35.678  34.494  28.965  1.00  0.00     0.014 A 
ATOM     37  C   UNL A   1      35.225  32.972  31.252  1.00  0.00     0.010 A 
ATOM     38  C   UNL A   1      36.757  33.921  29.641  1.00  0.00     0.010 A 
ATOM     39  C   UNL A   1      36.541  33.129  30.778  1.00  0.00    -0.014 A 
BRANCH  39  40
ATOM     40  C   UNL A   1      37.669  32.394  31.416  1.00  0.00     0.031 A 
ATOM     41  C   UNL A   1      38.384  31.281  30.705  1.00  0.00     0.074 A 
ATOM     42  C   UNL A   1      38.013  32.696  32.685  1.00  0.00     0.049 A 
ATOM     43  N   UNL A   1      39.386  30.545  31.120  1.00  0.00    -0.248 NA
ATOM     44  C   UNL A   1      37.895  30.925  29.365  1.00  0.00     0.031 C 
ATOM     45  C   UNL A   1      37.346  33.692  33.528  1.00  0.00     0.029 A 
ATOM     46  N   UNL A   1      39.005  32.193  33.493  1.00  0.00    -0.354 N 
ATOM     47  C   UNL A   1      39.640  29.636  30.101  1.00  0.00     0.074 A 
ATOM     48  C   UNL A   1      38.654  29.880  29.069  1.00  0.00     0.031 C 
ATOM     49  C   UNL A   1      37.969  33.753  34.715  1.00  0.00     0.029 A 
ATOM     50  C   UNL A   1      39.058  32.782  34.733  1.00  0.00     0.049 A 
ATOM     51  H   UNL A   1      39.619  31.478  33.209  1.00  0.00     0.167 HD
ATOM     52  C   UNL A   1      40.620  28.704  30.022  1.00  0.00     0.037 A 
ATOM     53  C   UNL A   1      39.892  32.571  35.770  1.00  0.00     0.037 A 
ATOM     54  C   UNL A   1      41.623  28.480  31.031  1.00  0.00     0.049 A 
ATOM     55  C   UNL A   1      40.991  31.554  35.642  1.00  0.00     0.074 A 
ATOM     56  C   UNL A   1      42.706  27.619  30.996  1.00  0.00     0.029 A 
ATOM     57  N   UNL A   1      41.663  29.119  32.261  1.00  0.00    -0.354 N 
ATOM     58  N   UNL A   1      41.284  30.775  34.630  1.00  0.00    -0.248 NA
ATOM     59  C   UNL A   1      41.885  31.395  36.799  1.00  0.00     0.031 C 
ATOM     60  C   UNL A   1      43.380  27.708  32.219  1.00  0.00     0.029 A 
ATOM     61  C   UNL A   1      42.740  28.655  33.001  1.00  0.00     0.049 A 
ATOM     62  H   UNL A   1      41.022  29.801  32.565  1.00  0.00     0.167 HD
ATOM     63  C   UNL A   1      42.404  30.053  35.017  1.00  0.00     0.074 A 
ATOM     64  C   UNL A   1      42.751  30.496  36.351  1.00  0.00     0.031 C 
ATOM     65  C   UNL A   1      43.082  29.104  34.326  1.00  0.00     0.037 A 
BRANCH  52  66
ATOM     66  C   UNL A   1      40.669  27.853  28.786  1.00  0.00     0.064 A 
ATOM     67  C   UNL A   1      39.924  26.670  28.681  1.00  0.00     0.173 A 
ATOM     68  C   UNL A   1      41.427  28.252  27.675  1.00  0.00     0.173 A 
ATOM     69  F   UNL A   1      39.188  26.241  29.719  1.00  0.00    -0.203 F 
ATOM     70  C   UNL A   1      39.959  25.900  27.521  1.00  0.00     0.198 A 
ATOM     71  C   UNL A   1      41.438  27.495  26.505  1.00  0.00     0.198 A 
ATOM     72  F   UNL A   1      42.150  29.381  27.718  1.00  0.00    -0.203 F 
ATOM     73  F   UNL A   1      39.275  24.749  27.461  1.00  0.00    -0.200 F 
ATOM     74  C   UNL A   1      40.710  26.317  26.433  1.00  0.00     0.200 A 
ATOM     75  F   UNL A   1      42.153  27.905  25.450  1.00  0.00    -0.200 F 
ATOM     76  F   UNL A   1      40.738  25.579  25.314  1.00  0.00    -0.200 F 
ENDBRANCH  52  66
BRANCH  53  77
ATOM     77  C   UNL A   1      39.743  33.372  37.012  1.00  0.00     0.064 A 
ATOM     78  C   UNL A   1      40.500  34.535  37.211  1.00  0.00     0.173 A 
ATOM     79  C   UNL A   1      38.848  32.993  38.022  1.00  0.00     0.173 A 
ATOM     80  F   UNL A   1      41.385  34.923  36.282  1.00  0.00    -0.203 F 
ATOM     81  C   UNL A   1      40.380  35.279  38.382  1.00  0.00     0.198 A 
ATOM     82  C   UNL A   1      38.710  33.753  39.182  1.00  0.00     0.198 A 
ATOM     83  F   UNL A   1      38.099  31.890  37.877  1.00  0.00    -0.203 F 
ATOM     84  F   UNL A   1      41.146  36.363  38.566  1.00  0.00    -0.200 F 
ATOM     85  C   UNL A   1      39.481  34.891  39.364  1.00  0.00     0.200 A 
ATOM     86  F   UNL A   1      37.832  33.381  40.124  1.00  0.00    -0.200 F 
ATOM     87  F   UNL A   1      39.364  35.609  40.489  1.00  0.00    -0.200 F 
ENDBRANCH  53  77
BRANCH  65  88
ATOM     88  C   UNL A   1      44.285  28.498  34.986  1.00  0.00     0.064 A 
ATOM     89  C   UNL A   1      44.189  27.333  35.761  1.00  0.00     0.173 A 
ATOM     90  C   UNL A   1      45.555  29.069  34.812  1.00  0.00     0.173 A 
ATOM     91  F   UNL A   1      42.994  26.760  35.972  1.00  0.00    -0.203 F 
ATOM     92  C   UNL A   1      45.317  26.773  36.355  1.00  0.00     0.198 A 
ATOM     93  C   UNL A   1      46.685  28.491  35.385  1.00  0.00     0.198 A 
ATOM     94  F   UNL A   1      45.702  30.181  34.077  1.00  0.00    -0.203 F 
ATOM     95  F   UNL A   1      45.196  25.684  37.126  1.00  0.00    -0.200 F 
ATOM     96  C   UNL A   1      46.564  27.348  36.161  1.00  0.00     0.200 A 
ATOM     97  F   UNL A   1      47.891  29.042  35.188  1.00  0.00    -0.200 F 
ATOM     98  F   UNL A   1      47.650  26.804  36.728  1.00  0.00    -0.200 F 
ENDBRANCH  65  88
ENDBRANCH  39  40
ENDBRANCH  31  34
ENDBRANCH  29  30
ENDBRANCH  28  29
ENDBRANCH  27  28
ENDBRANCH   1  27
TORSDOF 15
ENDMDL
MODEL 3
REMARK VINA RESULT:     -12.1      1.264      7.460
REMARK SMILES C[NH2+]C[C@@H](C)C(=O)N1CCC([N@@H+]2CCC[C@@H]2C(=O)NCCCCNC(=O)c2ccc(-c3c4nc(c(-c5c(F)c(F)c(F)c(F)c5F)c5ccc([nH]5)c(-c5c(F)c(F)c(F)c(F)c5F)c5nc(c(-c6c(F)c(F)c(F)c(F)c6F)c6ccc3[nH]6)C=C5)C=C4)cc2)CC1
REMARK SMILES IDX 20 1 19 2 17 3 18 4 16 6 12 7 13 8 14 10 15 11 11 12 6 13
REMARK SMILES IDX 7 14 8 15 9 16 91 17 10 18 90 19 4 20 5 21 3 22 2 23 1 24
REMARK SMILES IDX 21 27 22 28 23 29 24 30 25 31 26 33 27 34 28 35 89 36 29 37
REMARK SMILES IDX 88 38 30 39 31 40 32 41 82 42 33 43 87 44 81 45 83 46 34 47
REMARK SMILES IDX 86 48 80 49 79 50 35 52 67 53 47 54 66 55 48 56 51 57 65 58
REMARK SMILES IDX 84 59 49 60 50 61 64 63 85 64 52 65 36 66 37 67 45 68 38 69
REMARK SMILES IDX 39 70 43 71 46 72 40 73 41 74 44 75 42 76 68 77 69 78 77 79
REMARK SMILES IDX 70 80 71 81 75 82 78 83 72 84 73 85 76 86 74 87 53 88 54 89
REMARK SMILES IDX 62 90 55 91 56 92 60 93 63 94 57 95 58 96 61 97 59 98
REMARK H PARENT 19 5 12 9 2 25 2 26 24 32 83 51 51 62
REMARK Flexibility Score: inf
ROOT
ATOM      1  C   UNL A   1      34.323  29.592  27.147  1.00  0.00     0.116 C 
ENDROOT
BRANCH   1   2
ATOM      2  N   UNL A   1      33.093  29.026  27.659  1.00  0.00    -0.351 N 
ATOM      3  C   UNL A   1      32.038  28.376  27.110  1.00  0.00     0.278 C 
ATOM      4  O   UNL A   1      31.113  28.126  27.900  1.00  0.00    -0.268 OA
ATOM      5  H   UNL A   1      33.001  29.140  28.633  1.00  0.00     0.163 HD
BRANCH   3   6
ATOM      6  C   UNL A   1      31.886  27.939  25.635  1.00  0.00     0.274 C 
ATOM      7  N   UNL A   1      32.456  26.631  25.217  1.00  0.00    -0.322 N 
ATOM      8  C   UNL A   1      33.209  26.795  23.977  1.00  0.00     0.263 C 
ATOM      9  H   UNL A   1      31.604  26.085  25.089  1.00  0.00     0.349 HD
ATOM     10  C   UNL A   1      33.495  28.280  23.874  1.00  0.00     0.068 C 
ATOM     11  C   UNL A   1      32.313  28.936  24.565  1.00  0.00     0.081 C 
BRANCH   7  12
ATOM     12  C   UNL A   1      32.914  25.594  26.147  1.00  0.00     0.188 C 
ATOM     13  C   UNL A   1      33.005  21.702  25.187  1.00  0.00     0.231 C 
ATOM     14  O   UNL A   1      32.143  21.758  24.305  1.00  0.00    -0.274 OA
ATOM     15  N   UNL A   1      33.171  22.718  26.113  1.00  0.00    -0.342 N 
ATOM     16  C   UNL A   1      32.029  23.230  26.834  1.00  0.00     0.125 C 
ATOM     17  C   UNL A   1      34.392  23.488  26.241  1.00  0.00     0.125 C 
ATOM     18  C   UNL A   1      31.758  24.710  26.631  1.00  0.00     0.086 C 
ATOM     19  C   UNL A   1      34.210  24.897  25.697  1.00  0.00     0.086 C 
BRANCH  13  20
ATOM     20  C   UNL A   1      33.625  20.344  25.538  1.00  0.00     0.130 C 
ATOM     21  C   UNL A   1      34.978  20.261  24.828  1.00  0.00     0.024 C 
BRANCH  20  22
ATOM     22  C   UNL A   1      32.750  19.120  25.260  1.00  0.00     0.273 C 
BRANCH  22  23
ATOM     23  N   UNL A   1      32.781  18.058  26.277  1.00  0.00    -0.348 N 
ATOM     24  C   UNL A   1      32.761  16.713  25.721  1.00  0.00     0.330 C 
ATOM     25  H   UNL A   1      33.631  18.166  26.830  1.00  0.00     0.346 HD
ATOM     26  H   UNL A   1      31.936  18.161  26.840  1.00  0.00     0.346 HD
ENDBRANCH  22  23
ENDBRANCH  20  22
ENDBRANCH  13  20
ENDBRANCH   7  12
ENDBRANCH   3   6
ENDBRANCH   1   2
BRANCH   1  27
ATOM     27  C   UNL A   1      34.811  30.806  27.938  1.00  0.00     0.023 C 
BRANCH  27  28
ATOM     28  C   UNL A   1      34.298  32.174  27.481  1.00  0.00     0.023 C 
BRANCH  28  29
ATOM     29  C   UNL A   1      32.810  32.460  27.663  1.00  0.00     0.116 C 
BRANCH  29  30
ATOM     30  N   UNL A   1      32.471  33.863  27.850  1.00  0.00    -0.352 N 
ATOM     31  C   UNL A   1      33.141  34.830  28.567  1.00  0.00     0.251 C 
ATOM     32  H   UNL A   1      31.648  34.164  27.402  1.00  0.00     0.163 HD
ATOM     33  O   UNL A   1      32.737  35.988  28.583  1.00  0.00    -0.269 OA
BRANCH  31  34
ATOM     34  C   UNL A   1      34.327  34.457  29.370  1.00  0.00     0.039 A 
ATOM     35  C   UNL A   1      34.143  33.756  30.560  1.00  0.00     0.014 A 
ATOM     36  C   UNL A   1      35.615  34.741  28.918  1.00  0.00     0.014 A 
ATOM     37  C   UNL A   1      35.253  33.243  31.238  1.00  0.00     0.010 A 
ATOM     38  C   UNL A   1      36.719  34.168  29.552  1.00  0.00     0.010 A 
ATOM     39  C   UNL A   1      36.548  33.389  30.705  1.00  0.00    -0.014 A 
BRANCH  39  40
ATOM     40  C   UNL A   1      37.698  32.654  31.302  1.00  0.00     0.031 A 
ATOM     41  C   UNL A   1      38.264  33.034  32.641  1.00  0.00     0.074 A 
ATOM     42  C   UNL A   1      38.284  31.666  30.594  1.00  0.00     0.049 A 
ATOM     43  N   UNL A   1      39.259  32.493  33.301  1.00  0.00    -0.248 NA
ATOM     44  C   UNL A   1      37.654  34.187  33.318  1.00  0.00     0.031 C 
ATOM     45  C   UNL A   1      37.898  31.251  29.243  1.00  0.00     0.029 A 
ATOM     46  N   UNL A   1      39.331  30.833  30.907  1.00  0.00    -0.354 N 
ATOM     47  C   UNL A   1      39.401  33.244  34.461  1.00  0.00     0.074 A 
ATOM     48  C   UNL A   1      38.422  34.309  34.391  1.00  0.00     0.031 C 
ATOM     49  C   UNL A   1      38.669  30.222  28.860  1.00  0.00     0.029 A 
ATOM     50  C   UNL A   1      39.625  29.922  29.921  1.00  0.00     0.049 A 
ATOM     51  H   UNL A   1      39.825  30.885  31.757  1.00  0.00     0.167 HD
ATOM     52  C   UNL A   1      40.250  33.048  35.499  1.00  0.00     0.037 A 
ATOM     53  C   UNL A   1      40.555  28.948  29.875  1.00  0.00     0.037 A 
ATOM     54  C   UNL A   1      41.202  31.971  35.587  1.00  0.00     0.049 A 
ATOM     55  C   UNL A   1      41.461  28.731  31.054  1.00  0.00     0.074 A 
ATOM     56  C   UNL A   1      42.039  31.643  36.640  1.00  0.00     0.029 A 
ATOM     57  N   UNL A   1      41.448  31.048  34.581  1.00  0.00    -0.354 N 
ATOM     58  N   UNL A   1      41.512  29.384  32.189  1.00  0.00    -0.248 NA
ATOM     59  C   UNL A   1      42.433  27.633  30.951  1.00  0.00     0.031 C 
ATOM     60  C   UNL A   1      42.820  30.546  36.258  1.00  0.00     0.029 A 
ATOM     61  C   UNL A   1      42.440  30.164  34.982  1.00  0.00     0.049 A 
ATOM     62  H   UNL A   1      40.988  31.024  33.712  1.00  0.00     0.167 HD
ATOM     63  C   UNL A   1      42.501  28.765  32.941  1.00  0.00     0.074 A 
ATOM     64  C   UNL A   1      43.014  27.672  32.142  1.00  0.00     0.031 C 
ATOM     65  C   UNL A   1      42.942  29.077  34.183  1.00  0.00     0.037 A 
BRANCH  52  66
ATOM     66  C   UNL A   1      40.180  34.017  36.643  1.00  0.00     0.064 A 
ATOM     67  C   UNL A   1      39.301  33.820  37.717  1.00  0.00     0.173 A 
ATOM     68  C   UNL A   1      41.037  35.127  36.691  1.00  0.00     0.173 A 
ATOM     69  F   UNL A   1      38.456  32.777  37.715  1.00  0.00    -0.203 F 
ATOM     70  C   UNL A   1      39.260  34.713  38.785  1.00  0.00     0.198 A 
ATOM     71  C   UNL A   1      41.015  36.003  37.773  1.00  0.00     0.198 A 
ATOM     72  F   UNL A   1      41.904  35.357  35.694  1.00  0.00    -0.203 F 
ATOM     73  F   UNL A   1      38.381  34.529  39.778  1.00  0.00    -0.200 F 
ATOM     74  C   UNL A   1      40.121  35.800  38.814  1.00  0.00     0.200 A 
ATOM     75  F   UNL A   1      41.855  37.046  37.808  1.00  0.00    -0.200 F 
ATOM     76  F   UNL A   1      40.086  36.656  39.846  1.00  0.00    -0.200 F 
ENDBRANCH  52  66
BRANCH  53  77
ATOM     77  C   UNL A   1      40.650  28.074  28.677  1.00  0.00     0.064 A 
ATOM     78  C   UNL A   1      39.944  26.865  28.615  1.00  0.00     0.173 A 
ATOM     79  C   UNL A   1      41.445  28.425  27.578  1.00  0.00     0.173 A 
ATOM     80  F   UNL A   1      39.188  26.477  29.652  1.00  0.00    -0.203 F 
ATOM     81  C   UNL A   1      40.044  26.031  27.503  1.00  0.00     0.198 A 
ATOM     82  C   UNL A   1      41.524  27.603  26.456  1.00  0.00     0.198 A 
ATOM     83  F   UNL A   1      42.136  29.574  27.589  1.00  0.00    -0.203 F 
ATOM     84  F   UNL A   1      39.392  24.860  27.486  1.00  0.00    -0.200 F 
ATOM     85  C   UNL A   1      40.829  26.403  26.423  1.00  0.00     0.200 A 
ATOM     86  F   UNL A   1      42.275  27.971  25.409  1.00  0.00    -0.200 F 
ATOM     87  F   UNL A   1      40.923  25.602  25.354  1.00  0.00    -0.200 F 
ENDBRANCH  53  77
BRANCH  65  88
ATOM     88  C   UNL A   1      44.018  28.212  34.770  1.00  0.00     0.064 A 
ATOM     89  C   UNL A   1      43.714  27.044  35.484  1.00  0.00     0.173 A 
ATOM     90  C   UNL A   1      45.371  28.535  34.585  1.00  0.00     0.173 A 
ATOM     91  F   UNL A   1      42.434  26.701  35.704  1.00  0.00    -0.203 F 
ATOM     92  C   UNL A   1      44.724  26.242  36.009  1.00  0.00     0.198 A 
ATOM     93  C   UNL A   1      46.379  27.716  35.089  1.00  0.00     0.198 A 
ATOM     94  F   UNL A   1      45.716  29.638  33.906  1.00  0.00    -0.203 F 
ATOM     95  F   UNL A   1      44.408  25.153  36.725  1.00  0.00    -0.200 F 
ATOM     96  C   UNL A   1      46.054  26.574  35.806  1.00  0.00     0.200 A 
ATOM     97  F   UNL A   1      47.665  28.033  34.882  1.00  0.00    -0.200 F 
ATOM     98  F   UNL A   1      47.024  25.798  36.306  1.00  0.00    -0.200 F 
ENDBRANCH  65  88
ENDBRANCH  39  40
ENDBRANCH  31  34
ENDBRANCH  29  30
ENDBRANCH  28  29
ENDBRANCH  27  28
ENDBRANCH   1  27
TORSDOF 15
ENDMDL
