MODEL 1
REMARK VINA RESULT:     -13.1      0.000      0.000
REMARK SMILES CCc1cc(N2CCC(O)(C(=O)NCCCCNC(=O)c3ccc(-c4c5nc(c(-c6c(F)c(F)c(F)c(F)c6F)c6ccc([nH]6)c(-c6c(F)c(F)c(F)c(F)c6F)c6nc(c(-c7c(F)c(F)c(F)c(F)c7F)c7ccc4[nH]7)C=C6)C=C5)cc3)CC2)nc(N2CCOCC2)n1
REMARK SMILES IDX 15 1 14 2 13 3 11 4 12 5 9 7 6 8 7 9 85 10 8 11 84 12 5 13
REMARK SMILES IDX 3 14 4 15 94 16 87 17 86 18 2 19 1 20 88 21 89 22 93 23
REMARK SMILES IDX 90 24 92 25 91 26 10 27 16 29 17 30 18 31 19 32 20 34 21 35
REMARK SMILES IDX 22 36 83 37 23 38 82 39 24 40 25 41 26 42 76 43 27 44 81 45
REMARK SMILES IDX 75 46 77 47 28 48 80 49 74 50 73 51 29 53 61 54 41 55 60 56
REMARK SMILES IDX 42 57 45 58 59 59 78 60 43 61 44 62 58 64 79 65 46 66 30 67
REMARK SMILES IDX 31 68 39 69 32 70 33 71 37 72 40 73 34 74 35 75 38 76 36 77
REMARK SMILES IDX 62 78 63 79 71 80 64 81 65 82 69 83 72 84 66 85 67 86 70 87
REMARK SMILES IDX 68 88 47 89 48 90 56 91 49 92 50 93 54 94 57 95 51 96 52 97
REMARK SMILES IDX 55 98 53 99
REMARK H PARENT 13 6 10 28 18 33 77 52 45 63
REMARK Flexibility Score: inf
ROOT
ATOM      1  C   UNL A   1      31.961  30.192  26.749  1.00  0.00     0.023 C 
ENDROOT
BRANCH   1   2
ATOM      2  C   UNL A   1      31.625  29.523  25.416  1.00  0.00     0.116 C 
BRANCH   2   3
ATOM      3  N   UNL A   1      32.688  29.709  24.450  1.00  0.00    -0.354 N 
ATOM      4  C   UNL A   1      33.132  28.880  23.459  1.00  0.00     0.252 C 
ATOM      5  O   UNL A   1      34.061  29.304  22.766  1.00  0.00    -0.272 OA
ATOM      6  H   UNL A   1      33.166  30.567  24.518  1.00  0.00     0.163 HD
BRANCH   4   7
ATOM      7  C   UNL A   1      32.486  27.482  23.219  1.00  0.00     0.146 C 
ATOM      8  N   UNL A   1      32.606  24.611  23.256  1.00  0.00    -0.356 N 
ATOM      9  C   UNL A   1      31.789  25.297  24.242  1.00  0.00     0.121 C 
ATOM     10  C   UNL A   1      32.888  25.282  21.998  1.00  0.00     0.121 C 
ATOM     11  C   UNL A   1      32.378  26.676  24.520  1.00  0.00     0.067 C 
ATOM     12  C   UNL A   1      33.376  26.705  22.223  1.00  0.00     0.067 C 
BRANCH   8  13
ATOM     13  C   UNL A   1      33.465  23.616  23.689  1.00  0.00     0.134 A 
ATOM     14  C   UNL A   1      35.517  22.964  24.629  1.00  0.00     0.048 A 
ATOM     15  C   UNL A   1      34.736  23.961  24.095  1.00  0.00     0.071 A 
ATOM     16  N   UNL A   1      35.068  21.701  24.750  1.00  0.00    -0.218 NA
ATOM     17  C   UNL A   1      33.837  21.426  24.287  1.00  0.00     0.227 A 
ATOM     18  N   UNL A   1      33.024  22.353  23.760  1.00  0.00    -0.196 NA
BRANCH  14  19
ATOM     19  C   UNL A   1      36.878  23.282  25.186  1.00  0.00     0.053 C 
ATOM     20  C   UNL A   1      37.764  22.052  25.302  1.00  0.00     0.011 C 
ENDBRANCH  14  19
BRANCH  17  21
ATOM     21  N   UNL A   1      33.354  20.140  24.399  1.00  0.00    -0.336 N 
ATOM     22  C   UNL A   1      33.029  19.694  25.753  1.00  0.00     0.148 C 
ATOM     23  C   UNL A   1      32.468  19.650  23.347  1.00  0.00     0.148 C 
ATOM     24  C   UNL A   1      32.843  18.167  25.768  1.00  0.00     0.181 C 
ATOM     25  C   UNL A   1      32.367  18.122  23.458  1.00  0.00     0.181 C 
ATOM     26  O   UNL A   1      31.912  17.724  24.764  1.00  0.00    -0.378 OA
ENDBRANCH  17  21
ENDBRANCH   8  13
BRANCH   7  27
ATOM     27  O   UNL A   1      31.162  27.628  22.683  1.00  0.00    -0.380 OA
ATOM     28  H   UNL A   1      30.649  28.229  23.246  1.00  0.00     0.212 HD
ENDBRANCH   7  27
ENDBRANCH   4   7
ENDBRANCH   2   3
ENDBRANCH   1   2
BRANCH   1  29
ATOM     29  C   UNL A   1      31.722  31.702  26.785  1.00  0.00     0.023 C 
BRANCH  29  30
ATOM     30  C   UNL A   1      32.876  32.528  27.342  1.00  0.00     0.116 C 
BRANCH  30  31
ATOM     31  N   UNL A   1      32.505  33.905  27.631  1.00  0.00    -0.352 N 
ATOM     32  C   UNL A   1      33.038  34.769  28.555  1.00  0.00     0.251 C 
ATOM     33  H   UNL A   1      31.767  34.268  27.089  1.00  0.00     0.163 HD
ATOM     34  O   UNL A   1      32.516  35.863  28.756  1.00  0.00    -0.269 OA
BRANCH  32  35
ATOM     35  C   UNL A   1      34.220  34.360  29.341  1.00  0.00     0.039 A 
ATOM     36  C   UNL A   1      34.025  33.778  30.595  1.00  0.00     0.014 A 
ATOM     37  C   UNL A   1      35.510  34.516  28.827  1.00  0.00     0.014 A 
ATOM     38  C   UNL A   1      35.120  33.271  31.297  1.00  0.00     0.010 A 
ATOM     39  C   UNL A   1      36.592  33.950  29.495  1.00  0.00     0.010 A 
ATOM     40  C   UNL A   1      36.405  33.310  30.730  1.00  0.00    -0.014 A 
BRANCH  40  41
ATOM     41  C   UNL A   1      37.555  32.645  31.393  1.00  0.00     0.031 A 
ATOM     42  C   UNL A   1      38.234  31.473  30.743  1.00  0.00     0.074 A 
ATOM     43  C   UNL A   1      37.937  33.053  32.619  1.00  0.00     0.049 A 
ATOM     44  N   UNL A   1      39.204  30.723  31.199  1.00  0.00    -0.248 NA
ATOM     45  C   UNL A   1      37.743  31.075  29.414  1.00  0.00     0.031 C 
ATOM     46  C   UNL A   1      37.323  34.147  33.375  1.00  0.00     0.029 A 
ATOM     47  N   UNL A   1      38.924  32.588  33.453  1.00  0.00    -0.354 N 
ATOM     48  C   UNL A   1      39.429  29.760  30.225  1.00  0.00     0.074 A 
ATOM     49  C   UNL A   1      38.467  29.992  29.171  1.00  0.00     0.031 C 
ATOM     50  C   UNL A   1      37.960  34.283  34.549  1.00  0.00     0.029 A 
ATOM     51  C   UNL A   1      38.998  33.262  34.648  1.00  0.00     0.049 A 
ATOM     52  H   UNL A   1      39.521  31.843  33.217  1.00  0.00     0.167 HD
ATOM     53  C   UNL A   1      40.367  28.782  30.208  1.00  0.00     0.037 A 
ATOM     54  C   UNL A   1      39.805  33.070  35.709  1.00  0.00     0.037 A 
ATOM     55  C   UNL A   1      41.343  28.575  31.245  1.00  0.00     0.049 A 
ATOM     56  C   UNL A   1      40.825  31.965  35.663  1.00  0.00     0.074 A 
ATOM     57  C   UNL A   1      42.388  27.668  31.275  1.00  0.00     0.029 A 
ATOM     58  N   UNL A   1      41.390  29.280  32.438  1.00  0.00    -0.354 N 
ATOM     59  N   UNL A   1      41.087  31.118  34.699  1.00  0.00    -0.248 NA
ATOM     60  C   UNL A   1      41.665  31.791  36.857  1.00  0.00     0.031 C 
ATOM     61  C   UNL A   1      43.035  27.786  32.508  1.00  0.00     0.029 A 
ATOM     62  C   UNL A   1      42.426  28.803  33.226  1.00  0.00     0.049 A 
ATOM     63  H   UNL A   1      40.780  30.009  32.689  1.00  0.00     0.167 HD
ATOM     64  C   UNL A   1      42.134  30.331  35.156  1.00  0.00     0.074 A 
ATOM     65  C   UNL A   1      42.475  30.813  36.478  1.00  0.00     0.031 C 
ATOM     66  C   UNL A   1      42.757  29.297  34.537  1.00  0.00     0.037 A 
BRANCH  53  67
ATOM     67  C   UNL A   1      40.394  27.858  29.026  1.00  0.00     0.064 A 
ATOM     68  C   UNL A   1      39.625  26.685  28.991  1.00  0.00     0.173 A 
ATOM     69  C   UNL A   1      41.144  28.186  27.887  1.00  0.00     0.173 A 
ATOM     70  F   UNL A   1      38.899  26.322  30.058  1.00  0.00    -0.203 F 
ATOM     71  C   UNL A   1      39.619  25.867  27.864  1.00  0.00     0.198 A 
ATOM     72  C   UNL A   1      41.114  27.380  26.751  1.00  0.00     0.198 A 
ATOM     73  F   UNL A   1      41.892  29.300  27.866  1.00  0.00    -0.203 F 
ATOM     74  F   UNL A   1      38.903  24.733  27.865  1.00  0.00    -0.200 F 
ATOM     75  C   UNL A   1      40.355  26.219  26.742  1.00  0.00     0.200 A 
ATOM     76  F   UNL A   1      41.815  27.729  25.664  1.00  0.00    -0.200 F 
ATOM     77  F   UNL A   1      40.334  25.439  25.653  1.00  0.00    -0.200 F 
ENDBRANCH  53  67
BRANCH  54  78
ATOM     78  C   UNL A   1      39.693  33.946  36.905  1.00  0.00     0.064 A 
ATOM     79  C   UNL A   1      38.902  33.567  38.000  1.00  0.00     0.173 A 
ATOM     80  C   UNL A   1      40.342  35.187  36.969  1.00  0.00     0.173 A 
ATOM     81  F   UNL A   1      38.242  32.400  37.976  1.00  0.00    -0.203 F 
ATOM     82  C   UNL A   1      38.744  34.408  39.099  1.00  0.00     0.198 A 
ATOM     83  C   UNL A   1      40.208  36.014  38.082  1.00  0.00     0.198 A 
ATOM     84  F   UNL A   1      41.112  35.596  35.949  1.00  0.00    -0.203 F 
ATOM     85  F   UNL A   1      37.938  34.045  40.107  1.00  0.00    -0.200 F 
ATOM     86  C   UNL A   1      39.400  35.629  39.142  1.00  0.00     0.200 A 
ATOM     87  F   UNL A   1      40.854  37.187  38.125  1.00  0.00    -0.200 F 
ATOM     88  F   UNL A   1      39.245  36.438  40.198  1.00  0.00    -0.200 F 
ENDBRANCH  54  78
BRANCH  66  89
ATOM     89  C   UNL A   1      43.887  28.638  35.272  1.00  0.00     0.064 A 
ATOM     90  C   UNL A   1      43.669  27.559  36.139  1.00  0.00     0.173 A 
ATOM     91  C   UNL A   1      45.209  29.068  35.077  1.00  0.00     0.173 A 
ATOM     92  F   UNL A   1      42.422  27.121  36.372  1.00  0.00    -0.203 F 
ATOM     93  C   UNL A   1      44.730  26.950  36.806  1.00  0.00     0.198 A 
ATOM     94  C   UNL A   1      46.270  28.437  35.720  1.00  0.00     0.198 A 
ATOM     95  F   UNL A   1      45.472  30.093  34.252  1.00  0.00    -0.203 F 
ATOM     96  F   UNL A   1      44.492  25.951  37.667  1.00  0.00    -0.200 F 
ATOM     97  C   UNL A   1      46.029  27.384  36.589  1.00  0.00     0.200 A 
ATOM     98  F   UNL A   1      47.526  28.848  35.499  1.00  0.00    -0.200 F 
ATOM     99  F   UNL A   1      47.049  26.792  37.224  1.00  0.00    -0.200 F 
ENDBRANCH  66  89
ENDBRANCH  40  41
ENDBRANCH  32  35
ENDBRANCH  30  31
ENDBRANCH  29  30
ENDBRANCH   1  29
TORSDOF 15
ENDMDL
MODEL 2
REMARK VINA RESULT:     -13.1      5.495     11.262
REMARK SMILES CCc1cc(N2CCC(O)(C(=O)NCCCCNC(=O)c3ccc(-c4c5nc(c(-c6c(F)c(F)c(F)c(F)c6F)c6ccc([nH]6)c(-c6c(F)c(F)c(F)c(F)c6F)c6nc(c(-c7c(F)c(F)c(F)c(F)c7F)c7ccc4[nH]7)C=C6)C=C5)cc3)CC2)nc(N2CCOCC2)n1
REMARK SMILES IDX 15 1 14 2 13 3 11 4 12 5 9 7 6 8 7 9 85 10 8 11 84 12 5 13
REMARK SMILES IDX 3 14 4 15 94 16 87 17 86 18 2 19 1 20 88 21 89 22 93 23
REMARK SMILES IDX 90 24 92 25 91 26 10 27 16 29 17 30 18 31 19 32 20 34 21 35
REMARK SMILES IDX 22 36 83 37 23 38 82 39 24 40 25 41 26 42 76 43 27 44 81 45
REMARK SMILES IDX 75 46 77 47 28 48 80 49 74 50 73 51 29 53 61 54 41 55 60 56
REMARK SMILES IDX 42 57 45 58 59 59 78 60 43 61 44 62 58 64 79 65 46 66 30 67
REMARK SMILES IDX 31 68 39 69 32 70 33 71 37 72 40 73 34 74 35 75 38 76 36 77
REMARK SMILES IDX 62 78 63 79 71 80 64 81 65 82 69 83 72 84 66 85 67 86 70 87
REMARK SMILES IDX 68 88 47 89 48 90 56 91 49 92 50 93 54 94 57 95 51 96 52 97
REMARK SMILES IDX 55 98 53 99
REMARK H PARENT 13 6 10 28 18 33 77 52 45 63
REMARK Flexibility Score: inf
ROOT
ATOM      1  C   UNL A   1      37.087  21.095  24.769  1.00  0.00     0.023 C 
ENDROOT
BRANCH   1   2
ATOM      2  C   UNL A   1      35.610  20.767  24.981  1.00  0.00     0.116 C 
BRANCH   2   3
ATOM      3  N   UNL A   1      35.189  21.078  26.332  1.00  0.00    -0.354 N 
ATOM      4  C   UNL A   1      34.094  21.761  26.778  1.00  0.00     0.252 C 
ATOM      5  O   UNL A   1      33.977  21.870  28.002  1.00  0.00    -0.272 OA
ATOM      6  H   UNL A   1      35.787  20.745  27.041  1.00  0.00     0.163 HD
BRANCH   4   7
ATOM      7  C   UNL A   1      33.050  22.358  25.787  1.00  0.00     0.146 C 
ATOM      8  N   UNL A   1      31.648  24.593  24.647  1.00  0.00    -0.356 N 
ATOM      9  C   UNL A   1      32.652  23.908  23.851  1.00  0.00     0.121 C 
ATOM     10  C   UNL A   1      30.994  23.864  25.721  1.00  0.00     0.121 C 
ATOM     11  C   UNL A   1      33.706  23.304  24.773  1.00  0.00     0.067 C 
ATOM     12  C   UNL A   1      32.006  23.151  26.605  1.00  0.00     0.067 C 
BRANCH   8  13
ATOM     13  C   UNL A   1      31.683  25.975  24.703  1.00  0.00     0.134 A 
ATOM     14  C   UNL A   1      32.774  27.961  25.325  1.00  0.00     0.048 A 
ATOM     15  C   UNL A   1      32.707  26.590  25.390  1.00  0.00     0.071 A 
ATOM     16  N   UNL A   1      31.878  28.680  24.623  1.00  0.00    -0.218 NA
ATOM     17  C   UNL A   1      30.876  28.019  24.020  1.00  0.00     0.227 A 
ATOM     18  N   UNL A   1      30.757  26.683  24.043  1.00  0.00    -0.196 NA
BRANCH  14  19
ATOM     19  C   UNL A   1      33.920  28.698  25.964  1.00  0.00     0.053 C 
ATOM     20  C   UNL A   1      33.517  29.400  27.251  1.00  0.00     0.011 C 
ENDBRANCH  14  19
BRANCH  17  21
ATOM     21  N   UNL A   1      29.945  28.732  23.297  1.00  0.00    -0.336 N 
ATOM     22  C   UNL A   1      30.453  29.442  22.124  1.00  0.00     0.148 C 
ATOM     23  C   UNL A   1      28.609  28.163  23.157  1.00  0.00     0.148 C 
ATOM     24  C   UNL A   1      29.405  30.452  21.631  1.00  0.00     0.181 C 
ATOM     25  C   UNL A   1      27.653  29.262  22.669  1.00  0.00     0.181 C 
ATOM     26  O   UNL A   1      28.115  29.845  21.438  1.00  0.00    -0.378 OA
ENDBRANCH  17  21
ENDBRANCH   8  13
BRANCH   7  27
ATOM     27  O   UNL A   1      32.401  21.309  25.051  1.00  0.00    -0.380 OA
ATOM     28  H   UNL A   1      32.217  21.612  24.149  1.00  0.00     0.212 HD
ENDBRANCH   7  27
ENDBRANCH   4   7
ENDBRANCH   2   3
ENDBRANCH   1   2
BRANCH   1  29
ATOM     29  C   UNL A   1      38.043  19.924  25.001  1.00  0.00     0.023 C 
BRANCH  29  30
ATOM     30  C   UNL A   1      39.315  20.267  25.769  1.00  0.00     0.116 C 
BRANCH  30  31
ATOM     31  N   UNL A   1      40.248  19.154  25.853  1.00  0.00    -0.352 N 
ATOM     32  C   UNL A   1      41.600  19.174  26.089  1.00  0.00     0.251 C 
ATOM     33  H   UNL A   1      39.856  18.260  25.721  1.00  0.00     0.163 HD
ATOM     34  O   UNL A   1      42.263  18.143  26.000  1.00  0.00    -0.269 OA
BRANCH  32  35
ATOM     35  C   UNL A   1      42.267  20.453  26.410  1.00  0.00     0.039 A 
ATOM     36  C   UNL A   1      42.856  21.182  25.376  1.00  0.00     0.014 A 
ATOM     37  C   UNL A   1      42.276  20.946  27.718  1.00  0.00     0.014 A 
ATOM     38  C   UNL A   1      43.380  22.449  25.638  1.00  0.00     0.010 A 
ATOM     39  C   UNL A   1      42.736  22.237  27.964  1.00  0.00     0.010 A 
ATOM     40  C   UNL A   1      43.279  23.006  26.924  1.00  0.00    -0.014 A 
BRANCH  40  41
ATOM     41  C   UNL A   1      43.693  24.407  27.187  1.00  0.00     0.031 A 
ATOM     42  C   UNL A   1      42.689  25.423  27.651  1.00  0.00     0.074 A 
ATOM     43  C   UNL A   1      44.963  24.779  26.931  1.00  0.00     0.049 A 
ATOM     44  N   UNL A   1      42.848  26.704  27.864  1.00  0.00    -0.248 NA
ATOM     45  C   UNL A   1      41.318  24.942  27.884  1.00  0.00     0.031 C 
ATOM     46  C   UNL A   1      46.019  23.895  26.430  1.00  0.00     0.029 A 
ATOM     47  N   UNL A   1      45.582  25.999  27.046  1.00  0.00    -0.354 N 
ATOM     48  C   UNL A   1      41.601  27.184  28.241  1.00  0.00     0.074 A 
ATOM     49  C   UNL A   1      40.684  26.066  28.186  1.00  0.00     0.031 C 
ATOM     50  C   UNL A   1      47.156  24.596  26.302  1.00  0.00     0.029 A 
ATOM     51  C   UNL A   1      46.903  25.985  26.670  1.00  0.00     0.049 A 
ATOM     52  H   UNL A   1      45.122  26.808  27.367  1.00  0.00     0.167 HD
ATOM     53  C   UNL A   1      41.259  28.440  28.614  1.00  0.00     0.037 A 
ATOM     54  C   UNL A   1      47.806  26.983  26.618  1.00  0.00     0.037 A 
ATOM     55  C   UNL A   1      42.182  29.542  28.697  1.00  0.00     0.049 A 
ATOM     56  C   UNL A   1      47.389  28.370  27.025  1.00  0.00     0.074 A 
ATOM     57  C   UNL A   1      41.947  30.829  29.149  1.00  0.00     0.029 A 
ATOM     58  N   UNL A   1      43.513  29.489  28.312  1.00  0.00    -0.354 N 
ATOM     59  N   UNL A   1      46.229  28.792  27.465  1.00  0.00    -0.248 NA
ATOM     60  C   UNL A   1      48.411  29.422  26.930  1.00  0.00     0.031 C 
ATOM     61  C   UNL A   1      43.122  31.570  28.989  1.00  0.00     0.029 A 
ATOM     62  C   UNL A   1      44.103  30.731  28.485  1.00  0.00     0.049 A 
ATOM     63  H   UNL A   1      43.971  28.689  27.968  1.00  0.00     0.167 HD
ATOM     64  C   UNL A   1      46.387  30.146  27.722  1.00  0.00     0.074 A 
ATOM     65  C   UNL A   1      47.762  30.474  27.409  1.00  0.00     0.031 C 
ATOM     66  C   UNL A   1      45.474  31.040  28.175  1.00  0.00     0.037 A 
BRANCH  53  67
ATOM     67  C   UNL A   1      39.825  28.700  28.971  1.00  0.00     0.064 A 
ATOM     68  C   UNL A   1      39.351  28.532  30.280  1.00  0.00     0.173 A 
ATOM     69  C   UNL A   1      38.932  29.189  28.006  1.00  0.00     0.173 A 
ATOM     70  F   UNL A   1      40.162  28.057  31.237  1.00  0.00    -0.203 F 
ATOM     71  C   UNL A   1      38.030  28.831  30.606  1.00  0.00     0.198 A 
ATOM     72  C   UNL A   1      37.619  29.513  28.341  1.00  0.00     0.198 A 
ATOM     73  F   UNL A   1      39.337  29.372  26.739  1.00  0.00    -0.203 F 
ATOM     74  F   UNL A   1      37.589  28.632  31.856  1.00  0.00    -0.200 F 
ATOM     75  C   UNL A   1      37.168  29.329  29.640  1.00  0.00     0.200 A 
ATOM     76  F   UNL A   1      36.793  30.007  27.409  1.00  0.00    -0.200 F 
ATOM     77  F   UNL A   1      35.903  29.632  29.960  1.00  0.00    -0.200 F 
ENDBRANCH  53  67
BRANCH  54  78
ATOM     78  C   UNL A   1      49.198  26.712  26.172  1.00  0.00     0.064 A 
ATOM     79  C   UNL A   1      50.169  26.267  27.082  1.00  0.00     0.173 A 
ATOM     80  C   UNL A   1      49.597  26.920  24.844  1.00  0.00     0.173 A 
ATOM     81  F   UNL A   1      49.842  26.076  28.369  1.00  0.00    -0.203 F 
ATOM     82  C   UNL A   1      51.489  26.067  26.686  1.00  0.00     0.198 A 
ATOM     83  C   UNL A   1      50.910  26.690  24.442  1.00  0.00     0.198 A 
ATOM     84  F   UNL A   1      48.707  27.343  23.934  1.00  0.00    -0.203 F 
ATOM     85  F   UNL A   1      52.408  25.696  27.588  1.00  0.00    -0.200 F 
ATOM     86  C   UNL A   1      51.859  26.275  25.365  1.00  0.00     0.200 A 
ATOM     87  F   UNL A   1      51.260  26.880  23.162  1.00  0.00    -0.200 F 
ATOM     88  F   UNL A   1      53.129  26.085  24.985  1.00  0.00    -0.200 F 
ENDBRANCH  54  78
BRANCH  66  89
ATOM     89  C   UNL A   1      45.941  32.451  28.385  1.00  0.00     0.064 A 
ATOM     90  C   UNL A   1      45.870  33.408  27.363  1.00  0.00     0.173 A 
ATOM     91  C   UNL A   1      46.430  32.860  29.635  1.00  0.00     0.173 A 
ATOM     92  F   UNL A   1      45.425  33.063  26.144  1.00  0.00    -0.203 F 
ATOM     93  C   UNL A   1      46.297  34.716  27.576  1.00  0.00     0.198 A 
ATOM     94  C   UNL A   1      46.826  34.176  29.854  1.00  0.00     0.198 A 
ATOM     95  F   UNL A   1      46.513  31.984  30.648  1.00  0.00    -0.203 F 
ATOM     96  F   UNL A   1      46.266  35.601  26.570  1.00  0.00    -0.200 F 
ATOM     97  C   UNL A   1      46.766  35.101  28.823  1.00  0.00     0.200 A 
ATOM     98  F   UNL A   1      47.266  34.550  31.063  1.00  0.00    -0.200 F 
ATOM     99  F   UNL A   1      47.168  36.362  29.029  1.00  0.00    -0.200 F 
ENDBRANCH  66  89
ENDBRANCH  40  41
ENDBRANCH  32  35
ENDBRANCH  30  31
ENDBRANCH  29  30
ENDBRANCH   1  29
TORSDOF 15
ENDMDL
MODEL 3
REMARK VINA RESULT:     -12.9      0.624      7.130
REMARK SMILES CCc1cc(N2CCC(O)(C(=O)NCCCCNC(=O)c3ccc(-c4c5nc(c(-c6c(F)c(F)c(F)c(F)c6F)c6ccc([nH]6)c(-c6c(F)c(F)c(F)c(F)c6F)c6nc(c(-c7c(F)c(F)c(F)c(F)c7F)c7ccc4[nH]7)C=C6)C=C5)cc3)CC2)nc(N2CCOCC2)n1
REMARK SMILES IDX 15 1 14 2 13 3 11 4 12 5 9 7 6 8 7 9 85 10 8 11 84 12 5 13
REMARK SMILES IDX 3 14 4 15 94 16 87 17 86 18 2 19 1 20 88 21 89 22 93 23
REMARK SMILES IDX 90 24 92 25 91 26 10 27 16 29 17 30 18 31 19 32 20 34 21 35
REMARK SMILES IDX 22 36 83 37 23 38 82 39 24 40 25 41 26 42 76 43 27 44 81 45
REMARK SMILES IDX 75 46 77 47 28 48 80 49 74 50 73 51 29 53 61 54 41 55 60 56
REMARK SMILES IDX 42 57 45 58 59 59 78 60 43 61 44 62 58 64 79 65 46 66 30 67
REMARK SMILES IDX 31 68 39 69 32 70 33 71 37 72 40 73 34 74 35 75 38 76 36 77
REMARK SMILES IDX 62 78 63 79 71 80 64 81 65 82 69 83 72 84 66 85 67 86 70 87
REMARK SMILES IDX 68 88 47 89 48 90 56 91 49 92 50 93 54 94 57 95 51 96 52 97
REMARK SMILES IDX 55 98 53 99
REMARK H PARENT 13 6 10 28 18 33 77 52 45 63
REMARK Flexibility Score: inf
ROOT
ATOM      1  C   UNL A   1      31.735  30.286  26.416  1.00  0.00     0.023 C 
ENDROOT
BRANCH   1   2
ATOM      2  C   UNL A   1      31.427  29.731  25.025  1.00  0.00     0.116 C 
BRANCH   2   3
ATOM      3  N   UNL A   1      32.599  29.760  24.174  1.00  0.00    -0.354 N 
ATOM      4  C   UNL A   1      33.106  28.804  23.341  1.00  0.00     0.252 C 
ATOM      5  O   UNL A   1      34.128  29.107  22.718  1.00  0.00    -0.272 OA
ATOM      6  H   UNL A   1      33.111  30.601  24.200  1.00  0.00     0.163 HD
BRANCH   4   7
ATOM      7  C   UNL A   1      32.419  27.414  23.187  1.00  0.00     0.146 C 
ATOM      8  N   UNL A   1      32.507  24.541  23.221  1.00  0.00    -0.356 N 
ATOM      9  C   UNL A   1      31.824  25.240  24.295  1.00  0.00     0.121 C 
ATOM     10  C   UNL A   1      32.643  25.205  21.934  1.00  0.00     0.121 C 
ATOM     11  C   UNL A   1      32.460  26.613  24.494  1.00  0.00     0.067 C 
ATOM     12  C   UNL A   1      33.172  26.623  22.094  1.00  0.00     0.067 C 
BRANCH   8  13
ATOM     13  C   UNL A   1      33.399  23.537  23.550  1.00  0.00     0.134 A 
ATOM     14  C   UNL A   1      35.549  22.859  24.214  1.00  0.00     0.048 A 
ATOM     15  C   UNL A   1      34.720  23.863  23.774  1.00  0.00     0.071 A 
ATOM     16  N   UNL A   1      35.099  21.607  24.417  1.00  0.00    -0.218 NA
ATOM     17  C   UNL A   1      33.812  21.349  24.131  1.00  0.00     0.227 A 
ATOM     18  N   UNL A   1      32.950  22.283  23.702  1.00  0.00    -0.196 NA
BRANCH  14  19
ATOM     19  C   UNL A   1      36.979  23.159  24.575  1.00  0.00     0.053 C 
ATOM     20  C   UNL A   1      37.113  23.802  25.946  1.00  0.00     0.011 C 
ENDBRANCH  14  19
BRANCH  17  21
ATOM     21  N   UNL A   1      33.327  20.075  24.330  1.00  0.00    -0.336 N 
ATOM     22  C   UNL A   1      32.980  19.730  25.708  1.00  0.00     0.148 C 
ATOM     23  C   UNL A   1      32.458  19.507  23.303  1.00  0.00     0.148 C 
ATOM     24  C   UNL A   1      32.793  18.209  25.834  1.00  0.00     0.181 C 
ATOM     25  C   UNL A   1      32.354  17.992  23.526  1.00  0.00     0.181 C 
ATOM     26  O   UNL A   1      31.878  17.692  24.850  1.00  0.00    -0.378 OA
ENDBRANCH  17  21
ENDBRANCH   8  13
BRANCH   7  27
ATOM     27  O   UNL A   1      31.041  27.575  22.814  1.00  0.00    -0.380 OA
ATOM     28  H   UNL A   1      30.770  26.835  22.250  1.00  0.00     0.212 HD
ENDBRANCH   7  27
ENDBRANCH   4   7
ENDBRANCH   2   3
ENDBRANCH   1   2
BRANCH   1  29
ATOM     29  C   UNL A   1      31.584  31.802  26.548  1.00  0.00     0.023 C 
BRANCH  29  30
ATOM     30  C   UNL A   1      32.742  32.511  27.242  1.00  0.00     0.116 C 
BRANCH  30  31
ATOM     31  N   UNL A   1      32.442  33.893  27.584  1.00  0.00    -0.352 N 
ATOM     32  C   UNL A   1      33.036  34.702  28.521  1.00  0.00     0.251 C 
ATOM     33  H   UNL A   1      31.710  34.307  27.071  1.00  0.00     0.163 HD
ATOM     34  O   UNL A   1      32.571  35.812  28.768  1.00  0.00    -0.269 OA
BRANCH  32  35
ATOM     35  C   UNL A   1      34.216  34.214  29.264  1.00  0.00     0.039 A 
ATOM     36  C   UNL A   1      34.021  33.571  30.488  1.00  0.00     0.014 A 
ATOM     37  C   UNL A   1      35.502  34.357  28.737  1.00  0.00     0.014 A 
ATOM     38  C   UNL A   1      35.109  32.993  31.144  1.00  0.00     0.010 A 
ATOM     39  C   UNL A   1      36.575  33.722  29.357  1.00  0.00     0.010 A 
ATOM     40  C   UNL A   1      36.386  33.022  30.559  1.00  0.00    -0.014 A 
BRANCH  40  41
ATOM     41  C   UNL A   1      37.523  32.286  31.165  1.00  0.00     0.031 A 
ATOM     42  C   UNL A   1      38.024  32.652  32.534  1.00  0.00     0.074 A 
ATOM     43  C   UNL A   1      38.155  31.337  30.445  1.00  0.00     0.049 A 
ATOM     44  N   UNL A   1      39.045  32.171  33.196  1.00  0.00    -0.248 NA
ATOM     45  C   UNL A   1      37.295  33.714  33.245  1.00  0.00     0.031 C 
ATOM     46  C   UNL A   1      37.794  30.928  29.086  1.00  0.00     0.029 A 
ATOM     47  N   UNL A   1      39.240  30.553  30.750  1.00  0.00    -0.354 N 
ATOM     48  C   UNL A   1      39.091  32.879  34.389  1.00  0.00     0.074 A 
ATOM     49  C   UNL A   1      38.021  33.852  34.345  1.00  0.00     0.031 C 
ATOM     50  C   UNL A   1      38.627  29.955  28.684  1.00  0.00     0.029 A 
ATOM     51  C   UNL A   1      39.605  29.701  29.736  1.00  0.00     0.049 A 
ATOM     52  H   UNL A   1      39.711  30.597  31.613  1.00  0.00     0.167 HD
ATOM     53  C   UNL A   1      39.939  32.717  35.432  1.00  0.00     0.037 A 
ATOM     54  C   UNL A   1      40.621  28.820  29.661  1.00  0.00     0.037 A 
ATOM     55  C   UNL A   1      40.982  31.726  35.485  1.00  0.00     0.049 A 
ATOM     56  C   UNL A   1      41.555  28.676  30.832  1.00  0.00     0.074 A 
ATOM     57  C   UNL A   1      41.833  31.428  36.535  1.00  0.00     0.029 A 
ATOM     58  N   UNL A   1      41.319  30.878  34.442  1.00  0.00    -0.354 N 
ATOM     59  N   UNL A   1      41.533  29.289  31.990  1.00  0.00    -0.248 NA
ATOM     60  C   UNL A   1      42.656  27.714  30.685  1.00  0.00     0.031 C 
ATOM     61  C   UNL A   1      42.721  30.436  36.109  1.00  0.00     0.029 A 
ATOM     62  C   UNL A   1      42.390  30.079  34.811  1.00  0.00     0.049 A 
ATOM     63  H   UNL A   1      40.866  30.847  33.569  1.00  0.00     0.167 HD
ATOM     64  C   UNL A   1      42.595  28.771  32.717  1.00  0.00     0.074 A 
ATOM     65  C   UNL A   1      43.232  27.778  31.877  1.00  0.00     0.031 C 
ATOM     66  C   UNL A   1      43.009  29.091  33.967  1.00  0.00     0.037 A 
BRANCH  53  67
ATOM     67  C   UNL A   1      39.777  33.627  36.615  1.00  0.00     0.064 A 
ATOM     68  C   UNL A   1      40.414  34.875  36.676  1.00  0.00     0.173 A 
ATOM     69  C   UNL A   1      38.919  33.275  37.667  1.00  0.00     0.173 A 
ATOM     70  F   UNL A   1      41.253  35.254  35.700  1.00  0.00    -0.203 F 
ATOM     71  C   UNL A   1      40.209  35.731  37.756  1.00  0.00     0.198 A 
ATOM     72  C   UNL A   1      38.694  34.145  38.732  1.00  0.00     0.198 A 
ATOM     73  F   UNL A   1      38.281  32.094  37.655  1.00  0.00    -0.203 F 
ATOM     74  F   UNL A   1      40.854  36.905  37.809  1.00  0.00    -0.200 F 
ATOM     75  C   UNL A   1      39.343  35.370  38.777  1.00  0.00     0.200 A 
ATOM     76  F   UNL A   1      37.847  33.800  39.711  1.00  0.00    -0.200 F 
ATOM     77  F   UNL A   1      39.134  36.203  39.806  1.00  0.00    -0.200 F 
ENDBRANCH  53  67
BRANCH  54  78
ATOM     78  C   UNL A   1      40.810  27.996  28.438  1.00  0.00     0.064 A 
ATOM     79  C   UNL A   1      40.256  26.711  28.346  1.00  0.00     0.173 A 
ATOM     80  C   UNL A   1      41.569  28.457  27.353  1.00  0.00     0.173 A 
ATOM     81  F   UNL A   1      39.541  26.216  29.367  1.00  0.00    -0.203 F 
ATOM     82  C   UNL A   1      40.477  25.909  27.229  1.00  0.00     0.198 A 
ATOM     83  C   UNL A   1      41.764  27.667  26.223  1.00  0.00     0.198 A 
ATOM     84  F   UNL A   1      42.119  29.680  27.389  1.00  0.00    -0.203 F 
ATOM     85  F   UNL A   1      39.983  24.664  27.191  1.00  0.00    -0.200 F 
ATOM     86  C   UNL A   1      41.228  26.389  26.165  1.00  0.00     0.200 A 
ATOM     87  F   UNL A   1      42.479  28.139  25.192  1.00  0.00    -0.200 F 
ATOM     88  F   UNL A   1      41.443  25.617  25.092  1.00  0.00    -0.200 F 
ENDBRANCH  54  78
BRANCH  66  89
ATOM     89  C   UNL A   1      44.189  28.341  34.513  1.00  0.00     0.064 A 
ATOM     90  C   UNL A   1      44.037  27.115  35.177  1.00  0.00     0.173 A 
ATOM     91  C   UNL A   1      45.489  28.836  34.338  1.00  0.00     0.173 A 
ATOM     92  F   UNL A   1      42.812  26.607  35.384  1.00  0.00    -0.203 F 
ATOM     93  C   UNL A   1      45.142  26.425  35.668  1.00  0.00     0.198 A 
ATOM     94  C   UNL A   1      46.595  28.129  34.803  1.00  0.00     0.198 A 
ATOM     95  F   UNL A   1      45.690  30.002  33.705  1.00  0.00    -0.203 F 
ATOM     96  F   UNL A   1      44.969  25.280  36.342  1.00  0.00    -0.200 F 
ATOM     97  C   UNL A   1      46.420  26.929  35.474  1.00  0.00     0.200 A 
ATOM     98  F   UNL A   1      47.829  28.610  34.602  1.00  0.00    -0.200 F 
ATOM     99  F   UNL A   1      47.482  26.260  35.940  1.00  0.00    -0.200 F 
ENDBRANCH  66  89
ENDBRANCH  40  41
ENDBRANCH  32  35
ENDBRANCH  30  31
ENDBRANCH  29  30
ENDBRANCH   1  29
TORSDOF 15
ENDMDL
