MODEL 1
REMARK VINA RESULT:     -13.6      0.000      0.000
REMARK SMILES Cc1cccc(S(=O)(=O)Nc2cc(C(=O)NCCCCNC(=O)c3ccc(-c4c5nc(c(-c6c(F)c(F)c(F)c(F)c6F)c6ccc([nH]6)c(-c6c(F)c(F)c(F)c(F)c6F)c6nc(c(-c7c(F)c(F)c(F)c(F)c7F)c7ccc4[nH]7)C=C6)C=C5)cc3)ccc2N2CCC[C@H](C[NH+]3CCCC3)C2)c1
REMARK SMILES IDX 18 1 17 2 16 3 14 4 15 5 13 7 11 8 12 9 89 10 88 11 87 12
REMARK SMILES IDX 10 13 7 15 8 16 9 17 6 18 1 19 2 20 3 21 102 22 4 23 5 24
REMARK SMILES IDX 90 25 91 26 101 27 92 28 94 29 93 30 95 31 96 32 97 33
REMARK SMILES IDX 100 34 98 36 99 37 19 38 20 39 21 40 22 41 23 43 24 44 25 45
REMARK SMILES IDX 86 46 26 47 85 48 27 49 28 50 29 51 79 52 30 53 84 54 78 55
REMARK SMILES IDX 80 56 31 57 83 58 77 59 76 60 32 62 64 63 44 64 63 65 45 66
REMARK SMILES IDX 48 67 62 68 81 69 46 70 47 71 61 73 82 74 49 75 33 76 34 77
REMARK SMILES IDX 42 78 35 79 36 80 40 81 43 82 37 83 38 84 41 85 39 86 65 87
REMARK SMILES IDX 66 88 74 89 67 90 68 91 72 92 75 93 69 94 70 95 73 96 71 97
REMARK SMILES IDX 50 98 51 99 59 100 52 101 53 102 57 103 60 104 54 105 55 106
REMARK SMILES IDX 58 107 56 108
REMARK H PARENT 16 6 10 14 96 35 21 42 80 61 48 72
REMARK Flexibility Score: inf
ROOT
ATOM      1  C   UNL A   1      41.187  22.849  27.516  1.00  0.00     0.023 C 
ENDROOT
BRANCH   1   2
ATOM      2  C   UNL A   1      39.809  22.816  26.838  1.00  0.00     0.116 C 
BRANCH   2   3
ATOM      3  N   UNL A   1      39.507  21.507  26.283  1.00  0.00    -0.352 N 
ATOM      4  C   UNL A   1      38.456  21.010  25.554  1.00  0.00     0.251 C 
ATOM      5  O   UNL A   1      38.525  19.832  25.201  1.00  0.00    -0.269 OA
ATOM      6  H   UNL A   1      40.203  20.836  26.469  1.00  0.00     0.163 HD
BRANCH   4   7
ATOM      7  C   UNL A   1      37.288  21.823  25.111  1.00  0.00     0.042 A 
ATOM      8  C   UNL A   1      34.986  22.091  24.415  1.00  0.00     0.073 A 
ATOM      9  C   UNL A   1      36.118  21.293  24.580  1.00  0.00     0.042 A 
ATOM     10  C   UNL A   1      35.032  23.484  24.601  1.00  0.00     0.061 A 
ATOM     11  C   UNL A   1      36.251  24.031  25.019  1.00  0.00     0.029 A 
ATOM     12  C   UNL A   1      37.352  23.213  25.302  1.00  0.00     0.016 A 
BRANCH   8  13
ATOM     13  N   UNL A   1      33.752  21.436  24.128  1.00  0.00    -0.277 N 
ATOM     14  H   UNL A   1      33.324  21.557  23.250  1.00  0.00     0.180 HD
BRANCH  13  15
ATOM     15  S   UNL A   1      33.016  20.444  25.302  1.00  0.00     0.261 S 
ATOM     16  O   UNL A   1      31.593  20.672  25.128  1.00  0.00    -0.201 OA
ATOM     17  O   UNL A   1      33.647  20.760  26.565  1.00  0.00    -0.201 OA
BRANCH  15  18
ATOM     18  C   UNL A   1      33.283  18.698  25.022  1.00  0.00     0.088 A 
ATOM     19  C   UNL A   1      32.066  15.233  26.074  1.00  0.00     0.044 C 
ATOM     20  C   UNL A   1      32.831  16.331  25.395  1.00  0.00    -0.050 A 
ATOM     21  C   UNL A   1      34.005  16.005  24.720  1.00  0.00     0.003 A 
ATOM     22  C   UNL A   1      32.435  17.680  25.475  1.00  0.00     0.025 A 
ATOM     23  C   UNL A   1      34.786  17.013  24.173  1.00  0.00     0.002 A 
ATOM     24  C   UNL A   1      34.448  18.352  24.334  1.00  0.00     0.022 A 
ENDBRANCH  15  18
ENDBRANCH  13  15
ENDBRANCH   8  13
BRANCH  10  25
ATOM     25  N   UNL A   1      33.953  24.323  24.394  1.00  0.00    -0.369 N 
ATOM     26  C   UNL A   1      33.480  24.490  23.024  1.00  0.00     0.116 C 
ATOM     27  C   UNL A   1      33.083  24.776  25.477  1.00  0.00     0.126 C 
ATOM     28  C   UNL A   1      33.118  25.954  22.794  1.00  0.00     0.022 C 
ATOM     29  C   UNL A   1      32.730  26.262  25.299  1.00  0.00     0.064 C 
ATOM     30  C   UNL A   1      32.171  26.466  23.879  1.00  0.00     0.013 C 
BRANCH  29  31
ATOM     31  C   UNL A   1      33.963  27.122  25.682  1.00  0.00     0.267 C 
BRANCH  31  32
ATOM     32  N   UNL A   1      33.783  28.424  26.327  1.00  0.00    -0.335 N 
ATOM     33  C   UNL A   1      32.986  28.419  27.551  1.00  0.00     0.262 C 
ATOM     34  C   UNL A   1      33.295  29.502  25.473  1.00  0.00     0.262 C 
ATOM     35  H   UNL A   1      34.754  28.622  26.569  1.00  0.00     0.348 HD
ATOM     36  C   UNL A   1      31.627  28.950  27.140  1.00  0.00     0.067 C 
ATOM     37  C   UNL A   1      31.944  29.935  26.031  1.00  0.00     0.067 C 
ENDBRANCH  31  32
ENDBRANCH  29  31
ENDBRANCH  10  25
ENDBRANCH   4   7
ENDBRANCH   2   3
ENDBRANCH   1   2
BRANCH   1  38
ATOM     38  C   UNL A   1      42.166  21.821  26.951  1.00  0.00     0.023 C 
BRANCH  38  39
ATOM     39  C   UNL A   1      42.637  22.160  25.545  1.00  0.00     0.116 C 
BRANCH  39  40
ATOM     40  N   UNL A   1      43.748  21.347  25.075  1.00  0.00    -0.352 N 
ATOM     41  C   UNL A   1      45.108  21.629  25.051  1.00  0.00     0.251 C 
ATOM     42  H   UNL A   1      43.499  20.464  24.721  1.00  0.00     0.163 HD
ATOM     43  O   UNL A   1      45.884  20.859  24.533  1.00  0.00    -0.269 OA
BRANCH  41  44
ATOM     44  C   UNL A   1      45.615  22.812  25.798  1.00  0.00     0.039 A 
ATOM     45  C   UNL A   1      45.641  22.729  27.196  1.00  0.00     0.014 A 
ATOM     46  C   UNL A   1      45.846  24.029  25.165  1.00  0.00     0.014 A 
ATOM     47  C   UNL A   1      45.630  23.898  27.950  1.00  0.00     0.010 A 
ATOM     48  C   UNL A   1      45.723  25.188  25.899  1.00  0.00     0.010 A 
ATOM     49  C   UNL A   1      45.540  25.117  27.284  1.00  0.00    -0.014 A 
BRANCH  49  50
ATOM     50  C   UNL A   1      45.110  26.352  27.924  1.00  0.00     0.031 A 
ATOM     51  C   UNL A   1      43.727  26.833  27.783  1.00  0.00     0.074 A 
ATOM     52  C   UNL A   1      45.961  26.965  28.774  1.00  0.00     0.049 A 
ATOM     53  N   UNL A   1      43.333  28.018  28.105  1.00  0.00    -0.248 NA
ATOM     54  C   UNL A   1      42.670  26.019  27.203  1.00  0.00     0.031 C 
ATOM     55  C   UNL A   1      45.643  27.980  29.773  1.00  0.00     0.029 A 
ATOM     56  N   UNL A   1      47.361  26.920  28.746  1.00  0.00    -0.354 N 
ATOM     57  C   UNL A   1      41.959  28.038  28.062  1.00  0.00     0.074 A 
ATOM     58  C   UNL A   1      41.608  26.805  27.396  1.00  0.00     0.031 C 
ATOM     59  C   UNL A   1      46.757  28.665  30.063  1.00  0.00     0.029 A 
ATOM     60  C   UNL A   1      47.799  28.192  29.165  1.00  0.00     0.049 A 
ATOM     61  H   UNL A   1      47.924  26.155  28.487  1.00  0.00     0.167 HD
ATOM     62  C   UNL A   1      41.306  29.037  28.728  1.00  0.00     0.037 A 
ATOM     63  C   UNL A   1      48.550  28.993  28.360  1.00  0.00     0.037 A 
ATOM     64  C   UNL A   1      42.261  30.063  29.180  1.00  0.00     0.049 A 
ATOM     65  C   UNL A   1      47.866  30.306  28.090  1.00  0.00     0.074 A 
ATOM     66  C   UNL A   1      42.818  30.362  30.415  1.00  0.00     0.029 A 
ATOM     67  N   UNL A   1      43.016  30.763  28.236  1.00  0.00    -0.354 N 
ATOM     68  N   UNL A   1      46.571  30.468  28.163  1.00  0.00    -0.248 NA
ATOM     69  C   UNL A   1      48.572  31.542  27.774  1.00  0.00     0.031 C 
ATOM     70  C   UNL A   1      43.948  31.194  30.200  1.00  0.00     0.029 A 
ATOM     71  C   UNL A   1      44.068  31.427  28.840  1.00  0.00     0.049 A 
ATOM     72  H   UNL A   1      42.824  30.781  27.271  1.00  0.00     0.167 HD
ATOM     73  C   UNL A   1      46.269  31.786  27.975  1.00  0.00     0.074 A 
ATOM     74  C   UNL A   1      47.551  32.416  27.715  1.00  0.00     0.031 C 
ATOM     75  C   UNL A   1      44.990  32.258  28.072  1.00  0.00     0.037 A 
BRANCH  62  76
ATOM     76  C   UNL A   1      39.866  28.946  29.227  1.00  0.00     0.064 A 
ATOM     77  C   UNL A   1      38.787  29.325  28.393  1.00  0.00     0.173 A 
ATOM     78  C   UNL A   1      39.472  28.586  30.532  1.00  0.00     0.173 A 
ATOM     79  F   UNL A   1      38.968  29.603  27.096  1.00  0.00    -0.203 F 
ATOM     80  C   UNL A   1      37.469  29.436  28.856  1.00  0.00     0.198 A 
ATOM     81  C   UNL A   1      38.164  28.732  31.007  1.00  0.00     0.198 A 
ATOM     82  F   UNL A   1      40.313  28.014  31.393  1.00  0.00    -0.203 F 
ATOM     83  F   UNL A   1      36.497  29.819  28.015  1.00  0.00    -0.200 F 
ATOM     84  C   UNL A   1      37.162  29.170  30.173  1.00  0.00     0.200 A 
ATOM     85  F   UNL A   1      37.888  28.437  32.286  1.00  0.00    -0.200 F 
ATOM     86  F   UNL A   1      35.909  29.305  30.627  1.00  0.00    -0.200 F 
ENDBRANCH  62  76
BRANCH  63  87
ATOM     87  C   UNL A   1      49.428  28.224  27.441  1.00  0.00     0.064 A 
ATOM     88  C   UNL A   1      50.665  27.779  27.952  1.00  0.00     0.173 A 
ATOM     89  C   UNL A   1      48.924  27.571  26.310  1.00  0.00     0.173 A 
ATOM     90  F   UNL A   1      51.184  28.366  29.041  1.00  0.00    -0.203 F 
ATOM     91  C   UNL A   1      51.297  26.646  27.442  1.00  0.00     0.198 A 
ATOM     92  C   UNL A   1      49.573  26.446  25.790  1.00  0.00     0.198 A 
ATOM     93  F   UNL A   1      47.742  27.930  25.792  1.00  0.00    -0.203 F 
ATOM     94  F   UNL A   1      52.399  26.169  28.039  1.00  0.00    -0.200 F 
ATOM     95  C   UNL A   1      50.734  25.963  26.380  1.00  0.00     0.200 A 
ATOM     96  F   UNL A   1      49.013  25.763  24.781  1.00  0.00    -0.200 F 
ATOM     97  F   UNL A   1      51.278  24.814  25.955  1.00  0.00    -0.200 F 
ENDBRANCH  63  87
BRANCH  75  98
ATOM     98  C   UNL A   1      44.522  33.600  27.568  1.00  0.00     0.064 A 
ATOM     99  C   UNL A   1      43.890  33.784  26.325  1.00  0.00     0.173 A 
ATOM    100  C   UNL A   1      44.542  34.735  28.412  1.00  0.00     0.173 A 
ATOM    101  F   UNL A   1      43.692  32.761  25.483  1.00  0.00    -0.203 F 
ATOM    102  C   UNL A   1      43.378  35.022  25.931  1.00  0.00     0.198 A 
ATOM    103  C   UNL A   1      43.976  35.953  28.040  1.00  0.00     0.198 A 
ATOM    104  F   UNL A   1      45.081  34.690  29.640  1.00  0.00    -0.203 F 
ATOM    105  F   UNL A   1      42.822  35.151  24.718  1.00  0.00    -0.200 F 
ATOM    106  C   UNL A   1      43.407  36.101  26.792  1.00  0.00     0.200 A 
ATOM    107  F   UNL A   1      43.961  36.974  28.908  1.00  0.00    -0.200 F 
ATOM    108  F   UNL A   1      42.867  37.271  26.430  1.00  0.00    -0.200 F 
ENDBRANCH  75  98
ENDBRANCH  49  50
ENDBRANCH  41  44
ENDBRANCH  39  40
ENDBRANCH  38  39
ENDBRANCH   1  38
TORSDOF 17
ENDMDL
MODEL 2
REMARK VINA RESULT:     -13.4      5.357     11.030
REMARK SMILES Cc1cccc(S(=O)(=O)Nc2cc(C(=O)NCCCCNC(=O)c3ccc(-c4c5nc(c(-c6c(F)c(F)c(F)c(F)c6F)c6ccc([nH]6)c(-c6c(F)c(F)c(F)c(F)c6F)c6nc(c(-c7c(F)c(F)c(F)c(F)c7F)c7ccc4[nH]7)C=C6)C=C5)cc3)ccc2N2CCC[C@H](C[NH+]3CCCC3)C2)c1
REMARK SMILES IDX 18 1 17 2 16 3 14 4 15 5 13 7 11 8 12 9 89 10 88 11 87 12
REMARK SMILES IDX 10 13 7 15 8 16 9 17 6 18 1 19 2 20 3 21 102 22 4 23 5 24
REMARK SMILES IDX 90 25 91 26 101 27 92 28 94 29 93 30 95 31 96 32 97 33
REMARK SMILES IDX 100 34 98 36 99 37 19 38 20 39 21 40 22 41 23 43 24 44 25 45
REMARK SMILES IDX 86 46 26 47 85 48 27 49 28 50 29 51 79 52 30 53 84 54 78 55
REMARK SMILES IDX 80 56 31 57 83 58 77 59 76 60 32 62 64 63 44 64 63 65 45 66
REMARK SMILES IDX 48 67 62 68 81 69 46 70 47 71 61 73 82 74 49 75 33 76 34 77
REMARK SMILES IDX 42 78 35 79 36 80 40 81 43 82 37 83 38 84 41 85 39 86 65 87
REMARK SMILES IDX 66 88 74 89 67 90 68 91 72 92 75 93 69 94 70 95 73 96 71 97
REMARK SMILES IDX 50 98 51 99 59 100 52 101 53 102 57 103 60 104 54 105 55 106
REMARK SMILES IDX 58 107 56 108
REMARK H PARENT 16 6 10 14 96 35 21 42 80 61 48 72
REMARK Flexibility Score: inf
ROOT
ATOM      1  C   UNL A   1      35.589  31.821  28.248  1.00  0.00     0.023 C 
ENDROOT
BRANCH   1   2
ATOM      2  C   UNL A   1      34.579  30.808  27.689  1.00  0.00     0.116 C 
BRANCH   2   3
ATOM      3  N   UNL A   1      33.304  31.429  27.372  1.00  0.00    -0.352 N 
ATOM      4  C   UNL A   1      32.126  30.955  26.851  1.00  0.00     0.251 C 
ATOM      5  O   UNL A   1      31.200  31.759  26.736  1.00  0.00    -0.269 OA
ATOM      6  H   UNL A   1      33.280  32.392  27.575  1.00  0.00     0.163 HD
BRANCH   4   7
ATOM      7  C   UNL A   1      31.887  29.529  26.487  1.00  0.00     0.042 A 
ATOM      8  C   UNL A   1      31.908  27.663  24.948  1.00  0.00     0.073 A 
ATOM      9  C   UNL A   1      31.900  29.037  25.187  1.00  0.00     0.042 A 
ATOM     10  C   UNL A   1      31.720  26.732  25.984  1.00  0.00     0.061 A 
ATOM     11  C   UNL A   1      31.584  27.241  27.281  1.00  0.00     0.029 A 
ATOM     12  C   UNL A   1      31.699  28.614  27.535  1.00  0.00     0.016 A 
BRANCH   8  13
ATOM     13  N   UNL A   1      32.195  27.226  23.620  1.00  0.00    -0.277 N 
ATOM     14  H   UNL A   1      32.838  26.496  23.472  1.00  0.00     0.180 HD
BRANCH  13  15
ATOM     15  S   UNL A   1      31.426  27.964  22.290  1.00  0.00     0.261 S 
ATOM     16  O   UNL A   1      31.291  26.899  21.314  1.00  0.00    -0.201 OA
ATOM     17  O   UNL A   1      32.200  29.144  21.968  1.00  0.00    -0.201 OA
BRANCH  15  18
ATOM     18  C   UNL A   1      29.768  28.526  22.654  1.00  0.00     0.088 A 
ATOM     19  C   UNL A   1      27.677  31.682  23.173  1.00  0.00     0.044 C 
ATOM     20  C   UNL A   1      28.081  30.241  23.055  1.00  0.00    -0.050 A 
ATOM     21  C   UNL A   1      27.207  29.265  23.526  1.00  0.00     0.003 A 
ATOM     22  C   UNL A   1      29.336  29.855  22.547  1.00  0.00     0.025 A 
ATOM     23  C   UNL A   1      27.598  27.934  23.526  1.00  0.00     0.002 A 
ATOM     24  C   UNL A   1      28.872  27.559  23.114  1.00  0.00     0.022 A 
ENDBRANCH  15  18
ENDBRANCH  13  15
ENDBRANCH   8  13
BRANCH  10  25
ATOM     25  N   UNL A   1      31.662  25.365  25.787  1.00  0.00    -0.369 N 
ATOM     26  C   UNL A   1      30.467  24.665  26.247  1.00  0.00     0.116 C 
ATOM     27  C   UNL A   1      32.560  24.658  24.877  1.00  0.00     0.126 C 
ATOM     28  C   UNL A   1      30.875  23.338  26.879  1.00  0.00     0.022 C 
ATOM     29  C   UNL A   1      33.024  23.331  25.500  1.00  0.00     0.064 C 
ATOM     30  C   UNL A   1      31.782  22.537  25.944  1.00  0.00     0.013 C 
BRANCH  29  31
ATOM     31  C   UNL A   1      34.077  23.632  26.599  1.00  0.00     0.267 C 
BRANCH  31  32
ATOM     32  N   UNL A   1      35.371  22.946  26.588  1.00  0.00    -0.335 N 
ATOM     33  C   UNL A   1      36.450  23.641  25.889  1.00  0.00     0.262 C 
ATOM     34  C   UNL A   1      35.359  21.559  26.136  1.00  0.00     0.262 C 
ATOM     35  H   UNL A   1      35.569  22.956  27.589  1.00  0.00     0.348 HD
ATOM     36  C   UNL A   1      36.581  22.930  24.557  1.00  0.00     0.067 C 
ATOM     37  C   UNL A   1      36.216  21.492  24.878  1.00  0.00     0.067 C 
ENDBRANCH  31  32
ENDBRANCH  29  31
ENDBRANCH  10  25
ENDBRANCH   4   7
ENDBRANCH   2   3
ENDBRANCH   1   2
BRANCH   1  38
ATOM     38  C   UNL A   1      34.931  33.026  28.920  1.00  0.00     0.023 C 
BRANCH  38  39
ATOM     39  C   UNL A   1      34.449  32.728  30.331  1.00  0.00     0.116 C 
BRANCH  39  40
ATOM     40  N   UNL A   1      33.909  33.882  31.034  1.00  0.00    -0.352 N 
ATOM     41  C   UNL A   1      34.398  34.553  32.148  1.00  0.00     0.251 C 
ATOM     42  H   UNL A   1      33.070  34.241  30.666  1.00  0.00     0.163 HD
ATOM     43  O   UNL A   1      33.759  35.447  32.654  1.00  0.00    -0.269 OA
BRANCH  41  44
ATOM     44  C   UNL A   1      35.780  34.265  32.617  1.00  0.00     0.039 A 
ATOM     45  C   UNL A   1      36.835  34.901  31.949  1.00  0.00     0.014 A 
ATOM     46  C   UNL A   1      36.042  33.245  33.526  1.00  0.00     0.014 A 
ATOM     47  C   UNL A   1      38.107  34.339  31.991  1.00  0.00     0.010 A 
ATOM     48  C   UNL A   1      37.270  32.622  33.484  1.00  0.00     0.010 A 
ATOM     49  C   UNL A   1      38.278  33.129  32.657  1.00  0.00    -0.014 A 
BRANCH  49  50
ATOM     50  C   UNL A   1      39.412  32.244  32.437  1.00  0.00     0.031 A 
ATOM     51  C   UNL A   1      39.276  31.032  31.614  1.00  0.00     0.074 A 
ATOM     52  C   UNL A   1      40.628  32.637  32.872  1.00  0.00     0.049 A 
ATOM     53  N   UNL A   1      40.146  30.082  31.570  1.00  0.00    -0.248 NA
ATOM     54  C   UNL A   1      38.096  30.763  30.806  1.00  0.00     0.031 C 
ATOM     55  C   UNL A   1      41.929  32.113  32.472  1.00  0.00     0.029 A 
ATOM     56  N   UNL A   1      40.904  33.485  33.953  1.00  0.00    -0.354 N 
ATOM     57  C   UNL A   1      39.807  29.240  30.536  1.00  0.00     0.074 A 
ATOM     58  C   UNL A   1      38.473  29.652  30.167  1.00  0.00     0.031 C 
ATOM     59  C   UNL A   1      42.823  32.395  33.430  1.00  0.00     0.029 A 
ATOM     60  C   UNL A   1      42.094  33.001  34.532  1.00  0.00     0.049 A 
ATOM     61  H   UNL A   1      40.374  34.261  34.247  1.00  0.00     0.167 HD
ATOM     62  C   UNL A   1      40.768  28.401  30.045  1.00  0.00     0.037 A 
ATOM     63  C   UNL A   1      42.139  32.567  35.822  1.00  0.00     0.037 A 
ATOM     64  C   UNL A   1      41.954  28.410  30.917  1.00  0.00     0.049 A 
ATOM     65  C   UNL A   1      42.569  31.127  35.908  1.00  0.00     0.074 A 
ATOM     66  C   UNL A   1      43.204  29.000  30.813  1.00  0.00     0.029 A 
ATOM     67  N   UNL A   1      41.833  27.996  32.246  1.00  0.00    -0.354 N 
ATOM     68  N   UNL A   1      42.422  30.277  34.927  1.00  0.00    -0.248 NA
ATOM     69  C   UNL A   1      43.238  30.545  37.064  1.00  0.00     0.031 C 
ATOM     70  C   UNL A   1      43.805  28.994  32.099  1.00  0.00     0.029 A 
ATOM     71  C   UNL A   1      42.938  28.377  32.984  1.00  0.00     0.049 A 
ATOM     72  H   UNL A   1      41.064  27.499  32.608  1.00  0.00     0.167 HD
ATOM     73  C   UNL A   1      43.006  29.090  35.267  1.00  0.00     0.074 A 
ATOM     74  C   UNL A   1      43.486  29.299  36.622  1.00  0.00     0.031 C 
ATOM     75  C   UNL A   1      43.069  28.037  34.398  1.00  0.00     0.037 A 
BRANCH  62  76
ATOM     76  C   UNL A   1      40.760  27.806  28.638  1.00  0.00     0.064 A 
ATOM     77  C   UNL A   1      40.095  26.585  28.374  1.00  0.00     0.173 A 
ATOM     78  C   UNL A   1      41.451  28.326  27.526  1.00  0.00     0.173 A 
ATOM     79  F   UNL A   1      39.310  26.003  29.288  1.00  0.00    -0.203 F 
ATOM     80  C   UNL A   1      40.209  25.905  27.154  1.00  0.00     0.198 A 
ATOM     81  C   UNL A   1      41.598  27.631  26.319  1.00  0.00     0.198 A 
ATOM     82  F   UNL A   1      41.966  29.556  27.522  1.00  0.00    -0.203 F 
ATOM     83  F   UNL A   1      39.567  24.741  26.977  1.00  0.00    -0.200 F 
ATOM     84  C   UNL A   1      40.987  26.413  26.136  1.00  0.00     0.200 A 
ATOM     85  F   UNL A   1      42.337  28.164  25.335  1.00  0.00    -0.200 F 
ATOM     86  F   UNL A   1      41.123  25.751  24.980  1.00  0.00    -0.200 F 
ENDBRANCH  62  76
BRANCH  63  87
ATOM     87  C   UNL A   1      41.177  33.278  36.702  1.00  0.00     0.064 A 
ATOM     88  C   UNL A   1      39.948  32.638  36.967  1.00  0.00     0.173 A 
ATOM     89  C   UNL A   1      41.587  34.278  37.592  1.00  0.00     0.173 A 
ATOM     90  F   UNL A   1      39.517  31.665  36.148  1.00  0.00    -0.203 F 
ATOM     91  C   UNL A   1      39.236  32.886  38.138  1.00  0.00     0.198 A 
ATOM     92  C   UNL A   1      40.858  34.537  38.757  1.00  0.00     0.198 A 
ATOM     93  F   UNL A   1      42.756  34.907  37.411  1.00  0.00    -0.203 F 
ATOM     94  F   UNL A   1      38.145  32.160  38.424  1.00  0.00    -0.200 F 
ATOM     95  C   UNL A   1      39.708  33.814  39.047  1.00  0.00     0.200 A 
ATOM     96  F   UNL A   1      41.329  35.413  39.656  1.00  0.00    -0.200 F 
ATOM     97  F   UNL A   1      39.086  33.980  40.223  1.00  0.00    -0.200 F 
ENDBRANCH  63  87
BRANCH  75  98
ATOM     98  C   UNL A   1      43.388  26.614  34.783  1.00  0.00     0.064 A 
ATOM     99  C   UNL A   1      42.405  25.648  35.065  1.00  0.00     0.173 A 
ATOM    100  C   UNL A   1      44.714  26.126  34.710  1.00  0.00     0.173 A 
ATOM    101  F   UNL A   1      41.100  25.951  35.041  1.00  0.00    -0.203 F 
ATOM    102  C   UNL A   1      42.730  24.315  35.321  1.00  0.00     0.198 A 
ATOM    103  C   UNL A   1      45.028  24.783  34.906  1.00  0.00     0.198 A 
ATOM    104  F   UNL A   1      45.745  26.932  34.414  1.00  0.00    -0.203 F 
ATOM    105  F   UNL A   1      41.757  23.444  35.625  1.00  0.00    -0.200 F 
ATOM    106  C   UNL A   1      44.037  23.878  35.227  1.00  0.00     0.200 A 
ATOM    107  F   UNL A   1      46.293  24.365  34.755  1.00  0.00    -0.200 F 
ATOM    108  F   UNL A   1      44.337  22.588  35.419  1.00  0.00    -0.200 F 
ENDBRANCH  75  98
ENDBRANCH  49  50
ENDBRANCH  41  44
ENDBRANCH  39  40
ENDBRANCH  38  39
ENDBRANCH   1  38
TORSDOF 17
ENDMDL
MODEL 3
REMARK VINA RESULT:     -13.3      3.348      6.375
REMARK SMILES Cc1cccc(S(=O)(=O)Nc2cc(C(=O)NCCCCNC(=O)c3ccc(-c4c5nc(c(-c6c(F)c(F)c(F)c(F)c6F)c6ccc([nH]6)c(-c6c(F)c(F)c(F)c(F)c6F)c6nc(c(-c7c(F)c(F)c(F)c(F)c7F)c7ccc4[nH]7)C=C6)C=C5)cc3)ccc2N2CCC[C@H](C[NH+]3CCCC3)C2)c1
REMARK SMILES IDX 18 1 17 2 16 3 14 4 15 5 13 7 11 8 12 9 89 10 88 11 87 12
REMARK SMILES IDX 10 13 7 15 8 16 9 17 6 18 1 19 2 20 3 21 102 22 4 23 5 24
REMARK SMILES IDX 90 25 91 26 101 27 92 28 94 29 93 30 95 31 96 32 97 33
REMARK SMILES IDX 100 34 98 36 99 37 19 38 20 39 21 40 22 41 23 43 24 44 25 45
REMARK SMILES IDX 86 46 26 47 85 48 27 49 28 50 29 51 79 52 30 53 84 54 78 55
REMARK SMILES IDX 80 56 31 57 83 58 77 59 76 60 32 62 64 63 44 64 63 65 45 66
REMARK SMILES IDX 48 67 62 68 81 69 46 70 47 71 61 73 82 74 49 75 33 76 34 77
REMARK SMILES IDX 42 78 35 79 36 80 40 81 43 82 37 83 38 84 41 85 39 86 65 87
REMARK SMILES IDX 66 88 74 89 67 90 68 91 72 92 75 93 69 94 70 95 73 96 71 97
REMARK SMILES IDX 50 98 51 99 59 100 52 101 53 102 57 103 60 104 54 105 55 106
REMARK SMILES IDX 58 107 56 108
REMARK H PARENT 16 6 10 14 96 35 21 42 80 61 48 72
REMARK Flexibility Score: inf
ROOT
ATOM      1  C   UNL A   1      36.656  21.463  25.630  1.00  0.00     0.023 C 
ENDROOT
BRANCH   1   2
ATOM      2  C   UNL A   1      35.212  21.065  25.290  1.00  0.00     0.116 C 
BRANCH   2   3
ATOM      3  N   UNL A   1      34.330  21.184  26.439  1.00  0.00    -0.352 N 
ATOM      4  C   UNL A   1      33.396  22.115  26.820  1.00  0.00     0.251 C 
ATOM      5  O   UNL A   1      32.780  21.897  27.863  1.00  0.00    -0.269 OA
ATOM      6  H   UNL A   1      34.421  20.441  27.078  1.00  0.00     0.163 HD
BRANCH   4   7
ATOM      7  C   UNL A   1      33.042  23.320  26.017  1.00  0.00     0.042 A 
ATOM      8  C   UNL A   1      32.946  25.708  25.639  1.00  0.00     0.073 A 
ATOM      9  C   UNL A   1      33.054  24.622  26.506  1.00  0.00     0.042 A 
ATOM     10  C   UNL A   1      32.640  25.538  24.277  1.00  0.00     0.061 A 
ATOM     11  C   UNL A   1      32.507  24.224  23.814  1.00  0.00     0.029 A 
ATOM     12  C   UNL A   1      32.736  23.131  24.660  1.00  0.00     0.016 A 
BRANCH   8  13
ATOM     13  N   UNL A   1      33.238  27.003  26.163  1.00  0.00    -0.277 N 
ATOM     14  H   UNL A   1      34.153  27.363  26.101  1.00  0.00     0.180 HD
BRANCH  13  15
ATOM     15  S   UNL A   1      32.008  27.928  26.894  1.00  0.00     0.261 S 
ATOM     16  O   UNL A   1      32.013  27.504  28.281  1.00  0.00    -0.201 OA
ATOM     17  O   UNL A   1      30.820  27.746  26.088  1.00  0.00    -0.201 OA
BRANCH  15  18
ATOM     18  C   UNL A   1      32.354  29.683  26.903  1.00  0.00     0.088 A 
ATOM     19  C   UNL A   1      34.793  32.290  28.264  1.00  0.00     0.044 C 
ATOM     20  C   UNL A   1      33.640  31.653  27.545  1.00  0.00    -0.050 A 
ATOM     21  C   UNL A   1      32.608  32.469  27.088  1.00  0.00     0.003 A 
ATOM     22  C   UNL A   1      33.539  30.258  27.378  1.00  0.00     0.025 A 
ATOM     23  C   UNL A   1      31.482  31.898  26.514  1.00  0.00     0.002 A 
ATOM     24  C   UNL A   1      31.337  30.518  26.435  1.00  0.00     0.022 A 
ENDBRANCH  15  18
ENDBRANCH  13  15
ENDBRANCH   8  13
BRANCH  10  25
ATOM     25  N   UNL A   1      32.465  26.585  23.393  1.00  0.00    -0.369 N 
ATOM     26  C   UNL A   1      33.562  27.537  23.246  1.00  0.00     0.116 C 
ATOM     27  C   UNL A   1      31.406  26.603  22.385  1.00  0.00     0.126 C 
ATOM     28  C   UNL A   1      32.990  28.948  23.146  1.00  0.00     0.022 C 
ATOM     29  C   UNL A   1      30.779  28.003  22.286  1.00  0.00     0.064 C 
ATOM     30  C   UNL A   1      31.906  29.030  22.072  1.00  0.00     0.013 C 
BRANCH  29  31
ATOM     31  C   UNL A   1      29.865  28.234  23.518  1.00  0.00     0.267 C 
BRANCH  31  32
ATOM     32  N   UNL A   1      28.803  29.241  23.470  1.00  0.00    -0.335 N 
ATOM     33  C   UNL A   1      27.836  29.091  22.386  1.00  0.00     0.262 C 
ATOM     34  C   UNL A   1      29.239  30.634  23.500  1.00  0.00     0.262 C 
ATOM     35  H   UNL A   1      28.340  29.031  24.354  1.00  0.00     0.348 HD
ATOM     36  C   UNL A   1      28.234  30.128  21.354  1.00  0.00     0.067 C 
ATOM     37  C   UNL A   1      28.797  31.266  22.185  1.00  0.00     0.067 C 
ENDBRANCH  31  32
ENDBRANCH  29  31
ENDBRANCH  10  25
ENDBRANCH   4   7
ENDBRANCH   2   3
ENDBRANCH   1   2
BRANCH   1  38
ATOM     38  C   UNL A   1      36.845  22.969  25.811  1.00  0.00     0.023 C 
BRANCH  38  39
ATOM     39  C   UNL A   1      38.229  23.446  25.399  1.00  0.00     0.116 C 
BRANCH  39  40
ATOM     40  N   UNL A   1      39.298  23.015  26.288  1.00  0.00    -0.352 N 
ATOM     41  C   UNL A   1      40.056  23.752  27.189  1.00  0.00     0.251 C 
ATOM     42  H   UNL A   1      39.517  22.057  26.243  1.00  0.00     0.163 HD
ATOM     43  O   UNL A   1      40.974  23.234  27.783  1.00  0.00    -0.269 OA
BRANCH  41  44
ATOM     44  C   UNL A   1      39.634  25.138  27.526  1.00  0.00     0.039 A 
ATOM     45  C   UNL A   1      40.053  26.166  26.671  1.00  0.00     0.014 A 
ATOM     46  C   UNL A   1      39.042  25.441  28.747  1.00  0.00     0.014 A 
ATOM     47  C   UNL A   1      40.122  27.470  27.154  1.00  0.00     0.010 A 
ATOM     48  C   UNL A   1      39.211  26.706  29.267  1.00  0.00     0.010 A 
ATOM     49  C   UNL A   1      39.819  27.699  28.493  1.00  0.00    -0.014 A 
BRANCH  49  50
ATOM     50  C   UNL A   1      40.237  28.891  29.217  1.00  0.00     0.031 A 
ATOM     51  C   UNL A   1      39.269  29.947  29.554  1.00  0.00     0.074 A 
ATOM     52  C   UNL A   1      41.493  28.938  29.707  1.00  0.00     0.049 A 
ATOM     53  N   UNL A   1      39.593  31.125  29.967  1.00  0.00    -0.248 NA
ATOM     54  C   UNL A   1      37.833  29.775  29.391  1.00  0.00     0.031 C 
ATOM     55  C   UNL A   1      42.015  29.834  30.734  1.00  0.00     0.029 A 
ATOM     56  N   UNL A   1      42.624  28.285  29.198  1.00  0.00    -0.354 N 
ATOM     57  C   UNL A   1      38.450  31.754  30.403  1.00  0.00     0.074 A 
ATOM     58  C   UNL A   1      37.379  30.912  29.924  1.00  0.00     0.031 C 
ATOM     59  C   UNL A   1      43.347  29.909  30.606  1.00  0.00     0.029 A 
ATOM     60  C   UNL A   1      43.707  29.160  29.414  1.00  0.00     0.049 A 
ATOM     61  H   UNL A   1      42.653  27.396  28.775  1.00  0.00     0.167 HD
ATOM     62  C   UNL A   1      38.582  32.831  31.233  1.00  0.00     0.037 A 
ATOM     63  C   UNL A   1      44.446  29.653  28.382  1.00  0.00     0.037 A 
ATOM     64  C   UNL A   1      39.990  33.255  31.306  1.00  0.00     0.049 A 
ATOM     65  C   UNL A   1      44.402  31.158  28.339  1.00  0.00     0.074 A 
ATOM     66  C   UNL A   1      40.980  33.098  32.265  1.00  0.00     0.029 A 
ATOM     67  N   UNL A   1      40.642  33.678  30.145  1.00  0.00    -0.354 N 
ATOM     68  N   UNL A   1      43.428  31.860  28.852  1.00  0.00    -0.248 NA
ATOM     69  C   UNL A   1      45.459  31.987  27.773  1.00  0.00     0.031 C 
ATOM     70  C   UNL A   1      42.233  33.368  31.655  1.00  0.00     0.029 A 
ATOM     71  C   UNL A   1      42.011  33.716  30.333  1.00  0.00     0.049 A 
ATOM     72  H   UNL A   1      40.187  33.917  29.305  1.00  0.00     0.167 HD
ATOM     73  C   UNL A   1      43.728  33.189  28.754  1.00  0.00     0.074 A 
ATOM     74  C   UNL A   1      44.999  33.220  28.053  1.00  0.00     0.031 C 
ATOM     75  C   UNL A   1      42.918  34.156  29.278  1.00  0.00     0.037 A 
BRANCH  62  76
ATOM     76  C   UNL A   1      37.505  33.314  32.201  1.00  0.00     0.064 A 
ATOM     77  C   UNL A   1      36.407  34.078  31.738  1.00  0.00     0.173 A 
ATOM     78  C   UNL A   1      37.526  33.145  33.600  1.00  0.00     0.173 A 
ATOM     79  F   UNL A   1      36.177  34.254  30.431  1.00  0.00    -0.203 F 
ATOM     80  C   UNL A   1      35.493  34.699  32.601  1.00  0.00     0.198 A 
ATOM     81  C   UNL A   1      36.637  33.795  34.466  1.00  0.00     0.198 A 
ATOM     82  F   UNL A   1      38.361  32.296  34.200  1.00  0.00    -0.203 F 
ATOM     83  F   UNL A   1      34.486  35.425  32.094  1.00  0.00    -0.200 F 
ATOM     84  C   UNL A   1      35.627  34.583  33.967  1.00  0.00     0.200 A 
ATOM     85  F   UNL A   1      36.774  33.640  35.791  1.00  0.00    -0.200 F 
ATOM     86  F   UNL A   1      34.774  35.200  34.796  1.00  0.00    -0.200 F 
ENDBRANCH  62  76
BRANCH  63  87
ATOM     87  C   UNL A   1      44.527  28.717  27.232  1.00  0.00     0.064 A 
ATOM     88  C   UNL A   1      45.360  27.588  27.376  1.00  0.00     0.173 A 
ATOM     89  C   UNL A   1      43.531  28.662  26.250  1.00  0.00     0.173 A 
ATOM     90  F   UNL A   1      46.324  27.588  28.311  1.00  0.00    -0.203 F 
ATOM     91  C   UNL A   1      45.118  26.411  26.671  1.00  0.00     0.198 A 
ATOM     92  C   UNL A   1      43.304  27.485  25.531  1.00  0.00     0.198 A 
ATOM     93  F   UNL A   1      42.691  29.693  26.080  1.00  0.00    -0.203 F 
ATOM     94  F   UNL A   1      45.842  25.313  26.932  1.00  0.00    -0.200 F 
ATOM     95  C   UNL A   1      44.071  26.351  25.770  1.00  0.00     0.200 A 
ATOM     96  F   UNL A   1      42.270  27.413  24.681  1.00  0.00    -0.200 F 
ATOM     97  F   UNL A   1      43.767  25.192  25.169  1.00  0.00    -0.200 F 
ENDBRANCH  63  87
BRANCH  75  98
ATOM     98  C   UNL A   1      42.991  35.624  28.939  1.00  0.00     0.064 A 
ATOM     99  C   UNL A   1      42.253  36.219  27.901  1.00  0.00     0.173 A 
ATOM    100  C   UNL A   1      43.692  36.524  29.778  1.00  0.00     0.173 A 
ATOM    101  F   UNL A   1      41.448  35.495  27.112  1.00  0.00    -0.203 F 
ATOM    102  C   UNL A   1      42.267  37.597  27.677  1.00  0.00     0.198 A 
ATOM    103  C   UNL A   1      43.655  37.904  29.589  1.00  0.00     0.198 A 
ATOM    104  F   UNL A   1      44.408  36.095  30.828  1.00  0.00    -0.203 F 
ATOM    105  F   UNL A   1      41.577  38.108  26.648  1.00  0.00    -0.200 F 
ATOM    106  C   UNL A   1      42.955  38.441  28.528  1.00  0.00     0.200 A 
ATOM    107  F   UNL A   1      44.280  38.712  30.456  1.00  0.00    -0.200 F 
ATOM    108  F   UNL A   1      42.921  39.766  28.342  1.00  0.00    -0.200 F 
ENDBRANCH  75  98
ENDBRANCH  49  50
ENDBRANCH  41  44
ENDBRANCH  39  40
ENDBRANCH  38  39
ENDBRANCH   1  38
TORSDOF 17
ENDMDL
