MODEL 1
REMARK VINA RESULT:     -15.7      0.000      0.000
REMARK SMILES Cc1cc(/C=C2/C(=O)NC(=S)[NH+]=C2NCCCCNC(=O)c2ccc(-c3c4nc(c(-c5c(F)c(F)c(F)c(F)c5F)c5ccc([nH]5)c(-c5c(F)c(F)c(F)c(F)c5F)c5nc(c(-c6c(F)c(F)c(F)c(F)c6F)c6ccc3[nH]6)C=C5)C=C4)cc2)c(C)n1-c1cccc(C(=O)[O-])c1
REMARK SMILES IDX 16 1 15 2 14 3 5 4 6 5 7 6 13 7 8 8 9 9 12 10 10 11 11 15
REMARK SMILES IDX 4 16 1 17 2 18 3 19 87 20 85 21 86 22 88 23 89 24 96 25
REMARK SMILES IDX 90 26 92 27 91 28 93 29 94 30 95 31 17 32 18 33 19 34 20 35
REMARK SMILES IDX 21 37 22 38 23 39 84 40 24 41 83 42 25 43 26 44 27 45 77 46
REMARK SMILES IDX 28 47 82 48 76 49 78 50 29 51 81 52 75 53 74 54 30 56 62 57
REMARK SMILES IDX 42 58 61 59 43 60 46 61 60 62 79 63 44 64 45 65 59 67 80 68
REMARK SMILES IDX 47 69 31 70 32 71 40 72 33 73 34 74 38 75 41 76 35 77 36 78
REMARK SMILES IDX 39 79 37 80 63 81 64 82 72 83 65 84 66 85 70 86 73 87 67 88
REMARK SMILES IDX 68 89 71 90 69 91 48 92 49 93 57 94 50 95 51 96 55 97 58 98
REMARK SMILES IDX 52 99 53 100 56 101 54 102
REMARK H PARENT 9 12 12 13 14 14 19 36 78 55 46 66
REMARK Flexibility Score: inf
ROOT
ATOM      1  C   UNL A   1      33.309  28.508  26.908  1.00  0.00     0.039 C 
ENDROOT
BRANCH   1   2
ATOM      2  C   UNL A   1      32.299  27.382  26.619  1.00  0.00     0.194 C 
BRANCH   2   3
ATOM      3  N   UNL A   1      31.128  27.567  25.778  1.00  0.00    -0.305 N 
ATOM      4  C   UNL A   1      32.909  26.085  23.522  1.00  0.00     0.032 C 
ATOM      5  C   UNL A   1      32.322  27.303  23.496  1.00  0.00     0.128 C 
ATOM      6  C   UNL A   1      32.704  28.156  22.344  1.00  0.00     0.319 C 
ATOM      7  C   UNL A   1      31.278  27.888  24.423  1.00  0.00     0.234 C 
ATOM      8  O   UNL A   1      33.748  28.035  21.713  1.00  0.00    -0.250 OA
ATOM      9  N   UNL A   1      31.765  29.084  22.013  1.00  0.00    -0.229 N 
ATOM     10  N   UNL A   1      30.469  28.819  23.978  1.00  0.00    -0.236 N 
ATOM     11  C   UNL A   1      30.622  29.350  22.719  1.00  0.00     0.295 C 
ATOM     12  H   UNL A   1      31.920  29.610  21.195  1.00  0.00     0.268 HD
ATOM     13  H   UNL A   1      29.741  29.144  24.555  1.00  0.00     0.268 HD
ATOM     14  H   UNL A   1      30.228  27.467  26.162  1.00  0.00     0.256 HD
ATOM     15  S   UNL A   1      29.528  30.411  22.013  1.00  0.00    -0.005 S 
BRANCH   4  16
ATOM     16  C   UNL A   1      32.694  25.004  24.434  1.00  0.00    -0.003 A 
ATOM     17  C   UNL A   1      30.594  22.577  26.276  1.00  0.00     0.065 C 
ATOM     18  C   UNL A   1      31.657  23.375  25.600  1.00  0.00     0.020 A 
ATOM     19  C   UNL A   1      31.452  24.563  24.913  1.00  0.00     0.031 A 
ATOM     20  N   UNL A   1      33.027  23.079  25.552  1.00  0.00    -0.318 N 
ATOM     21  C   UNL A   1      33.667  24.218  25.020  1.00  0.00     0.027 A 
ATOM     22  C   UNL A   1      35.138  24.452  24.940  1.00  0.00     0.065 C 
BRANCH  20  23
ATOM     23  C   UNL A   1      33.672  21.786  25.694  1.00  0.00     0.046 A 
ATOM     24  C   UNL A   1      35.472  21.789  25.962  1.00  0.00     0.026 A 
ATOM     25  C   UNL A   1      32.895  20.361  24.901  1.00  0.00     0.036 A 
ATOM     26  C   UNL A   1      36.489  20.409  25.338  1.00  0.00     0.003 A 
ATOM     27  C   UNL A   1      33.890  18.922  24.427  1.00  0.00    -0.001 A 
ATOM     28  C   UNL A   1      35.676  18.936  24.626  1.00  0.00     0.010 A 
BRANCH  27  29
ATOM     29  C   UNL A   1      33.284  17.738  23.777  1.00  0.00     0.072 C 
ATOM     30  O   UNL A   1      33.057  17.620  22.589  1.00  0.00    -0.545 OA
ATOM     31  O   UNL A   1      32.899  16.810  24.671  1.00  0.00    -0.545 OA
ENDBRANCH  27  29
ENDBRANCH  20  23
ENDBRANCH   4  16
ENDBRANCH   2   3
ENDBRANCH   1   2
BRANCH   1  32
ATOM     32  C   UNL A   1      33.354  29.962  26.398  1.00  0.00     0.024 C 
BRANCH  32  33
ATOM     33  C   UNL A   1      33.332  31.258  27.459  1.00  0.00     0.116 C 
BRANCH  33  34
ATOM     34  N   UNL A   1      34.720  32.497  28.456  1.00  0.00    -0.352 N 
ATOM     35  C   UNL A   1      36.178  32.591  29.032  1.00  0.00     0.251 C 
ATOM     36  H   UNL A   1      34.277  33.359  28.628  1.00  0.00     0.163 HD
ATOM     37  O   UNL A   1      36.475  33.710  29.477  1.00  0.00    -0.269 OA
BRANCH  35  38
ATOM     38  C   UNL A   1      37.294  31.424  29.143  1.00  0.00     0.039 A 
ATOM     39  C   UNL A   1      36.964  30.147  28.723  1.00  0.00     0.014 A 
ATOM     40  C   UNL A   1      38.676  31.557  29.440  1.00  0.00     0.014 A 
ATOM     41  C   UNL A   1      37.992  29.230  28.260  1.00  0.00     0.010 A 
ATOM     42  C   UNL A   1      39.715  30.489  29.165  1.00  0.00     0.010 A 
ATOM     43  C   UNL A   1      39.434  29.284  28.476  1.00  0.00    -0.014 A 
BRANCH  43  44
ATOM     44  C   UNL A   1      40.268  27.750  28.390  1.00  0.00     0.031 A 
ATOM     45  C   UNL A   1      40.959  27.855  29.706  1.00  0.00     0.074 A 
ATOM     46  C   UNL A   1      40.708  26.603  27.647  1.00  0.00     0.049 A 
ATOM     47  N   UNL A   1      41.669  28.938  29.829  1.00  0.00    -0.248 NA
ATOM     48  C   UNL A   1      40.557  27.260  30.980  1.00  0.00     0.031 C 
ATOM     49  C   UNL A   1      40.495  26.262  26.219  1.00  0.00     0.029 A 
ATOM     50  N   UNL A   1      41.520  25.417  27.991  1.00  0.00    -0.354 N 
ATOM     51  C   UNL A   1      42.039  29.070  31.131  1.00  0.00     0.074 A 
ATOM     52  C   UNL A   1      41.172  28.112  31.825  1.00  0.00     0.031 C 
ATOM     53  C   UNL A   1      40.958  25.012  25.873  1.00  0.00     0.029 A 
ATOM     54  C   UNL A   1      41.633  24.327  26.987  1.00  0.00     0.049 A 
ATOM     55  H   UNL A   1      41.976  25.352  28.861  1.00  0.00     0.167 HD
ATOM     56  C   UNL A   1      43.384  29.284  31.209  1.00  0.00     0.037 A 
ATOM     57  C   UNL A   1      42.299  23.061  26.995  1.00  0.00     0.037 A 
ATOM     58  C   UNL A   1      44.058  28.013  31.271  1.00  0.00     0.049 A 
ATOM     59  C   UNL A   1      43.431  23.271  27.891  1.00  0.00     0.074 A 
ATOM     60  C   UNL A   1      43.750  26.854  31.965  1.00  0.00     0.029 A 
ATOM     61  N   UNL A   1      44.789  27.634  30.171  1.00  0.00    -0.354 N 
ATOM     62  N   UNL A   1      44.497  23.895  27.495  1.00  0.00    -0.248 NA
ATOM     63  C   UNL A   1      43.466  22.727  29.240  1.00  0.00     0.031 C 
ATOM     64  C   UNL A   1      43.773  25.860  30.970  1.00  0.00     0.029 A 
ATOM     65  C   UNL A   1      44.609  26.291  29.952  1.00  0.00     0.049 A 
ATOM     66  H   UNL A   1      45.351  28.229  29.625  1.00  0.00     0.167 HD
ATOM     67  C   UNL A   1      44.989  24.348  28.670  1.00  0.00     0.074 A 
ATOM     68  C   UNL A   1      44.528  23.404  29.680  1.00  0.00     0.031 C 
ATOM     69  C   UNL A   1      45.106  25.694  28.750  1.00  0.00     0.037 A 
BRANCH  56  70
ATOM     70  C   UNL A   1      43.797  30.446  30.304  1.00  0.00     0.064 A 
ATOM     71  C   UNL A   1      43.935  31.713  30.873  1.00  0.00     0.173 A 
ATOM     72  C   UNL A   1      43.848  30.379  28.885  1.00  0.00     0.173 A 
ATOM     73  F   UNL A   1      43.954  31.848  32.207  1.00  0.00    -0.203 F 
ATOM     74  C   UNL A   1      44.050  32.854  30.074  1.00  0.00     0.198 A 
ATOM     75  C   UNL A   1      43.861  31.524  28.094  1.00  0.00     0.198 A 
ATOM     76  F   UNL A   1      43.878  29.198  28.242  1.00  0.00    -0.203 F 
ATOM     77  F   UNL A   1      44.228  34.051  30.648  1.00  0.00    -0.200 F 
ATOM     78  C   UNL A   1      43.968  32.764  28.691  1.00  0.00     0.200 A 
ATOM     79  F   UNL A   1      43.770  31.419  26.760  1.00  0.00    -0.200 F 
ATOM     80  F   UNL A   1      44.019  33.868  27.933  1.00  0.00    -0.200 F 
ENDBRANCH  56  70
BRANCH  57  81
ATOM     81  C   UNL A   1      42.576  21.592  26.354  1.00  0.00     0.064 A 
ATOM     82  C   UNL A   1      43.609  21.357  25.350  1.00  0.00     0.173 A 
ATOM     83  C   UNL A   1      42.237  20.405  27.025  1.00  0.00     0.173 A 
ATOM     84  F   UNL A   1      44.062  22.343  24.565  1.00  0.00    -0.203 F 
ATOM     85  C   UNL A   1      44.285  20.126  25.145  1.00  0.00     0.198 A 
ATOM     86  C   UNL A   1      42.901  19.155  26.793  1.00  0.00     0.198 A 
ATOM     87  F   UNL A   1      41.317  20.435  27.996  1.00  0.00    -0.203 F 
ATOM     88  F   UNL A   1      45.314  20.046  24.282  1.00  0.00    -0.200 F 
ATOM     89  C   UNL A   1      43.943  19.026  25.887  1.00  0.00     0.200 A 
ATOM     90  F   UNL A   1      42.571  18.078  27.523  1.00  0.00    -0.200 F 
ATOM     91  F   UNL A   1      44.626  17.875  25.759  1.00  0.00    -0.200 F 
ENDBRANCH  57  81
BRANCH  69  92
ATOM     92  C   UNL A   1      45.622  26.431  27.529  1.00  0.00     0.064 A 
ATOM     93  C   UNL A   1      44.861  26.916  26.439  1.00  0.00     0.173 A 
ATOM     94  C   UNL A   1      47.010  26.588  27.423  1.00  0.00     0.173 A 
ATOM     95  F   UNL A   1      43.522  26.928  26.452  1.00  0.00    -0.203 F 
ATOM     96  C   UNL A   1      45.466  27.436  25.289  1.00  0.00     0.198 A 
ATOM     97  C   UNL A   1      47.609  27.156  26.300  1.00  0.00     0.198 A 
ATOM     98  F   UNL A   1      47.804  26.206  28.434  1.00  0.00    -0.203 F 
ATOM     99  F   UNL A   1      44.713  27.830  24.251  1.00  0.00    -0.200 F 
ATOM    100  C   UNL A   1      46.840  27.552  25.221  1.00  0.00     0.200 A 
ATOM    101  F   UNL A   1      48.937  27.322  26.275  1.00  0.00    -0.200 F 
ATOM    102  F   UNL A   1      47.424  28.061  24.128  1.00  0.00    -0.200 F 
ENDBRANCH  69  92
ENDBRANCH  43  44
ENDBRANCH  35  38
ENDBRANCH  33  34
ENDBRANCH  32  33
ENDBRANCH   1  32
TORSDOF 13
ENDMDL
MODEL 2
REMARK VINA RESULT:     -15.7      5.948     11.999
REMARK SMILES Cc1cc(/C=C2/C(=O)NC(=S)[NH+]=C2NCCCCNC(=O)c2ccc(-c3c4nc(c(-c5c(F)c(F)c(F)c(F)c5F)c5ccc([nH]5)c(-c5c(F)c(F)c(F)c(F)c5F)c5nc(c(-c6c(F)c(F)c(F)c(F)c6F)c6ccc3[nH]6)C=C5)C=C4)cc2)c(C)n1-c1cccc(C(=O)[O-])c1
REMARK SMILES IDX 16 1 15 2 14 3 5 4 6 5 7 6 13 7 8 8 9 9 12 10 10 11 11 15
REMARK SMILES IDX 4 16 1 17 2 18 3 19 87 20 85 21 86 22 88 23 89 24 96 25
REMARK SMILES IDX 90 26 92 27 91 28 93 29 94 30 95 31 17 32 18 33 19 34 20 35
REMARK SMILES IDX 21 37 22 38 23 39 84 40 24 41 83 42 25 43 26 44 27 45 77 46
REMARK SMILES IDX 28 47 82 48 76 49 78 50 29 51 81 52 75 53 74 54 30 56 62 57
REMARK SMILES IDX 42 58 61 59 43 60 46 61 60 62 79 63 44 64 45 65 59 67 80 68
REMARK SMILES IDX 47 69 31 70 32 71 40 72 33 73 34 74 38 75 41 76 35 77 36 78
REMARK SMILES IDX 39 79 37 80 63 81 64 82 72 83 65 84 66 85 70 86 73 87 67 88
REMARK SMILES IDX 68 89 71 90 69 91 48 92 49 93 57 94 50 95 51 96 55 97 58 98
REMARK SMILES IDX 52 99 53 100 56 101 54 102
REMARK H PARENT 9 12 12 13 14 14 19 36 78 55 46 66
REMARK Flexibility Score: inf
ROOT
ATOM      1  C   UNL A   1      47.371  29.323  26.218  1.00  0.00     0.039 C 
ENDROOT
BRANCH   1   2
ATOM      2  C   UNL A   1      46.345  28.317  25.665  1.00  0.00     0.194 C 
BRANCH   2   3
ATOM      3  N   UNL A   1      46.485  27.675  24.368  1.00  0.00    -0.305 N 
ATOM      4  C   UNL A   1      48.624  25.787  25.889  1.00  0.00     0.032 C 
ATOM      5  C   UNL A   1      48.786  26.570  24.799  1.00  0.00     0.128 C 
ATOM      6  C   UNL A   1      50.190  26.732  24.348  1.00  0.00     0.319 C 
ATOM      7  C   UNL A   1      47.742  27.239  23.931  1.00  0.00     0.234 C 
ATOM      8  O   UNL A   1      51.168  26.591  25.074  1.00  0.00    -0.250 OA
ATOM      9  N   UNL A   1      50.312  27.021  23.023  1.00  0.00    -0.229 N 
ATOM     10  N   UNL A   1      48.019  27.506  22.677  1.00  0.00    -0.236 N 
ATOM     11  C   UNL A   1      49.277  27.289  22.167  1.00  0.00     0.295 C 
ATOM     12  H   UNL A   1      51.222  27.038  22.647  1.00  0.00     0.268 HD
ATOM     13  H   UNL A   1      47.316  27.868  22.092  1.00  0.00     0.268 HD
ATOM     14  H   UNL A   1      45.695  27.549  23.796  1.00  0.00     0.256 HD
ATOM     15  S   UNL A   1      49.663  27.435  20.539  1.00  0.00    -0.005 S 
BRANCH   4  16
ATOM     16  C   UNL A   1      47.412  25.364  26.519  1.00  0.00    -0.003 A 
ATOM     17  C   UNL A   1      44.900  25.378  29.236  1.00  0.00     0.065 C 
ATOM     18  C   UNL A   1      45.701  25.251  27.985  1.00  0.00     0.020 A 
ATOM     19  C   UNL A   1      47.016  25.664  27.831  1.00  0.00     0.031 A 
ATOM     20  N   UNL A   1      45.278  24.692  26.770  1.00  0.00    -0.318 N 
ATOM     21  C   UNL A   1      46.428  24.573  25.961  1.00  0.00     0.027 A 
ATOM     22  C   UNL A   1      46.518  23.872  24.647  1.00  0.00     0.065 C 
BRANCH  20  23
ATOM     23  C   UNL A   1      43.923  24.549  26.270  1.00  0.00     0.046 A 
ATOM     24  C   UNL A   1      42.990  26.083  25.972  1.00  0.00     0.026 A 
ATOM     25  C   UNL A   1      43.031  23.030  26.665  1.00  0.00     0.036 A 
ATOM     26  C   UNL A   1      41.177  26.101  26.177  1.00  0.00     0.003 A 
ATOM     27  C   UNL A   1      41.218  23.017  26.711  1.00  0.00    -0.001 A 
ATOM     28  C   UNL A   1      40.286  24.536  26.482  1.00  0.00     0.010 A 
BRANCH  27  29
ATOM     29  C   UNL A   1      40.458  21.789  27.030  1.00  0.00     0.072 C 
ATOM     30  O   UNL A   1      40.540  21.153  28.062  1.00  0.00    -0.545 OA
ATOM     31  O   UNL A   1      39.714  21.368  25.992  1.00  0.00    -0.545 OA
ENDBRANCH  27  29
ENDBRANCH  20  23
ENDBRANCH   4  16
ENDBRANCH   2   3
ENDBRANCH   1   2
BRANCH   1  32
ATOM     32  C   UNL A   1      47.165  30.585  27.079  1.00  0.00     0.024 C 
BRANCH  32  33
ATOM     33  C   UNL A   1      48.364  31.745  27.225  1.00  0.00     0.116 C 
BRANCH  33  34
ATOM     34  N   UNL A   1      48.508  33.825  27.548  1.00  0.00    -0.352 N 
ATOM     35  C   UNL A   1      47.858  35.064  28.262  1.00  0.00     0.251 C 
ATOM     36  H   UNL A   1      49.298  34.147  27.057  1.00  0.00     0.163 HD
ATOM     37  O   UNL A   1      48.499  36.117  28.133  1.00  0.00    -0.269 OA
BRANCH  35  38
ATOM     38  C   UNL A   1      46.468  35.133  29.089  1.00  0.00     0.039 A 
ATOM     39  C   UNL A   1      45.374  34.432  28.613  1.00  0.00     0.014 A 
ATOM     40  C   UNL A   1      46.245  35.671  30.385  1.00  0.00     0.014 A 
ATOM     41  C   UNL A   1      44.333  33.979  29.519  1.00  0.00     0.010 A 
ATOM     42  C   UNL A   1      45.027  35.373  31.235  1.00  0.00     0.010 A 
ATOM     43  C   UNL A   1      44.032  34.432  30.873  1.00  0.00    -0.014 A 
BRANCH  43  44
ATOM     44  C   UNL A   1      42.382  34.196  31.399  1.00  0.00     0.031 A 
ATOM     45  C   UNL A   1      42.704  33.472  32.660  1.00  0.00     0.074 A 
ATOM     46  C   UNL A   1      40.970  34.213  31.140  1.00  0.00     0.049 A 
ATOM     47  N   UNL A   1      43.450  32.422  32.473  1.00  0.00    -0.248 NA
ATOM     48  C   UNL A   1      42.775  34.017  34.016  1.00  0.00     0.031 C 
ATOM     49  C   UNL A   1      40.240  34.578  29.901  1.00  0.00     0.029 A 
ATOM     50  N   UNL A   1      39.782  33.861  31.946  1.00  0.00    -0.354 N 
ATOM     51  C   UNL A   1      43.900  31.988  33.682  1.00  0.00     0.074 A 
ATOM     52  C   UNL A   1      43.606  33.114  34.573  1.00  0.00     0.031 C 
ATOM     53  C   UNL A   1      38.871  34.596  30.051  1.00  0.00     0.029 A 
ATOM     54  C   UNL A   1      38.439  34.171  31.392  1.00  0.00     0.049 A 
ATOM     55  H   UNL A   1      39.879  33.430  32.826  1.00  0.00     0.167 HD
ATOM     56  C   UNL A   1      43.656  30.652  33.812  1.00  0.00     0.037 A 
ATOM     57  C   UNL A   1      37.113  33.994  31.898  1.00  0.00     0.037 A 
ATOM     58  C   UNL A   1      42.342  30.468  34.371  1.00  0.00     0.049 A 
ATOM     59  C   UNL A   1      37.227  32.834  32.773  1.00  0.00     0.074 A 
ATOM     60  C   UNL A   1      41.684  31.143  35.386  1.00  0.00     0.029 A 
ATOM     61  N   UNL A   1      41.373  29.953  33.544  1.00  0.00    -0.354 N 
ATOM     62  N   UNL A   1      37.268  31.629  32.294  1.00  0.00    -0.248 NA
ATOM     63  C   UNL A   1      37.220  32.951  34.223  1.00  0.00     0.031 C 
ATOM     64  C   UNL A   1      40.457  31.504  34.799  1.00  0.00     0.029 A 
ATOM     65  C   UNL A   1      40.187  30.602  33.781  1.00  0.00     0.049 A 
ATOM     66  H   UNL A   1      41.507  29.234  32.885  1.00  0.00     0.167 HD
ATOM     67  C   UNL A   1      37.911  30.972  33.285  1.00  0.00     0.074 A 
ATOM     68  C   UNL A   1      37.604  31.704  34.507  1.00  0.00     0.031 C 
ATOM     69  C   UNL A   1      39.072  30.385  32.911  1.00  0.00     0.037 A 
BRANCH  56  70
ATOM     70  C   UNL A   1      44.207  29.885  32.609  1.00  0.00     0.064 A 
ATOM     71  C   UNL A   1      45.410  29.192  32.759  1.00  0.00     0.173 A 
ATOM     72  C   UNL A   1      43.697  29.994  31.287  1.00  0.00     0.173 A 
ATOM     73  F   UNL A   1      45.922  29.000  33.982  1.00  0.00    -0.203 F 
ATOM     74  C   UNL A   1      46.098  28.694  31.648  1.00  0.00     0.198 A 
ATOM     75  C   UNL A   1      44.434  29.586  30.178  1.00  0.00     0.198 A 
ATOM     76  F   UNL A   1      42.477  30.505  31.048  1.00  0.00    -0.203 F 
ATOM     77  F   UNL A   1      47.225  27.993  31.826  1.00  0.00    -0.200 F 
ATOM     78  C   UNL A   1      45.635  28.930  30.361  1.00  0.00     0.200 A 
ATOM     79  F   UNL A   1      43.977  29.832  28.941  1.00  0.00    -0.200 F 
ATOM     80  F   UNL A   1      46.330  28.502  29.298  1.00  0.00    -0.200 F 
ENDBRANCH  56  70
BRANCH  57  81
ATOM     81  C   UNL A   1      35.512  34.274  31.828  1.00  0.00     0.064 A 
ATOM     82  C   UNL A   1      34.832  35.169  32.759  1.00  0.00     0.173 A 
ATOM     83  C   UNL A   1      34.773  34.113  30.643  1.00  0.00     0.173 A 
ATOM     84  F   UNL A   1      35.338  35.441  33.969  1.00  0.00    -0.203 F 
ATOM     85  C   UNL A   1      33.641  35.889  32.478  1.00  0.00     0.198 A 
ATOM     86  C   UNL A   1      33.553  34.818  30.376  1.00  0.00     0.198 A 
ATOM     87  F   UNL A   1      35.255  33.338  29.665  1.00  0.00    -0.203 F 
ATOM     88  F   UNL A   1      33.163  36.789  33.357  1.00  0.00    -0.200 F 
ATOM     89  C   UNL A   1      33.012  35.728  31.272  1.00  0.00     0.200 A 
ATOM     90  F   UNL A   1      32.940  34.667  29.192  1.00  0.00    -0.200 F 
ATOM     91  F   UNL A   1      31.928  36.461  30.962  1.00  0.00    -0.200 F 
ENDBRANCH  57  81
BRANCH  69  92
ATOM     92  C   UNL A   1      39.105  29.682  31.568  1.00  0.00     0.064 A 
ATOM     93  C   UNL A   1      39.292  30.275  30.296  1.00  0.00     0.173 A 
ATOM     94  C   UNL A   1      38.851  28.305  31.567  1.00  0.00     0.173 A 
ATOM     95  F   UNL A   1      39.647  31.558  30.153  1.00  0.00    -0.203 F 
ATOM     96  C   UNL A   1      39.140  29.546  29.112  1.00  0.00     0.198 A 
ATOM     97  C   UNL A   1      38.753  27.568  30.388  1.00  0.00     0.198 A 
ATOM     98  F   UNL A   1      38.714  27.651  32.730  1.00  0.00    -0.203 F 
ATOM     99  F   UNL A   1      39.265  30.157  27.924  1.00  0.00    -0.200 F 
ATOM    100  C   UNL A   1      38.868  28.193  29.160  1.00  0.00     0.200 A 
ATOM    101  F   UNL A   1      38.553  26.246  30.452  1.00  0.00    -0.200 F 
ATOM    102  F   UNL A   1      38.734  27.487  28.029  1.00  0.00    -0.200 F 
ENDBRANCH  69  92
ENDBRANCH  43  44
ENDBRANCH  35  38
ENDBRANCH  33  34
ENDBRANCH  32  33
ENDBRANCH   1  32
TORSDOF 13
ENDMDL
MODEL 3
REMARK VINA RESULT:     -15.6      8.778     16.078
REMARK SMILES Cc1cc(/C=C2/C(=O)NC(=S)[NH+]=C2NCCCCNC(=O)c2ccc(-c3c4nc(c(-c5c(F)c(F)c(F)c(F)c5F)c5ccc([nH]5)c(-c5c(F)c(F)c(F)c(F)c5F)c5nc(c(-c6c(F)c(F)c(F)c(F)c6F)c6ccc3[nH]6)C=C5)C=C4)cc2)c(C)n1-c1cccc(C(=O)[O-])c1
REMARK SMILES IDX 16 1 15 2 14 3 5 4 6 5 7 6 13 7 8 8 9 9 12 10 10 11 11 15
REMARK SMILES IDX 4 16 1 17 2 18 3 19 87 20 85 21 86 22 88 23 89 24 96 25
REMARK SMILES IDX 90 26 92 27 91 28 93 29 94 30 95 31 17 32 18 33 19 34 20 35
REMARK SMILES IDX 21 37 22 38 23 39 84 40 24 41 83 42 25 43 26 44 27 45 77 46
REMARK SMILES IDX 28 47 82 48 76 49 78 50 29 51 81 52 75 53 74 54 30 56 62 57
REMARK SMILES IDX 42 58 61 59 43 60 46 61 60 62 79 63 44 64 45 65 59 67 80 68
REMARK SMILES IDX 47 69 31 70 32 71 40 72 33 73 34 74 38 75 41 76 35 77 36 78
REMARK SMILES IDX 39 79 37 80 63 81 64 82 72 83 65 84 66 85 70 86 73 87 67 88
REMARK SMILES IDX 68 89 71 90 69 91 48 92 49 93 57 94 50 95 51 96 55 97 58 98
REMARK SMILES IDX 52 99 53 100 56 101 54 102
REMARK H PARENT 9 12 12 13 14 14 19 36 78 55 46 66
REMARK Flexibility Score: inf
ROOT
ATOM      1  C   UNL A   1      47.051  41.077  24.031  1.00  0.00     0.039 C 
ENDROOT
BRANCH   1   2
ATOM      2  C   UNL A   1      46.292  41.580  22.789  1.00  0.00     0.194 C 
BRANCH   2   3
ATOM      3  N   UNL A   1      46.501  42.898  22.215  1.00  0.00    -0.305 N 
ATOM      4  C   UNL A   1      43.296  43.191  22.522  1.00  0.00     0.032 C 
ATOM      5  C   UNL A   1      44.070  43.296  21.419  1.00  0.00     0.128 C 
ATOM      6  C   UNL A   1      43.326  43.371  20.138  1.00  0.00     0.319 C 
ATOM      7  C   UNL A   1      45.574  43.426  21.307  1.00  0.00     0.234 C 
ATOM      8  O   UNL A   1      42.191  42.938  19.974  1.00  0.00    -0.250 OA
ATOM      9  N   UNL A   1      44.007  44.005  19.144  1.00  0.00    -0.229 N 
ATOM     10  N   UNL A   1      46.095  44.020  20.261  1.00  0.00    -0.236 N 
ATOM     11  C   UNL A   1      45.306  44.430  19.212  1.00  0.00     0.295 C 
ATOM     12  H   UNL A   1      43.522  44.174  18.303  1.00  0.00     0.268 HD
ATOM     13  H   UNL A   1      47.066  44.175  20.226  1.00  0.00     0.268 HD
ATOM     14  H   UNL A   1      47.298  43.421  22.463  1.00  0.00     0.256 HD
ATOM     15  S   UNL A   1      45.868  45.351  17.925  1.00  0.00    -0.005 S 
BRANCH   4  16
ATOM     16  C   UNL A   1      43.688  43.185  23.897  1.00  0.00    -0.003 A 
ATOM     17  C   UNL A   1      44.268  41.577  27.180  1.00  0.00     0.065 C 
ATOM     18  C   UNL A   1      44.205  42.434  25.961  1.00  0.00     0.020 A 
ATOM     19  C   UNL A   1      43.508  42.128  24.802  1.00  0.00     0.031 A 
ATOM     20  N   UNL A   1      44.818  43.682  25.780  1.00  0.00    -0.318 N 
ATOM     21  C   UNL A   1      44.294  44.218  24.584  1.00  0.00     0.027 A 
ATOM     22  C   UNL A   1      44.507  45.600  24.064  1.00  0.00     0.065 C 
BRANCH  20  23
ATOM     23  C   UNL A   1      45.984  44.218  26.459  1.00  0.00     0.046 A 
ATOM     24  C   UNL A   1      45.699  45.574  27.639  1.00  0.00     0.026 A 
ATOM     25  C   UNL A   1      47.582  44.086  25.628  1.00  0.00     0.036 A 
ATOM     26  C   UNL A   1      46.982  46.844  27.895  1.00  0.00     0.003 A 
ATOM     27  C   UNL A   1      48.911  45.260  26.007  1.00  0.00    -0.001 A 
ATOM     28  C   UNL A   1      48.624  46.640  27.121  1.00  0.00     0.010 A 
BRANCH  27  29
ATOM     29  C   UNL A   1      50.232  45.178  25.345  1.00  0.00     0.072 C 
ATOM     30  O   UNL A   1      51.255  44.763  25.853  1.00  0.00    -0.545 OA
ATOM     31  O   UNL A   1      50.217  45.720  24.114  1.00  0.00    -0.545 OA
ENDBRANCH  27  29
ENDBRANCH  20  23
ENDBRANCH   4  16
ENDBRANCH   2   3
ENDBRANCH   1   2
BRANCH   1  32
ATOM     32  C   UNL A   1      46.788  39.854  24.933  1.00  0.00     0.024 C 
BRANCH  32  33
ATOM     33  C   UNL A   1      47.882  38.590  25.026  1.00  0.00     0.116 C 
BRANCH  33  34
ATOM     34  N   UNL A   1      47.846  36.496  25.286  1.00  0.00    -0.352 N 
ATOM     35  C   UNL A   1      47.113  35.300  25.992  1.00  0.00     0.251 C 
ATOM     36  H   UNL A   1      48.581  36.118  24.751  1.00  0.00     0.163 HD
ATOM     37  O   UNL A   1      47.539  34.182  25.668  1.00  0.00    -0.269 OA
BRANCH  35  38
ATOM     38  C   UNL A   1      45.924  35.356  27.090  1.00  0.00     0.039 A 
ATOM     39  C   UNL A   1      44.752  34.666  26.837  1.00  0.00     0.014 A 
ATOM     40  C   UNL A   1      45.977  35.870  28.413  1.00  0.00     0.014 A 
ATOM     41  C   UNL A   1      43.917  34.197  27.931  1.00  0.00     0.010 A 
ATOM     42  C   UNL A   1      44.958  35.558  29.491  1.00  0.00     0.010 A 
ATOM     43  C   UNL A   1      43.905  34.626  29.325  1.00  0.00    -0.014 A 
BRANCH  43  44
ATOM     44  C   UNL A   1      42.398  34.383  30.177  1.00  0.00     0.031 A 
ATOM     45  C   UNL A   1      42.985  33.753  31.391  1.00  0.00     0.074 A 
ATOM     46  C   UNL A   1      40.963  34.346  30.197  1.00  0.00     0.049 A 
ATOM     47  N   UNL A   1      43.719  32.711  31.126  1.00  0.00    -0.248 NA
ATOM     48  C   UNL A   1      43.295  34.388  32.672  1.00  0.00     0.031 C 
ATOM     49  C   UNL A   1      39.994  34.609  29.105  1.00  0.00     0.029 A 
ATOM     50  N   UNL A   1      39.967  34.018  31.239  1.00  0.00    -0.354 N 
ATOM     51  C   UNL A   1      44.411  32.371  32.247  1.00  0.00     0.074 A 
ATOM     52  C   UNL A   1      44.252  33.546  33.110  1.00  0.00     0.031 C 
ATOM     53  C   UNL A   1      38.680  34.603  29.518  1.00  0.00     0.029 A 
ATOM     54  C   UNL A   1      38.531  34.257  30.941  1.00  0.00     0.049 A 
ATOM     55  H   UNL A   1      40.248  33.649  32.108  1.00  0.00     0.167 HD
ATOM     56  C   UNL A   1      44.248  31.040  32.503  1.00  0.00     0.037 A 
ATOM     57  C   UNL A   1      37.335  34.079  31.704  1.00  0.00     0.037 A 
ATOM     58  C   UNL A   1      43.074  30.860  33.317  1.00  0.00     0.049 A 
ATOM     59  C   UNL A   1      37.661  32.983  32.609  1.00  0.00     0.074 A 
ATOM     60  C   UNL A   1      42.599  31.584  34.399  1.00  0.00     0.029 A 
ATOM     61  N   UNL A   1      41.984  30.267  32.727  1.00  0.00    -0.354 N 
ATOM     62  N   UNL A   1      37.654  31.751  32.204  1.00  0.00    -0.248 NA
ATOM     63  C   UNL A   1      37.929  33.195  34.023  1.00  0.00     0.031 C 
ATOM     64  C   UNL A   1      41.269  31.873  34.041  1.00  0.00     0.029 A 
ATOM     65  C   UNL A   1      40.842  30.899  33.152  1.00  0.00     0.049 A 
ATOM     66  H   UNL A   1      42.015  29.510  32.099  1.00  0.00     0.167 HD
ATOM     67  C   UNL A   1      38.501  31.177  33.088  1.00  0.00     0.074 A 
ATOM     68  C   UNL A   1      38.408  31.980  34.300  1.00  0.00     0.031 C 
ATOM     69  C   UNL A   1      39.589  30.597  32.530  1.00  0.00     0.037 A 
BRANCH  56  70
ATOM     70  C   UNL A   1      44.585  30.210  31.264  1.00  0.00     0.064 A 
ATOM     71  C   UNL A   1      45.832  29.585  31.203  1.00  0.00     0.173 A 
ATOM     72  C   UNL A   1      43.809  30.194  30.073  1.00  0.00     0.173 A 
ATOM     73  F   UNL A   1      46.595  29.510  32.302  1.00  0.00    -0.203 F 
ATOM     74  C   UNL A   1      46.306  29.036  30.008  1.00  0.00     0.198 A 
ATOM     75  C   UNL A   1      44.325  29.737  28.863  1.00  0.00     0.198 A 
ATOM     76  F   UNL A   1      42.537  30.631  30.062  1.00  0.00    -0.203 F 
ATOM     77  F   UNL A   1      47.486  28.402  29.991  1.00  0.00    -0.200 F 
ATOM     78  C   UNL A   1      45.575  29.152  28.833  1.00  0.00     0.200 A 
ATOM     79  F   UNL A   1      43.610  29.867  27.736  1.00  0.00    -0.200 F 
ATOM     80  F   UNL A   1      46.062  28.676  27.679  1.00  0.00    -0.200 F 
ENDBRANCH  56  70
BRANCH  57  81
ATOM     81  C   UNL A   1      35.741  34.313  31.932  1.00  0.00     0.064 A 
ATOM     82  C   UNL A   1      35.217  35.131  33.020  1.00  0.00     0.173 A 
ATOM     83  C   UNL A   1      34.810  34.197  30.886  1.00  0.00     0.173 A 
ATOM     84  F   UNL A   1      35.922  35.348  34.138  1.00  0.00    -0.203 F 
ATOM     85  C   UNL A   1      33.981  35.828  32.996  1.00  0.00     0.198 A 
ATOM     86  C   UNL A   1      33.548  34.878  30.879  1.00  0.00     0.198 A 
ATOM     87  F   UNL A   1      35.129  33.495  29.792  1.00  0.00    -0.203 F 
ATOM     88  F   UNL A   1      33.646  36.662  33.999  1.00  0.00    -0.200 F 
ATOM     89  C   UNL A   1      33.154  35.718  31.910  1.00  0.00     0.200 A 
ATOM     90  F   UNL A   1      32.739  34.776  29.813  1.00  0.00    -0.200 F 
ATOM     91  F   UNL A   1      32.017  36.433  31.839  1.00  0.00    -0.200 F 
ENDBRANCH  57  81
BRANCH  69  92
ATOM     92  C   UNL A   1      39.390  29.807  31.251  1.00  0.00     0.064 A 
ATOM     93  C   UNL A   1      39.376  30.311  29.928  1.00  0.00     0.173 A 
ATOM     94  C   UNL A   1      39.114  28.441  31.387  1.00  0.00     0.173 A 
ATOM     95  F   UNL A   1      39.725  31.571  29.642  1.00  0.00    -0.203 F 
ATOM     96  C   UNL A   1      39.018  29.512  28.838  1.00  0.00     0.198 A 
ATOM     97  C   UNL A   1      38.811  27.632  30.293  1.00  0.00     0.198 A 
ATOM     98  F   UNL A   1      39.158  27.868  32.599  1.00  0.00    -0.203 F 
ATOM     99  F   UNL A   1      38.958  30.041  27.606  1.00  0.00    -0.200 F 
ATOM    100  C   UNL A   1      38.734  28.173  29.022  1.00  0.00     0.200 A 
ATOM    101  F   UNL A   1      38.601  26.323  30.479  1.00  0.00    -0.200 F 
ATOM    102  F   UNL A   1      38.404  27.399  27.979  1.00  0.00    -0.200 F 
ENDBRANCH  69  92
ENDBRANCH  43  44
ENDBRANCH  35  38
ENDBRANCH  33  34
ENDBRANCH  32  33
ENDBRANCH   1  32
TORSDOF 13
ENDMDL
