MODEL 1
REMARK VINA RESULT:     -11.9      0.000      0.000
REMARK SMILES CCCC1C[NH+]([C@H](CC(=O)NCCCCNC(=O)c2ccc(-c3c4nc(c(-c5c(F)c(F)c(F)c(F)c5F)c5ccc([nH]5)c(-c5c(F)c(F)c(F)c(F)c5F)c5nc(c(-c6c(F)c(F)c(F)c(F)c6F)c6ccc3[nH]6)C=C5)C=C4)cc2)c2ccccc2)C1
REMARK SMILES IDX 12 1 11 2 9 3 10 4 8 6 7 7 6 8 4 9 5 10 88 11 3 13 2 14 1 15
REMARK SMILES IDX 82 16 83 17 87 18 84 19 86 20 85 21 13 22 14 23 15 24 16 25
REMARK SMILES IDX 17 26 18 28 19 29 20 30 81 31 21 32 80 33 22 34 23 35 24 36
REMARK SMILES IDX 74 37 25 38 79 39 73 40 75 41 26 42 78 43 72 44 71 45 27 47
REMARK SMILES IDX 59 48 39 49 58 50 40 51 43 52 57 53 76 54 41 55 42 56 56 58
REMARK SMILES IDX 77 59 44 60 28 61 29 62 37 63 30 64 31 65 35 66 38 67 32 68
REMARK SMILES IDX 33 69 36 70 34 71 60 72 61 73 69 74 62 75 63 76 67 77 70 78
REMARK SMILES IDX 64 79 65 80 68 81 66 82 45 83 46 84 54 85 47 86 48 87 52 88
REMARK SMILES IDX 55 89 49 90 50 91 53 92 51 93
REMARK H PARENT 11 5 6 12 16 27 75 46 43 57
REMARK Flexibility Score: inf
ROOT
ATOM      1  C   UNL A   1      32.766  29.857  27.296  1.00  0.00     0.116 C 
ENDROOT
BRANCH   1   2
ATOM      2  N   UNL A   1      32.206  28.548  27.573  1.00  0.00    -0.356 N 
ATOM      3  C   UNL A   1      32.233  27.421  26.804  1.00  0.00     0.226 C 
ATOM      4  O   UNL A   1      31.563  26.453  27.172  1.00  0.00    -0.275 OA
ATOM      5  H   UNL A   1      31.740  28.461  28.436  1.00  0.00     0.163 HD
BRANCH   3   6
ATOM      6  C   UNL A   1      33.070  27.346  25.538  1.00  0.00     0.170 C 
BRANCH   6   7
ATOM      7  C   UNL A   1      32.552  26.255  24.563  1.00  0.00     0.224 C 
BRANCH   7   8
ATOM      8  N   UNL A   1      31.814  26.942  23.497  1.00  0.00    -0.327 N 
ATOM      9  C   UNL A   1      30.585  28.518  22.903  1.00  0.00     0.099 C 
ATOM     10  C   UNL A   1      32.077  28.364  23.320  1.00  0.00     0.272 C 
ATOM     11  C   UNL A   1      30.372  27.143  23.612  1.00  0.00     0.272 C 
ATOM     12  H   UNL A   1      32.127  26.276  22.792  1.00  0.00     0.348 HD
BRANCH   9  13
ATOM     13  C   UNL A   1      29.800  29.714  23.423  1.00  0.00     0.015 C 
BRANCH  13  14
ATOM     14  C   UNL A   1      28.762  30.200  22.410  1.00  0.00    -0.003 C 
ATOM     15  C   UNL A   1      27.811  31.252  22.958  1.00  0.00     0.004 C 
ENDBRANCH  13  14
ENDBRANCH   9  13
ENDBRANCH   7   8
BRANCH   7  16
ATOM     16  C   UNL A   1      33.612  25.186  24.246  1.00  0.00     0.010 A 
ATOM     17  C   UNL A   1      33.593  24.313  23.146  1.00  0.00     0.010 A 
ATOM     18  C   UNL A   1      34.662  25.004  25.171  1.00  0.00     0.010 A 
ATOM     19  C   UNL A   1      34.576  23.336  22.956  1.00  0.00     0.001 A 
ATOM     20  C   UNL A   1      35.651  24.032  24.982  1.00  0.00     0.001 A 
ATOM     21  C   UNL A   1      35.610  23.199  23.871  1.00  0.00     0.000 A 
ENDBRANCH   7  16
ENDBRANCH   6   7
ENDBRANCH   3   6
ENDBRANCH   1   2
BRANCH   1  22
ATOM     22  C   UNL A   1      31.897  30.632  26.302  1.00  0.00     0.023 C 
BRANCH  22  23
ATOM     23  C   UNL A   1      31.534  32.053  26.714  1.00  0.00     0.023 C 
BRANCH  23  24
ATOM     24  C   UNL A   1      32.666  32.826  27.374  1.00  0.00     0.116 C 
BRANCH  24  25
ATOM     25  N   UNL A   1      32.332  34.200  27.723  1.00  0.00    -0.352 N 
ATOM     26  C   UNL A   1      32.965  35.028  28.621  1.00  0.00     0.251 C 
ATOM     27  H   UNL A   1      31.554  34.584  27.258  1.00  0.00     0.163 HD
ATOM     28  O   UNL A   1      32.524  36.148  28.860  1.00  0.00    -0.269 OA
BRANCH  26  29
ATOM     29  C   UNL A   1      34.155  34.528  29.342  1.00  0.00     0.039 A 
ATOM     30  C   UNL A   1      33.973  33.849  30.548  1.00  0.00     0.014 A 
ATOM     31  C   UNL A   1      35.432  34.666  28.793  1.00  0.00     0.014 A 
ATOM     32  C   UNL A   1      35.067  33.236  31.161  1.00  0.00     0.010 A 
ATOM     33  C   UNL A   1      36.500  33.975  29.354  1.00  0.00     0.010 A 
ATOM     34  C   UNL A   1      36.329  33.256  30.544  1.00  0.00    -0.014 A 
BRANCH  34  35
ATOM     35  C   UNL A   1      37.478  32.524  31.133  1.00  0.00     0.031 A 
ATOM     36  C   UNL A   1      37.982  32.883  32.503  1.00  0.00     0.074 A 
ATOM     37  C   UNL A   1      38.104  31.578  30.408  1.00  0.00     0.049 A 
ATOM     38  N   UNL A   1      38.975  32.366  33.180  1.00  0.00    -0.248 NA
ATOM     39  C   UNL A   1      37.305  33.994  33.190  1.00  0.00     0.031 C 
ATOM     40  C   UNL A   1      37.762  31.199  29.035  1.00  0.00     0.029 A 
ATOM     41  N   UNL A   1      39.162  30.763  30.722  1.00  0.00    -0.354 N 
ATOM     42  C   UNL A   1      39.049  33.095  34.359  1.00  0.00     0.074 A 
ATOM     43  C   UNL A   1      38.045  34.133  34.279  1.00  0.00     0.031 C 
ATOM     44  C   UNL A   1      38.568  30.201  28.639  1.00  0.00     0.029 A 
ATOM     45  C   UNL A   1      39.499  29.886  29.719  1.00  0.00     0.049 A 
ATOM     46  H   UNL A   1      39.635  30.803  31.584  1.00  0.00     0.167 HD
ATOM     47  C   UNL A   1      39.857  32.898  35.427  1.00  0.00     0.037 A 
ATOM     48  C   UNL A   1      40.444  28.928  29.682  1.00  0.00     0.037 A 
ATOM     49  C   UNL A   1      40.831  31.842  35.516  1.00  0.00     0.049 A 
ATOM     50  C   UNL A   1      41.298  28.697  30.899  1.00  0.00     0.074 A 
ATOM     51  C   UNL A   1      41.654  31.512  36.579  1.00  0.00     0.029 A 
ATOM     52  N   UNL A   1      41.109  30.942  34.498  1.00  0.00    -0.354 N 
ATOM     53  N   UNL A   1      41.296  29.334  32.045  1.00  0.00    -0.248 NA
ATOM     54  C   UNL A   1      42.273  27.601  30.823  1.00  0.00     0.031 C 
ATOM     55  C   UNL A   1      42.457  30.435  36.190  1.00  0.00     0.029 A 
ATOM     56  C   UNL A   1      42.101  30.063  34.904  1.00  0.00     0.049 A 
ATOM     57  H   UNL A   1      40.669  30.929  33.619  1.00  0.00     0.167 HD
ATOM     58  C   UNL A   1      42.241  28.698  32.837  1.00  0.00     0.074 A 
ATOM     59  C   UNL A   1      42.788  27.616  32.044  1.00  0.00     0.031 C 
ATOM     60  C   UNL A   1      42.622  28.983  34.106  1.00  0.00     0.037 A 
BRANCH  47  61
ATOM     61  C   UNL A   1      39.710  33.836  36.590  1.00  0.00     0.064 A 
ATOM     62  C   UNL A   1      40.348  35.086  36.611  1.00  0.00     0.173 A 
ATOM     63  C   UNL A   1      38.904  33.494  37.685  1.00  0.00     0.173 A 
ATOM     64  F   UNL A   1      41.142  35.455  35.594  1.00  0.00    -0.203 F 
ATOM     65  C   UNL A   1      40.211  35.944  37.698  1.00  0.00     0.198 A 
ATOM     66  C   UNL A   1      38.743  34.368  38.758  1.00  0.00     0.198 A 
ATOM     67  F   UNL A   1      38.268  32.313  37.715  1.00  0.00    -0.203 F 
ATOM     68  F   UNL A   1      40.873  37.108  37.719  1.00  0.00    -0.200 F 
ATOM     69  C   UNL A   1      39.402  35.587  38.767  1.00  0.00     0.200 A 
ATOM     70  F   UNL A   1      37.952  34.028  39.784  1.00  0.00    -0.200 F 
ATOM     71  F   UNL A   1      39.266  36.417  39.811  1.00  0.00    -0.200 F 
ENDBRANCH  47  61
BRANCH  48  72
ATOM     72  C   UNL A   1      40.589  28.077  28.473  1.00  0.00     0.064 A 
ATOM     73  C   UNL A   1      41.393  28.486  27.399  1.00  0.00     0.173 A 
ATOM     74  C   UNL A   1      39.937  26.841  28.365  1.00  0.00     0.173 A 
ATOM     75  F   UNL A   1      42.023  29.669  27.449  1.00  0.00    -0.203 F 
ATOM     76  C   UNL A   1      41.520  27.702  26.255  1.00  0.00     0.198 A 
ATOM     77  C   UNL A   1      40.086  26.045  27.231  1.00  0.00     0.198 A 
ATOM     78  F   UNL A   1      39.164  26.400  29.370  1.00  0.00    -0.203 F 
ATOM     79  F   UNL A   1      42.259  28.139  25.226  1.00  0.00    -0.200 F 
ATOM     80  C   UNL A   1      40.871  26.480  26.174  1.00  0.00     0.200 A 
ATOM     81  F   UNL A   1      39.469  24.858  27.162  1.00  0.00    -0.200 F 
ATOM     82  F   UNL A   1      40.996  25.724  25.075  1.00  0.00    -0.200 F 
ENDBRANCH  48  72
BRANCH  60  83
ATOM     83  C   UNL A   1      43.648  28.085  34.732  1.00  0.00     0.064 A 
ATOM     84  C   UNL A   1      45.014  28.397  34.710  1.00  0.00     0.173 A 
ATOM     85  C   UNL A   1      43.250  26.913  35.394  1.00  0.00     0.173 A 
ATOM     86  F   UNL A   1      45.445  29.499  34.078  1.00  0.00    -0.203 F 
ATOM     87  C   UNL A   1      45.949  27.553  35.303  1.00  0.00     0.198 A 
ATOM     88  C   UNL A   1      44.185  26.086  36.011  1.00  0.00     0.198 A 
ATOM     89  F   UNL A   1      41.953  26.574  35.450  1.00  0.00    -0.203 F 
ATOM     90  F   UNL A   1      47.255  27.845  35.226  1.00  0.00    -0.200 F 
ATOM     91  C   UNL A   1      45.534  26.403  35.957  1.00  0.00     0.200 A 
ATOM     92  F   UNL A   1      43.780  24.982  36.654  1.00  0.00    -0.200 F 
ATOM     93  F   UNL A   1      46.436  25.595  36.530  1.00  0.00    -0.200 F 
ENDBRANCH  60  83
ENDBRANCH  34  35
ENDBRANCH  26  29
ENDBRANCH  24  25
ENDBRANCH  23  24
ENDBRANCH  22  23
ENDBRANCH   1  22
TORSDOF 16
ENDMDL
MODEL 2
REMARK VINA RESULT:     -11.8      0.884      2.767
REMARK SMILES CCCC1C[NH+]([C@H](CC(=O)NCCCCNC(=O)c2ccc(-c3c4nc(c(-c5c(F)c(F)c(F)c(F)c5F)c5ccc([nH]5)c(-c5c(F)c(F)c(F)c(F)c5F)c5nc(c(-c6c(F)c(F)c(F)c(F)c6F)c6ccc3[nH]6)C=C5)C=C4)cc2)c2ccccc2)C1
REMARK SMILES IDX 12 1 11 2 9 3 10 4 8 6 7 7 6 8 4 9 5 10 88 11 3 13 2 14 1 15
REMARK SMILES IDX 82 16 83 17 87 18 84 19 86 20 85 21 13 22 14 23 15 24 16 25
REMARK SMILES IDX 17 26 18 28 19 29 20 30 81 31 21 32 80 33 22 34 23 35 24 36
REMARK SMILES IDX 74 37 25 38 79 39 73 40 75 41 26 42 78 43 72 44 71 45 27 47
REMARK SMILES IDX 59 48 39 49 58 50 40 51 43 52 57 53 76 54 41 55 42 56 56 58
REMARK SMILES IDX 77 59 44 60 28 61 29 62 37 63 30 64 31 65 35 66 38 67 32 68
REMARK SMILES IDX 33 69 36 70 34 71 60 72 61 73 69 74 62 75 63 76 67 77 70 78
REMARK SMILES IDX 64 79 65 80 68 81 66 82 45 83 46 84 54 85 47 86 48 87 52 88
REMARK SMILES IDX 55 89 49 90 50 91 53 92 51 93
REMARK H PARENT 11 5 6 12 16 27 75 46 43 57
REMARK Flexibility Score: inf
ROOT
ATOM      1  C   UNL A   1      32.601  29.611  26.854  1.00  0.00     0.116 C 
ENDROOT
BRANCH   1   2
ATOM      2  N   UNL A   1      31.761  28.475  27.181  1.00  0.00    -0.356 N 
ATOM      3  C   UNL A   1      31.674  27.264  26.559  1.00  0.00     0.226 C 
ATOM      4  O   UNL A   1      30.783  26.491  26.919  1.00  0.00    -0.275 OA
ATOM      5  H   UNL A   1      31.172  28.595  27.960  1.00  0.00     0.163 HD
BRANCH   3   6
ATOM      6  C   UNL A   1      32.649  26.863  25.464  1.00  0.00     0.170 C 
BRANCH   6   7
ATOM      7  C   UNL A   1      31.918  26.345  24.197  1.00  0.00     0.224 C 
BRANCH   7   8
ATOM      8  N   UNL A   1      31.533  24.953  24.458  1.00  0.00    -0.327 N 
ATOM      9  C   UNL A   1      31.894  22.918  24.182  1.00  0.00     0.099 C 
ATOM     10  C   UNL A   1      32.564  24.070  24.988  1.00  0.00     0.272 C 
ATOM     11  C   UNL A   1      31.226  24.056  23.347  1.00  0.00     0.272 C 
ATOM     12  H   UNL A   1      30.751  25.234  25.048  1.00  0.00     0.348 HD
BRANCH   9  13
ATOM     13  C   UNL A   1      32.784  21.927  23.447  1.00  0.00     0.015 C 
BRANCH  13  14
ATOM     14  C   UNL A   1      32.398  20.478  23.751  1.00  0.00    -0.003 C 
ATOM     15  C   UNL A   1      32.677  20.053  25.184  1.00  0.00     0.004 C 
ENDBRANCH  13  14
ENDBRANCH   9  13
ENDBRANCH   7   8
BRANCH   7  16
ATOM     16  C   UNL A   1      30.913  27.363  23.629  1.00  0.00     0.010 A 
ATOM     17  C   UNL A   1      29.515  27.244  23.667  1.00  0.00     0.010 A 
ATOM     18  C   UNL A   1      31.427  28.483  22.942  1.00  0.00     0.010 A 
ATOM     19  C   UNL A   1      28.671  28.196  23.085  1.00  0.00     0.001 A 
ATOM     20  C   UNL A   1      30.588  29.443  22.363  1.00  0.00     0.001 A 
ATOM     21  C   UNL A   1      29.208  29.300  22.438  1.00  0.00     0.000 A 
ENDBRANCH   7  16
ENDBRANCH   6   7
ENDBRANCH   3   6
ENDBRANCH   1   2
BRANCH   1  22
ATOM     22  C   UNL A   1      31.817  30.673  26.076  1.00  0.00     0.023 C 
BRANCH  22  23
ATOM     23  C   UNL A   1      31.444  31.923  26.862  1.00  0.00     0.023 C 
BRANCH  23  24
ATOM     24  C   UNL A   1      32.632  32.759  27.316  1.00  0.00     0.116 C 
BRANCH  24  25
ATOM     25  N   UNL A   1      32.303  34.138  27.650  1.00  0.00    -0.352 N 
ATOM     26  C   UNL A   1      32.938  34.974  28.538  1.00  0.00     0.251 C 
ATOM     27  H   UNL A   1      31.526  34.520  27.180  1.00  0.00     0.163 HD
ATOM     28  O   UNL A   1      32.502  36.098  28.764  1.00  0.00    -0.269 OA
BRANCH  26  29
ATOM     29  C   UNL A   1      34.127  34.478  29.264  1.00  0.00     0.039 A 
ATOM     30  C   UNL A   1      33.943  33.806  30.475  1.00  0.00     0.014 A 
ATOM     31  C   UNL A   1      35.405  34.610  28.717  1.00  0.00     0.014 A 
ATOM     32  C   UNL A   1      35.034  33.197  31.094  1.00  0.00     0.010 A 
ATOM     33  C   UNL A   1      36.471  33.922  29.284  1.00  0.00     0.010 A 
ATOM     34  C   UNL A   1      36.298  33.211  30.479  1.00  0.00    -0.014 A 
BRANCH  34  35
ATOM     35  C   UNL A   1      37.445  32.482  31.075  1.00  0.00     0.031 A 
ATOM     36  C   UNL A   1      37.937  32.839  32.450  1.00  0.00     0.074 A 
ATOM     37  C   UNL A   1      38.081  31.541  30.351  1.00  0.00     0.049 A 
ATOM     38  N   UNL A   1      38.926  32.324  33.133  1.00  0.00    -0.248 NA
ATOM     39  C   UNL A   1      37.249  33.945  33.135  1.00  0.00     0.031 C 
ATOM     40  C   UNL A   1      37.751  31.166  28.975  1.00  0.00     0.029 A 
ATOM     41  N   UNL A   1      39.139  30.729  30.672  1.00  0.00    -0.354 N 
ATOM     42  C   UNL A   1      38.987  33.049  34.315  1.00  0.00     0.074 A 
ATOM     43  C   UNL A   1      37.980  34.084  34.230  1.00  0.00     0.031 C 
ATOM     44  C   UNL A   1      38.565  30.172  28.582  1.00  0.00     0.029 A 
ATOM     45  C   UNL A   1      39.488  29.857  29.668  1.00  0.00     0.049 A 
ATOM     46  H   UNL A   1      39.605  30.768  31.537  1.00  0.00     0.167 HD
ATOM     47  C   UNL A   1      39.788  32.852  35.389  1.00  0.00     0.037 A 
ATOM     48  C   UNL A   1      40.437  28.903  29.636  1.00  0.00     0.037 A 
ATOM     49  C   UNL A   1      40.765  31.800  35.482  1.00  0.00     0.049 A 
ATOM     50  C   UNL A   1      41.282  28.671  30.859  1.00  0.00     0.074 A 
ATOM     51  C   UNL A   1      41.581  31.470  36.550  1.00  0.00     0.029 A 
ATOM     52  N   UNL A   1      41.056  30.904  34.464  1.00  0.00    -0.354 N 
ATOM     53  N   UNL A   1      41.268  29.304  32.007  1.00  0.00    -0.248 NA
ATOM     54  C   UNL A   1      42.262  27.580  30.788  1.00  0.00     0.031 C 
ATOM     55  C   UNL A   1      42.391  30.397  36.165  1.00  0.00     0.029 A 
ATOM     56  C   UNL A   1      42.047  30.028  34.875  1.00  0.00     0.049 A 
ATOM     57  H   UNL A   1      40.622  30.892  33.581  1.00  0.00     0.167 HD
ATOM     58  C   UNL A   1      42.210  28.670  32.804  1.00  0.00     0.074 A 
ATOM     59  C   UNL A   1      42.768  27.592  32.013  1.00  0.00     0.031 C 
ATOM     60  C   UNL A   1      42.579  28.953  34.078  1.00  0.00     0.037 A 
BRANCH  47  61
ATOM     61  C   UNL A   1      39.628  33.785  36.554  1.00  0.00     0.064 A 
ATOM     62  C   UNL A   1      40.257  35.040  36.582  1.00  0.00     0.173 A 
ATOM     63  C   UNL A   1      38.817  33.434  37.643  1.00  0.00     0.173 A 
ATOM     64  F   UNL A   1      41.054  35.418  35.571  1.00  0.00    -0.203 F 
ATOM     65  C   UNL A   1      40.107  35.893  37.671  1.00  0.00     0.198 A 
ATOM     66  C   UNL A   1      38.644  34.304  38.717  1.00  0.00     0.198 A 
ATOM     67  F   UNL A   1      38.190  32.249  37.666  1.00  0.00    -0.203 F 
ATOM     68  F   UNL A   1      40.761  37.063  37.699  1.00  0.00    -0.200 F 
ATOM     69  C   UNL A   1      39.295  35.528  38.734  1.00  0.00     0.200 A 
ATOM     70  F   UNL A   1      37.850  33.955  39.739  1.00  0.00    -0.200 F 
ATOM     71  F   UNL A   1      39.147  36.354  39.779  1.00  0.00    -0.200 F 
ENDBRANCH  47  61
BRANCH  48  72
ATOM     72  C   UNL A   1      40.596  28.056  28.426  1.00  0.00     0.064 A 
ATOM     73  C   UNL A   1      41.396  28.478  27.354  1.00  0.00     0.173 A 
ATOM     74  C   UNL A   1      39.959  26.812  28.314  1.00  0.00     0.173 A 
ATOM     75  F   UNL A   1      42.011  29.669  27.408  1.00  0.00    -0.203 F 
ATOM     76  C   UNL A   1      41.535  27.698  26.208  1.00  0.00     0.198 A 
ATOM     77  C   UNL A   1      40.121  26.021  27.178  1.00  0.00     0.198 A 
ATOM     78  F   UNL A   1      39.190  26.359  29.316  1.00  0.00    -0.203 F 
ATOM     79  F   UNL A   1      42.270  28.147  25.182  1.00  0.00    -0.200 F 
ATOM     80  C   UNL A   1      40.902  26.468  26.124  1.00  0.00     0.200 A 
ATOM     81  F   UNL A   1      39.520  24.826  27.106  1.00  0.00    -0.200 F 
ATOM     82  F   UNL A   1      41.039  25.716  25.023  1.00  0.00    -0.200 F 
ENDBRANCH  48  72
BRANCH  60  83
ATOM     83  C   UNL A   1      43.604  28.057  34.709  1.00  0.00     0.064 A 
ATOM     84  C   UNL A   1      44.976  28.323  34.614  1.00  0.00     0.173 A 
ATOM     85  C   UNL A   1      43.200  26.934  35.450  1.00  0.00     0.173 A 
ATOM     86  F   UNL A   1      45.412  29.376  33.906  1.00  0.00    -0.203 F 
ATOM     87  C   UNL A   1      45.911  27.482  35.213  1.00  0.00     0.198 A 
ATOM     88  C   UNL A   1      44.135  26.112  36.071  1.00  0.00     0.198 A 
ATOM     89  F   UNL A   1      41.897  26.640  35.577  1.00  0.00    -0.203 F 
ATOM     90  F   UNL A   1      47.220  27.728  35.067  1.00  0.00    -0.200 F 
ATOM     91  C   UNL A   1      45.489  26.382  35.945  1.00  0.00     0.200 A 
ATOM     92  F   UNL A   1      43.726  25.057  36.789  1.00  0.00    -0.200 F 
ATOM     93  F   UNL A   1      46.391  25.577  36.524  1.00  0.00    -0.200 F 
ENDBRANCH  60  83
ENDBRANCH  34  35
ENDBRANCH  26  29
ENDBRANCH  24  25
ENDBRANCH  23  24
ENDBRANCH  22  23
ENDBRANCH   1  22
TORSDOF 16
ENDMDL
MODEL 3
REMARK VINA RESULT:     -11.7      2.200      4.098
REMARK SMILES CCCC1C[NH+]([C@H](CC(=O)NCCCCNC(=O)c2ccc(-c3c4nc(c(-c5c(F)c(F)c(F)c(F)c5F)c5ccc([nH]5)c(-c5c(F)c(F)c(F)c(F)c5F)c5nc(c(-c6c(F)c(F)c(F)c(F)c6F)c6ccc3[nH]6)C=C5)C=C4)cc2)c2ccccc2)C1
REMARK SMILES IDX 12 1 11 2 9 3 10 4 8 6 7 7 6 8 4 9 5 10 88 11 3 13 2 14 1 15
REMARK SMILES IDX 82 16 83 17 87 18 84 19 86 20 85 21 13 22 14 23 15 24 16 25
REMARK SMILES IDX 17 26 18 28 19 29 20 30 81 31 21 32 80 33 22 34 23 35 24 36
REMARK SMILES IDX 74 37 25 38 79 39 73 40 75 41 26 42 78 43 72 44 71 45 27 47
REMARK SMILES IDX 59 48 39 49 58 50 40 51 43 52 57 53 76 54 41 55 42 56 56 58
REMARK SMILES IDX 77 59 44 60 28 61 29 62 37 63 30 64 31 65 35 66 38 67 32 68
REMARK SMILES IDX 33 69 36 70 34 71 60 72 61 73 69 74 62 75 63 76 67 77 70 78
REMARK SMILES IDX 64 79 65 80 68 81 66 82 45 83 46 84 54 85 47 86 48 87 52 88
REMARK SMILES IDX 55 89 49 90 50 91 53 92 51 93
REMARK H PARENT 11 5 6 12 16 27 75 46 43 57
REMARK Flexibility Score: inf
ROOT
ATOM      1  C   UNL A   1      31.190  26.513  26.019  1.00  0.00     0.116 C 
ENDROOT
BRANCH   1   2
ATOM      2  N   UNL A   1      31.453  25.378  26.881  1.00  0.00    -0.356 N 
ATOM      3  C   UNL A   1      31.421  24.046  26.583  1.00  0.00     0.226 C 
ATOM      4  O   UNL A   1      31.538  23.242  27.511  1.00  0.00    -0.275 OA
ATOM      5  H   UNL A   1      31.687  25.598  27.812  1.00  0.00     0.163 HD
BRANCH   3   6
ATOM      6  C   UNL A   1      31.261  23.558  25.153  1.00  0.00     0.170 C 
BRANCH   6   7
ATOM      7  C   UNL A   1      32.581  22.968  24.590  1.00  0.00     0.224 C 
BRANCH   7   8
ATOM      8  N   UNL A   1      33.681  23.542  25.374  1.00  0.00    -0.327 N 
ATOM      9  C   UNL A   1      35.727  23.868  25.609  1.00  0.00     0.099 C 
ATOM     10  C   UNL A   1      34.612  24.413  24.668  1.00  0.00     0.272 C 
ATOM     11  C   UNL A   1      34.748  22.683  25.881  1.00  0.00     0.272 C 
ATOM     12  H   UNL A   1      33.043  23.934  26.064  1.00  0.00     0.348 HD
BRANCH   9  13
ATOM     13  C   UNL A   1      37.089  23.542  25.015  1.00  0.00     0.015 C 
BRANCH  13  14
ATOM     14  C   UNL A   1      38.147  23.320  26.098  1.00  0.00    -0.003 C 
ATOM     15  C   UNL A   1      38.576  24.592  26.812  1.00  0.00     0.004 C 
ENDBRANCH  13  14
ENDBRANCH   9  13
ENDBRANCH   7   8
BRANCH   7  16
ATOM     16  C   UNL A   1      32.492  21.455  24.321  1.00  0.00     0.010 A 
ATOM     17  C   UNL A   1      32.653  20.440  25.277  1.00  0.00     0.010 A 
ATOM     18  C   UNL A   1      32.307  21.034  22.986  1.00  0.00     0.010 A 
ATOM     19  C   UNL A   1      32.601  19.084  24.939  1.00  0.00     0.001 A 
ATOM     20  C   UNL A   1      32.249  19.678  22.643  1.00  0.00     0.001 A 
ATOM     21  C   UNL A   1      32.393  18.702  23.621  1.00  0.00     0.000 A 
ENDBRANCH   7  16
ENDBRANCH   6   7
ENDBRANCH   3   6
ENDBRANCH   1   2
BRANCH   1  22
ATOM     22  C   UNL A   1      31.606  27.826  26.691  1.00  0.00     0.023 C 
BRANCH  22  23
ATOM     23  C   UNL A   1      31.746  29.025  25.762  1.00  0.00     0.023 C 
BRANCH  23  24
ATOM     24  C   UNL A   1      32.986  29.871  26.009  1.00  0.00     0.116 C 
BRANCH  24  25
ATOM     25  N   UNL A   1      32.709  31.212  26.505  1.00  0.00    -0.352 N 
ATOM     26  C   UNL A   1      33.468  31.978  27.359  1.00  0.00     0.251 C 
ATOM     27  H   UNL A   1      31.871  31.622  26.189  1.00  0.00     0.163 HD
ATOM     28  O   UNL A   1      33.068  33.073  27.743  1.00  0.00    -0.269 OA
BRANCH  26  29
ATOM     29  C   UNL A   1      34.750  31.438  27.858  1.00  0.00     0.039 A 
ATOM     30  C   UNL A   1      35.844  32.298  27.969  1.00  0.00     0.014 A 
ATOM     31  C   UNL A   1      34.849  30.111  28.283  1.00  0.00     0.014 A 
ATOM     32  C   UNL A   1      37.013  31.847  28.583  1.00  0.00     0.010 A 
ATOM     33  C   UNL A   1      35.978  29.693  28.978  1.00  0.00     0.010 A 
ATOM     34  C   UNL A   1      37.072  30.555  29.133  1.00  0.00    -0.014 A 
BRANCH  34  35
ATOM     35  C   UNL A   1      38.271  30.096  29.876  1.00  0.00     0.031 A 
ATOM     36  C   UNL A   1      38.513  30.563  31.284  1.00  0.00     0.074 A 
ATOM     37  C   UNL A   1      39.173  29.308  29.260  1.00  0.00     0.049 A 
ATOM     38  N   UNL A   1      39.504  30.280  32.090  1.00  0.00    -0.248 NA
ATOM     39  C   UNL A   1      37.532  31.501  31.851  1.00  0.00     0.031 C 
ATOM     40  C   UNL A   1      39.092  28.857  27.869  1.00  0.00     0.029 A 
ATOM     41  N   UNL A   1      40.336  28.747  29.723  1.00  0.00    -0.354 N 
ATOM     42  C   UNL A   1      39.272  31.012  33.247  1.00  0.00     0.074 A 
ATOM     43  C   UNL A   1      38.084  31.804  33.015  1.00  0.00     0.031 C 
ATOM     44  C   UNL A   1      40.139  28.059  27.603  1.00  0.00     0.029 A 
ATOM     45  C   UNL A   1      40.976  27.961  28.795  1.00  0.00     0.049 A 
ATOM     46  H   UNL A   1      40.679  28.893  30.633  1.00  0.00     0.167 HD
ATOM     47  C   UNL A   1      39.967  31.003  34.409  1.00  0.00     0.037 A 
ATOM     48  C   UNL A   1      42.104  27.234  28.900  1.00  0.00     0.037 A 
ATOM     49  C   UNL A   1      41.128  30.187  34.645  1.00  0.00     0.049 A 
ATOM     50  C   UNL A   1      42.832  27.201  30.217  1.00  0.00     0.074 A 
ATOM     51  C   UNL A   1      41.867  30.051  35.808  1.00  0.00     0.029 A 
ATOM     52  N   UNL A   1      41.719  29.365  33.696  1.00  0.00    -0.354 N 
ATOM     53  N   UNL A   1      42.551  27.827  31.333  1.00  0.00    -0.248 NA
ATOM     54  C   UNL A   1      44.024  26.346  30.291  1.00  0.00     0.031 C 
ATOM     55  C   UNL A   1      42.926  29.175  35.552  1.00  0.00     0.029 A 
ATOM     56  C   UNL A   1      42.821  28.728  34.244  1.00  0.00     0.049 A 
ATOM     57  H   UNL A   1      41.403  29.252  32.772  1.00  0.00     0.167 HD
ATOM     58  C   UNL A   1      43.508  27.418  32.251  1.00  0.00     0.074 A 
ATOM     59  C   UNL A   1      44.370  26.479  31.563  1.00  0.00     0.031 C 
ATOM     60  C   UNL A   1      43.658  27.785  33.548  1.00  0.00     0.037 A 
BRANCH  47  61
ATOM     61  C   UNL A   1      39.478  31.890  35.516  1.00  0.00     0.064 A 
ATOM     62  C   UNL A   1      39.928  33.212  35.651  1.00  0.00     0.173 A 
ATOM     63  C   UNL A   1      38.531  31.423  36.439  1.00  0.00     0.173 A 
ATOM     64  F   UNL A   1      40.844  33.703  34.803  1.00  0.00    -0.203 F 
ATOM     65  C   UNL A   1      39.473  34.023  36.687  1.00  0.00     0.198 A 
ATOM     66  C   UNL A   1      38.054  32.247  37.456  1.00  0.00     0.198 A 
ATOM     67  F   UNL A   1      38.064  30.168  36.354  1.00  0.00    -0.203 F 
ATOM     68  F   UNL A   1      39.958  35.265  36.826  1.00  0.00    -0.200 F 
ATOM     69  C   UNL A   1      38.531  33.543  37.583  1.00  0.00     0.200 A 
ATOM     70  F   UNL A   1      37.135  31.786  38.315  1.00  0.00    -0.200 F 
ATOM     71  F   UNL A   1      38.090  34.327  38.577  1.00  0.00    -0.200 F 
ENDBRANCH  47  61
BRANCH  48  72
ATOM     72  C   UNL A   1      42.578  26.430  27.744  1.00  0.00     0.064 A 
ATOM     73  C   UNL A   1      42.197  25.089  27.598  1.00  0.00     0.173 A 
ATOM     74  C   UNL A   1      43.414  26.981  26.763  1.00  0.00     0.173 A 
ATOM     75  F   UNL A   1      41.412  24.513  28.521  1.00  0.00    -0.203 F 
ATOM     76  C   UNL A   1      42.652  24.323  26.527  1.00  0.00     0.198 A 
ATOM     77  C   UNL A   1      43.847  26.222  25.678  1.00  0.00     0.198 A 
ATOM     78  F   UNL A   1      43.800  28.263  26.852  1.00  0.00    -0.203 F 
ATOM     79  F   UNL A   1      42.308  23.031  26.438  1.00  0.00    -0.200 F 
ATOM     80  C   UNL A   1      43.472  24.891  25.565  1.00  0.00     0.200 A 
ATOM     81  F   UNL A   1      44.627  26.778  24.742  1.00  0.00    -0.200 F 
ATOM     82  F   UNL A   1      43.907  24.156  24.533  1.00  0.00    -0.200 F 
ENDBRANCH  48  72
BRANCH  60  83
ATOM     83  C   UNL A   1      44.770  27.138  34.319  1.00  0.00     0.064 A 
ATOM     84  C   UNL A   1      44.591  25.921  34.991  1.00  0.00     0.173 A 
ATOM     85  C   UNL A   1      46.043  27.729  34.354  1.00  0.00     0.173 A 
ATOM     86  F   UNL A   1      43.389  25.324  34.999  1.00  0.00    -0.203 F 
ATOM     87  C   UNL A   1      45.638  25.334  35.697  1.00  0.00     0.198 A 
ATOM     88  C   UNL A   1      47.095  27.124  35.036  1.00  0.00     0.198 A 
ATOM     89  F   UNL A   1      46.268  28.889  33.719  1.00  0.00    -0.203 F 
ATOM     90  F   UNL A   1      45.430  24.196  36.375  1.00  0.00    -0.200 F 
ATOM     91  C   UNL A   1      46.889  25.932  35.713  1.00  0.00     0.200 A 
ATOM     92  F   UNL A   1      48.307  27.696  35.039  1.00  0.00    -0.200 F 
ATOM     93  F   UNL A   1      47.896  25.361  36.389  1.00  0.00    -0.200 F 
ENDBRANCH  60  83
ENDBRANCH  34  35
ENDBRANCH  26  29
ENDBRANCH  24  25
ENDBRANCH  23  24
ENDBRANCH  22  23
ENDBRANCH   1  22
TORSDOF 16
ENDMDL
