MODEL 1
REMARK VINA RESULT:     -11.6      0.000      0.000
REMARK SMILES CC(C)(C)[NH2+]CC(=O)N[C@](C)(C(=O)NCCCCNC(=O)c1ccc(-c2c3nc(c(-c4c(F)c(F)c(F)c(F)c4F)c4ccc([nH]4)c(-c4c(F)c(F)c(F)c(F)c4F)c4nc(c(-c5c(F)c(F)c(F)c(F)c5F)c5ccc2[nH]5)C=C4)C=C3)cc1)C1CC1
REMARK SMILES IDX 15 1 14 2 12 3 13 4 10 6 11 7 9 8 7 9 8 10 6 12 5 13 2 16
REMARK SMILES IDX 1 17 3 18 4 19 85 20 86 21 87 22 16 23 17 24 18 25 19 26
REMARK SMILES IDX 20 27 21 29 22 30 23 31 84 32 24 33 83 34 25 35 26 36 27 37
REMARK SMILES IDX 77 38 28 39 82 40 76 41 78 42 29 43 81 44 75 45 74 46 30 48
REMARK SMILES IDX 62 49 42 50 61 51 43 52 46 53 60 54 79 55 44 56 45 57 59 59
REMARK SMILES IDX 80 60 47 61 31 62 32 63 40 64 33 65 34 66 38 67 41 68 35 69
REMARK SMILES IDX 36 70 39 71 37 72 63 73 64 74 72 75 65 76 66 77 70 78 73 79
REMARK SMILES IDX 67 80 68 81 71 82 69 83 48 84 49 85 57 86 50 87 51 88 55 89
REMARK SMILES IDX 58 90 52 91 53 92 56 93 54 94
REMARK H PARENT 14 5 9 11 5 14 5 15 19 28 78 47 46 58
REMARK Flexibility Score: inf
ROOT
ATOM      1  C   UNL A   1      32.524  29.859  26.431  1.00  0.00     0.116 C 
ENDROOT
BRANCH   1   2
ATOM      2  N   UNL A   1      31.785  28.729  26.956  1.00  0.00    -0.354 N 
ATOM      3  C   UNL A   1      31.568  27.458  26.511  1.00  0.00     0.245 C 
ATOM      4  O   UNL A   1      30.645  26.892  27.107  1.00  0.00    -0.272 OA
ATOM      5  H   UNL A   1      31.346  28.919  27.816  1.00  0.00     0.163 HD
BRANCH   3   6
ATOM      6  C   UNL A   1      32.330  26.816  25.280  1.00  0.00     0.119 C 
ATOM      7  C   UNL A   1      31.382  25.731  24.708  1.00  0.00     0.046 C 
BRANCH   6   8
ATOM      8  N   UNL A   1      32.515  27.855  24.207  1.00  0.00    -0.337 N 
ATOM      9  C   UNL A   1      31.758  28.484  23.266  1.00  0.00     0.275 C 
ATOM     10  O   UNL A   1      32.402  28.974  22.324  1.00  0.00    -0.268 OA
ATOM     11  H   UNL A   1      33.448  28.169  24.177  1.00  0.00     0.164 HD
BRANCH   9  12
ATOM     12  C   UNL A   1      30.233  28.676  23.304  1.00  0.00     0.362 C 
BRANCH  12  13
ATOM     13  N   UNL A   1      29.746  30.019  22.908  1.00  0.00    -0.334 N 
ATOM     14  H   UNL A   1      30.027  30.672  23.639  1.00  0.00     0.347 HD
ATOM     15  H   UNL A   1      30.159  30.183  21.990  1.00  0.00     0.347 HD
BRANCH  13  16
ATOM     16  C   UNL A   1      28.299  30.186  22.701  1.00  0.00     0.088 C 
ATOM     17  C   UNL A   1      27.730  31.363  23.502  1.00  0.00     0.078 C 
ATOM     18  C   UNL A   1      27.595  28.850  22.964  1.00  0.00     0.078 C 
ATOM     19  C   UNL A   1      28.024  30.527  21.222  1.00  0.00     0.078 C 
ENDBRANCH  13  16
ENDBRANCH  12  13
ENDBRANCH   9  12
ENDBRANCH   6   8
BRANCH   6  20
ATOM     20  C   UNL A   1      33.674  26.136  25.606  1.00  0.00     0.024 C 
ATOM     21  C   UNL A   1      33.818  24.657  25.940  1.00  0.00     0.007 C 
ATOM     22  C   UNL A   1      34.408  25.177  24.674  1.00  0.00     0.007 C 
ENDBRANCH   6  20
ENDBRANCH   3   6
ENDBRANCH   1   2
BRANCH   1  23
ATOM     23  C   UNL A   1      31.546  30.923  25.931  1.00  0.00     0.023 C 
BRANCH  23  24
ATOM     24  C   UNL A   1      31.379  32.112  26.883  1.00  0.00     0.023 C 
BRANCH  24  25
ATOM     25  C   UNL A   1      32.679  32.820  27.254  1.00  0.00     0.116 C 
BRANCH  25  26
ATOM     26  N   UNL A   1      32.464  34.211  27.623  1.00  0.00    -0.352 N 
ATOM     27  C   UNL A   1      33.046  34.945  28.626  1.00  0.00     0.251 C 
ATOM     28  H   UNL A   1      31.807  34.696  27.075  1.00  0.00     0.163 HD
ATOM     29  O   UNL A   1      32.605  36.054  28.915  1.00  0.00    -0.269 OA
BRANCH  27  30
ATOM     30  C   UNL A   1      34.194  34.390  29.368  1.00  0.00     0.039 A 
ATOM     31  C   UNL A   1      33.965  33.748  30.588  1.00  0.00     0.014 A 
ATOM     32  C   UNL A   1      35.492  34.511  28.867  1.00  0.00     0.014 A 
ATOM     33  C   UNL A   1      35.035  33.174  31.277  1.00  0.00     0.010 A 
ATOM     34  C   UNL A   1      36.545  33.874  29.517  1.00  0.00     0.010 A 
ATOM     35  C   UNL A   1      36.329  33.206  30.732  1.00  0.00    -0.014 A 
BRANCH  35  36
ATOM     36  C   UNL A   1      37.471  32.559  31.423  1.00  0.00     0.031 A 
ATOM     37  C   UNL A   1      38.187  31.406  30.774  1.00  0.00     0.074 A 
ATOM     38  C   UNL A   1      37.823  32.967  32.657  1.00  0.00     0.049 A 
ATOM     39  N   UNL A   1      39.159  30.665  31.242  1.00  0.00    -0.248 NA
ATOM     40  C   UNL A   1      37.729  31.017  29.431  1.00  0.00     0.031 C 
ATOM     41  C   UNL A   1      37.177  34.044  33.406  1.00  0.00     0.029 A 
ATOM     42  N   UNL A   1      38.805  32.515  33.501  1.00  0.00    -0.354 N 
ATOM     43  C   UNL A   1      39.418  29.719  30.260  1.00  0.00     0.074 A 
ATOM     44  C   UNL A   1      38.462  29.939  29.197  1.00  0.00     0.031 C 
ATOM     45  C   UNL A   1      37.796  34.188  34.589  1.00  0.00     0.029 A 
ATOM     46  C   UNL A   1      38.854  33.188  34.698  1.00  0.00     0.049 A 
ATOM     47  H   UNL A   1      39.418  31.780  33.273  1.00  0.00     0.167 HD
ATOM     48  C   UNL A   1      40.382  28.767  30.235  1.00  0.00     0.037 A 
ATOM     49  C   UNL A   1      39.658  33.012  35.764  1.00  0.00     0.037 A 
ATOM     50  C   UNL A   1      41.343  28.565  31.288  1.00  0.00     0.049 A 
ATOM     51  C   UNL A   1      40.711  31.939  35.718  1.00  0.00     0.074 A 
ATOM     52  C   UNL A   1      42.391  27.664  31.339  1.00  0.00     0.029 A 
ATOM     53  N   UNL A   1      41.369  29.275  32.479  1.00  0.00    -0.354 N 
ATOM     54  N   UNL A   1      40.991  31.092  34.757  1.00  0.00    -0.248 NA
ATOM     55  C   UNL A   1      41.566  31.800  36.905  1.00  0.00     0.031 C 
ATOM     56  C   UNL A   1      43.021  27.794  32.581  1.00  0.00     0.029 A 
ATOM     57  C   UNL A   1      42.403  28.816  33.281  1.00  0.00     0.049 A 
ATOM     58  H   UNL A   1      40.746  29.997  32.721  1.00  0.00     0.167 HD
ATOM     59  C   UNL A   1      42.072  30.346  35.207  1.00  0.00     0.074 A 
ATOM     60  C   UNL A   1      42.406  30.849  36.523  1.00  0.00     0.031 C 
ATOM     61  C   UNL A   1      42.730  29.337  34.584  1.00  0.00     0.037 A 
BRANCH  48  62
ATOM     62  C   UNL A   1      40.445  27.875  29.029  1.00  0.00     0.064 A 
ATOM     63  C   UNL A   1      39.680  26.701  28.940  1.00  0.00     0.173 A 
ATOM     64  C   UNL A   1      41.261  28.207  27.937  1.00  0.00     0.173 A 
ATOM     65  F   UNL A   1      38.892  26.330  29.960  1.00  0.00    -0.203 F 
ATOM     66  C   UNL A   1      39.756  25.877  27.820  1.00  0.00     0.198 A 
ATOM     67  C   UNL A   1      41.309  27.398  26.805  1.00  0.00     0.198 A 
ATOM     68  F   UNL A   1      42.009  29.321  27.966  1.00  0.00    -0.203 F 
ATOM     69  F   UNL A   1      39.061  24.732  27.784  1.00  0.00    -0.200 F 
ATOM     70  C   UNL A   1      40.566  26.229  26.750  1.00  0.00     0.200 A 
ATOM     71  F   UNL A   1      42.081  27.749  25.765  1.00  0.00    -0.200 F 
ATOM     72  F   UNL A   1      40.635  25.438  25.672  1.00  0.00    -0.200 F 
ENDBRANCH  48  62
BRANCH  49  73
ATOM     73  C   UNL A   1      39.519  33.894  36.953  1.00  0.00     0.064 A 
ATOM     74  C   UNL A   1      38.762  33.489  38.062  1.00  0.00     0.173 A 
ATOM     75  C   UNL A   1      40.131  35.155  37.006  1.00  0.00     0.173 A 
ATOM     76  F   UNL A   1      38.142  32.301  38.051  1.00  0.00    -0.203 F 
ATOM     77  C   UNL A   1      38.605  34.321  39.168  1.00  0.00     0.198 A 
ATOM     78  C   UNL A   1      39.997  35.973  38.126  1.00  0.00     0.198 A 
ATOM     79  F   UNL A   1      40.870  35.587  35.974  1.00  0.00    -0.203 F 
ATOM     80  F   UNL A   1      37.837  33.929  40.194  1.00  0.00    -0.200 F 
ATOM     81  C   UNL A   1      39.226  35.560  39.203  1.00  0.00     0.200 A 
ATOM     82  F   UNL A   1      40.612  37.163  38.160  1.00  0.00    -0.200 F 
ATOM     83  F   UNL A   1      39.078  36.358  40.268  1.00  0.00    -0.200 F 
ENDBRANCH  49  73
BRANCH  61  84
ATOM     84  C   UNL A   1      43.908  28.739  35.299  1.00  0.00     0.064 A 
ATOM     85  C   UNL A   1      45.208  29.234  35.125  1.00  0.00     0.173 A 
ATOM     86  C   UNL A   1      43.723  27.681  36.202  1.00  0.00     0.173 A 
ATOM     87  F   UNL A   1      45.440  30.235  34.262  1.00  0.00    -0.203 F 
ATOM     88  C   UNL A   1      46.285  28.675  35.808  1.00  0.00     0.198 A 
ATOM     89  C   UNL A   1      44.797  27.145  36.909  1.00  0.00     0.198 A 
ATOM     90  F   UNL A   1      42.500  27.175  36.411  1.00  0.00    -0.203 F 
ATOM     91  F   UNL A   1      47.526  29.130  35.589  1.00  0.00    -0.200 F 
ATOM     92  C   UNL A   1      46.077  27.637  36.704  1.00  0.00     0.200 A 
ATOM     93  F   UNL A   1      44.592  26.152  37.785  1.00  0.00    -0.200 F 
ATOM     94  F   UNL A   1      47.114  27.104  37.368  1.00  0.00    -0.200 F 
ENDBRANCH  61  84
ENDBRANCH  35  36
ENDBRANCH  27  30
ENDBRANCH  25  26
ENDBRANCH  24  25
ENDBRANCH  23  24
ENDBRANCH   1  23
TORSDOF 16
ENDMDL
MODEL 2
REMARK VINA RESULT:     -11.6      1.142      2.990
REMARK SMILES CC(C)(C)[NH2+]CC(=O)N[C@](C)(C(=O)NCCCCNC(=O)c1ccc(-c2c3nc(c(-c4c(F)c(F)c(F)c(F)c4F)c4ccc([nH]4)c(-c4c(F)c(F)c(F)c(F)c4F)c4nc(c(-c5c(F)c(F)c(F)c(F)c5F)c5ccc2[nH]5)C=C4)C=C3)cc1)C1CC1
REMARK SMILES IDX 15 1 14 2 12 3 13 4 10 6 11 7 9 8 7 9 8 10 6 12 5 13 2 16
REMARK SMILES IDX 1 17 3 18 4 19 85 20 86 21 87 22 16 23 17 24 18 25 19 26
REMARK SMILES IDX 20 27 21 29 22 30 23 31 84 32 24 33 83 34 25 35 26 36 27 37
REMARK SMILES IDX 77 38 28 39 82 40 76 41 78 42 29 43 81 44 75 45 74 46 30 48
REMARK SMILES IDX 62 49 42 50 61 51 43 52 46 53 60 54 79 55 44 56 45 57 59 59
REMARK SMILES IDX 80 60 47 61 31 62 32 63 40 64 33 65 34 66 38 67 41 68 35 69
REMARK SMILES IDX 36 70 39 71 37 72 63 73 64 74 72 75 65 76 66 77 70 78 73 79
REMARK SMILES IDX 67 80 68 81 71 82 69 83 48 84 49 85 57 86 50 87 51 88 55 89
REMARK SMILES IDX 58 90 52 91 53 92 56 93 54 94
REMARK H PARENT 14 5 9 11 5 14 5 15 19 28 78 47 46 58
REMARK Flexibility Score: inf
ROOT
ATOM      1  C   UNL A   1      31.613  29.782  25.640  1.00  0.00     0.116 C 
ENDROOT
BRANCH   1   2
ATOM      2  N   UNL A   1      32.625  29.547  24.630  1.00  0.00    -0.354 N 
ATOM      3  C   UNL A   1      32.686  28.743  23.529  1.00  0.00     0.245 C 
ATOM      4  O   UNL A   1      33.834  28.619  23.090  1.00  0.00    -0.272 OA
ATOM      5  H   UNL A   1      33.441  30.080  24.767  1.00  0.00     0.163 HD
BRANCH   3   6
ATOM      6  C   UNL A   1      31.443  27.954  22.948  1.00  0.00     0.119 C 
ATOM      7  C   UNL A   1      30.482  29.028  22.377  1.00  0.00     0.046 C 
BRANCH   6   8
ATOM      8  N   UNL A   1      31.887  27.096  21.795  1.00  0.00    -0.337 N 
ATOM      9  C   UNL A   1      32.694  26.018  21.585  1.00  0.00     0.275 C 
ATOM     10  O   UNL A   1      33.090  25.886  20.416  1.00  0.00    -0.268 OA
ATOM     11  H   UNL A   1      31.477  27.398  20.952  1.00  0.00     0.164 HD
BRANCH   9  12
ATOM     12  C   UNL A   1      33.092  24.964  22.630  1.00  0.00     0.362 C 
BRANCH  12  13
ATOM     13  N   UNL A   1      34.108  25.394  23.620  1.00  0.00    -0.334 N 
ATOM     14  H   UNL A   1      35.013  25.054  23.295  1.00  0.00     0.347 HD
ATOM     15  H   UNL A   1      34.011  26.408  23.665  1.00  0.00     0.347 HD
BRANCH  13  16
ATOM     16  C   UNL A   1      33.940  24.942  25.010  1.00  0.00     0.088 C 
ATOM     17  C   UNL A   1      32.911  23.811  25.133  1.00  0.00     0.078 C 
ATOM     18  C   UNL A   1      33.649  26.154  25.903  1.00  0.00     0.078 C 
ATOM     19  C   UNL A   1      35.266  24.345  25.524  1.00  0.00     0.078 C 
ENDBRANCH  13  16
ENDBRANCH  12  13
ENDBRANCH   9  12
ENDBRANCH   6   8
BRANCH   6  20
ATOM     20  C   UNL A   1      30.648  27.112  23.967  1.00  0.00     0.024 C 
ATOM     21  C   UNL A   1      29.133  26.953  23.937  1.00  0.00     0.007 C 
ATOM     22  C   UNL A   1      29.994  25.769  23.658  1.00  0.00     0.007 C 
ENDBRANCH   6  20
ENDBRANCH   3   6
ENDBRANCH   1   2
BRANCH   1  23
ATOM     23  C   UNL A   1      31.185  31.249  25.604  1.00  0.00     0.023 C 
BRANCH  23  24
ATOM     24  C   UNL A   1      31.342  31.977  26.944  1.00  0.00     0.023 C 
BRANCH  24  25
ATOM     25  C   UNL A   1      32.633  32.780  27.087  1.00  0.00     0.116 C 
BRANCH  25  26
ATOM     26  N   UNL A   1      32.384  34.158  27.482  1.00  0.00    -0.352 N 
ATOM     27  C   UNL A   1      32.952  34.888  28.496  1.00  0.00     0.251 C 
ATOM     28  H   UNL A   1      31.713  34.637  26.945  1.00  0.00     0.163 HD
ATOM     29  O   UNL A   1      32.485  35.980  28.807  1.00  0.00    -0.269 OA
BRANCH  27  30
ATOM     30  C   UNL A   1      34.117  34.349  29.224  1.00  0.00     0.039 A 
ATOM     31  C   UNL A   1      33.906  33.644  30.412  1.00  0.00     0.014 A 
ATOM     32  C   UNL A   1      35.413  34.545  28.741  1.00  0.00     0.014 A 
ATOM     33  C   UNL A   1      34.993  33.085  31.085  1.00  0.00     0.010 A 
ATOM     34  C   UNL A   1      36.486  33.924  29.372  1.00  0.00     0.010 A 
ATOM     35  C   UNL A   1      36.288  33.194  30.554  1.00  0.00    -0.014 A 
BRANCH  35  36
ATOM     36  C   UNL A   1      37.451  32.565  31.227  1.00  0.00     0.031 A 
ATOM     37  C   UNL A   1      38.194  31.444  30.553  1.00  0.00     0.074 A 
ATOM     38  C   UNL A   1      37.800  32.959  32.466  1.00  0.00     0.049 A 
ATOM     39  N   UNL A   1      39.188  30.720  31.002  1.00  0.00    -0.248 NA
ATOM     40  C   UNL A   1      37.739  31.068  29.205  1.00  0.00     0.031 C 
ATOM     41  C   UNL A   1      37.130  34.005  33.239  1.00  0.00     0.029 A 
ATOM     42  N   UNL A   1      38.799  32.519  33.297  1.00  0.00    -0.354 N 
ATOM     43  C   UNL A   1      39.466  29.800  30.001  1.00  0.00     0.074 A 
ATOM     44  C   UNL A   1      38.499  30.015  28.947  1.00  0.00     0.031 C 
ATOM     45  C   UNL A   1      37.752  34.143  34.421  1.00  0.00     0.029 A 
ATOM     46  C   UNL A   1      38.836  33.170  34.506  1.00  0.00     0.049 A 
ATOM     47  H   UNL A   1      39.429  31.804  33.052  1.00  0.00     0.167 HD
ATOM     48  C   UNL A   1      40.455  28.875  29.953  1.00  0.00     0.037 A 
ATOM     49  C   UNL A   1      39.651  32.996  35.564  1.00  0.00     0.037 A 
ATOM     50  C   UNL A   1      41.427  28.679  30.996  1.00  0.00     0.049 A 
ATOM     51  C   UNL A   1      40.732  31.952  35.493  1.00  0.00     0.074 A 
ATOM     52  C   UNL A   1      42.499  27.805  31.025  1.00  0.00     0.029 A 
ATOM     53  N   UNL A   1      41.441  29.367  32.201  1.00  0.00    -0.354 N 
ATOM     54  N   UNL A   1      41.028  31.130  34.514  1.00  0.00    -0.248 NA
ATOM     55  C   UNL A   1      41.597  31.814  36.672  1.00  0.00     0.031 C 
ATOM     56  C   UNL A   1      43.132  27.928  32.266  1.00  0.00     0.029 A 
ATOM     57  C   UNL A   1      42.491  28.921  32.988  1.00  0.00     0.049 A 
ATOM     58  H   UNL A   1      40.800  30.068  32.459  1.00  0.00     0.167 HD
ATOM     59  C   UNL A   1      42.131  30.406  34.944  1.00  0.00     0.074 A 
ATOM     60  C   UNL A   1      42.460  30.892  36.268  1.00  0.00     0.031 C 
ATOM     61  C   UNL A   1      42.812  29.426  34.299  1.00  0.00     0.037 A 
BRANCH  48  62
ATOM     62  C   UNL A   1      40.534  28.007  28.730  1.00  0.00     0.064 A 
ATOM     63  C   UNL A   1      39.875  26.770  28.660  1.00  0.00     0.173 A 
ATOM     64  C   UNL A   1      41.258  28.426  27.603  1.00  0.00     0.173 A 
ATOM     65  F   UNL A   1      39.178  26.317  29.712  1.00  0.00    -0.203 F 
ATOM     66  C   UNL A   1      39.966  25.971  27.523  1.00  0.00     0.198 A 
ATOM     67  C   UNL A   1      41.319  27.639  26.456  1.00  0.00     0.198 A 
ATOM     68  F   UNL A   1      41.903  29.603  27.613  1.00  0.00    -0.203 F 
ATOM     69  F   UNL A   1      39.375  24.767  27.504  1.00  0.00    -0.200 F 
ATOM     70  C   UNL A   1      40.683  26.408  26.420  1.00  0.00     0.200 A 
ATOM     71  F   UNL A   1      42.001  28.071  25.385  1.00  0.00    -0.200 F 
ATOM     72  F   UNL A   1      40.766  25.640  25.326  1.00  0.00    -0.200 F 
ENDBRANCH  48  62
BRANCH  49  73
ATOM     73  C   UNL A   1      39.496  33.851  36.770  1.00  0.00     0.064 A 
ATOM     74  C   UNL A   1      40.121  35.104  36.847  1.00  0.00     0.173 A 
ATOM     75  C   UNL A   1      38.728  33.437  37.869  1.00  0.00     0.173 A 
ATOM     76  F   UNL A   1      40.881  35.537  35.831  1.00  0.00    -0.203 F 
ATOM     77  C   UNL A   1      40.003  35.898  37.986  1.00  0.00     0.198 A 
ATOM     78  C   UNL A   1      38.587  34.246  38.994  1.00  0.00     0.198 A 
ATOM     79  F   UNL A   1      38.105  32.249  37.843  1.00  0.00    -0.203 F 
ATOM     80  F   UNL A   1      40.650  37.070  38.051  1.00  0.00    -0.200 F 
ATOM     81  C   UNL A   1      39.232  35.472  39.056  1.00  0.00     0.200 A 
ATOM     82  F   UNL A   1      37.828  33.835  40.020  1.00  0.00    -0.200 F 
ATOM     83  F   UNL A   1      39.116  36.238  40.149  1.00  0.00    -0.200 F 
ENDBRANCH  49  73
BRANCH  61  84
ATOM     84  C   UNL A   1      44.010  28.846  34.997  1.00  0.00     0.064 A 
ATOM     85  C   UNL A   1      43.911  27.719  35.824  1.00  0.00     0.173 A 
ATOM     86  C   UNL A   1      45.281  29.406  34.799  1.00  0.00     0.173 A 
ATOM     87  F   UNL A   1      42.716  27.155  36.057  1.00  0.00    -0.203 F 
ATOM     88  C   UNL A   1      45.036  27.189  36.450  1.00  0.00     0.198 A 
ATOM     89  C   UNL A   1      46.410  28.854  35.400  1.00  0.00     0.198 A 
ATOM     90  F   UNL A   1      45.433  30.481  34.011  1.00  0.00    -0.203 F 
ATOM     91  F   UNL A   1      44.911  26.142  37.277  1.00  0.00    -0.200 F 
ATOM     92  C   UNL A   1      46.284  27.752  36.231  1.00  0.00     0.200 A 
ATOM     93  F   UNL A   1      47.617  29.391  35.175  1.00  0.00    -0.200 F 
ATOM     94  F   UNL A   1      47.368  27.236  36.828  1.00  0.00    -0.200 F 
ENDBRANCH  61  84
ENDBRANCH  35  36
ENDBRANCH  27  30
ENDBRANCH  25  26
ENDBRANCH  24  25
ENDBRANCH  23  24
ENDBRANCH   1  23
TORSDOF 16
ENDMDL
MODEL 3
REMARK VINA RESULT:     -11.6      1.215      2.930
REMARK SMILES CC(C)(C)[NH2+]CC(=O)N[C@](C)(C(=O)NCCCCNC(=O)c1ccc(-c2c3nc(c(-c4c(F)c(F)c(F)c(F)c4F)c4ccc([nH]4)c(-c4c(F)c(F)c(F)c(F)c4F)c4nc(c(-c5c(F)c(F)c(F)c(F)c5F)c5ccc2[nH]5)C=C4)C=C3)cc1)C1CC1
REMARK SMILES IDX 15 1 14 2 12 3 13 4 10 6 11 7 9 8 7 9 8 10 6 12 5 13 2 16
REMARK SMILES IDX 1 17 3 18 4 19 85 20 86 21 87 22 16 23 17 24 18 25 19 26
REMARK SMILES IDX 20 27 21 29 22 30 23 31 84 32 24 33 83 34 25 35 26 36 27 37
REMARK SMILES IDX 77 38 28 39 82 40 76 41 78 42 29 43 81 44 75 45 74 46 30 48
REMARK SMILES IDX 62 49 42 50 61 51 43 52 46 53 60 54 79 55 44 56 45 57 59 59
REMARK SMILES IDX 80 60 47 61 31 62 32 63 40 64 33 65 34 66 38 67 41 68 35 69
REMARK SMILES IDX 36 70 39 71 37 72 63 73 64 74 72 75 65 76 66 77 70 78 73 79
REMARK SMILES IDX 67 80 68 81 71 82 69 83 48 84 49 85 57 86 50 87 51 88 55 89
REMARK SMILES IDX 58 90 52 91 53 92 56 93 54 94
REMARK H PARENT 14 5 9 11 5 14 5 15 19 28 78 47 46 58
REMARK Flexibility Score: inf
ROOT
ATOM      1  C   UNL A   1      32.332  29.815  25.802  1.00  0.00     0.116 C 
ENDROOT
BRANCH   1   2
ATOM      2  N   UNL A   1      33.125  29.680  24.598  1.00  0.00    -0.354 N 
ATOM      3  C   UNL A   1      32.990  28.939  23.460  1.00  0.00     0.245 C 
ATOM      4  O   UNL A   1      34.029  28.892  22.793  1.00  0.00    -0.272 OA
ATOM      5  H   UNL A   1      33.933  30.242  24.600  1.00  0.00     0.163 HD
BRANCH   3   6
ATOM      6  C   UNL A   1      31.683  28.124  23.093  1.00  0.00     0.119 C 
ATOM      7  C   UNL A   1      30.707  29.145  22.454  1.00  0.00     0.046 C 
BRANCH   6   8
ATOM      8  N   UNL A   1      32.008  27.100  22.040  1.00  0.00    -0.337 N 
ATOM      9  C   UNL A   1      32.985  26.187  21.783  1.00  0.00     0.275 C 
ATOM     10  O   UNL A   1      33.068  25.835  20.595  1.00  0.00    -0.268 OA
ATOM     11  H   UNL A   1      31.319  27.085  21.337  1.00  0.00     0.164 HD
BRANCH   9  12
ATOM     12  C   UNL A   1      33.921  25.541  22.817  1.00  0.00     0.362 C 
BRANCH  12  13
ATOM     13  N   UNL A   1      33.646  24.119  23.131  1.00  0.00    -0.334 N 
ATOM     14  H   UNL A   1      32.693  24.065  23.489  1.00  0.00     0.347 HD
ATOM     15  H   UNL A   1      33.814  23.624  22.255  1.00  0.00     0.347 HD
BRANCH  13  16
ATOM     16  C   UNL A   1      34.522  23.454  24.109  1.00  0.00     0.088 C 
ATOM     17  C   UNL A   1      34.737  24.303  25.368  1.00  0.00     0.078 C 
ATOM     18  C   UNL A   1      35.820  23.025  23.414  1.00  0.00     0.078 C 
ATOM     19  C   UNL A   1      33.855  22.154  24.602  1.00  0.00     0.078 C 
ENDBRANCH  13  16
ENDBRANCH  12  13
ENDBRANCH   9  12
ENDBRANCH   6   8
BRANCH   6  20
ATOM     20  C   UNL A   1      30.952  27.461  24.278  1.00  0.00     0.024 C 
ATOM     21  C   UNL A   1      30.329  26.072  24.220  1.00  0.00     0.007 C 
ATOM     22  C   UNL A   1      31.509  26.304  25.101  1.00  0.00     0.007 C 
ENDBRANCH   6  20
ENDBRANCH   3   6
ENDBRANCH   1   2
BRANCH   1  23
ATOM     23  C   UNL A   1      31.346  30.973  25.640  1.00  0.00     0.023 C 
BRANCH  23  24
ATOM     24  C   UNL A   1      31.302  31.925  26.839  1.00  0.00     0.023 C 
BRANCH  24  25
ATOM     25  C   UNL A   1      32.603  32.678  27.106  1.00  0.00     0.116 C 
BRANCH  25  26
ATOM     26  N   UNL A   1      32.372  34.066  27.478  1.00  0.00    -0.352 N 
ATOM     27  C   UNL A   1      32.957  34.809  28.471  1.00  0.00     0.251 C 
ATOM     28  H   UNL A   1      31.698  34.540  26.939  1.00  0.00     0.163 HD
ATOM     29  O   UNL A   1      32.504  35.911  28.767  1.00  0.00    -0.269 OA
BRANCH  27  30
ATOM     30  C   UNL A   1      34.126  34.273  29.196  1.00  0.00     0.039 A 
ATOM     31  C   UNL A   1      33.915  33.501  30.342  1.00  0.00     0.014 A 
ATOM     32  C   UNL A   1      35.423  34.537  28.751  1.00  0.00     0.014 A 
ATOM     33  C   UNL A   1      35.008  32.945  31.009  1.00  0.00     0.010 A 
ATOM     34  C   UNL A   1      36.505  33.921  29.373  1.00  0.00     0.010 A 
ATOM     35  C   UNL A   1      36.309  33.126  30.512  1.00  0.00    -0.014 A 
BRANCH  35  36
ATOM     36  C   UNL A   1      37.480  32.502  31.177  1.00  0.00     0.031 A 
ATOM     37  C   UNL A   1      38.223  31.385  30.498  1.00  0.00     0.074 A 
ATOM     38  C   UNL A   1      37.835  32.899  32.414  1.00  0.00     0.049 A 
ATOM     39  N   UNL A   1      39.224  30.666  30.941  1.00  0.00    -0.248 NA
ATOM     40  C   UNL A   1      37.760  31.006  29.154  1.00  0.00     0.031 C 
ATOM     41  C   UNL A   1      37.165  33.942  33.191  1.00  0.00     0.029 A 
ATOM     42  N   UNL A   1      38.842  32.463  33.238  1.00  0.00    -0.354 N 
ATOM     43  C   UNL A   1      39.499  29.746  29.939  1.00  0.00     0.074 A 
ATOM     44  C   UNL A   1      38.523  29.956  28.891  1.00  0.00     0.031 C 
ATOM     45  C   UNL A   1      37.795  34.084  34.369  1.00  0.00     0.029 A 
ATOM     46  C   UNL A   1      38.885  33.116  34.446  1.00  0.00     0.049 A 
ATOM     47  H   UNL A   1      39.474  31.751  32.988  1.00  0.00     0.167 HD
ATOM     48  C   UNL A   1      40.492  28.826  29.884  1.00  0.00     0.037 A 
ATOM     49  C   UNL A   1      39.707  32.946  35.498  1.00  0.00     0.037 A 
ATOM     50  C   UNL A   1      41.472  28.635  30.921  1.00  0.00     0.049 A 
ATOM     51  C   UNL A   1      40.793  31.907  35.420  1.00  0.00     0.074 A 
ATOM     52  C   UNL A   1      42.549  27.766  30.942  1.00  0.00     0.029 A 
ATOM     53  N   UNL A   1      41.491  29.324  32.125  1.00  0.00    -0.354 N 
ATOM     54  N   UNL A   1      41.086  31.086  34.440  1.00  0.00    -0.248 NA
ATOM     55  C   UNL A   1      41.667  31.774  36.593  1.00  0.00     0.031 C 
ATOM     56  C   UNL A   1      43.190  27.893  32.179  1.00  0.00     0.029 A 
ATOM     57  C   UNL A   1      42.549  28.883  32.905  1.00  0.00     0.049 A 
ATOM     58  H   UNL A   1      40.849  30.022  32.388  1.00  0.00     0.167 HD
ATOM     59  C   UNL A   1      42.195  30.367  34.863  1.00  0.00     0.074 A 
ATOM     60  C   UNL A   1      42.531  30.856  36.184  1.00  0.00     0.031 C 
ATOM     61  C   UNL A   1      42.877  29.390  34.214  1.00  0.00     0.037 A 
BRANCH  48  62
ATOM     62  C   UNL A   1      40.567  27.958  28.661  1.00  0.00     0.064 A 
ATOM     63  C   UNL A   1      41.319  28.333  27.536  1.00  0.00     0.173 A 
ATOM     64  C   UNL A   1      39.898  26.725  28.618  1.00  0.00     0.173 A 
ATOM     65  F   UNL A   1      41.969  29.506  27.520  1.00  0.00    -0.203 F 
ATOM     66  C   UNL A   1      41.371  27.524  26.404  1.00  0.00     0.198 A 
ATOM     67  C   UNL A   1      39.979  25.904  27.497  1.00  0.00     0.198 A 
ATOM     68  F   UNL A   1      39.169  26.315  29.666  1.00  0.00    -0.203 F 
ATOM     69  F   UNL A   1      42.048  27.932  25.322  1.00  0.00    -0.200 F 
ATOM     70  C   UNL A   1      40.706  26.307  26.387  1.00  0.00     0.200 A 
ATOM     71  F   UNL A   1      39.348  24.721  27.488  1.00  0.00    -0.200 F 
ATOM     72  F   UNL A   1      40.760  25.528  25.299  1.00  0.00    -0.200 F 
ENDBRANCH  48  62
BRANCH  49  73
ATOM     73  C   UNL A   1      39.556  33.801  36.706  1.00  0.00     0.064 A 
ATOM     74  C   UNL A   1      38.789  33.371  37.798  1.00  0.00     0.173 A 
ATOM     75  C   UNL A   1      40.167  35.061  36.792  1.00  0.00     0.173 A 
ATOM     76  F   UNL A   1      38.170  32.183  37.755  1.00  0.00    -0.203 F 
ATOM     77  C   UNL A   1      38.620  34.179  38.921  1.00  0.00     0.198 A 
ATOM     78  C   UNL A   1      40.021  35.854  37.928  1.00  0.00     0.198 A 
ATOM     79  F   UNL A   1      40.916  35.516  35.777  1.00  0.00    -0.203 F 
ATOM     80  F   UNL A   1      37.843  33.764  39.930  1.00  0.00    -0.200 F 
ATOM     81  C   UNL A   1      39.241  35.417  38.989  1.00  0.00     0.200 A 
ATOM     82  F   UNL A   1      40.636  37.043  37.995  1.00  0.00    -0.200 F 
ATOM     83  F   UNL A   1      39.082  36.191  40.069  1.00  0.00    -0.200 F 
ENDBRANCH  49  73
BRANCH  61  84
ATOM     84  C   UNL A   1      44.082  28.817  34.903  1.00  0.00     0.064 A 
ATOM     85  C   UNL A   1      45.355  29.387  34.763  1.00  0.00     0.173 A 
ATOM     86  C   UNL A   1      43.949  27.704  35.748  1.00  0.00     0.173 A 
ATOM     87  F   UNL A   1      45.538  30.443  33.956  1.00  0.00    -0.203 F 
ATOM     88  C   UNL A   1      46.458  28.848  35.422  1.00  0.00     0.198 A 
ATOM     89  C   UNL A   1      45.047  27.187  36.431  1.00  0.00     0.198 A 
ATOM     90  F   UNL A   1      42.753  27.125  35.922  1.00  0.00    -0.203 F 
ATOM     91  F   UNL A   1      47.674  29.378  35.234  1.00  0.00    -0.200 F 
ATOM     92  C   UNL A   1      46.301  27.755  36.261  1.00  0.00     0.200 A 
ATOM     93  F   UNL A   1      44.891  26.140  37.252  1.00  0.00    -0.200 F 
ATOM     94  F   UNL A   1      47.362  27.241  36.901  1.00  0.00    -0.200 F 
ENDBRANCH  61  84
ENDBRANCH  35  36
ENDBRANCH  27  30
ENDBRANCH  25  26
ENDBRANCH  24  25
ENDBRANCH  23  24
ENDBRANCH   1  23
TORSDOF 16
ENDMDL
