MODEL 1
REMARK VINA RESULT:     -12.4      0.000      0.000
REMARK SMILES CC[C@@]1(C(=O)NCCCCNC(=O)c2ccc(-c3c4nc(c(-c5c(F)c(F)c(F)c(F)c5F)c5ccc([nH]5)c(-c5c(F)c(F)c(F)c(F)c5F)c5nc(c(-c6c(F)c(F)c(F)c(F)c6F)c6ccc3[nH]6)C=C5)C=C4)cc2)CCCN(c2ncnc3c2CCCC3)C1
REMARK SMILES IDX 9 1 8 2 7 3 6 4 4 5 5 6 3 8 77 9 91 10 78 11 80 12 79 13
REMARK SMILES IDX 2 14 1 15 81 16 82 17 86 18 83 19 85 20 87 21 84 22 90 23
REMARK SMILES IDX 88 24 89 25 10 26 11 27 12 28 13 30 14 31 15 32 76 33 16 34
REMARK SMILES IDX 75 35 17 36 18 37 19 38 69 39 20 40 74 41 68 42 70 43 21 44
REMARK SMILES IDX 73 45 67 46 66 47 22 49 54 50 34 51 53 52 35 53 38 54 52 55
REMARK SMILES IDX 71 56 36 57 37 58 51 60 72 61 39 62 23 63 24 64 32 65 25 66
REMARK SMILES IDX 26 67 30 68 33 69 27 70 28 71 31 72 29 73 55 74 56 75 64 76
REMARK SMILES IDX 57 77 58 78 62 79 65 80 59 81 60 82 63 83 61 84 40 85 41 86
REMARK SMILES IDX 49 87 42 88 43 89 47 90 50 91 44 92 45 93 48 94 46 95
REMARK H PARENT 6 7 11 29 70 48 38 59
REMARK Flexibility Score: inf
ROOT
ATOM      1  C   UNL A   1      39.182  21.257  25.385  1.00  0.00     0.023 C 
ENDROOT
BRANCH   1   2
ATOM      2  C   UNL A   1      38.901  22.529  26.194  1.00  0.00     0.023 C 
BRANCH   2   3
ATOM      3  C   UNL A   1      37.786  23.473  25.721  1.00  0.00     0.116 C 
BRANCH   3   4
ATOM      4  N   UNL A   1      37.263  23.272  24.364  1.00  0.00    -0.356 N 
ATOM      5  C   UNL A   1      36.032  22.919  23.849  1.00  0.00     0.228 C 
ATOM      6  O   UNL A   1      35.940  23.066  22.619  1.00  0.00    -0.274 OA
ATOM      7  H   UNL A   1      37.941  23.421  23.666  1.00  0.00     0.163 HD
BRANCH   5   8
ATOM      8  C   UNL A   1      34.836  22.269  24.627  1.00  0.00     0.066 C 
ATOM      9  C   UNL A   1      33.650  21.549  23.808  1.00  0.00     0.020 C 
ATOM     10  C   UNL A   1      34.156  23.270  25.554  1.00  0.00     0.135 C 
ATOM     11  C   UNL A   1      32.207  22.152  23.725  1.00  0.00     0.023 C 
ATOM     12  N   UNL A   1      33.137  24.030  24.815  1.00  0.00    -0.355 N 
ATOM     13  C   UNL A   1      31.906  23.299  24.669  1.00  0.00     0.118 C 
BRANCH   8  14
ATOM     14  C   UNL A   1      35.568  21.073  25.353  1.00  0.00     0.015 C 
ATOM     15  C   UNL A   1      35.056  19.670  24.924  1.00  0.00     0.005 C 
ENDBRANCH   8  14
BRANCH  12  16
ATOM     16  C   UNL A   1      33.231  25.207  24.113  1.00  0.00     0.135 A 
ATOM     17  N   UNL A   1      33.171  25.036  22.779  1.00  0.00    -0.219 NA
ATOM     18  C   UNL A   1      33.487  26.489  24.648  1.00  0.00     0.016 A 
ATOM     19  C   UNL A   1      33.365  26.106  21.996  1.00  0.00     0.224 A 
ATOM     20  C   UNL A   1      33.605  27.545  23.737  1.00  0.00     0.049 A 
ATOM     21  C   UNL A   1      33.507  26.847  26.106  1.00  0.00     0.041 C 
ATOM     22  N   UNL A   1      33.573  27.361  22.406  1.00  0.00    -0.241 NA
ATOM     23  C   UNL A   1      33.742  28.985  24.190  1.00  0.00     0.057 C 
ATOM     24  C   UNL A   1      34.004  28.230  26.506  1.00  0.00     0.005 C 
ATOM     25  C   UNL A   1      33.301  29.240  25.624  1.00  0.00     0.007 C 
ENDBRANCH  12  16
ENDBRANCH   5   8
ENDBRANCH   3   4
ENDBRANCH   2   3
ENDBRANCH   1   2
BRANCH   1  26
ATOM     26  C   UNL A   1      39.195  19.919  26.129  1.00  0.00     0.116 C 
BRANCH  26  27
ATOM     27  N   UNL A   1      40.318  19.043  25.830  1.00  0.00    -0.352 N 
ATOM     28  C   UNL A   1      41.678  19.252  25.968  1.00  0.00     0.251 C 
ATOM     29  H   UNL A   1      40.069  18.161  25.472  1.00  0.00     0.163 HD
ATOM     30  O   UNL A   1      42.463  18.362  25.670  1.00  0.00    -0.269 OA
BRANCH  28  31
ATOM     31  C   UNL A   1      42.216  20.558  26.430  1.00  0.00     0.039 A 
ATOM     32  C   UNL A   1      42.747  21.447  25.493  1.00  0.00     0.014 A 
ATOM     33  C   UNL A   1      42.244  20.902  27.778  1.00  0.00     0.014 A 
ATOM     34  C   UNL A   1      43.211  22.705  25.904  1.00  0.00     0.010 A 
ATOM     35  C   UNL A   1      42.629  22.185  28.183  1.00  0.00     0.010 A 
ATOM     36  C   UNL A   1      43.111  23.111  27.248  1.00  0.00    -0.014 A 
BRANCH  36  37
ATOM     37  C   UNL A   1      43.480  24.503  27.647  1.00  0.00     0.031 A 
ATOM     38  C   UNL A   1      44.916  24.959  27.691  1.00  0.00     0.074 A 
ATOM     39  C   UNL A   1      42.508  25.372  27.997  1.00  0.00     0.049 A 
ATOM     40  N   UNL A   1      45.400  26.149  27.960  1.00  0.00    -0.248 NA
ATOM     41  C   UNL A   1      45.945  23.947  27.417  1.00  0.00     0.031 C 
ATOM     42  C   UNL A   1      41.081  25.054  28.068  1.00  0.00     0.029 A 
ATOM     43  N   UNL A   1      42.566  26.700  28.349  1.00  0.00    -0.354 N 
ATOM     44  C   UNL A   1      46.783  26.027  27.885  1.00  0.00     0.074 A 
ATOM     45  C   UNL A   1      47.062  24.634  27.608  1.00  0.00     0.031 C 
ATOM     46  C   UNL A   1      40.397  26.162  28.393  1.00  0.00     0.029 A 
ATOM     47  C   UNL A   1      41.335  27.264  28.591  1.00  0.00     0.049 A 
ATOM     48  H   UNL A   1      43.411  27.201  28.423  1.00  0.00     0.167 HD
ATOM     49  C   UNL A   1      47.731  26.989  28.006  1.00  0.00     0.037 A 
ATOM     50  C   UNL A   1      40.994  28.522  28.926  1.00  0.00     0.037 A 
ATOM     51  C   UNL A   1      47.458  28.379  28.275  1.00  0.00     0.049 A 
ATOM     52  C   UNL A   1      42.066  29.572  29.060  1.00  0.00     0.074 A 
ATOM     53  C   UNL A   1      48.352  29.433  28.363  1.00  0.00     0.029 A 
ATOM     54  N   UNL A   1      46.198  28.908  28.510  1.00  0.00    -0.354 N 
ATOM     55  N   UNL A   1      43.362  29.458  28.896  1.00  0.00    -0.248 NA
ATOM     56  C   UNL A   1      41.624  30.929  29.412  1.00  0.00     0.031 C 
ATOM     57  C   UNL A   1      47.640  30.587  28.708  1.00  0.00     0.029 A 
ATOM     58  C   UNL A   1      46.294  30.268  28.768  1.00  0.00     0.049 A 
ATOM     59  H   UNL A   1      45.359  28.394  28.497  1.00  0.00     0.167 HD
ATOM     60  C   UNL A   1      43.884  30.731  29.087  1.00  0.00     0.074 A 
ATOM     61  C   UNL A   1      42.763  31.605  29.365  1.00  0.00     0.031 C 
ATOM     62  C   UNL A   1      45.176  31.138  29.034  1.00  0.00     0.037 A 
BRANCH  49  63
ATOM     63  C   UNL A   1      49.169  26.573  27.843  1.00  0.00     0.064 A 
ATOM     64  C   UNL A   1      49.751  26.417  26.575  1.00  0.00     0.173 A 
ATOM     65  C   UNL A   1      49.989  26.376  28.965  1.00  0.00     0.173 A 
ATOM     66  F   UNL A   1      49.014  26.591  25.467  1.00  0.00    -0.203 F 
ATOM     67  C   UNL A   1      51.086  26.045  26.437  1.00  0.00     0.198 A 
ATOM     68  C   UNL A   1      51.332  26.039  28.824  1.00  0.00     0.198 A 
ATOM     69  F   UNL A   1      49.491  26.525  30.202  1.00  0.00    -0.203 F 
ATOM     70  F   UNL A   1      51.603  25.851  25.216  1.00  0.00    -0.200 F 
ATOM     71  C   UNL A   1      51.877  25.863  27.561  1.00  0.00     0.200 A 
ATOM     72  F   UNL A   1      52.101  25.882  29.910  1.00  0.00    -0.200 F 
ATOM     73  F   UNL A   1      53.165  25.515  27.427  1.00  0.00    -0.200 F 
ENDBRANCH  49  63
BRANCH  50  74
ATOM     74  C   UNL A   1      39.562  28.878  29.123  1.00  0.00     0.064 A 
ATOM     75  C   UNL A   1      38.956  28.772  30.384  1.00  0.00     0.173 A 
ATOM     76  C   UNL A   1      38.767  29.317  28.054  1.00  0.00     0.173 A 
ATOM     77  F   UNL A   1      39.668  28.337  31.434  1.00  0.00    -0.203 F 
ATOM     78  C   UNL A   1      37.607  29.067  30.563  1.00  0.00     0.198 A 
ATOM     79  C   UNL A   1      37.424  29.644  28.241  1.00  0.00     0.198 A 
ATOM     80  F   UNL A   1      39.296  29.440  26.828  1.00  0.00    -0.203 F 
ATOM     81  F   UNL A   1      37.041  28.905  31.767  1.00  0.00    -0.200 F 
ATOM     82  C   UNL A   1      36.843  29.508  29.492  1.00  0.00     0.200 A 
ATOM     83  F   UNL A   1      36.695  30.086  27.208  1.00  0.00    -0.200 F 
ATOM     84  F   UNL A   1      35.546  29.796  29.666  1.00  0.00    -0.200 F 
ENDBRANCH  50  74
BRANCH  62  85
ATOM     85  C   UNL A   1      45.449  32.604  29.228  1.00  0.00     0.064 A 
ATOM     86  C   UNL A   1      45.437  33.511  28.159  1.00  0.00     0.173 A 
ATOM     87  C   UNL A   1      45.706  33.110  30.513  1.00  0.00     0.173 A 
ATOM     88  F   UNL A   1      45.209  33.081  26.909  1.00  0.00    -0.203 F 
ATOM     89  C   UNL A   1      45.708  34.864  28.363  1.00  0.00     0.198 A 
ATOM     90  C   UNL A   1      45.941  34.467  30.718  1.00  0.00     0.198 A 
ATOM     91  F   UNL A   1      45.723  32.289  31.573  1.00  0.00    -0.203 F 
ATOM     92  F   UNL A   1      45.751  35.701  27.317  1.00  0.00    -0.200 F 
ATOM     93  C   UNL A   1      45.953  35.341  29.641  1.00  0.00     0.200 A 
ATOM     94  F   UNL A   1      46.161  34.928  31.957  1.00  0.00    -0.200 F 
ATOM     95  F   UNL A   1      46.210  36.641  29.835  1.00  0.00    -0.200 F 
ENDBRANCH  62  85
ENDBRANCH  36  37
ENDBRANCH  28  31
ENDBRANCH  26  27
ENDBRANCH   1  26
TORSDOF 13
ENDMDL
MODEL 2
REMARK VINA RESULT:     -12.2      4.585      9.976
REMARK SMILES CC[C@@]1(C(=O)NCCCCNC(=O)c2ccc(-c3c4nc(c(-c5c(F)c(F)c(F)c(F)c5F)c5ccc([nH]5)c(-c5c(F)c(F)c(F)c(F)c5F)c5nc(c(-c6c(F)c(F)c(F)c(F)c6F)c6ccc3[nH]6)C=C5)C=C4)cc2)CCCN(c2ncnc3c2CCCC3)C1
REMARK SMILES IDX 9 1 8 2 7 3 6 4 4 5 5 6 3 8 77 9 91 10 78 11 80 12 79 13
REMARK SMILES IDX 2 14 1 15 81 16 82 17 86 18 83 19 85 20 87 21 84 22 90 23
REMARK SMILES IDX 88 24 89 25 10 26 11 27 12 28 13 30 14 31 15 32 76 33 16 34
REMARK SMILES IDX 75 35 17 36 18 37 19 38 69 39 20 40 74 41 68 42 70 43 21 44
REMARK SMILES IDX 73 45 67 46 66 47 22 49 54 50 34 51 53 52 35 53 38 54 52 55
REMARK SMILES IDX 71 56 36 57 37 58 51 60 72 61 39 62 23 63 24 64 32 65 25 66
REMARK SMILES IDX 26 67 30 68 33 69 27 70 28 71 31 72 29 73 55 74 56 75 64 76
REMARK SMILES IDX 57 77 58 78 62 79 65 80 59 81 60 82 63 83 61 84 40 85 41 86
REMARK SMILES IDX 49 87 42 88 43 89 47 90 50 91 44 92 45 93 48 94 46 95
REMARK H PARENT 6 7 11 29 70 48 38 59
REMARK Flexibility Score: inf
ROOT
ATOM      1  C   UNL A   1      32.287  29.403  24.722  1.00  0.00     0.023 C 
ENDROOT
BRANCH   1   2
ATOM      2  C   UNL A   1      33.381  28.557  24.060  1.00  0.00     0.023 C 
BRANCH   2   3
ATOM      3  C   UNL A   1      33.846  27.273  24.761  1.00  0.00     0.116 C 
BRANCH   3   4
ATOM      4  N   UNL A   1      34.028  26.077  23.929  1.00  0.00    -0.356 N 
ATOM      5  C   UNL A   1      33.178  25.106  23.440  1.00  0.00     0.228 C 
ATOM      6  O   UNL A   1      33.695  24.369  22.585  1.00  0.00    -0.274 OA
ATOM      7  H   UNL A   1      34.965  25.936  23.662  1.00  0.00     0.163 HD
BRANCH   5   8
ATOM      8  C   UNL A   1      31.722  24.794  23.931  1.00  0.00     0.066 C 
ATOM      9  C   UNL A   1      31.310  25.115  25.455  1.00  0.00     0.020 C 
ATOM     10  C   UNL A   1      31.347  23.336  23.694  1.00  0.00     0.135 C 
ATOM     11  C   UNL A   1      31.033  23.983  26.501  1.00  0.00     0.023 C 
ATOM     12  N   UNL A   1      31.802  22.509  24.822  1.00  0.00    -0.355 N 
ATOM     13  C   UNL A   1      30.908  22.577  25.948  1.00  0.00     0.118 C 
BRANCH   8  14
ATOM     14  C   UNL A   1      30.894  25.844  23.092  1.00  0.00     0.015 C 
ATOM     15  C   UNL A   1      29.717  26.488  23.876  1.00  0.00     0.005 C 
ENDBRANCH   8  14
BRANCH  12  16
ATOM     16  C   UNL A   1      32.991  21.852  25.030  1.00  0.00     0.135 A 
ATOM     17  N   UNL A   1      33.939  22.632  25.582  1.00  0.00    -0.219 NA
ATOM     18  C   UNL A   1      33.309  20.537  24.625  1.00  0.00     0.016 A 
ATOM     19  C   UNL A   1      35.170  22.123  25.726  1.00  0.00     0.224 A 
ATOM     20  C   UNL A   1      34.608  20.089  24.886  1.00  0.00     0.049 A 
ATOM     21  C   UNL A   1      32.344  19.530  24.067  1.00  0.00     0.041 C 
ATOM     22  N   UNL A   1      35.557  20.883  25.412  1.00  0.00    -0.241 NA
ATOM     23  C   UNL A   1      35.031  18.657  24.626  1.00  0.00     0.057 C 
ATOM     24  C   UNL A   1      32.901  18.234  23.493  1.00  0.00     0.005 C 
ATOM     25  C   UNL A   1      33.879  17.671  24.502  1.00  0.00     0.007 C 
ENDBRANCH  12  16
ENDBRANCH   5   8
ENDBRANCH   3   4
ENDBRANCH   2   3
ENDBRANCH   1   2
BRANCH   1  26
ATOM     26  C   UNL A   1      32.434  29.734  26.209  1.00  0.00     0.116 C 
BRANCH  26  27
ATOM     27  N   UNL A   1      32.296  31.140  26.557  1.00  0.00    -0.352 N 
ATOM     28  C   UNL A   1      33.148  31.979  27.251  1.00  0.00     0.251 C 
ATOM     29  H   UNL A   1      31.460  31.561  26.251  1.00  0.00     0.163 HD
ATOM     30  O   UNL A   1      32.843  33.152  27.421  1.00  0.00    -0.269 OA
BRANCH  28  31
ATOM     31  C   UNL A   1      34.418  31.476  27.839  1.00  0.00     0.039 A 
ATOM     32  C   UNL A   1      35.478  32.364  28.033  1.00  0.00     0.014 A 
ATOM     33  C   UNL A   1      34.592  30.134  28.163  1.00  0.00     0.014 A 
ATOM     34  C   UNL A   1      36.664  31.919  28.635  1.00  0.00     0.010 A 
ATOM     35  C   UNL A   1      35.741  29.703  28.838  1.00  0.00     0.010 A 
ATOM     36  C   UNL A   1      36.792  30.594  29.092  1.00  0.00    -0.014 A 
BRANCH  36  37
ATOM     37  C   UNL A   1      38.005  30.171  29.856  1.00  0.00     0.031 A 
ATOM     38  C   UNL A   1      38.248  30.630  31.272  1.00  0.00     0.074 A 
ATOM     39  C   UNL A   1      38.918  29.373  29.262  1.00  0.00     0.049 A 
ATOM     40  N   UNL A   1      39.220  30.307  32.092  1.00  0.00    -0.248 NA
ATOM     41  C   UNL A   1      37.289  31.590  31.835  1.00  0.00     0.031 C 
ATOM     42  C   UNL A   1      38.852  28.905  27.877  1.00  0.00     0.029 A 
ATOM     43  N   UNL A   1      40.074  28.807  29.746  1.00  0.00    -0.354 N 
ATOM     44  C   UNL A   1      38.987  31.020  33.262  1.00  0.00     0.074 A 
ATOM     45  C   UNL A   1      37.819  31.840  33.023  1.00  0.00     0.031 C 
ATOM     46  C   UNL A   1      39.890  28.089  27.637  1.00  0.00     0.029 A 
ATOM     47  C   UNL A   1      40.718  28.002  28.836  1.00  0.00     0.049 A 
ATOM     48  H   UNL A   1      40.411  28.963  30.658  1.00  0.00     0.167 HD
ATOM     49  C   UNL A   1      39.664  30.976  34.437  1.00  0.00     0.037 A 
ATOM     50  C   UNL A   1      41.843  27.269  28.950  1.00  0.00     0.037 A 
ATOM     51  C   UNL A   1      40.824  30.156  34.683  1.00  0.00     0.049 A 
ATOM     52  C   UNL A   1      42.580  27.240  30.263  1.00  0.00     0.074 A 
ATOM     53  C   UNL A   1      41.544  30.008  35.856  1.00  0.00     0.029 A 
ATOM     54  N   UNL A   1      41.443  29.353  33.736  1.00  0.00    -0.354 N 
ATOM     55  N   UNL A   1      42.294  27.850  31.387  1.00  0.00    -0.248 NA
ATOM     56  C   UNL A   1      43.790  26.408  30.325  1.00  0.00     0.031 C 
ATOM     57  C   UNL A   1      42.630  29.161  35.604  1.00  0.00     0.029 A 
ATOM     58  C   UNL A   1      42.549  28.727  34.292  1.00  0.00     0.049 A 
ATOM     59  H   UNL A   1      41.141  29.244  32.805  1.00  0.00     0.167 HD
ATOM     60  C   UNL A   1      43.263  27.447  32.297  1.00  0.00     0.074 A 
ATOM     61  C   UNL A   1      44.137  26.529  31.598  1.00  0.00     0.031 C 
ATOM     62  C   UNL A   1      43.412  27.805  33.597  1.00  0.00     0.037 A 
BRANCH  49  63
ATOM     63  C   UNL A   1      39.164  31.841  35.562  1.00  0.00     0.064 A 
ATOM     64  C   UNL A   1      38.295  31.342  36.545  1.00  0.00     0.173 A 
ATOM     65  C   UNL A   1      39.595  33.171  35.688  1.00  0.00     0.173 A 
ATOM     66  F   UNL A   1      37.849  30.078  36.473  1.00  0.00    -0.203 F 
ATOM     67  C   UNL A   1      37.849  32.148  37.588  1.00  0.00     0.198 A 
ATOM     68  C   UNL A   1      39.176  33.965  36.752  1.00  0.00     0.198 A 
ATOM     69  F   UNL A   1      40.436  33.699  34.786  1.00  0.00    -0.203 F 
ATOM     70  F   UNL A   1      36.978  31.663  38.484  1.00  0.00    -0.200 F 
ATOM     71  C   UNL A   1      38.295  33.457  37.696  1.00  0.00     0.200 A 
ATOM     72  F   UNL A   1      39.622  35.223  36.866  1.00  0.00    -0.200 F 
ATOM     73  F   UNL A   1      37.873  34.230  38.706  1.00  0.00    -0.200 F 
ENDBRANCH  49  63
BRANCH  50  74
ATOM     74  C   UNL A   1      42.327  26.464  27.795  1.00  0.00     0.064 A 
ATOM     75  C   UNL A   1      41.835  25.172  27.556  1.00  0.00     0.173 A 
ATOM     76  C   UNL A   1      43.300  26.962  26.917  1.00  0.00     0.173 A 
ATOM     77  F   UNL A   1      40.919  24.641  28.379  1.00  0.00    -0.203 F 
ATOM     78  C   UNL A   1      42.315  24.402  26.498  1.00  0.00     0.198 A 
ATOM     79  C   UNL A   1      43.756  26.204  25.840  1.00  0.00     0.198 A 
ATOM     80  F   UNL A   1      43.802  28.193  27.098  1.00  0.00    -0.203 F 
ATOM     81  F   UNL A   1      41.866  23.151  26.325  1.00  0.00    -0.200 F 
ATOM     82  C   UNL A   1      43.271  24.921  25.638  1.00  0.00     0.200 A 
ATOM     83  F   UNL A   1      44.667  26.715  25.001  1.00  0.00    -0.200 F 
ATOM     84  F   UNL A   1      43.729  24.182  24.619  1.00  0.00    -0.200 F 
ENDBRANCH  50  74
BRANCH  62  85
ATOM     85  C   UNL A   1      44.532  27.164  34.368  1.00  0.00     0.064 A 
ATOM     86  C   UNL A   1      45.800  27.753  34.469  1.00  0.00     0.173 A 
ATOM     87  C   UNL A   1      44.321  25.947  35.037  1.00  0.00     0.173 A 
ATOM     88  F   UNL A   1      46.060  28.909  33.839  1.00  0.00    -0.203 F 
ATOM     89  C   UNL A   1      46.827  27.131  35.178  1.00  0.00     0.198 A 
ATOM     90  C   UNL A   1      45.339  25.346  35.775  1.00  0.00     0.198 A 
ATOM     91  F   UNL A   1      43.126  25.342  34.982  1.00  0.00    -0.203 F 
ATOM     92  F   UNL A   1      48.047  27.684  35.208  1.00  0.00    -0.200 F 
ATOM     93  C   UNL A   1      46.593  25.933  35.835  1.00  0.00     0.200 A 
ATOM     94  F   UNL A   1      45.105  24.197  36.423  1.00  0.00    -0.200 F 
ATOM     95  F   UNL A   1      47.580  25.338  36.519  1.00  0.00    -0.200 F 
ENDBRANCH  62  85
ENDBRANCH  36  37
ENDBRANCH  28  31
ENDBRANCH  26  27
ENDBRANCH   1  26
TORSDOF 13
ENDMDL
MODEL 3
REMARK VINA RESULT:     -12.2      0.522      7.324
REMARK SMILES CC[C@@]1(C(=O)NCCCCNC(=O)c2ccc(-c3c4nc(c(-c5c(F)c(F)c(F)c(F)c5F)c5ccc([nH]5)c(-c5c(F)c(F)c(F)c(F)c5F)c5nc(c(-c6c(F)c(F)c(F)c(F)c6F)c6ccc3[nH]6)C=C5)C=C4)cc2)CCCN(c2ncnc3c2CCCC3)C1
REMARK SMILES IDX 9 1 8 2 7 3 6 4 4 5 5 6 3 8 77 9 91 10 78 11 80 12 79 13
REMARK SMILES IDX 2 14 1 15 81 16 82 17 86 18 83 19 85 20 87 21 84 22 90 23
REMARK SMILES IDX 88 24 89 25 10 26 11 27 12 28 13 30 14 31 15 32 76 33 16 34
REMARK SMILES IDX 75 35 17 36 18 37 19 38 69 39 20 40 74 41 68 42 70 43 21 44
REMARK SMILES IDX 73 45 67 46 66 47 22 49 54 50 34 51 53 52 35 53 38 54 52 55
REMARK SMILES IDX 71 56 36 57 37 58 51 60 72 61 39 62 23 63 24 64 32 65 25 66
REMARK SMILES IDX 26 67 30 68 33 69 27 70 28 71 31 72 29 73 55 74 56 75 64 76
REMARK SMILES IDX 57 77 58 78 62 79 65 80 59 81 60 82 63 83 61 84 40 85 41 86
REMARK SMILES IDX 49 87 42 88 43 89 47 90 50 91 44 92 45 93 48 94 46 95
REMARK H PARENT 6 7 11 29 70 48 38 59
REMARK Flexibility Score: inf
ROOT
ATOM      1  C   UNL A   1      39.254  21.168  25.442  1.00  0.00     0.023 C 
ENDROOT
BRANCH   1   2
ATOM      2  C   UNL A   1      39.067  22.476  26.219  1.00  0.00     0.023 C 
BRANCH   2   3
ATOM      3  C   UNL A   1      37.910  23.407  25.828  1.00  0.00     0.116 C 
BRANCH   3   4
ATOM      4  N   UNL A   1      37.333  23.241  24.489  1.00  0.00    -0.356 N 
ATOM      5  C   UNL A   1      36.070  22.949  24.014  1.00  0.00     0.228 C 
ATOM      6  O   UNL A   1      35.944  23.109  22.789  1.00  0.00    -0.274 OA
ATOM      7  H   UNL A   1      37.994  23.363  23.770  1.00  0.00     0.163 HD
BRANCH   5   8
ATOM      8  C   UNL A   1      34.872  22.350  24.829  1.00  0.00     0.066 C 
ATOM      9  C   UNL A   1      33.701  21.558  24.056  1.00  0.00     0.020 C 
ATOM     10  C   UNL A   1      34.175  23.413  25.670  1.00  0.00     0.135 C 
ATOM     11  C   UNL A   1      32.253  22.140  23.914  1.00  0.00     0.023 C 
ATOM     12  N   UNL A   1      33.157  24.105  24.865  1.00  0.00    -0.355 N 
ATOM     13  C   UNL A   1      31.933  23.354  24.764  1.00  0.00     0.118 C 
BRANCH   8  14
ATOM     14  C   UNL A   1      35.607  21.220  25.651  1.00  0.00     0.015 C 
ATOM     15  C   UNL A   1      35.773  19.885  24.874  1.00  0.00     0.005 C 
ENDBRANCH   8  14
BRANCH  12  16
ATOM     16  C   UNL A   1      33.248  25.226  24.075  1.00  0.00     0.135 A 
ATOM     17  N   UNL A   1      33.203  24.952  22.758  1.00  0.00    -0.219 NA
ATOM     18  C   UNL A   1      33.489  26.547  24.512  1.00  0.00     0.016 A 
ATOM     19  C   UNL A   1      33.395  25.960  21.897  1.00  0.00     0.224 A 
ATOM     20  C   UNL A   1      33.607  27.531  23.524  1.00  0.00     0.049 A 
ATOM     21  C   UNL A   1      33.491  27.016  25.939  1.00  0.00     0.041 C 
ATOM     22  N   UNL A   1      33.589  27.245  22.210  1.00  0.00    -0.241 NA
ATOM     23  C   UNL A   1      33.728  29.003  23.866  1.00  0.00     0.057 C 
ATOM     24  C   UNL A   1      33.973  28.430  26.235  1.00  0.00     0.005 C 
ATOM     25  C   UNL A   1      33.270  29.363  25.272  1.00  0.00     0.007 C 
ENDBRANCH  12  16
ENDBRANCH   5   8
ENDBRANCH   3   4
ENDBRANCH   2   3
ENDBRANCH   1   2
BRANCH   1  26
ATOM     26  C   UNL A   1      39.298  19.860  26.236  1.00  0.00     0.116 C 
BRANCH  26  27
ATOM     27  N   UNL A   1      40.422  18.982  25.942  1.00  0.00    -0.352 N 
ATOM     28  C   UNL A   1      41.782  19.202  26.051  1.00  0.00     0.251 C 
ATOM     29  H   UNL A   1      40.172  18.089  25.611  1.00  0.00     0.163 HD
ATOM     30  O   UNL A   1      42.568  18.309  25.764  1.00  0.00    -0.269 OA
BRANCH  28  31
ATOM     31  C   UNL A   1      42.321  20.524  26.470  1.00  0.00     0.039 A 
ATOM     32  C   UNL A   1      42.946  21.337  25.522  1.00  0.00     0.014 A 
ATOM     33  C   UNL A   1      42.255  20.954  27.791  1.00  0.00     0.014 A 
ATOM     34  C   UNL A   1      43.412  22.608  25.887  1.00  0.00     0.010 A 
ATOM     35  C   UNL A   1      42.644  22.252  28.142  1.00  0.00     0.010 A 
ATOM     36  C   UNL A   1      43.221  23.104  27.191  1.00  0.00    -0.014 A 
BRANCH  36  37
ATOM     37  C   UNL A   1      43.597  24.510  27.528  1.00  0.00     0.031 A 
ATOM     38  C   UNL A   1      42.555  25.550  27.854  1.00  0.00     0.074 A 
ATOM     39  C   UNL A   1      44.898  24.868  27.524  1.00  0.00     0.049 A 
ATOM     40  N   UNL A   1      42.718  26.798  28.224  1.00  0.00    -0.248 NA
ATOM     41  C   UNL A   1      41.148  25.145  27.732  1.00  0.00     0.031 C 
ATOM     42  C   UNL A   1      46.011  23.989  27.162  1.00  0.00     0.029 A 
ATOM     43  N   UNL A   1      45.509  26.059  27.840  1.00  0.00    -0.354 N 
ATOM     44  C   UNL A   1      41.439  27.322  28.379  1.00  0.00     0.074 A 
ATOM     45  C   UNL A   1      40.513  26.276  28.002  1.00  0.00     0.031 C 
ATOM     46  C   UNL A   1      47.167  24.653  27.322  1.00  0.00     0.029 A 
ATOM     47  C   UNL A   1      46.881  26.016  27.761  1.00  0.00     0.049 A 
ATOM     48  H   UNL A   1      45.011  26.868  28.098  1.00  0.00     0.167 HD
ATOM     49  C   UNL A   1      41.069  28.550  28.821  1.00  0.00     0.037 A 
ATOM     50  C   UNL A   1      47.808  26.958  28.018  1.00  0.00     0.037 A 
ATOM     51  C   UNL A   1      41.987  29.593  29.205  1.00  0.00     0.049 A 
ATOM     52  C   UNL A   1      47.372  28.316  28.502  1.00  0.00     0.074 A 
ATOM     53  C   UNL A   1      41.703  30.849  29.713  1.00  0.00     0.029 A 
ATOM     54  N   UNL A   1      43.368  29.508  29.112  1.00  0.00    -0.354 N 
ATOM     55  N   UNL A   1      46.161  28.764  28.730  1.00  0.00    -0.248 NA
ATOM     56  C   UNL A   1      48.434  29.293  28.780  1.00  0.00     0.031 C 
ATOM     57  C   UNL A   1      42.908  31.543  29.874  1.00  0.00     0.029 A 
ATOM     58  C   UNL A   1      43.948  30.696  29.530  1.00  0.00     0.049 A 
ATOM     59  H   UNL A   1      43.865  28.718  28.795  1.00  0.00     0.167 HD
ATOM     60  C   UNL A   1      46.318  30.058  29.211  1.00  0.00     0.074 A 
ATOM     61  C   UNL A   1      47.742  30.318  29.256  1.00  0.00     0.031 C 
ATOM     62  C   UNL A   1      45.366  30.949  29.584  1.00  0.00     0.037 A 
BRANCH  49  63
ATOM     63  C   UNL A   1      39.595  28.838  28.923  1.00  0.00     0.064 A 
ATOM     64  C   UNL A   1      38.905  28.728  30.140  1.00  0.00     0.173 A 
ATOM     65  C   UNL A   1      38.873  29.275  27.802  1.00  0.00     0.173 A 
ATOM     66  F   UNL A   1      39.545  28.312  31.244  1.00  0.00    -0.203 F 
ATOM     67  C   UNL A   1      37.544  29.010  30.224  1.00  0.00     0.198 A 
ATOM     68  C   UNL A   1      37.520  29.591  27.896  1.00  0.00     0.198 A 
ATOM     69  F   UNL A   1      39.482  29.412  26.614  1.00  0.00    -0.203 F 
ATOM     70  F   UNL A   1      36.898  28.847  31.386  1.00  0.00    -0.200 F 
ATOM     71  C   UNL A   1      36.854  29.448  29.104  1.00  0.00     0.200 A 
ATOM     72  F   UNL A   1      36.859  30.032  26.817  1.00  0.00    -0.200 F 
ATOM     73  F   UNL A   1      35.546  29.729  29.188  1.00  0.00    -0.200 F 
ENDBRANCH  49  63
BRANCH  50  74
ATOM     74  C   UNL A   1      49.254  26.643  27.859  1.00  0.00     0.064 A 
ATOM     75  C   UNL A   1      50.060  26.361  28.972  1.00  0.00     0.173 A 
ATOM     76  C   UNL A   1      49.862  26.632  26.596  1.00  0.00     0.173 A 
ATOM     77  F   UNL A   1      49.531  26.381  30.204  1.00  0.00    -0.203 F 
ATOM     78  C   UNL A   1      51.422  26.104  28.830  1.00  0.00     0.198 A 
ATOM     79  C   UNL A   1      51.218  26.341  26.451  1.00  0.00     0.198 A 
ATOM     80  F   UNL A   1      49.138  26.891  25.497  1.00  0.00    -0.203 F 
ATOM     81  F   UNL A   1      52.179  25.891  29.915  1.00  0.00    -0.200 F 
ATOM     82  C   UNL A   1      51.999  26.089  27.569  1.00  0.00     0.200 A 
ATOM     83  F   UNL A   1      51.768  26.311  25.230  1.00  0.00    -0.200 F 
ATOM     84  F   UNL A   1      53.308  25.838  27.432  1.00  0.00    -0.200 F 
ENDBRANCH  50  74
BRANCH  62  85
ATOM     85  C   UNL A   1      45.830  32.273  30.126  1.00  0.00     0.064 A 
ATOM     86  C   UNL A   1      46.096  32.467  31.489  1.00  0.00     0.173 A 
ATOM     87  C   UNL A   1      46.033  33.359  29.259  1.00  0.00     0.173 A 
ATOM     88  F   UNL A   1      45.907  31.467  32.364  1.00  0.00    -0.203 F 
ATOM     89  C   UNL A   1      46.511  33.708  31.970  1.00  0.00     0.198 A 
ATOM     90  C   UNL A   1      46.483  34.587  29.738  1.00  0.00     0.198 A 
ATOM     91  F   UNL A   1      45.803  33.228  27.945  1.00  0.00    -0.203 F 
ATOM     92  F   UNL A   1      46.699  33.886  33.285  1.00  0.00    -0.200 F 
ATOM     93  C   UNL A   1      46.710  34.763  31.093  1.00  0.00     0.200 A 
ATOM     94  F   UNL A   1      46.690  35.600  28.886  1.00  0.00    -0.200 F 
ATOM     95  F   UNL A   1      47.112  35.955  31.557  1.00  0.00    -0.200 F 
ENDBRANCH  62  85
ENDBRANCH  36  37
ENDBRANCH  28  31
ENDBRANCH  26  27
ENDBRANCH   1  26
TORSDOF 13
ENDMDL
