MODEL 1
REMARK VINA RESULT:     -12.3      0.000      0.000
REMARK SMILES O=C(NCCCCNC(=O)[C@@]1([NH2+]C2CC2)CC[C@@H]([N@@H+]2CC[N@@H+]3CCC[C@@H]3C2)C1)c1ccc(-c2c3nc(c(-c4c(F)c(F)c(F)c(F)c4F)c4ccc([nH]4)c(-c4c(F)c(F)c(F)c(F)c4F)c4nc(c(-c5c(F)c(F)c(F)c(F)c5F)c5ccc2[nH]5)C=C4)C=C3)cc1
REMARK SMILES IDX 5 1 4 2 3 3 1 4 2 5 29 7 30 8 91 9 31 10 90 11 32 12 33 13
REMARK SMILES IDX 34 14 84 15 35 16 89 17 83 18 85 19 36 20 88 21 82 22 81 23
REMARK SMILES IDX 37 25 69 26 49 27 68 28 50 29 53 30 67 31 86 32 51 33 52 34
REMARK SMILES IDX 66 36 87 37 54 38 38 39 39 40 47 41 40 42 41 43 45 44 48 45
REMARK SMILES IDX 42 46 43 47 46 48 44 49 70 50 71 51 79 52 72 53 73 54 77 55
REMARK SMILES IDX 80 56 74 57 75 58 78 59 76 60 55 61 56 62 64 63 57 64 58 65
REMARK SMILES IDX 62 66 65 67 59 68 60 69 63 70 61 71 6 72 7 73 8 74 9 75
REMARK SMILES IDX 10 77 11 78 16 79 28 80 17 81 18 82 12 83 13 86 14 87 15 88
REMARK SMILES IDX 19 89 20 90 27 91 21 93 26 94 22 95 25 96 23 97 24 99
REMARK H PARENT 3 6 85 24 53 35 8 76 12 84 12 85 19 92 22 98
REMARK Flexibility Score: inf
ROOT
ATOM      1  C   UNL A   1      37.900  19.963  24.694  1.00  0.00     0.023 C 
ENDROOT
BRANCH   1   2
ATOM      2  C   UNL A   1      38.989  20.264  25.722  1.00  0.00     0.116 C 
BRANCH   2   3
ATOM      3  N   UNL A   1      40.033  19.252  25.800  1.00  0.00    -0.352 N 
ATOM      4  O   UNL A   1      42.079  18.347  26.050  1.00  0.00    -0.269 OA
ATOM      5  C   UNL A   1      41.367  19.341  26.131  1.00  0.00     0.251 C 
ATOM      6  H   UNL A   1      39.731  18.342  25.579  1.00  0.00     0.163 HD
BRANCH   5   7
ATOM      7  C   UNL A   1      41.971  20.633  26.535  1.00  0.00     0.039 A 
ATOM      8  C   UNL A   1      42.198  20.952  27.873  1.00  0.00     0.014 A 
ATOM      9  C   UNL A   1      42.342  21.544  25.539  1.00  0.00     0.014 A 
ATOM     10  C   UNL A   1      42.592  22.241  28.223  1.00  0.00     0.010 A 
ATOM     11  C   UNL A   1      42.833  22.807  25.887  1.00  0.00     0.010 A 
ATOM     12  C   UNL A   1      42.904  23.190  27.235  1.00  0.00    -0.014 A 
BRANCH  12  13
ATOM     13  C   UNL A   1      43.298  24.567  27.638  1.00  0.00     0.031 A 
ATOM     14  C   UNL A   1      44.738  25.004  27.595  1.00  0.00     0.074 A 
ATOM     15  C   UNL A   1      42.345  25.449  27.999  1.00  0.00     0.049 A 
ATOM     16  N   UNL A   1      45.258  26.176  27.868  1.00  0.00    -0.248 NA
ATOM     17  C   UNL A   1      45.730  23.991  27.201  1.00  0.00     0.031 C 
ATOM     18  C   UNL A   1      40.915  25.149  28.087  1.00  0.00     0.029 A 
ATOM     19  N   UNL A   1      42.429  26.776  28.335  1.00  0.00    -0.354 N 
ATOM     20  C   UNL A   1      46.630  26.035  27.705  1.00  0.00     0.074 A 
ATOM     21  C   UNL A   1      46.869  24.657  27.334  1.00  0.00     0.031 C 
ATOM     22  C   UNL A   1      40.251  26.272  28.397  1.00  0.00     0.029 A 
ATOM     23  C   UNL A   1      41.210  27.355  28.586  1.00  0.00     0.049 A 
ATOM     24  H   UNL A   1      43.282  27.266  28.389  1.00  0.00     0.167 HD
ATOM     25  C   UNL A   1      47.601  26.972  27.841  1.00  0.00     0.037 A 
ATOM     26  C   UNL A   1      40.897  28.617  28.937  1.00  0.00     0.037 A 
ATOM     27  C   UNL A   1      47.362  28.350  28.183  1.00  0.00     0.049 A 
ATOM     28  C   UNL A   1      41.993  29.631  29.096  1.00  0.00     0.074 A 
ATOM     29  C   UNL A   1      48.276  29.383  28.299  1.00  0.00     0.029 A 
ATOM     30  N   UNL A   1      46.115  28.889  28.469  1.00  0.00    -0.354 N 
ATOM     31  N   UNL A   1      43.282  29.491  28.907  1.00  0.00    -0.248 NA
ATOM     32  C   UNL A   1      41.589  30.977  29.523  1.00  0.00     0.031 C 
ATOM     33  C   UNL A   1      47.589  30.535  28.699  1.00  0.00     0.029 A 
ATOM     34  C   UNL A   1      46.240  30.234  28.785  1.00  0.00     0.049 A 
ATOM     35  H   UNL A   1      45.268  28.389  28.450  1.00  0.00     0.167 HD
ATOM     36  C   UNL A   1      43.842  30.732  29.173  1.00  0.00     0.074 A 
ATOM     37  C   UNL A   1      42.750  31.617  29.521  1.00  0.00     0.031 C 
ATOM     38  C   UNL A   1      45.145  31.104  29.131  1.00  0.00     0.037 A 
BRANCH  25  39
ATOM     39  C   UNL A   1      49.024  26.530  27.642  1.00  0.00     0.064 A 
ATOM     40  C   UNL A   1      49.580  26.377  26.363  1.00  0.00     0.173 A 
ATOM     41  C   UNL A   1      49.851  26.285  28.749  1.00  0.00     0.173 A 
ATOM     42  F   UNL A   1      48.830  26.588  25.271  1.00  0.00    -0.203 F 
ATOM     43  C   UNL A   1      50.902  25.966  26.200  1.00  0.00     0.198 A 
ATOM     44  C   UNL A   1      51.179  25.901  28.582  1.00  0.00     0.198 A 
ATOM     45  F   UNL A   1      49.373  26.424  29.994  1.00  0.00    -0.203 F 
ATOM     46  F   UNL A   1      51.396  25.778  24.968  1.00  0.00    -0.200 F 
ATOM     47  C   UNL A   1      51.701  25.733  27.309  1.00  0.00     0.200 A 
ATOM     48  F   UNL A   1      51.955  25.689  29.655  1.00  0.00    -0.200 F 
ATOM     49  F   UNL A   1      52.972  25.340  27.149  1.00  0.00    -0.200 F 
ENDBRANCH  25  39
BRANCH  26  50
ATOM     50  C   UNL A   1      39.473  28.986  29.141  1.00  0.00     0.064 A 
ATOM     51  C   UNL A   1      38.682  29.417  28.069  1.00  0.00     0.173 A 
ATOM     52  C   UNL A   1      38.869  28.883  30.402  1.00  0.00     0.173 A 
ATOM     53  F   UNL A   1      39.222  29.549  26.848  1.00  0.00    -0.203 F 
ATOM     54  C   UNL A   1      37.338  29.735  28.251  1.00  0.00     0.198 A 
ATOM     55  C   UNL A   1      37.518  29.175  30.577  1.00  0.00     0.198 A 
ATOM     56  F   UNL A   1      39.585  28.472  31.459  1.00  0.00    -0.203 F 
ATOM     57  F   UNL A   1      36.609  30.172  27.215  1.00  0.00    -0.200 F 
ATOM     58  C   UNL A   1      36.755  29.605  29.503  1.00  0.00     0.200 A 
ATOM     59  F   UNL A   1      36.956  29.034  31.786  1.00  0.00    -0.200 F 
ATOM     60  F   UNL A   1      35.459  29.897  29.674  1.00  0.00    -0.200 F 
ENDBRANCH  26  50
BRANCH  38  61
ATOM     61  C   UNL A   1      45.457  32.537  29.443  1.00  0.00     0.064 A 
ATOM     62  C   UNL A   1      45.783  32.953  30.743  1.00  0.00     0.173 A 
ATOM     63  C   UNL A   1      45.455  33.502  28.425  1.00  0.00     0.173 A 
ATOM     64  F   UNL A   1      45.781  32.070  31.753  1.00  0.00    -0.203 F 
ATOM     65  C   UNL A   1      46.068  34.288  31.016  1.00  0.00     0.198 A 
ATOM     66  C   UNL A   1      45.767  34.832  28.697  1.00  0.00     0.198 A 
ATOM     67  F   UNL A   1      45.156  33.155  27.165  1.00  0.00    -0.203 F 
ATOM     68  F   UNL A   1      46.328  34.671  32.274  1.00  0.00    -0.200 F 
ATOM     69  C   UNL A   1      46.066  35.224  29.993  1.00  0.00     0.200 A 
ATOM     70  F   UNL A   1      45.775  35.733  27.705  1.00  0.00    -0.200 F 
ATOM     71  F   UNL A   1      46.343  36.508  30.258  1.00  0.00    -0.200 F 
ENDBRANCH  38  61
ENDBRANCH  12  13
ENDBRANCH   5   7
ENDBRANCH   2   3
ENDBRANCH   1   2
BRANCH   1  72
ATOM     72  C   UNL A   1      36.461  20.332  25.074  1.00  0.00     0.023 C 
BRANCH  72  73
ATOM     73  C   UNL A   1      36.242  21.747  25.608  1.00  0.00     0.116 C 
BRANCH  73  74
ATOM     74  N   UNL A   1      35.407  21.836  26.789  1.00  0.00    -0.351 N 
ATOM     75  C   UNL A   1      34.042  21.934  26.874  1.00  0.00     0.281 C 
ATOM     76  H   UNL A   1      35.886  21.823  27.648  1.00  0.00     0.163 HD
ATOM     77  O   UNL A   1      33.563  21.774  28.004  1.00  0.00    -0.268 OA
BRANCH  75  78
ATOM     78  C   UNL A   1      33.132  22.350  25.673  1.00  0.00     0.181 C 
ATOM     79  C   UNL A   1      31.685  22.678  26.095  1.00  0.00     0.085 C 
ATOM     80  C   UNL A   1      33.582  23.778  25.216  1.00  0.00     0.144 C 
ATOM     81  C   UNL A   1      31.160  23.541  24.954  1.00  0.00     0.072 C 
ATOM     82  C   UNL A   1      32.324  24.501  24.659  1.00  0.00     0.191 C 
BRANCH  78  83
ATOM     83  N   UNL A   1      33.165  21.411  24.527  1.00  0.00    -0.331 N 
ATOM     84  H   UNL A   1      34.145  21.169  24.382  1.00  0.00     0.347 HD
ATOM     85  H   UNL A   1      32.675  21.935  23.803  1.00  0.00     0.347 HD
BRANCH  83  86
ATOM     86  C   UNL A   1      32.425  20.142  24.548  1.00  0.00     0.183 C 
ATOM     87  C   UNL A   1      32.898  18.857  23.932  1.00  0.00     0.071 C 
ATOM     88  C   UNL A   1      32.818  18.994  25.428  1.00  0.00     0.071 C 
ENDBRANCH  83  86
ENDBRANCH  78  83
BRANCH  82  89
ATOM     89  N   UNL A   1      32.044  25.847  25.166  1.00  0.00    -0.323 N 
ATOM     90  C   UNL A   1      31.150  26.678  24.345  1.00  0.00     0.324 C 
ATOM     91  C   UNL A   1      33.145  26.621  25.740  1.00  0.00     0.328 C 
ATOM     92  H   UNL A   1      31.507  25.566  25.986  1.00  0.00     0.348 HD
ATOM     93  C   UNL A   1      31.328  28.221  24.516  1.00  0.00     0.324 C 
ATOM     94  C   UNL A   1      32.573  27.782  26.581  1.00  0.00     0.240 C 
ATOM     95  N   UNL A   1      31.622  28.670  25.884  1.00  0.00    -0.323 N 
ATOM     96  C   UNL A   1      33.667  28.678  27.155  1.00  0.00     0.077 C 
ATOM     97  C   UNL A   1      32.154  30.036  25.945  1.00  0.00     0.263 C 
ATOM     98  H   UNL A   1      30.717  28.644  26.352  1.00  0.00     0.348 HD
ATOM     99  C   UNL A   1      33.011  30.043  27.200  1.00  0.00     0.068 C 
ENDBRANCH  82  89
ENDBRANCH  75  78
ENDBRANCH  73  74
ENDBRANCH  72  73
ENDBRANCH   1  72
TORSDOF 14
ENDMDL
MODEL 2
REMARK VINA RESULT:     -12.3      5.245     10.734
REMARK SMILES O=C(NCCCCNC(=O)[C@@]1([NH2+]C2CC2)CC[C@@H]([N@@H+]2CC[N@@H+]3CCC[C@@H]3C2)C1)c1ccc(-c2c3nc(c(-c4c(F)c(F)c(F)c(F)c4F)c4ccc([nH]4)c(-c4c(F)c(F)c(F)c(F)c4F)c4nc(c(-c5c(F)c(F)c(F)c(F)c5F)c5ccc2[nH]5)C=C4)C=C3)cc1
REMARK SMILES IDX 5 1 4 2 3 3 1 4 2 5 29 7 30 8 91 9 31 10 90 11 32 12 33 13
REMARK SMILES IDX 34 14 84 15 35 16 89 17 83 18 85 19 36 20 88 21 82 22 81 23
REMARK SMILES IDX 37 25 69 26 49 27 68 28 50 29 53 30 67 31 86 32 51 33 52 34
REMARK SMILES IDX 66 36 87 37 54 38 38 39 39 40 47 41 40 42 41 43 45 44 48 45
REMARK SMILES IDX 42 46 43 47 46 48 44 49 70 50 71 51 79 52 72 53 73 54 77 55
REMARK SMILES IDX 80 56 74 57 75 58 78 59 76 60 55 61 56 62 64 63 57 64 58 65
REMARK SMILES IDX 62 66 65 67 59 68 60 69 63 70 61 71 6 72 7 73 8 74 9 75
REMARK SMILES IDX 10 77 11 78 16 79 28 80 17 81 18 82 12 83 13 86 14 87 15 88
REMARK SMILES IDX 19 89 20 90 27 91 21 93 26 94 22 95 25 96 23 97 24 99
REMARK H PARENT 3 6 85 24 53 35 8 76 12 84 12 85 19 92 22 98
REMARK Flexibility Score: inf
ROOT
ATOM      1  C   UNL A   1      31.378  31.968  26.895  1.00  0.00     0.023 C 
ENDROOT
BRANCH   1   2
ATOM      2  C   UNL A   1      32.627  32.823  27.101  1.00  0.00     0.116 C 
BRANCH   2   3
ATOM      3  N   UNL A   1      32.359  34.160  27.611  1.00  0.00    -0.352 N 
ATOM      4  O   UNL A   1      32.526  35.999  28.898  1.00  0.00    -0.269 OA
ATOM      5  C   UNL A   1      32.988  34.909  28.580  1.00  0.00     0.251 C 
ATOM      6  H   UNL A   1      31.592  34.608  27.187  1.00  0.00     0.163 HD
BRANCH   5   7
ATOM      7  C   UNL A   1      34.189  34.399  29.283  1.00  0.00     0.039 A 
ATOM      8  C   UNL A   1      35.472  34.572  28.768  1.00  0.00     0.014 A 
ATOM      9  C   UNL A   1      34.024  33.746  30.511  1.00  0.00     0.014 A 
ATOM     10  C   UNL A   1      36.552  33.921  29.358  1.00  0.00     0.010 A 
ATOM     11  C   UNL A   1      35.125  33.174  31.158  1.00  0.00     0.010 A 
ATOM     12  C   UNL A   1      36.391  33.204  30.556  1.00  0.00    -0.014 A 
BRANCH  12  13
ATOM     13  C   UNL A   1      37.558  32.497  31.151  1.00  0.00     0.031 A 
ATOM     14  C   UNL A   1      38.015  32.804  32.553  1.00  0.00     0.074 A 
ATOM     15  C   UNL A   1      38.181  31.536  30.442  1.00  0.00     0.049 A 
ATOM     16  N   UNL A   1      38.983  32.256  33.247  1.00  0.00    -0.248 NA
ATOM     17  C   UNL A   1      37.298  33.869  33.270  1.00  0.00     0.031 C 
ATOM     18  C   UNL A   1      37.839  31.149  29.073  1.00  0.00     0.029 A 
ATOM     19  N   UNL A   1      39.212  30.696  30.779  1.00  0.00    -0.354 N 
ATOM     20  C   UNL A   1      39.007  32.924  34.465  1.00  0.00     0.074 A 
ATOM     21  C   UNL A   1      37.975  33.937  34.407  1.00  0.00     0.031 C 
ATOM     22  C   UNL A   1      38.606  30.112  28.706  1.00  0.00     0.029 A 
ATOM     23  C   UNL A   1      39.532  29.799  29.790  1.00  0.00     0.049 A 
ATOM     24  H   UNL A   1      39.677  30.734  31.646  1.00  0.00     0.167 HD
ATOM     25  C   UNL A   1      39.810  32.707  35.536  1.00  0.00     0.037 A 
ATOM     26  C   UNL A   1      40.469  28.833  29.756  1.00  0.00     0.037 A 
ATOM     27  C   UNL A   1      40.819  31.682  35.604  1.00  0.00     0.049 A 
ATOM     28  C   UNL A   1      41.355  28.623  30.949  1.00  0.00     0.074 A 
ATOM     29  C   UNL A   1      41.649  31.354  36.662  1.00  0.00     0.029 A 
ATOM     30  N   UNL A   1      41.139  30.817  34.566  1.00  0.00    -0.354 N 
ATOM     31  N   UNL A   1      41.345  29.241  32.105  1.00  0.00    -0.248 NA
ATOM     32  C   UNL A   1      42.387  27.585  30.831  1.00  0.00     0.031 C 
ATOM     33  C   UNL A   1      42.502  30.324  36.250  1.00  0.00     0.029 A 
ATOM     34  C   UNL A   1      42.170  29.974  34.951  1.00  0.00     0.049 A 
ATOM     35  H   UNL A   1      40.697  30.805  33.686  1.00  0.00     0.167 HD
ATOM     36  C   UNL A   1      42.352  28.656  32.858  1.00  0.00     0.074 A 
ATOM     37  C   UNL A   1      42.944  27.622  32.034  1.00  0.00     0.031 C 
ATOM     38  C   UNL A   1      42.751  28.950  34.120  1.00  0.00     0.037 A 
BRANCH  25  39
ATOM     39  C   UNL A   1      39.645  33.615  36.722  1.00  0.00     0.064 A 
ATOM     40  C   UNL A   1      40.301  34.852  36.807  1.00  0.00     0.173 A 
ATOM     41  C   UNL A   1      38.792  33.253  37.777  1.00  0.00     0.173 A 
ATOM     42  F   UNL A   1      41.136  35.241  35.831  1.00  0.00    -0.203 F 
ATOM     43  C   UNL A   1      40.134  35.678  37.916  1.00  0.00     0.198 A 
ATOM     44  C   UNL A   1      38.606  34.094  38.871  1.00  0.00     0.198 A 
ATOM     45  F   UNL A   1      38.133  32.085  37.743  1.00  0.00    -0.203 F 
ATOM     46  F   UNL A   1      40.811  36.833  37.997  1.00  0.00    -0.200 F 
ATOM     47  C   UNL A   1      39.284  35.301  38.944  1.00  0.00     0.200 A 
ATOM     48  F   UNL A   1      37.773  33.734  39.858  1.00  0.00    -0.200 F 
ATOM     49  F   UNL A   1      39.123  36.099  40.010  1.00  0.00    -0.200 F 
ENDBRANCH  25  39
BRANCH  26  50
ATOM     50  C   UNL A   1      40.598  27.983  28.545  1.00  0.00     0.064 A 
ATOM     51  C   UNL A   1      41.366  28.403  27.451  1.00  0.00     0.173 A 
ATOM     52  C   UNL A   1      39.985  26.725  28.471  1.00  0.00     0.173 A 
ATOM     53  F   UNL A   1      41.955  29.608  27.468  1.00  0.00    -0.203 F 
ATOM     54  C   UNL A   1      41.513  27.596  26.325  1.00  0.00     0.198 A 
ATOM     55  C   UNL A   1      40.155  25.907  27.357  1.00  0.00     0.198 A 
ATOM     56  F   UNL A   1      39.242  26.278  29.494  1.00  0.00    -0.203 F 
ATOM     57  F   UNL A   1      42.229  28.031  25.281  1.00  0.00    -0.200 F 
ATOM     58  C   UNL A   1      40.915  26.344  26.283  1.00  0.00     0.200 A 
ATOM     59  F   UNL A   1      39.588  24.693  27.326  1.00  0.00    -0.200 F 
ATOM     60  F   UNL A   1      41.070  25.562  25.206  1.00  0.00    -0.200 F 
ENDBRANCH  26  50
BRANCH  38  61
ATOM     61  C   UNL A   1      43.861  28.122  34.696  1.00  0.00     0.064 A 
ATOM     62  C   UNL A   1      43.608  26.915  35.366  1.00  0.00     0.173 A 
ATOM     63  C   UNL A   1      45.196  28.529  34.557  1.00  0.00     0.173 A 
ATOM     64  F   UNL A   1      42.347  26.492  35.540  1.00  0.00    -0.203 F 
ATOM     65  C   UNL A   1      44.650  26.160  35.897  1.00  0.00     0.198 A 
ATOM     66  C   UNL A   1      46.237  27.758  35.066  1.00  0.00     0.198 A 
ATOM     67  F   UNL A   1      45.491  29.673  33.921  1.00  0.00    -0.203 F 
ATOM     68  F   UNL A   1      44.381  25.035  36.574  1.00  0.00    -0.200 F 
ATOM     69  C   UNL A   1      45.963  26.579  35.741  1.00  0.00     0.200 A 
ATOM     70  F   UNL A   1      47.507  28.158  34.905  1.00  0.00    -0.200 F 
ATOM     71  F   UNL A   1      46.965  25.849  36.251  1.00  0.00    -0.200 F 
ENDBRANCH  38  61
ENDBRANCH  12  13
ENDBRANCH   5   7
ENDBRANCH   2   3
ENDBRANCH   1   2
BRANCH   1  72
ATOM     72  C   UNL A   1      31.400  30.968  25.732  1.00  0.00     0.023 C 
BRANCH  72  73
ATOM     73  C   UNL A   1      32.413  29.828  25.837  1.00  0.00     0.116 C 
BRANCH  73  74
ATOM     74  N   UNL A   1      33.284  29.673  24.689  1.00  0.00    -0.351 N 
ATOM     75  C   UNL A   1      33.152  28.831  23.615  1.00  0.00     0.281 C 
ATOM     76  H   UNL A   1      34.079  30.253  24.679  1.00  0.00     0.163 HD
ATOM     77  O   UNL A   1      33.917  29.051  22.666  1.00  0.00    -0.268 OA
BRANCH  75  78
ATOM     78  C   UNL A   1      32.208  27.587  23.607  1.00  0.00     0.181 C 
ATOM     79  C   UNL A   1      32.372  26.709  22.349  1.00  0.00     0.085 C 
ATOM     80  C   UNL A   1      32.747  26.582  24.679  1.00  0.00     0.144 C 
ATOM     81  C   UNL A   1      31.817  25.355  22.775  1.00  0.00     0.072 C 
ATOM     82  C   UNL A   1      32.400  25.149  24.183  1.00  0.00     0.191 C 
BRANCH  78  83
ATOM     83  N   UNL A   1      30.783  27.900  23.869  1.00  0.00    -0.331 N 
ATOM     84  H   UNL A   1      30.775  28.628  24.583  1.00  0.00     0.347 HD
ATOM     85  H   UNL A   1      30.398  26.984  24.096  1.00  0.00     0.347 HD
BRANCH  83  86
ATOM     86  C   UNL A   1      29.885  28.359  22.801  1.00  0.00     0.183 C 
ATOM     87  C   UNL A   1      28.835  29.421  22.953  1.00  0.00     0.071 C 
ATOM     88  C   UNL A   1      30.057  29.681  22.116  1.00  0.00     0.071 C 
ENDBRANCH  83  86
ENDBRANCH  78  83
BRANCH  82  89
ATOM     89  N   UNL A   1      33.481  24.162  24.172  1.00  0.00    -0.323 N 
ATOM     90  C   UNL A   1      33.072  22.749  24.153  1.00  0.00     0.324 C 
ATOM     91  C   UNL A   1      34.644  24.389  25.031  1.00  0.00     0.328 C 
ATOM     92  H   UNL A   1      33.838  24.374  23.240  1.00  0.00     0.348 HD
ATOM     93  C   UNL A   1      34.114  21.744  24.740  1.00  0.00     0.324 C 
ATOM     94  C   UNL A   1      35.813  23.501  24.557  1.00  0.00     0.240 C 
ATOM     95  N   UNL A   1      35.520  22.057  24.451  1.00  0.00    -0.323 N 
ATOM     96  C   UNL A   1      37.042  23.630  25.453  1.00  0.00     0.077 C 
ATOM     97  C   UNL A   1      36.465  21.341  25.314  1.00  0.00     0.263 C 
ATOM     98  H   UNL A   1      35.649  21.748  23.487  1.00  0.00     0.348 HD
ATOM     99  C   UNL A   1      37.676  22.256  25.376  1.00  0.00     0.068 C 
ENDBRANCH  82  89
ENDBRANCH  75  78
ENDBRANCH  73  74
ENDBRANCH  72  73
ENDBRANCH   1  72
TORSDOF 14
ENDMDL
MODEL 3
REMARK VINA RESULT:     -12.2      0.831      7.239
REMARK SMILES O=C(NCCCCNC(=O)[C@@]1([NH2+]C2CC2)CC[C@@H]([N@@H+]2CC[N@@H+]3CCC[C@@H]3C2)C1)c1ccc(-c2c3nc(c(-c4c(F)c(F)c(F)c(F)c4F)c4ccc([nH]4)c(-c4c(F)c(F)c(F)c(F)c4F)c4nc(c(-c5c(F)c(F)c(F)c(F)c5F)c5ccc2[nH]5)C=C4)C=C3)cc1
REMARK SMILES IDX 5 1 4 2 3 3 1 4 2 5 29 7 30 8 91 9 31 10 90 11 32 12 33 13
REMARK SMILES IDX 34 14 84 15 35 16 89 17 83 18 85 19 36 20 88 21 82 22 81 23
REMARK SMILES IDX 37 25 69 26 49 27 68 28 50 29 53 30 67 31 86 32 51 33 52 34
REMARK SMILES IDX 66 36 87 37 54 38 38 39 39 40 47 41 40 42 41 43 45 44 48 45
REMARK SMILES IDX 42 46 43 47 46 48 44 49 70 50 71 51 79 52 72 53 73 54 77 55
REMARK SMILES IDX 80 56 74 57 75 58 78 59 76 60 55 61 56 62 64 63 57 64 58 65
REMARK SMILES IDX 62 66 65 67 59 68 60 69 63 70 61 71 6 72 7 73 8 74 9 75
REMARK SMILES IDX 10 77 11 78 16 79 28 80 17 81 18 82 12 83 13 86 14 87 15 88
REMARK SMILES IDX 19 89 20 90 27 91 21 93 26 94 22 95 25 96 23 97 24 99
REMARK H PARENT 3 6 85 24 53 35 8 76 12 84 12 85 19 92 22 98
REMARK Flexibility Score: inf
ROOT
ATOM      1  C   UNL A   1      38.053  19.907  24.726  1.00  0.00     0.023 C 
ENDROOT
BRANCH   1   2
ATOM      2  C   UNL A   1      39.046  20.115  25.868  1.00  0.00     0.116 C 
BRANCH   2   3
ATOM      3  N   UNL A   1      40.108  19.120  25.925  1.00  0.00    -0.352 N 
ATOM      4  O   UNL A   1      42.182  18.254  26.042  1.00  0.00    -0.269 OA
ATOM      5  C   UNL A   1      41.466  19.246  26.112  1.00  0.00     0.251 C 
ATOM      6  H   UNL A   1      39.800  18.193  25.809  1.00  0.00     0.163 HD
BRANCH   5   7
ATOM      7  C   UNL A   1      42.088  20.572  26.347  1.00  0.00     0.039 A 
ATOM      8  C   UNL A   1      42.274  21.078  27.632  1.00  0.00     0.014 A 
ATOM      9  C   UNL A   1      42.517  21.319  25.244  1.00  0.00     0.014 A 
ATOM     10  C   UNL A   1      42.687  22.397  27.805  1.00  0.00     0.010 A 
ATOM     11  C   UNL A   1      43.026  22.610  25.424  1.00  0.00     0.010 A 
ATOM     12  C   UNL A   1      43.058  23.185  26.703  1.00  0.00    -0.014 A 
BRANCH  12  13
ATOM     13  C   UNL A   1      43.472  24.599  26.916  1.00  0.00     0.031 A 
ATOM     14  C   UNL A   1      42.508  25.610  27.476  1.00  0.00     0.074 A 
ATOM     15  C   UNL A   1      44.741  24.963  26.649  1.00  0.00     0.049 A 
ATOM     16  N   UNL A   1      42.708  26.873  27.768  1.00  0.00    -0.248 NA
ATOM     17  C   UNL A   1      41.135  25.150  27.737  1.00  0.00     0.031 C 
ATOM     18  C   UNL A   1      45.770  24.080  26.098  1.00  0.00     0.029 A 
ATOM     19  N   UNL A   1      45.388  26.160  26.826  1.00  0.00    -0.354 N 
ATOM     20  C   UNL A   1      41.488  27.360  28.220  1.00  0.00     0.074 A 
ATOM     21  C   UNL A   1      40.544  26.266  28.139  1.00  0.00     0.031 C 
ATOM     22  C   UNL A   1      46.931  24.748  26.034  1.00  0.00     0.029 A 
ATOM     23  C   UNL A   1      46.717  26.119  26.485  1.00  0.00     0.049 A 
ATOM     24  H   UNL A   1      44.942  26.970  27.165  1.00  0.00     0.167 HD
ATOM     25  C   UNL A   1      41.185  28.603  28.670  1.00  0.00     0.037 A 
ATOM     26  C   UNL A   1      47.660  27.079  26.523  1.00  0.00     0.037 A 
ATOM     27  C   UNL A   1      42.131  29.684  28.776  1.00  0.00     0.049 A 
ATOM     28  C   UNL A   1      47.295  28.451  27.011  1.00  0.00     0.074 A 
ATOM     29  C   UNL A   1      41.929  30.964  29.263  1.00  0.00     0.029 A 
ATOM     30  N   UNL A   1      43.460  29.614  28.383  1.00  0.00    -0.354 N 
ATOM     31  N   UNL A   1      46.147  28.888  27.466  1.00  0.00    -0.248 NA
ATOM     32  C   UNL A   1      48.358  29.464  26.987  1.00  0.00     0.031 C 
ATOM     33  C   UNL A   1      43.123  31.681  29.123  1.00  0.00     0.029 A 
ATOM     34  C   UNL A   1      44.083  30.835  28.594  1.00  0.00     0.049 A 
ATOM     35  H   UNL A   1      43.895  28.814  28.009  1.00  0.00     0.167 HD
ATOM     36  C   UNL A   1      46.350  30.219  27.799  1.00  0.00     0.074 A 
ATOM     37  C   UNL A   1      47.738  30.514  27.509  1.00  0.00     0.031 C 
ATOM     38  C   UNL A   1      45.466  31.116  28.300  1.00  0.00     0.037 A 
BRANCH  25  39
ATOM     39  C   UNL A   1      39.760  28.870  29.064  1.00  0.00     0.064 A 
ATOM     40  C   UNL A   1      39.300  28.660  30.372  1.00  0.00     0.173 A 
ATOM     41  C   UNL A   1      38.847  29.372  28.122  1.00  0.00     0.173 A 
ATOM     42  F   UNL A   1      40.128  28.170  31.308  1.00  0.00    -0.203 F 
ATOM     43  C   UNL A   1      37.974  28.913  30.716  1.00  0.00     0.198 A 
ATOM     44  C   UNL A   1      37.530  29.651  28.477  1.00  0.00     0.198 A 
ATOM     45  F   UNL A   1      39.236  29.599  26.859  1.00  0.00    -0.203 F 
ATOM     46  F   UNL A   1      37.546  28.657  31.961  1.00  0.00    -0.200 F 
ATOM     47  C   UNL A   1      37.092  29.412  29.771  1.00  0.00     0.200 A 
ATOM     48  F   UNL A   1      36.681  30.146  27.565  1.00  0.00    -0.200 F 
ATOM     49  F   UNL A   1      35.817  29.657  30.105  1.00  0.00    -0.200 F 
ENDBRANCH  25  39
BRANCH  26  50
ATOM     50  C   UNL A   1      49.047  26.758  26.100  1.00  0.00     0.064 A 
ATOM     51  C   UNL A   1      49.460  26.968  24.778  1.00  0.00     0.173 A 
ATOM     52  C   UNL A   1      49.992  26.269  27.012  1.00  0.00     0.173 A 
ATOM     53  F   UNL A   1      48.585  27.415  23.865  1.00  0.00    -0.203 F 
ATOM     54  C   UNL A   1      50.768  26.696  24.383  1.00  0.00     0.198 A 
ATOM     55  C   UNL A   1      51.306  26.024  26.623  1.00  0.00     0.198 A 
ATOM     56  F   UNL A   1      49.644  26.055  28.290  1.00  0.00    -0.203 F 
ATOM     57  F   UNL A   1      51.132  26.878  23.107  1.00  0.00    -0.200 F 
ATOM     58  C   UNL A   1      51.693  26.234  25.308  1.00  0.00     0.200 A 
ATOM     59  F   UNL A   1      52.200  25.591  27.524  1.00  0.00    -0.200 F 
ATOM     60  F   UNL A   1      52.954  25.987  24.932  1.00  0.00    -0.200 F 
ENDBRANCH  26  50
BRANCH  38  61
ATOM     61  C   UNL A   1      45.981  32.493  28.594  1.00  0.00     0.064 A 
ATOM     62  C   UNL A   1      46.547  32.817  29.836  1.00  0.00     0.173 A 
ATOM     63  C   UNL A   1      45.929  33.495  27.613  1.00  0.00     0.173 A 
ATOM     64  F   UNL A   1      46.603  31.899  30.812  1.00  0.00    -0.203 F 
ATOM     65  C   UNL A   1      47.019  34.102  30.093  1.00  0.00     0.198 A 
ATOM     66  C   UNL A   1      46.427  34.771  27.865  1.00  0.00     0.198 A 
ATOM     67  F   UNL A   1      45.402  33.234  26.408  1.00  0.00    -0.203 F 
ATOM     68  F   UNL A   1      47.512  34.402  31.303  1.00  0.00    -0.200 F 
ATOM     69  C   UNL A   1      46.964  35.075  29.106  1.00  0.00     0.200 A 
ATOM     70  F   UNL A   1      46.382  35.707  26.907  1.00  0.00    -0.200 F 
ATOM     71  F   UNL A   1      47.420  36.310  29.355  1.00  0.00    -0.200 F 
ENDBRANCH  38  61
ENDBRANCH  12  13
ENDBRANCH   5   7
ENDBRANCH   2   3
ENDBRANCH   1   2
BRANCH   1  72
ATOM     72  C   UNL A   1      36.587  20.266  25.003  1.00  0.00     0.023 C 
BRANCH  72  73
ATOM     73  C   UNL A   1      36.312  21.704  25.443  1.00  0.00     0.116 C 
BRANCH  73  74
ATOM     74  N   UNL A   1      35.531  21.835  26.657  1.00  0.00    -0.351 N 
ATOM     75  C   UNL A   1      34.173  21.956  26.799  1.00  0.00     0.281 C 
ATOM     76  H   UNL A   1      36.048  21.837  27.495  1.00  0.00     0.163 HD
ATOM     77  O   UNL A   1      33.743  21.833  27.954  1.00  0.00    -0.268 OA
BRANCH  75  78
ATOM     78  C   UNL A   1      33.217  22.356  25.630  1.00  0.00     0.181 C 
ATOM     79  C   UNL A   1      31.785  22.684  26.102  1.00  0.00     0.085 C 
ATOM     80  C   UNL A   1      33.644  23.779  25.140  1.00  0.00     0.144 C 
ATOM     81  C   UNL A   1      31.215  23.532  24.972  1.00  0.00     0.072 C 
ATOM     82  C   UNL A   1      32.363  24.493  24.623  1.00  0.00     0.191 C 
BRANCH  78  83
ATOM     83  N   UNL A   1      33.209  21.403  24.494  1.00  0.00    -0.331 N 
ATOM     84  H   UNL A   1      34.186  21.196  24.287  1.00  0.00     0.347 HD
ATOM     85  H   UNL A   1      32.654  21.899  23.798  1.00  0.00     0.347 HD
BRANCH  83  86
ATOM     86  C   UNL A   1      32.522  20.108  24.578  1.00  0.00     0.183 C 
ATOM     87  C   UNL A   1      32.530  19.055  23.508  1.00  0.00     0.071 C 
ATOM     88  C   UNL A   1      33.252  18.820  24.806  1.00  0.00     0.071 C 
ENDBRANCH  83  86
ENDBRANCH  78  83
BRANCH  82  89
ATOM     89  N   UNL A   1      32.098  25.843  25.124  1.00  0.00    -0.323 N 
ATOM     90  C   UNL A   1      31.280  26.708  24.261  1.00  0.00     0.324 C 
ATOM     91  C   UNL A   1      33.189  26.577  25.767  1.00  0.00     0.328 C 
ATOM     92  H   UNL A   1      31.506  25.574  25.910  1.00  0.00     0.348 HD
ATOM     93  C   UNL A   1      31.497  28.244  24.454  1.00  0.00     0.324 C 
ATOM     94  C   UNL A   1      32.607  27.750  26.583  1.00  0.00     0.240 C 
ATOM     95  N   UNL A   1      31.727  28.674  25.841  1.00  0.00    -0.323 N 
ATOM     96  C   UNL A   1      33.695  28.607  27.226  1.00  0.00     0.077 C 
ATOM     97  C   UNL A   1      32.298  30.021  25.944  1.00  0.00     0.263 C 
ATOM     98  H   UNL A   1      30.796  28.674  26.257  1.00  0.00     0.348 HD
ATOM     99  C   UNL A   1      33.081  29.992  27.246  1.00  0.00     0.068 C 
ENDBRANCH  82  89
ENDBRANCH  75  78
ENDBRANCH  73  74
ENDBRANCH  72  73
ENDBRANCH   1  72
TORSDOF 14
ENDMDL
