MODEL 1
REMARK VINA RESULT:     -11.8      0.000      0.000
REMARK SMILES CC(C)(C)N(CC(=O)NCCCCNC(=O)c1ccc(-c2c3nc(c(-c4c(F)c(F)c(F)c(F)c4F)c4ccc([nH]4)c(-c4c(F)c(F)c(F)c(F)c4F)c4nc(c(-c5c(F)c(F)c(F)c(F)c5F)c5ccc2[nH]5)C=C4)C=C3)cc1)C(=O)NCCc1cnc[nH]1
REMARK SMILES IDX 10 1 9 2 7 3 8 4 6 6 5 7 2 8 1 9 3 10 4 11 80 12 81 13 82 14
REMARK SMILES IDX 83 16 84 17 85 18 86 19 89 20 87 21 88 22 11 24 12 25 13 26
REMARK SMILES IDX 14 27 15 28 16 30 17 31 18 32 79 33 19 34 78 35 20 36 21 37
REMARK SMILES IDX 22 38 72 39 23 40 77 41 71 42 73 43 24 44 76 45 70 46 69 47
REMARK SMILES IDX 25 49 57 50 37 51 56 52 38 53 41 54 55 55 74 56 39 57 40 58
REMARK SMILES IDX 54 60 75 61 42 62 26 63 27 64 35 65 28 66 29 67 33 68 36 69
REMARK SMILES IDX 30 70 31 71 34 72 32 73 58 74 59 75 67 76 60 77 61 78 65 79
REMARK SMILES IDX 68 80 62 81 63 82 66 83 64 84 43 85 44 86 52 87 45 88 46 89
REMARK SMILES IDX 50 90 53 91 47 92 48 93 51 94 49 95
REMARK H PARENT 9 5 82 15 89 23 14 29 73 48 41 59
REMARK Flexibility Score: inf
ROOT
ATOM      1  C   UNL A   1      33.376  29.640  26.542  1.00  0.00     0.116 C 
ENDROOT
BRANCH   1   2
ATOM      2  N   UNL A   1      33.649  29.657  25.126  1.00  0.00    -0.355 N 
ATOM      3  C   UNL A   1      33.510  28.637  24.232  1.00  0.00     0.239 C 
ATOM      4  O   UNL A   1      33.479  28.939  23.035  1.00  0.00    -0.273 OA
ATOM      5  H   UNL A   1      33.975  30.510  24.759  1.00  0.00     0.163 HD
BRANCH   3   6
ATOM      6  C   UNL A   1      33.218  27.192  24.685  1.00  0.00     0.221 C 
BRANCH   6   7
ATOM      7  N   UNL A   1      32.020  26.522  24.153  1.00  0.00    -0.311 N 
BRANCH   7   8
ATOM      8  C   UNL A   1      32.187  25.435  23.088  1.00  0.00     0.037 C 
ATOM      9  C   UNL A   1      31.162  24.271  23.182  1.00  0.00     0.034 C 
ATOM     10  C   UNL A   1      33.578  24.752  23.144  1.00  0.00     0.034 C 
ATOM     11  C   UNL A   1      31.983  26.044  21.679  1.00  0.00     0.034 C 
ENDBRANCH   7   8
BRANCH   7  12
ATOM     12  C   UNL A   1      30.777  26.634  24.744  1.00  0.00     0.318 C 
ATOM     13  O   UNL A   1      30.526  26.142  25.849  1.00  0.00    -0.249 OA
ATOM     14  N   UNL A   1      29.727  27.276  24.213  1.00  0.00    -0.338 N 
ATOM     15  H   UNL A   1      28.919  27.093  24.744  1.00  0.00     0.165 HD
BRANCH  14  16
ATOM     16  C   UNL A   1      29.394  28.160  23.100  1.00  0.00     0.124 C 
BRANCH  16  17
ATOM     17  C   UNL A   1      30.132  29.504  23.192  1.00  0.00     0.077 C 
BRANCH  17  18
ATOM     18  C   UNL A   1      29.237  30.668  22.934  1.00  0.00     0.036 A 
ATOM     19  C   UNL A   1      28.100  31.126  23.562  1.00  0.00     0.134 A 
ATOM     20  N   UNL A   1      29.432  31.543  21.892  1.00  0.00    -0.348 N 
ATOM     21  N   UNL A   1      27.619  32.251  22.944  1.00  0.00    -0.245 NA
ATOM     22  C   UNL A   1      28.437  32.476  21.943  1.00  0.00     0.196 A 
ATOM     23  H   UNL A   1      30.158  31.503  21.228  1.00  0.00     0.167 HD
ENDBRANCH  17  18
ENDBRANCH  16  17
ENDBRANCH  14  16
ENDBRANCH   7  12
ENDBRANCH   6   7
ENDBRANCH   3   6
ENDBRANCH   1   2
BRANCH   1  24
ATOM     24  C   UNL A   1      31.975  30.132  26.886  1.00  0.00     0.023 C 
BRANCH  24  25
ATOM     25  C   UNL A   1      31.765  31.637  26.741  1.00  0.00     0.023 C 
BRANCH  25  26
ATOM     26  C   UNL A   1      32.823  32.512  27.404  1.00  0.00     0.116 C 
BRANCH  26  27
ATOM     27  N   UNL A   1      32.404  33.887  27.636  1.00  0.00    -0.352 N 
ATOM     28  C   UNL A   1      32.956  34.819  28.482  1.00  0.00     0.251 C 
ATOM     29  H   UNL A   1      31.622  34.189  27.119  1.00  0.00     0.163 HD
ATOM     30  O   UNL A   1      32.457  35.933  28.603  1.00  0.00    -0.269 OA
BRANCH  28  31
ATOM     31  C   UNL A   1      34.134  34.443  29.288  1.00  0.00     0.039 A 
ATOM     32  C   UNL A   1      33.933  33.871  30.546  1.00  0.00     0.014 A 
ATOM     33  C   UNL A   1      35.423  34.580  28.767  1.00  0.00     0.014 A 
ATOM     34  C   UNL A   1      35.022  33.354  31.247  1.00  0.00     0.010 A 
ATOM     35  C   UNL A   1      36.494  33.996  29.431  1.00  0.00     0.010 A 
ATOM     36  C   UNL A   1      36.302  33.370  30.673  1.00  0.00    -0.014 A 
BRANCH  36  37
ATOM     37  C   UNL A   1      37.459  32.726  31.342  1.00  0.00     0.031 A 
ATOM     38  C   UNL A   1      38.170  31.584  30.675  1.00  0.00     0.074 A 
ATOM     39  C   UNL A   1      37.808  33.110  32.585  1.00  0.00     0.049 A 
ATOM     40  N   UNL A   1      39.128  30.822  31.136  1.00  0.00    -0.248 NA
ATOM     41  C   UNL A   1      37.717  31.231  29.321  1.00  0.00     0.031 C 
ATOM     42  C   UNL A   1      37.158  34.167  33.361  1.00  0.00     0.029 A 
ATOM     43  N   UNL A   1      38.791  32.642  33.422  1.00  0.00    -0.354 N 
ATOM     44  C   UNL A   1      39.374  29.886  30.141  1.00  0.00     0.074 A 
ATOM     45  C   UNL A   1      38.432  30.143  29.074  1.00  0.00     0.031 C 
ATOM     46  C   UNL A   1      37.771  34.282  34.550  1.00  0.00     0.029 A 
ATOM     47  C   UNL A   1      38.833  33.286  34.634  1.00  0.00     0.049 A 
ATOM     48  H   UNL A   1      39.406  31.915  33.176  1.00  0.00     0.167 HD
ATOM     49  C   UNL A   1      40.317  28.915  30.112  1.00  0.00     0.037 A 
ATOM     50  C   UNL A   1      39.638  33.089  35.696  1.00  0.00     0.037 A 
ATOM     51  C   UNL A   1      41.276  28.688  31.159  1.00  0.00     0.049 A 
ATOM     52  C   UNL A   1      40.692  32.019  35.629  1.00  0.00     0.074 A 
ATOM     53  C   UNL A   1      42.318  27.776  31.194  1.00  0.00     0.029 A 
ATOM     54  N   UNL A   1      41.314  29.386  32.356  1.00  0.00    -0.354 N 
ATOM     55  N   UNL A   1      40.960  31.182  34.656  1.00  0.00    -0.248 NA
ATOM     56  C   UNL A   1      41.560  31.869  36.806  1.00  0.00     0.031 C 
ATOM     57  C   UNL A   1      42.964  27.900  32.429  1.00  0.00     0.029 A 
ATOM     58  C   UNL A   1      42.352  28.915  33.145  1.00  0.00     0.049 A 
ATOM     59  H   UNL A   1      40.695  30.108  32.609  1.00  0.00     0.167 HD
ATOM     60  C   UNL A   1      42.040  30.425  35.090  1.00  0.00     0.074 A 
ATOM     61  C   UNL A   1      42.385  30.910  36.411  1.00  0.00     0.031 C 
ATOM     62  C   UNL A   1      42.686  29.419  34.453  1.00  0.00     0.037 A 
BRANCH  49  63
ATOM     63  C   UNL A   1      40.356  28.029  28.901  1.00  0.00     0.064 A 
ATOM     64  C   UNL A   1      41.099  28.376  27.762  1.00  0.00     0.173 A 
ATOM     65  C   UNL A   1      39.658  26.813  28.884  1.00  0.00     0.173 A 
ATOM     66  F   UNL A   1      41.771  29.536  27.722  1.00  0.00    -0.203 F 
ATOM     67  C   UNL A   1      41.114  27.554  26.638  1.00  0.00     0.198 A 
ATOM     68  C   UNL A   1      39.700  25.979  27.770  1.00  0.00     0.198 A 
ATOM     69  F   UNL A   1      38.936  26.432  29.949  1.00  0.00    -0.203 F 
ATOM     70  F   UNL A   1      41.785  27.933  25.542  1.00  0.00    -0.200 F 
ATOM     71  C   UNL A   1      40.419  26.353  26.645  1.00  0.00     0.200 A 
ATOM     72  F   UNL A   1      39.036  24.814  27.782  1.00  0.00    -0.200 F 
ATOM     73  F   UNL A   1      40.436  25.562  25.564  1.00  0.00    -0.200 F 
ENDBRANCH  49  63
BRANCH  50  74
ATOM     74  C   UNL A   1      39.502  33.950  36.899  1.00  0.00     0.064 A 
ATOM     75  C   UNL A   1      40.134  35.199  36.960  1.00  0.00     0.173 A 
ATOM     76  C   UNL A   1      38.738  33.548  38.004  1.00  0.00     0.173 A 
ATOM     77  F   UNL A   1      40.891  35.615  35.935  1.00  0.00    -0.203 F 
ATOM     78  C   UNL A   1      40.022  36.008  38.088  1.00  0.00     0.198 A 
ATOM     79  C   UNL A   1      38.608  34.369  39.122  1.00  0.00     0.198 A 
ATOM     80  F   UNL A   1      38.111  32.364  37.992  1.00  0.00    -0.203 F 
ATOM     81  F   UNL A   1      40.670  37.180  38.136  1.00  0.00    -0.200 F 
ATOM     82  C   UNL A   1      39.254  35.595  39.167  1.00  0.00     0.200 A 
ATOM     83  F   UNL A   1      37.856  33.972  40.159  1.00  0.00    -0.200 F 
ATOM     84  F   UNL A   1      39.144  36.375  40.250  1.00  0.00    -0.200 F 
ENDBRANCH  50  74
BRANCH  62  85
ATOM     85  C   UNL A   1      43.854  28.798  35.158  1.00  0.00     0.064 A 
ATOM     86  C   UNL A   1      43.701  27.670  35.977  1.00  0.00     0.173 A 
ATOM     87  C   UNL A   1      45.147  29.310  34.977  1.00  0.00     0.173 A 
ATOM     88  F   UNL A   1      42.482  27.152  36.194  1.00  0.00    -0.203 F 
ATOM     89  C   UNL A   1      44.800  27.089  36.604  1.00  0.00     0.198 A 
ATOM     90  C   UNL A   1      46.246  28.712  35.585  1.00  0.00     0.198 A 
ATOM     91  F   UNL A   1      45.345  30.385  34.198  1.00  0.00    -0.203 F 
ATOM     92  F   UNL A   1      44.627  26.035  37.414  1.00  0.00    -0.200 F 
ATOM     93  C   UNL A   1      46.071  27.605  36.402  1.00  0.00     0.200 A 
ATOM     94  F   UNL A   1      47.474  29.205  35.379  1.00  0.00    -0.200 F 
ATOM     95  F   UNL A   1      47.129  27.039  37.000  1.00  0.00    -0.200 F 
ENDBRANCH  62  85
ENDBRANCH  36  37
ENDBRANCH  28  31
ENDBRANCH  26  27
ENDBRANCH  25  26
ENDBRANCH  24  25
ENDBRANCH   1  24
TORSDOF 17
ENDMDL
MODEL 2
REMARK VINA RESULT:     -11.7      0.687      1.452
REMARK SMILES CC(C)(C)N(CC(=O)NCCCCNC(=O)c1ccc(-c2c3nc(c(-c4c(F)c(F)c(F)c(F)c4F)c4ccc([nH]4)c(-c4c(F)c(F)c(F)c(F)c4F)c4nc(c(-c5c(F)c(F)c(F)c(F)c5F)c5ccc2[nH]5)C=C4)C=C3)cc1)C(=O)NCCc1cnc[nH]1
REMARK SMILES IDX 10 1 9 2 7 3 8 4 6 6 5 7 2 8 1 9 3 10 4 11 80 12 81 13 82 14
REMARK SMILES IDX 83 16 84 17 85 18 86 19 89 20 87 21 88 22 11 24 12 25 13 26
REMARK SMILES IDX 14 27 15 28 16 30 17 31 18 32 79 33 19 34 78 35 20 36 21 37
REMARK SMILES IDX 22 38 72 39 23 40 77 41 71 42 73 43 24 44 76 45 70 46 69 47
REMARK SMILES IDX 25 49 57 50 37 51 56 52 38 53 41 54 55 55 74 56 39 57 40 58
REMARK SMILES IDX 54 60 75 61 42 62 26 63 27 64 35 65 28 66 29 67 33 68 36 69
REMARK SMILES IDX 30 70 31 71 34 72 32 73 58 74 59 75 67 76 60 77 61 78 65 79
REMARK SMILES IDX 68 80 62 81 63 82 66 83 64 84 43 85 44 86 52 87 45 88 46 89
REMARK SMILES IDX 50 90 53 91 47 92 48 93 51 94 49 95
REMARK H PARENT 9 5 82 15 89 23 14 29 73 48 41 59
REMARK Flexibility Score: inf
ROOT
ATOM      1  C   UNL A   1      33.237  29.484  26.496  1.00  0.00     0.116 C 
ENDROOT
BRANCH   1   2
ATOM      2  N   UNL A   1      33.556  29.695  25.106  1.00  0.00    -0.355 N 
ATOM      3  C   UNL A   1      33.605  28.770  24.106  1.00  0.00     0.239 C 
ATOM      4  O   UNL A   1      33.573  29.194  22.946  1.00  0.00    -0.273 OA
ATOM      5  H   UNL A   1      33.764  30.621  24.846  1.00  0.00     0.163 HD
BRANCH   3   6
ATOM      6  C   UNL A   1      33.515  27.257  24.392  1.00  0.00     0.221 C 
BRANCH   6   7
ATOM      7  N   UNL A   1      32.415  26.494  23.779  1.00  0.00    -0.311 N 
BRANCH   7   8
ATOM      8  C   UNL A   1      31.535  25.613  24.667  1.00  0.00     0.037 C 
ATOM      9  C   UNL A   1      30.530  24.713  23.897  1.00  0.00     0.034 C 
ATOM     10  C   UNL A   1      30.666  26.437  25.653  1.00  0.00     0.034 C 
ATOM     11  C   UNL A   1      32.420  24.633  25.478  1.00  0.00     0.034 C 
ENDBRANCH   7   8
BRANCH   7  12
ATOM     12  C   UNL A   1      31.970  26.730  22.493  1.00  0.00     0.318 C 
ATOM     13  O   UNL A   1      32.524  26.239  21.503  1.00  0.00    -0.249 OA
ATOM     14  N   UNL A   1      30.912  27.488  22.170  1.00  0.00    -0.338 N 
ATOM     15  H   UNL A   1      30.884  27.625  21.196  1.00  0.00     0.165 HD
BRANCH  14  16
ATOM     16  C   UNL A   1      29.788  28.175  22.798  1.00  0.00     0.124 C 
BRANCH  16  17
ATOM     17  C   UNL A   1      30.204  29.521  23.409  1.00  0.00     0.077 C 
BRANCH  17  18
ATOM     18  C   UNL A   1      29.270  30.626  23.050  1.00  0.00     0.036 A 
ATOM     19  C   UNL A   1      28.005  30.955  23.485  1.00  0.00     0.134 A 
ATOM     20  N   UNL A   1      29.567  31.577  22.102  1.00  0.00    -0.348 N 
ATOM     21  N   UNL A   1      27.544  32.076  22.845  1.00  0.00    -0.245 NA
ATOM     22  C   UNL A   1      28.502  32.426  22.018  1.00  0.00     0.196 A 
ATOM     23  H   UNL A   1      30.399  31.634  21.579  1.00  0.00     0.167 HD
ENDBRANCH  17  18
ENDBRANCH  16  17
ENDBRANCH  14  16
ENDBRANCH   7  12
ENDBRANCH   6   7
ENDBRANCH   3   6
ENDBRANCH   1   2
BRANCH   1  24
ATOM     24  C   UNL A   1      31.927  30.141  26.915  1.00  0.00     0.023 C 
BRANCH  24  25
ATOM     25  C   UNL A   1      31.845  31.643  26.652  1.00  0.00     0.023 C 
BRANCH  25  26
ATOM     26  C   UNL A   1      32.858  32.494  27.408  1.00  0.00     0.116 C 
BRANCH  26  27
ATOM     27  N   UNL A   1      32.428  33.865  27.647  1.00  0.00    -0.352 N 
ATOM     28  C   UNL A   1      32.972  34.797  28.499  1.00  0.00     0.251 C 
ATOM     29  H   UNL A   1      31.645  34.164  27.131  1.00  0.00     0.163 HD
ATOM     30  O   UNL A   1      32.465  35.907  28.625  1.00  0.00    -0.269 OA
BRANCH  28  31
ATOM     31  C   UNL A   1      34.152  34.425  29.304  1.00  0.00     0.039 A 
ATOM     32  C   UNL A   1      33.953  33.848  30.561  1.00  0.00     0.014 A 
ATOM     33  C   UNL A   1      35.441  34.571  28.785  1.00  0.00     0.014 A 
ATOM     34  C   UNL A   1      35.045  33.335  31.262  1.00  0.00     0.010 A 
ATOM     35  C   UNL A   1      36.514  33.990  29.448  1.00  0.00     0.010 A 
ATOM     36  C   UNL A   1      36.325  33.360  30.688  1.00  0.00    -0.014 A 
BRANCH  36  37
ATOM     37  C   UNL A   1      37.485  32.720  31.356  1.00  0.00     0.031 A 
ATOM     38  C   UNL A   1      38.201  31.583  30.687  1.00  0.00     0.074 A 
ATOM     39  C   UNL A   1      37.832  33.104  32.600  1.00  0.00     0.049 A 
ATOM     40  N   UNL A   1      39.163  30.825  31.147  1.00  0.00    -0.248 NA
ATOM     41  C   UNL A   1      37.750  31.230  29.332  1.00  0.00     0.031 C 
ATOM     42  C   UNL A   1      37.176  34.157  33.377  1.00  0.00     0.029 A 
ATOM     43  N   UNL A   1      38.817  32.640  33.436  1.00  0.00    -0.354 N 
ATOM     44  C   UNL A   1      39.414  29.892  30.151  1.00  0.00     0.074 A 
ATOM     45  C   UNL A   1      38.471  30.146  29.084  1.00  0.00     0.031 C 
ATOM     46  C   UNL A   1      37.789  34.272  34.566  1.00  0.00     0.029 A 
ATOM     47  C   UNL A   1      38.856  33.281  34.649  1.00  0.00     0.049 A 
ATOM     48  H   UNL A   1      39.436  31.915  33.189  1.00  0.00     0.167 HD
ATOM     49  C   UNL A   1      40.361  28.925  30.119  1.00  0.00     0.037 A 
ATOM     50  C   UNL A   1      39.662  33.086  35.711  1.00  0.00     0.037 A 
ATOM     51  C   UNL A   1      41.322  28.701  31.167  1.00  0.00     0.049 A 
ATOM     52  C   UNL A   1      40.721  32.021  35.642  1.00  0.00     0.074 A 
ATOM     53  C   UNL A   1      42.367  27.794  31.200  1.00  0.00     0.029 A 
ATOM     54  N   UNL A   1      41.356  29.397  32.365  1.00  0.00    -0.354 N 
ATOM     55  N   UNL A   1      40.993  31.187  34.668  1.00  0.00    -0.248 NA
ATOM     56  C   UNL A   1      41.590  31.874  36.818  1.00  0.00     0.031 C 
ATOM     57  C   UNL A   1      43.013  27.919  32.435  1.00  0.00     0.029 A 
ATOM     58  C   UNL A   1      42.396  28.930  33.153  1.00  0.00     0.049 A 
ATOM     59  H   UNL A   1      40.733  30.116  32.619  1.00  0.00     0.167 HD
ATOM     60  C   UNL A   1      42.076  30.435  35.100  1.00  0.00     0.074 A 
ATOM     61  C   UNL A   1      42.420  30.920  36.422  1.00  0.00     0.031 C 
ATOM     62  C   UNL A   1      42.728  29.433  34.461  1.00  0.00     0.037 A 
BRANCH  49  63
ATOM     63  C   UNL A   1      40.404  28.042  28.907  1.00  0.00     0.064 A 
ATOM     64  C   UNL A   1      41.154  28.390  27.773  1.00  0.00     0.173 A 
ATOM     65  C   UNL A   1      39.704  26.826  28.885  1.00  0.00     0.173 A 
ATOM     66  F   UNL A   1      41.829  29.548  27.739  1.00  0.00    -0.203 F 
ATOM     67  C   UNL A   1      41.173  27.569  26.648  1.00  0.00     0.198 A 
ATOM     68  C   UNL A   1      39.750  25.995  27.769  1.00  0.00     0.198 A 
ATOM     69  F   UNL A   1      38.977  26.446  29.945  1.00  0.00    -0.203 F 
ATOM     70  F   UNL A   1      41.850  27.949  25.555  1.00  0.00    -0.200 F 
ATOM     71  C   UNL A   1      40.476  26.370  26.649  1.00  0.00     0.200 A 
ATOM     72  F   UNL A   1      39.084  24.832  27.775  1.00  0.00    -0.200 F 
ATOM     73  F   UNL A   1      40.497  25.581  25.566  1.00  0.00    -0.200 F 
ENDBRANCH  49  63
BRANCH  50  74
ATOM     74  C   UNL A   1      39.521  33.944  36.915  1.00  0.00     0.064 A 
ATOM     75  C   UNL A   1      40.152  35.194  36.980  1.00  0.00     0.173 A 
ATOM     76  C   UNL A   1      38.755  33.539  38.017  1.00  0.00     0.173 A 
ATOM     77  F   UNL A   1      40.912  35.614  35.958  1.00  0.00    -0.203 F 
ATOM     78  C   UNL A   1      40.036  36.000  38.110  1.00  0.00     0.198 A 
ATOM     79  C   UNL A   1      38.621  34.358  39.137  1.00  0.00     0.198 A 
ATOM     80  F   UNL A   1      38.129  32.354  38.001  1.00  0.00    -0.203 F 
ATOM     81  F   UNL A   1      40.682  37.173  38.162  1.00  0.00    -0.200 F 
ATOM     82  C   UNL A   1      39.266  35.585  39.186  1.00  0.00     0.200 A 
ATOM     83  F   UNL A   1      37.867  33.958  40.171  1.00  0.00    -0.200 F 
ATOM     84  F   UNL A   1      39.152  36.362  40.271  1.00  0.00    -0.200 F 
ENDBRANCH  50  74
BRANCH  62  85
ATOM     85  C   UNL A   1      43.898  28.816  35.166  1.00  0.00     0.064 A 
ATOM     86  C   UNL A   1      45.195  29.332  35.025  1.00  0.00     0.173 A 
ATOM     87  C   UNL A   1      43.714  27.725  36.028  1.00  0.00     0.173 A 
ATOM     88  F   UNL A   1      45.424  30.365  34.199  1.00  0.00    -0.203 F 
ATOM     89  C   UNL A   1      46.267  28.764  35.707  1.00  0.00     0.198 A 
ATOM     90  C   UNL A   1      44.783  27.177  36.729  1.00  0.00     0.198 A 
ATOM     91  F   UNL A   1      42.490  27.201  36.202  1.00  0.00    -0.203 F 
ATOM     92  F   UNL A   1      47.504  29.247  35.526  1.00  0.00    -0.200 F 
ATOM     93  C   UNL A   1      46.059  27.693  36.563  1.00  0.00     0.200 A 
ATOM     94  F   UNL A   1      44.579  26.150  37.564  1.00  0.00    -0.200 F 
ATOM     95  F   UNL A   1      47.092  27.153  37.226  1.00  0.00    -0.200 F 
ENDBRANCH  62  85
ENDBRANCH  36  37
ENDBRANCH  28  31
ENDBRANCH  26  27
ENDBRANCH  25  26
ENDBRANCH  24  25
ENDBRANCH   1  24
TORSDOF 17
ENDMDL
MODEL 3
REMARK VINA RESULT:     -11.7      0.581      7.248
REMARK SMILES CC(C)(C)N(CC(=O)NCCCCNC(=O)c1ccc(-c2c3nc(c(-c4c(F)c(F)c(F)c(F)c4F)c4ccc([nH]4)c(-c4c(F)c(F)c(F)c(F)c4F)c4nc(c(-c5c(F)c(F)c(F)c(F)c5F)c5ccc2[nH]5)C=C4)C=C3)cc1)C(=O)NCCc1cnc[nH]1
REMARK SMILES IDX 10 1 9 2 7 3 8 4 6 6 5 7 2 8 1 9 3 10 4 11 80 12 81 13 82 14
REMARK SMILES IDX 83 16 84 17 85 18 86 19 89 20 87 21 88 22 11 24 12 25 13 26
REMARK SMILES IDX 14 27 15 28 16 30 17 31 18 32 79 33 19 34 78 35 20 36 21 37
REMARK SMILES IDX 22 38 72 39 23 40 77 41 71 42 73 43 24 44 76 45 70 46 69 47
REMARK SMILES IDX 25 49 57 50 37 51 56 52 38 53 41 54 55 55 74 56 39 57 40 58
REMARK SMILES IDX 54 60 75 61 42 62 26 63 27 64 35 65 28 66 29 67 33 68 36 69
REMARK SMILES IDX 30 70 31 71 34 72 32 73 58 74 59 75 67 76 60 77 61 78 65 79
REMARK SMILES IDX 68 80 62 81 63 82 66 83 64 84 43 85 44 86 52 87 45 88 46 89
REMARK SMILES IDX 50 90 53 91 47 92 48 93 51 94 49 95
REMARK H PARENT 9 5 82 15 89 23 14 29 73 48 41 59
REMARK Flexibility Score: inf
ROOT
ATOM      1  C   UNL A   1      31.661  29.919  25.439  1.00  0.00     0.116 C 
ENDROOT
BRANCH   1   2
ATOM      2  N   UNL A   1      32.832  29.756  24.614  1.00  0.00    -0.355 N 
ATOM      3  C   UNL A   1      33.403  28.594  24.188  1.00  0.00     0.239 C 
ATOM      4  O   UNL A   1      34.189  28.670  23.237  1.00  0.00    -0.273 OA
ATOM      5  H   UNL A   1      33.274  30.586  24.323  1.00  0.00     0.163 HD
BRANCH   3   6
ATOM      6  C   UNL A   1      32.958  27.221  24.731  1.00  0.00     0.221 C 
BRANCH   6   7
ATOM      7  N   UNL A   1      31.846  26.530  24.058  1.00  0.00    -0.311 N 
BRANCH   7   8
ATOM      8  C   UNL A   1      32.160  25.447  23.023  1.00  0.00     0.037 C 
ATOM      9  C   UNL A   1      31.260  24.184  23.111  1.00  0.00     0.034 C 
ATOM     10  C   UNL A   1      33.613  24.916  23.135  1.00  0.00     0.034 C 
ATOM     11  C   UNL A   1      31.939  26.005  21.595  1.00  0.00     0.034 C 
ENDBRANCH   7   8
BRANCH   7  12
ATOM     12  C   UNL A   1      30.539  26.619  24.493  1.00  0.00     0.318 C 
ATOM     13  O   UNL A   1      30.139  26.031  25.503  1.00  0.00    -0.249 OA
ATOM     14  N   UNL A   1      29.576  27.339  23.899  1.00  0.00    -0.338 N 
ATOM     15  H   UNL A   1      28.704  27.128  24.302  1.00  0.00     0.165 HD
BRANCH  14  16
ATOM     16  C   UNL A   1      29.404  28.335  22.846  1.00  0.00     0.124 C 
BRANCH  16  17
ATOM     17  C   UNL A   1      28.000  28.957  22.865  1.00  0.00     0.077 C 
BRANCH  17  18
ATOM     18  C   UNL A   1      28.002  30.388  22.447  1.00  0.00     0.036 A 
ATOM     19  C   UNL A   1      27.827  31.563  23.144  1.00  0.00     0.134 A 
ATOM     20  N   UNL A   1      28.176  30.784  21.142  1.00  0.00    -0.348 N 
ATOM     21  N   UNL A   1      27.908  32.645  22.307  1.00  0.00    -0.245 NA
ATOM     22  C   UNL A   1      28.115  32.147  21.111  1.00  0.00     0.196 A 
ATOM     23  H   UNL A   1      28.319  30.191  20.370  1.00  0.00     0.167 HD
ENDBRANCH  17  18
ENDBRANCH  16  17
ENDBRANCH  14  16
ENDBRANCH   7  12
ENDBRANCH   6   7
ENDBRANCH   3   6
ENDBRANCH   1   2
BRANCH   1  24
ATOM     24  C   UNL A   1      31.963  30.568  26.785  1.00  0.00     0.023 C 
BRANCH  24  25
ATOM     25  C   UNL A   1      31.669  32.064  26.862  1.00  0.00     0.023 C 
BRANCH  25  26
ATOM     26  C   UNL A   1      32.839  32.938  27.295  1.00  0.00     0.116 C 
BRANCH  26  27
ATOM     27  N   UNL A   1      32.462  34.284  27.704  1.00  0.00    -0.352 N 
ATOM     28  C   UNL A   1      33.030  35.076  28.674  1.00  0.00     0.251 C 
ATOM     29  H   UNL A   1      31.700  34.679  27.222  1.00  0.00     0.163 HD
ATOM     30  O   UNL A   1      32.566  36.181  28.936  1.00  0.00    -0.269 OA
BRANCH  28  31
ATOM     31  C   UNL A   1      34.181  34.555  29.437  1.00  0.00     0.039 A 
ATOM     32  C   UNL A   1      33.942  33.884  30.638  1.00  0.00     0.014 A 
ATOM     33  C   UNL A   1      35.477  34.658  28.925  1.00  0.00     0.014 A 
ATOM     34  C   UNL A   1      34.996  33.238  31.285  1.00  0.00     0.010 A 
ATOM     35  C   UNL A   1      36.508  33.950  29.528  1.00  0.00     0.010 A 
ATOM     36  C   UNL A   1      36.275  33.226  30.709  1.00  0.00    -0.014 A 
BRANCH  36  37
ATOM     37  C   UNL A   1      37.388  32.453  31.312  1.00  0.00     0.031 A 
ATOM     38  C   UNL A   1      37.896  32.812  32.678  1.00  0.00     0.074 A 
ATOM     39  C   UNL A   1      37.997  31.490  30.592  1.00  0.00     0.049 A 
ATOM     40  N   UNL A   1      38.922  32.332  33.333  1.00  0.00    -0.248 NA
ATOM     41  C   UNL A   1      37.173  33.878  33.388  1.00  0.00     0.031 C 
ATOM     42  C   UNL A   1      37.634  31.090  29.232  1.00  0.00     0.029 A 
ATOM     43  N   UNL A   1      39.065  30.683  30.901  1.00  0.00    -0.354 N 
ATOM     44  C   UNL A   1      38.982  33.054  34.517  1.00  0.00     0.074 A 
ATOM     45  C   UNL A   1      37.922  34.037  34.469  1.00  0.00     0.031 C 
ATOM     46  C   UNL A   1      38.448  30.100  28.832  1.00  0.00     0.029 A 
ATOM     47  C   UNL A   1      39.412  29.820  29.891  1.00  0.00     0.049 A 
ATOM     48  H   UNL A   1      39.536  30.721  31.764  1.00  0.00     0.167 HD
ATOM     49  C   UNL A   1      39.830  32.895  35.560  1.00  0.00     0.037 A 
ATOM     50  C   UNL A   1      40.401  28.909  29.829  1.00  0.00     0.037 A 
ATOM     51  C   UNL A   1      40.859  31.891  35.619  1.00  0.00     0.049 A 
ATOM     52  C   UNL A   1      41.316  28.735  31.009  1.00  0.00     0.074 A 
ATOM     53  C   UNL A   1      41.724  31.601  36.660  1.00  0.00     0.029 A 
ATOM     54  N   UNL A   1      41.156  31.008  34.593  1.00  0.00    -0.354 N 
ATOM     55  N   UNL A   1      41.322  29.379  32.151  1.00  0.00    -0.248 NA
ATOM     56  C   UNL A   1      42.358  27.706  30.895  1.00  0.00     0.031 C 
ATOM     57  C   UNL A   1      42.568  30.564  36.249  1.00  0.00     0.029 A 
ATOM     58  C   UNL A   1      42.202  30.181  34.969  1.00  0.00     0.049 A 
ATOM     59  H   UNL A   1      40.693  30.973  33.725  1.00  0.00     0.167 HD
ATOM     60  C   UNL A   1      42.347  28.818  32.900  1.00  0.00     0.074 A 
ATOM     61  C   UNL A   1      42.934  27.773  32.086  1.00  0.00     0.031 C 
ATOM     62  C   UNL A   1      42.765  29.139  34.148  1.00  0.00     0.037 A 
BRANCH  49  63
ATOM     63  C   UNL A   1      39.674  33.829  36.724  1.00  0.00     0.064 A 
ATOM     64  C   UNL A   1      40.315  35.077  36.755  1.00  0.00     0.173 A 
ATOM     65  C   UNL A   1      38.861  33.481  37.813  1.00  0.00     0.173 A 
ATOM     66  F   UNL A   1      41.116  35.450  35.745  1.00  0.00    -0.203 F 
ATOM     67  C   UNL A   1      40.175  35.927  37.849  1.00  0.00     0.198 A 
ATOM     68  C   UNL A   1      38.699  34.348  38.891  1.00  0.00     0.198 A 
ATOM     69  F   UNL A   1      38.222  32.302  37.830  1.00  0.00    -0.203 F 
ATOM     70  F   UNL A   1      40.843  37.090  37.881  1.00  0.00    -0.200 F 
ATOM     71  C   UNL A   1      39.363  35.565  38.913  1.00  0.00     0.200 A 
ATOM     72  F   UNL A   1      37.906  34.000  39.914  1.00  0.00    -0.200 F 
ATOM     73  F   UNL A   1      39.228  36.386  39.964  1.00  0.00    -0.200 F 
ENDBRANCH  49  63
BRANCH  50  74
ATOM     74  C   UNL A   1      40.554  28.064  28.617  1.00  0.00     0.064 A 
ATOM     75  C   UNL A   1      41.352  28.486  27.545  1.00  0.00     0.173 A 
ATOM     76  C   UNL A   1      39.913  26.821  28.505  1.00  0.00     0.173 A 
ATOM     77  F   UNL A   1      41.968  29.676  27.599  1.00  0.00    -0.203 F 
ATOM     78  C   UNL A   1      41.491  27.706  26.400  1.00  0.00     0.198 A 
ATOM     79  C   UNL A   1      40.072  26.031  27.368  1.00  0.00     0.198 A 
ATOM     80  F   UNL A   1      39.141  26.372  29.504  1.00  0.00    -0.203 F 
ATOM     81  F   UNL A   1      42.230  28.152  25.374  1.00  0.00    -0.200 F 
ATOM     82  C   UNL A   1      40.856  26.476  26.314  1.00  0.00     0.200 A 
ATOM     83  F   UNL A   1      39.465  24.839  27.293  1.00  0.00    -0.200 F 
ATOM     84  F   UNL A   1      40.993  25.725  25.213  1.00  0.00    -0.200 F 
ENDBRANCH  50  74
BRANCH  62  85
ATOM     85  C   UNL A   1      43.888  28.331  34.726  1.00  0.00     0.064 A 
ATOM     86  C   UNL A   1      43.651  27.136  35.420  1.00  0.00     0.173 A 
ATOM     87  C   UNL A   1      45.220  28.733  34.543  1.00  0.00     0.173 A 
ATOM     88  F   UNL A   1      42.393  26.718  35.634  1.00  0.00    -0.203 F 
ATOM     89  C   UNL A   1      44.706  26.383  35.927  1.00  0.00     0.198 A 
ATOM     90  C   UNL A   1      46.273  27.965  35.027  1.00  0.00     0.198 A 
ATOM     91  F   UNL A   1      45.498  29.867  33.879  1.00  0.00    -0.203 F 
ATOM     92  F   UNL A   1      44.456  25.265  36.622  1.00  0.00    -0.200 F 
ATOM     93  C   UNL A   1      46.016  26.794  35.724  1.00  0.00     0.200 A 
ATOM     94  F   UNL A   1      47.537  28.357  34.821  1.00  0.00    -0.200 F 
ATOM     95  F   UNL A   1      47.030  26.063  36.205  1.00  0.00    -0.200 F 
ENDBRANCH  62  85
ENDBRANCH  36  37
ENDBRANCH  28  31
ENDBRANCH  26  27
ENDBRANCH  25  26
ENDBRANCH  24  25
ENDBRANCH   1  24
TORSDOF 17
ENDMDL
