MODEL 1
REMARK VINA RESULT:     -14.1      0.000      0.000
REMARK SMILES O=C1[NH+]=C(Nc2ccc(C(=O)NCCCCNC(=O)c3ccc(-c4c5nc(c(-c6c(F)c(F)c(F)c(F)c6F)c6ccc([nH]6)c(-c6c(F)c(F)c(F)c(F)c6F)c6nc(c(-c7c(F)c(F)c(F)c(F)c7F)c7ccc4[nH]7)C=C6)C=C5)cc3)c(O)c2)S/C1=C\c1ccc[nH]1
REMARK SMILES IDX 14 1 13 2 12 3 10 4 11 5 9 7 6 8 7 9 85 10 8 11 83 12 5 13
REMARK SMILES IDX 1 14 2 15 3 16 87 17 4 18 86 20 88 21 89 23 90 24 93 25
REMARK SMILES IDX 91 26 92 27 84 29 15 31 16 32 17 33 18 34 19 36 20 37 21 38
REMARK SMILES IDX 82 39 22 40 81 41 23 42 24 43 25 44 75 45 26 46 80 47 74 48
REMARK SMILES IDX 76 49 27 50 79 51 73 52 72 53 28 55 60 56 40 57 59 58 41 59
REMARK SMILES IDX 44 60 58 61 77 62 42 63 43 64 57 66 78 67 45 68 29 69 30 70
REMARK SMILES IDX 38 71 31 72 32 73 36 74 39 75 33 76 34 77 37 78 35 79 61 80
REMARK SMILES IDX 62 81 70 82 63 83 64 84 68 85 71 86 65 87 66 88 69 89 67 90
REMARK SMILES IDX 46 91 47 92 55 93 48 94 49 95 53 96 56 97 50 98 51 99 54 100
REMARK SMILES IDX 52 101
REMARK H PARENT 12 6 3 19 5 22 93 28 84 30 17 35 76 54 44 65
REMARK Flexibility Score: inf
ROOT
ATOM      1  C   UNL A   1      31.776  30.389  26.562  1.00  0.00     0.023 C 
ENDROOT
BRANCH   1   2
ATOM      2  C   UNL A   1      32.000  29.811  25.168  1.00  0.00     0.116 C 
BRANCH   2   3
ATOM      3  N   UNL A   1      30.838  29.851  24.295  1.00  0.00    -0.352 N 
ATOM      4  C   UNL A   1      30.163  28.821  23.678  1.00  0.00     0.255 C 
ATOM      5  O   UNL A   1      29.188  29.088  22.978  1.00  0.00    -0.269 OA
ATOM      6  H   UNL A   1      30.478  30.751  24.120  1.00  0.00     0.163 HD
BRANCH   4   7
ATOM      7  C   UNL A   1      30.616  27.413  23.786  1.00  0.00     0.081 A 
ATOM      8  C   UNL A   1      31.185  24.670  24.159  1.00  0.00     0.129 A 
ATOM      9  C   UNL A   1      30.869  25.490  25.247  1.00  0.00     0.053 A 
ATOM     10  C   UNL A   1      31.284  25.259  22.892  1.00  0.00     0.098 A 
ATOM     11  C   UNL A   1      30.593  26.848  25.066  1.00  0.00     0.022 A 
ATOM     12  C   UNL A   1      31.045  26.624  22.717  1.00  0.00     0.132 A 
BRANCH   8  13
ATOM     13  N   UNL A   1      31.321  23.283  24.278  1.00  0.00    -0.234 N 
ATOM     14  O   UNL A   1      35.819  22.205  24.892  1.00  0.00    -0.240 OA
ATOM     15  C   UNL A   1      34.622  22.027  24.700  1.00  0.00     0.346 C 
ATOM     16  N   UNL A   1      33.693  23.028  24.538  1.00  0.00    -0.199 N 
ATOM     17  C   UNL A   1      33.998  20.675  24.627  1.00  0.00     0.111 C 
ATOM     18  C   UNL A   1      32.487  22.589  24.398  1.00  0.00     0.322 C 
ATOM     19  H   UNL A   1      33.925  23.986  24.528  1.00  0.00     0.316 HD
ATOM     20  S   UNL A   1      32.300  20.850  24.415  1.00  0.00     0.006 SA
ATOM     21  C   UNL A   1      34.713  19.550  24.743  1.00  0.00     0.050 C 
ATOM     22  H   UNL A   1      30.489  22.755  24.275  1.00  0.00     0.313 HD
BRANCH  21  23
ATOM     23  C   UNL A   1      34.138  18.264  24.611  1.00  0.00     0.039 A 
ATOM     24  C   UNL A   1      34.022  17.375  23.561  1.00  0.00     0.027 A 
ATOM     25  N   UNL A   1      33.543  17.688  25.707  1.00  0.00    -0.362 N 
ATOM     26  C   UNL A   1      33.302  16.250  24.027  1.00  0.00     0.020 A 
ATOM     27  C   UNL A   1      33.009  16.474  25.353  1.00  0.00     0.083 A 
ATOM     28  H   UNL A   1      33.505  18.084  26.608  1.00  0.00     0.166 HD
ENDBRANCH  21  23
ENDBRANCH   8  13
BRANCH  12  29
ATOM     29  O   UNL A   1      31.284  27.106  21.460  1.00  0.00    -0.507 OA
ATOM     30  H   UNL A   1      31.201  28.023  21.286  1.00  0.00     0.293 HD
ENDBRANCH  12  29
ENDBRANCH   4   7
ENDBRANCH   2   3
ENDBRANCH   1   2
BRANCH   1  31
ATOM     31  C   UNL A   1      31.614  31.905  26.652  1.00  0.00     0.023 C 
BRANCH  31  32
ATOM     32  C   UNL A   1      32.749  32.666  27.328  1.00  0.00     0.116 C 
BRANCH  32  33
ATOM     33  N   UNL A   1      32.421  34.049  27.644  1.00  0.00    -0.352 N 
ATOM     34  C   UNL A   1      32.986  34.908  28.559  1.00  0.00     0.251 C 
ATOM     35  H   UNL A   1      31.679  34.430  27.120  1.00  0.00     0.163 HD
ATOM     36  O   UNL A   1      32.490  36.014  28.752  1.00  0.00    -0.269 OA
BRANCH  34  37
ATOM     37  C   UNL A   1      34.165  34.488  29.345  1.00  0.00     0.039 A 
ATOM     38  C   UNL A   1      33.970  33.929  30.612  1.00  0.00     0.014 A 
ATOM     39  C   UNL A   1      35.456  34.613  28.829  1.00  0.00     0.014 A 
ATOM     40  C   UNL A   1      35.060  33.407  31.314  1.00  0.00     0.010 A 
ATOM     41  C   UNL A   1      36.523  34.005  29.482  1.00  0.00     0.010 A 
ATOM     42  C   UNL A   1      36.338  33.391  30.730  1.00  0.00    -0.014 A 
BRANCH  42  43
ATOM     43  C   UNL A   1      37.488  32.729  31.402  1.00  0.00     0.031 A 
ATOM     44  C   UNL A   1      38.181  31.566  30.747  1.00  0.00     0.074 A 
ATOM     45  C   UNL A   1      37.863  33.126  32.635  1.00  0.00     0.049 A 
ATOM     46  N   UNL A   1      39.150  30.813  31.205  1.00  0.00    -0.248 NA
ATOM     47  C   UNL A   1      37.701  31.176  29.412  1.00  0.00     0.031 C 
ATOM     48  C   UNL A   1      37.237  34.205  33.403  1.00  0.00     0.029 A 
ATOM     49  N   UNL A   1      38.851  32.660  33.466  1.00  0.00    -0.354 N 
ATOM     50  C   UNL A   1      39.380  29.857  30.225  1.00  0.00     0.074 A 
ATOM     51  C   UNL A   1      38.410  30.084  29.176  1.00  0.00     0.031 C 
ATOM     52  C   UNL A   1      37.873  34.336  34.577  1.00  0.00     0.029 A 
ATOM     53  C   UNL A   1      38.919  33.321  34.670  1.00  0.00     0.049 A 
ATOM     54  H   UNL A   1      39.455  31.921  33.224  1.00  0.00     0.167 HD
ATOM     55  C   UNL A   1      40.331  28.892  30.189  1.00  0.00     0.037 A 
ATOM     56  C   UNL A   1      39.723  33.126  35.732  1.00  0.00     0.037 A 
ATOM     57  C   UNL A   1      41.307  28.682  31.226  1.00  0.00     0.049 A 
ATOM     58  C   UNL A   1      40.763  32.039  35.673  1.00  0.00     0.074 A 
ATOM     59  C   UNL A   1      42.352  27.775  31.255  1.00  0.00     0.029 A 
ATOM     60  N   UNL A   1      41.353  29.382  32.423  1.00  0.00    -0.354 N 
ATOM     61  N   UNL A   1      41.023  31.191  34.708  1.00  0.00    -0.248 NA
ATOM     62  C   UNL A   1      41.626  31.883  36.853  1.00  0.00     0.031 C 
ATOM     63  C   UNL A   1      42.988  27.882  32.496  1.00  0.00     0.029 A 
ATOM     64  C   UNL A   1      42.388  28.905  33.211  1.00  0.00     0.049 A 
ATOM     65  H   UNL A   1      40.740  30.112  32.675  1.00  0.00     0.167 HD
ATOM     66  C   UNL A   1      42.098  30.429  35.146  1.00  0.00     0.074 A 
ATOM     67  C   UNL A   1      42.450  30.922  36.460  1.00  0.00     0.031 C 
ATOM     68  C   UNL A   1      42.735  29.411  34.516  1.00  0.00     0.037 A 
BRANCH  55  69
ATOM     69  C   UNL A   1      40.360  27.987  28.989  1.00  0.00     0.064 A 
ATOM     70  C   UNL A   1      39.643  26.781  28.953  1.00  0.00     0.173 A 
ATOM     71  C   UNL A   1      41.090  28.346  27.846  1.00  0.00     0.173 A 
ATOM     72  F   UNL A   1      38.936  26.383  30.022  1.00  0.00    -0.203 F 
ATOM     73  C   UNL A   1      39.684  25.953  27.834  1.00  0.00     0.198 A 
ATOM     74  C   UNL A   1      41.100  27.534  26.714  1.00  0.00     0.198 A 
ATOM     75  F   UNL A   1      41.790  29.490  27.821  1.00  0.00    -0.203 F 
ATOM     76  F   UNL A   1      39.039  24.779  27.847  1.00  0.00    -0.200 F 
ATOM     77  C   UNL A   1      40.406  26.334  26.713  1.00  0.00     0.200 A 
ATOM     78  F   UNL A   1      41.784  27.913  25.626  1.00  0.00    -0.200 F 
ATOM     79  F   UNL A   1      40.437  25.541  25.634  1.00  0.00    -0.200 F 
ENDBRANCH  55  69
BRANCH  56  80
ATOM     80  C   UNL A   1      39.591  33.990  36.935  1.00  0.00     0.064 A 
ATOM     81  C   UNL A   1      38.812  33.592  38.030  1.00  0.00     0.173 A 
ATOM     82  C   UNL A   1      40.235  35.235  37.014  1.00  0.00     0.173 A 
ATOM     83  F   UNL A   1      38.159  32.420  37.996  1.00  0.00    -0.203 F 
ATOM     84  C   UNL A   1      38.660  34.413  39.145  1.00  0.00     0.198 A 
ATOM     85  C   UNL A   1      40.109  36.041  38.144  1.00  0.00     0.198 A 
ATOM     86  F   UNL A   1      40.998  35.663  35.999  1.00  0.00    -0.203 F 
ATOM     87  F   UNL A   1      37.866  34.030  40.155  1.00  0.00    -0.200 F 
ATOM     88  C   UNL A   1      39.314  35.634  39.205  1.00  0.00     0.200 A 
ATOM     89  F   UNL A   1      40.758  37.212  38.205  1.00  0.00    -0.200 F 
ATOM     90  F   UNL A   1      39.173  36.422  40.280  1.00  0.00    -0.200 F 
ENDBRANCH  56  80
BRANCH  68  91
ATOM     91  C   UNL A   1      43.911  28.789  35.215  1.00  0.00     0.064 A 
ATOM     92  C   UNL A   1      43.767  27.688  36.071  1.00  0.00     0.173 A 
ATOM     93  C   UNL A   1      45.207  29.279  34.989  1.00  0.00     0.173 A 
ATOM     94  F   UNL A   1      42.550  27.189  36.333  1.00  0.00    -0.203 F 
ATOM     95  C   UNL A   1      44.874  27.117  36.697  1.00  0.00     0.198 A 
ATOM     96  C   UNL A   1      46.314  28.684  35.586  1.00  0.00     0.198 A 
ATOM     97  F   UNL A   1      45.402  30.326  34.173  1.00  0.00    -0.203 F 
ATOM     98  F   UNL A   1      44.707  26.100  37.552  1.00  0.00    -0.200 F 
ATOM     99  C   UNL A   1      46.147  27.610  36.446  1.00  0.00     0.200 A 
ATOM    100  F   UNL A   1      47.544  29.150  35.328  1.00  0.00    -0.200 F 
ATOM    101  F   UNL A   1      47.211  27.053  37.041  1.00  0.00    -0.200 F 
ENDBRANCH  68  91
ENDBRANCH  42  43
ENDBRANCH  34  37
ENDBRANCH  32  33
ENDBRANCH  31  32
ENDBRANCH   1  31
TORSDOF 14
ENDMDL
MODEL 2
REMARK VINA RESULT:     -13.9      5.658     11.636
REMARK SMILES O=C1[NH+]=C(Nc2ccc(C(=O)NCCCCNC(=O)c3ccc(-c4c5nc(c(-c6c(F)c(F)c(F)c(F)c6F)c6ccc([nH]6)c(-c6c(F)c(F)c(F)c(F)c6F)c6nc(c(-c7c(F)c(F)c(F)c(F)c7F)c7ccc4[nH]7)C=C6)C=C5)cc3)c(O)c2)S/C1=C\c1ccc[nH]1
REMARK SMILES IDX 14 1 13 2 12 3 10 4 11 5 9 7 6 8 7 9 85 10 8 11 83 12 5 13
REMARK SMILES IDX 1 14 2 15 3 16 87 17 4 18 86 20 88 21 89 23 90 24 93 25
REMARK SMILES IDX 91 26 92 27 84 29 15 31 16 32 17 33 18 34 19 36 20 37 21 38
REMARK SMILES IDX 82 39 22 40 81 41 23 42 24 43 25 44 75 45 26 46 80 47 74 48
REMARK SMILES IDX 76 49 27 50 79 51 73 52 72 53 28 55 60 56 40 57 59 58 41 59
REMARK SMILES IDX 44 60 58 61 77 62 42 63 43 64 57 66 78 67 45 68 29 69 30 70
REMARK SMILES IDX 38 71 31 72 32 73 36 74 39 75 33 76 34 77 37 78 35 79 61 80
REMARK SMILES IDX 62 81 70 82 63 83 64 84 68 85 71 86 65 87 66 88 69 89 67 90
REMARK SMILES IDX 46 91 47 92 55 93 48 94 49 95 53 96 56 97 50 98 51 99 54 100
REMARK SMILES IDX 52 101
REMARK H PARENT 12 6 3 19 5 22 93 28 84 30 17 35 76 54 44 65
REMARK Flexibility Score: inf
ROOT
ATOM      1  C   UNL A   1      37.062  21.055  24.683  1.00  0.00     0.023 C 
ENDROOT
BRANCH   1   2
ATOM      2  C   UNL A   1      35.871  21.233  25.620  1.00  0.00     0.116 C 
BRANCH   2   3
ATOM      3  N   UNL A   1      34.682  20.486  25.247  1.00  0.00    -0.352 N 
ATOM      4  C   UNL A   1      33.507  20.924  24.678  1.00  0.00     0.255 C 
ATOM      5  O   UNL A   1      32.623  20.104  24.438  1.00  0.00    -0.269 OA
ATOM      6  H   UNL A   1      34.722  19.518  25.428  1.00  0.00     0.163 HD
BRANCH   4   7
ATOM      7  C   UNL A   1      33.259  22.361  24.403  1.00  0.00     0.081 A 
ATOM      8  C   UNL A   1      32.543  24.993  23.665  1.00  0.00     0.129 A 
ATOM      9  C   UNL A   1      32.887  24.046  22.694  1.00  0.00     0.053 A 
ATOM     10  C   UNL A   1      32.633  24.624  25.012  1.00  0.00     0.098 A 
ATOM     11  C   UNL A   1      33.247  22.745  23.057  1.00  0.00     0.022 A 
ATOM     12  C   UNL A   1      33.030  23.336  25.377  1.00  0.00     0.132 A 
BRANCH   8  13
ATOM     13  N   UNL A   1      32.035  26.254  23.335  1.00  0.00    -0.234 N 
ATOM     14  O   UNL A   1      27.458  26.375  24.230  1.00  0.00    -0.240 OA
ATOM     15  C   UNL A   1      28.546  26.751  23.810  1.00  0.00     0.346 C 
ATOM     16  N   UNL A   1      29.704  26.012  23.852  1.00  0.00    -0.199 N 
ATOM     17  C   UNL A   1      28.766  28.092  23.198  1.00  0.00     0.111 C 
ATOM     18  C   UNL A   1      30.731  26.645  23.393  1.00  0.00     0.322 C 
ATOM     19  H   UNL A   1      29.747  25.090  24.196  1.00  0.00     0.316 HD
ATOM     20  S   UNL A   1      30.431  28.263  22.801  1.00  0.00     0.006 SA
ATOM     21  C   UNL A   1      27.775  28.978  23.040  1.00  0.00     0.050 C 
ATOM     22  H   UNL A   1      32.687  26.928  23.030  1.00  0.00     0.313 HD
BRANCH  21  23
ATOM     23  C   UNL A   1      27.963  30.227  22.402  1.00  0.00     0.039 A 
ATOM     24  C   UNL A   1      28.249  31.498  22.859  1.00  0.00     0.027 A 
ATOM     25  N   UNL A   1      27.864  30.294  21.033  1.00  0.00    -0.362 N 
ATOM     26  C   UNL A   1      28.282  32.362  21.740  1.00  0.00     0.020 A 
ATOM     27  C   UNL A   1      28.031  31.594  20.625  1.00  0.00     0.083 A 
ATOM     28  H   UNL A   1      27.699  29.528  20.436  1.00  0.00     0.166 HD
ENDBRANCH  21  23
ENDBRANCH   8  13
BRANCH  12  29
ATOM     29  O   UNL A   1      33.192  23.128  26.719  1.00  0.00    -0.507 OA
ATOM     30  H   UNL A   1      33.002  23.817  27.326  1.00  0.00     0.293 HD
ENDBRANCH  12  29
ENDBRANCH   4   7
ENDBRANCH   2   3
ENDBRANCH   1   2
BRANCH   1  31
ATOM     31  C   UNL A   1      38.009  19.898  24.998  1.00  0.00     0.023 C 
BRANCH  31  32
ATOM     32  C   UNL A   1      39.277  20.255  25.764  1.00  0.00     0.116 C 
BRANCH  32  33
ATOM     33  N   UNL A   1      40.234  19.160  25.855  1.00  0.00    -0.352 N 
ATOM     34  C   UNL A   1      41.585  19.183  26.114  1.00  0.00     0.251 C 
ATOM     35  H   UNL A   1      39.854  18.264  25.707  1.00  0.00     0.163 HD
ATOM     36  O   UNL A   1      42.243  18.149  26.039  1.00  0.00    -0.269 OA
BRANCH  34  37
ATOM     37  C   UNL A   1      42.259  20.458  26.439  1.00  0.00     0.039 A 
ATOM     38  C   UNL A   1      42.834  21.203  25.406  1.00  0.00     0.014 A 
ATOM     39  C   UNL A   1      42.302  20.935  27.750  1.00  0.00     0.014 A 
ATOM     40  C   UNL A   1      43.360  22.469  25.674  1.00  0.00     0.010 A 
ATOM     41  C   UNL A   1      42.732  22.234  27.999  1.00  0.00     0.010 A 
ATOM     42  C   UNL A   1      43.264  23.019  26.964  1.00  0.00    -0.014 A 
BRANCH  42  43
ATOM     43  C   UNL A   1      43.700  24.413  27.247  1.00  0.00     0.031 A 
ATOM     44  C   UNL A   1      42.713  25.427  27.755  1.00  0.00     0.074 A 
ATOM     45  C   UNL A   1      44.968  24.785  26.977  1.00  0.00     0.049 A 
ATOM     46  N   UNL A   1      42.883  26.704  27.989  1.00  0.00    -0.248 NA
ATOM     47  C   UNL A   1      41.343  24.951  28.003  1.00  0.00     0.031 C 
ATOM     48  C   UNL A   1      46.008  23.912  26.430  1.00  0.00     0.029 A 
ATOM     49  N   UNL A   1      45.595  25.999  27.113  1.00  0.00    -0.354 N 
ATOM     50  C   UNL A   1      41.644  27.182  28.394  1.00  0.00     0.074 A 
ATOM     51  C   UNL A   1      40.716  26.075  28.314  1.00  0.00     0.031 C 
ATOM     52  C   UNL A   1      47.148  24.609  26.304  1.00  0.00     0.029 A 
ATOM     53  C   UNL A   1      46.910  25.990  26.714  1.00  0.00     0.049 A 
ATOM     54  H   UNL A   1      45.144  26.801  27.464  1.00  0.00     0.167 HD
ATOM     55  C   UNL A   1      41.313  28.426  28.819  1.00  0.00     0.037 A 
ATOM     56  C   UNL A   1      47.819  26.982  26.671  1.00  0.00     0.037 A 
ATOM     57  C   UNL A   1      42.243  29.520  28.916  1.00  0.00     0.049 A 
ATOM     58  C   UNL A   1      47.423  28.359  27.136  1.00  0.00     0.074 A 
ATOM     59  C   UNL A   1      42.022  30.799  29.395  1.00  0.00     0.029 A 
ATOM     60  N   UNL A   1      43.571  29.467  28.516  1.00  0.00    -0.354 N 
ATOM     61  N   UNL A   1      46.268  28.780  27.592  1.00  0.00    -0.248 NA
ATOM     62  C   UNL A   1      48.460  29.399  27.086  1.00  0.00     0.031 C 
ATOM     63  C   UNL A   1      43.197  31.538  29.225  1.00  0.00     0.029 A 
ATOM     64  C   UNL A   1      44.172  30.701  28.708  1.00  0.00     0.049 A 
ATOM     65  H   UNL A   1      44.020  28.670  28.150  1.00  0.00     0.167 HD
ATOM     66  C   UNL A   1      46.448  30.119  27.914  1.00  0.00     0.074 A 
ATOM     67  C   UNL A   1      47.828  30.437  27.614  1.00  0.00     0.031 C 
ATOM     68  C   UNL A   1      45.551  31.004  28.413  1.00  0.00     0.037 A 
BRANCH  55  69
ATOM     69  C   UNL A   1      39.882  28.671  29.210  1.00  0.00     0.064 A 
ATOM     70  C   UNL A   1      39.424  28.454  30.519  1.00  0.00     0.173 A 
ATOM     71  C   UNL A   1      38.963  29.162  28.269  1.00  0.00     0.173 A 
ATOM     72  F   UNL A   1      40.257  27.977  31.456  1.00  0.00    -0.203 F 
ATOM     73  C   UNL A   1      38.094  28.684  30.862  1.00  0.00     0.198 A 
ATOM     74  C   UNL A   1      37.643  29.426  28.625  1.00  0.00     0.198 A 
ATOM     75  F   UNL A   1      39.347  29.394  27.005  1.00  0.00    -0.203 F 
ATOM     76  F   UNL A   1      37.667  28.412  32.103  1.00  0.00    -0.200 F 
ATOM     77  C   UNL A   1      37.207  29.177  29.917  1.00  0.00     0.200 A 
ATOM     78  F   UNL A   1      36.791  29.918  27.714  1.00  0.00    -0.200 F 
ATOM     79  F   UNL A   1      35.930  29.406  30.251  1.00  0.00    -0.200 F 
ENDBRANCH  55  69
BRANCH  56  80
ATOM     80  C   UNL A   1      49.198  26.710  26.186  1.00  0.00     0.064 A 
ATOM     81  C   UNL A   1      49.558  26.951  24.854  1.00  0.00     0.173 A 
ATOM     82  C   UNL A   1      50.184  26.195  27.042  1.00  0.00     0.173 A 
ATOM     83  F   UNL A   1      48.647  27.424  23.989  1.00  0.00    -0.203 F 
ATOM     84  C   UNL A   1      50.840  26.666  24.388  1.00  0.00     0.198 A 
ATOM     85  C   UNL A   1      51.476  25.942  26.584  1.00  0.00     0.198 A 
ATOM     86  F   UNL A   1      49.897  25.951  28.329  1.00  0.00    -0.203 F 
ATOM     87  F   UNL A   1      51.140  26.858  23.096  1.00  0.00    -0.200 F 
ATOM     88  C   UNL A   1      51.800  26.168  25.255  1.00  0.00     0.200 A 
ATOM     89  F   UNL A   1      52.406  25.477  27.431  1.00  0.00    -0.200 F 
ATOM     90  F   UNL A   1      53.035  25.899  24.810  1.00  0.00    -0.200 F 
ENDBRANCH  56  80
BRANCH  68  91
ATOM     91  C   UNL A   1      46.040  32.393  28.714  1.00  0.00     0.064 A 
ATOM     92  C   UNL A   1      45.949  33.431  27.776  1.00  0.00     0.173 A 
ATOM     93  C   UNL A   1      46.567  32.697  29.980  1.00  0.00     0.173 A 
ATOM     94  F   UNL A   1      45.467  33.191  26.547  1.00  0.00    -0.203 F 
ATOM     95  C   UNL A   1      46.395  34.715  28.082  1.00  0.00     0.198 A 
ATOM     96  C   UNL A   1      46.976  33.990  30.295  1.00  0.00     0.198 A 
ATOM     97  F   UNL A   1      46.669  31.744  30.918  1.00  0.00    -0.203 F 
ATOM     98  F   UNL A   1      46.348  35.678  27.152  1.00  0.00    -0.200 F 
ATOM     99  C   UNL A   1      46.899  34.995  29.345  1.00  0.00     0.200 A 
ATOM    100  F   UNL A   1      47.445  34.261  31.521  1.00  0.00    -0.200 F 
ATOM    101  F   UNL A   1      47.317  36.233  29.641  1.00  0.00    -0.200 F 
ENDBRANCH  68  91
ENDBRANCH  42  43
ENDBRANCH  34  37
ENDBRANCH  32  33
ENDBRANCH  31  32
ENDBRANCH   1  31
TORSDOF 14
ENDMDL
MODEL 3
REMARK VINA RESULT:     -13.9      5.690     11.617
REMARK SMILES O=C1[NH+]=C(Nc2ccc(C(=O)NCCCCNC(=O)c3ccc(-c4c5nc(c(-c6c(F)c(F)c(F)c(F)c6F)c6ccc([nH]6)c(-c6c(F)c(F)c(F)c(F)c6F)c6nc(c(-c7c(F)c(F)c(F)c(F)c7F)c7ccc4[nH]7)C=C6)C=C5)cc3)c(O)c2)S/C1=C\c1ccc[nH]1
REMARK SMILES IDX 14 1 13 2 12 3 10 4 11 5 9 7 6 8 7 9 85 10 8 11 83 12 5 13
REMARK SMILES IDX 1 14 2 15 3 16 87 17 4 18 86 20 88 21 89 23 90 24 93 25
REMARK SMILES IDX 91 26 92 27 84 29 15 31 16 32 17 33 18 34 19 36 20 37 21 38
REMARK SMILES IDX 82 39 22 40 81 41 23 42 24 43 25 44 75 45 26 46 80 47 74 48
REMARK SMILES IDX 76 49 27 50 79 51 73 52 72 53 28 55 60 56 40 57 59 58 41 59
REMARK SMILES IDX 44 60 58 61 77 62 42 63 43 64 57 66 78 67 45 68 29 69 30 70
REMARK SMILES IDX 38 71 31 72 32 73 36 74 39 75 33 76 34 77 37 78 35 79 61 80
REMARK SMILES IDX 62 81 70 82 63 83 64 84 68 85 71 86 65 87 66 88 69 89 67 90
REMARK SMILES IDX 46 91 47 92 55 93 48 94 49 95 53 96 56 97 50 98 51 99 54 100
REMARK SMILES IDX 52 101
REMARK H PARENT 12 6 3 19 5 22 93 28 84 30 17 35 76 54 44 65
REMARK Flexibility Score: inf
ROOT
ATOM      1  C   UNL A   1      37.104  21.065  24.645  1.00  0.00     0.023 C 
ENDROOT
BRANCH   1   2
ATOM      2  C   UNL A   1      35.947  21.326  25.604  1.00  0.00     0.116 C 
BRANCH   2   3
ATOM      3  N   UNL A   1      34.734  20.576  25.318  1.00  0.00    -0.352 N 
ATOM      4  C   UNL A   1      33.533  21.005  24.799  1.00  0.00     0.255 C 
ATOM      5  O   UNL A   1      32.633  20.185  24.633  1.00  0.00    -0.269 OA
ATOM      6  H   UNL A   1      34.779  19.614  25.526  1.00  0.00     0.163 HD
BRANCH   4   7
ATOM      7  C   UNL A   1      33.279  22.434  24.495  1.00  0.00     0.081 A 
ATOM      8  C   UNL A   1      32.536  25.048  23.718  1.00  0.00     0.129 A 
ATOM      9  C   UNL A   1      32.810  24.067  22.759  1.00  0.00     0.053 A 
ATOM     10  C   UNL A   1      32.711  24.722  25.068  1.00  0.00     0.098 A 
ATOM     11  C   UNL A   1      33.183  22.776  23.140  1.00  0.00     0.022 A 
ATOM     12  C   UNL A   1      33.121  23.443  25.449  1.00  0.00     0.132 A 
BRANCH   8  13
ATOM     13  N   UNL A   1      32.018  26.303  23.381  1.00  0.00    -0.234 N 
ATOM     14  O   UNL A   1      27.432  26.376  24.233  1.00  0.00    -0.240 OA
ATOM     15  C   UNL A   1      28.519  26.763  23.823  1.00  0.00     0.346 C 
ATOM     16  N   UNL A   1      29.686  26.036  23.876  1.00  0.00    -0.199 N 
ATOM     17  C   UNL A   1      28.730  28.105  23.209  1.00  0.00     0.111 C 
ATOM     18  C   UNL A   1      30.710  26.680  23.425  1.00  0.00     0.322 C 
ATOM     19  H   UNL A   1      29.735  25.116  24.223  1.00  0.00     0.316 HD
ATOM     20  S   UNL A   1      30.397  28.294  22.827  1.00  0.00     0.006 SA
ATOM     21  C   UNL A   1      27.731  28.980  23.040  1.00  0.00     0.050 C 
ATOM     22  H   UNL A   1      32.665  26.983  23.080  1.00  0.00     0.313 HD
BRANCH  21  23
ATOM     23  C   UNL A   1      27.912  30.229  22.400  1.00  0.00     0.039 A 
ATOM     24  C   UNL A   1      28.148  31.510  22.860  1.00  0.00     0.027 A 
ATOM     25  N   UNL A   1      27.863  30.285  21.029  1.00  0.00    -0.362 N 
ATOM     26  C   UNL A   1      28.201  32.367  21.736  1.00  0.00     0.020 A 
ATOM     27  C   UNL A   1      28.012  31.586  20.618  1.00  0.00     0.083 A 
ATOM     28  H   UNL A   1      27.740  29.512  20.432  1.00  0.00     0.166 HD
ENDBRANCH  21  23
ENDBRANCH   8  13
BRANCH  12  29
ATOM     29  O   UNL A   1      33.368  23.276  26.783  1.00  0.00    -0.507 OA
ATOM     30  H   UNL A   1      33.254  22.435  27.180  1.00  0.00     0.293 HD
ENDBRANCH  12  29
ENDBRANCH   4   7
ENDBRANCH   2   3
ENDBRANCH   1   2
BRANCH   1  31
ATOM     31  C   UNL A   1      38.034  19.906  24.999  1.00  0.00     0.023 C 
BRANCH  31  32
ATOM     32  C   UNL A   1      39.290  20.265  25.783  1.00  0.00     0.116 C 
BRANCH  32  33
ATOM     33  N   UNL A   1      40.248  19.173  25.888  1.00  0.00    -0.352 N 
ATOM     34  C   UNL A   1      41.602  19.202  26.135  1.00  0.00     0.251 C 
ATOM     35  H   UNL A   1      39.868  18.274  25.761  1.00  0.00     0.163 HD
ATOM     36  O   UNL A   1      42.260  18.167  26.075  1.00  0.00    -0.269 OA
BRANCH  34  37
ATOM     37  C   UNL A   1      42.278  20.482  26.429  1.00  0.00     0.039 A 
ATOM     38  C   UNL A   1      42.718  21.277  25.366  1.00  0.00     0.014 A 
ATOM     39  C   UNL A   1      42.455  20.918  27.744  1.00  0.00     0.014 A 
ATOM     40  C   UNL A   1      43.241  22.547  25.620  1.00  0.00     0.010 A 
ATOM     41  C   UNL A   1      42.880  22.219  27.989  1.00  0.00     0.010 A 
ATOM     42  C   UNL A   1      43.275  23.052  26.931  1.00  0.00    -0.014 A 
BRANCH  42  43
ATOM     43  C   UNL A   1      43.708  24.446  27.214  1.00  0.00     0.031 A 
ATOM     44  C   UNL A   1      42.715  25.462  27.710  1.00  0.00     0.074 A 
ATOM     45  C   UNL A   1      44.977  24.819  26.954  1.00  0.00     0.049 A 
ATOM     46  N   UNL A   1      42.882  26.740  27.941  1.00  0.00    -0.248 NA
ATOM     47  C   UNL A   1      41.343  24.985  27.947  1.00  0.00     0.031 C 
ATOM     48  C   UNL A   1      46.023  23.945  26.419  1.00  0.00     0.029 A 
ATOM     49  N   UNL A   1      45.602  26.034  27.092  1.00  0.00    -0.354 N 
ATOM     50  C   UNL A   1      41.639  27.218  28.334  1.00  0.00     0.074 A 
ATOM     51  C   UNL A   1      40.713  26.109  28.249  1.00  0.00     0.031 C 
ATOM     52  C   UNL A   1      47.163  24.643  26.300  1.00  0.00     0.029 A 
ATOM     53  C   UNL A   1      46.921  26.025  26.704  1.00  0.00     0.049 A 
ATOM     54  H   UNL A   1      45.148  26.837  27.436  1.00  0.00     0.167 HD
ATOM     55  C   UNL A   1      41.303  28.462  28.752  1.00  0.00     0.037 A 
ATOM     56  C   UNL A   1      47.829  27.018  26.666  1.00  0.00     0.037 A 
ATOM     57  C   UNL A   1      42.232  29.558  28.854  1.00  0.00     0.049 A 
ATOM     58  C   UNL A   1      47.428  28.396  27.123  1.00  0.00     0.074 A 
ATOM     59  C   UNL A   1      42.005  30.838  29.328  1.00  0.00     0.029 A 
ATOM     60  N   UNL A   1      43.563  29.504  28.466  1.00  0.00    -0.354 N 
ATOM     61  N   UNL A   1      46.269  28.817  27.567  1.00  0.00    -0.248 NA
ATOM     62  C   UNL A   1      48.465  29.437  27.079  1.00  0.00     0.031 C 
ATOM     63  C   UNL A   1      43.181  31.577  29.165  1.00  0.00     0.029 A 
ATOM     64  C   UNL A   1      44.161  30.740  28.660  1.00  0.00     0.049 A 
ATOM     65  H   UNL A   1      44.016  28.707  28.107  1.00  0.00     0.167 HD
ATOM     66  C   UNL A   1      46.445  30.157  27.887  1.00  0.00     0.074 A 
ATOM     67  C   UNL A   1      47.827  30.476  27.598  1.00  0.00     0.031 C 
ATOM     68  C   UNL A   1      45.542  31.043  28.376  1.00  0.00     0.037 A 
BRANCH  55  69
ATOM     69  C   UNL A   1      39.869  28.707  29.130  1.00  0.00     0.064 A 
ATOM     70  C   UNL A   1      39.399  28.492  30.435  1.00  0.00     0.173 A 
ATOM     71  C   UNL A   1      38.958  29.196  28.180  1.00  0.00     0.173 A 
ATOM     72  F   UNL A   1      40.223  28.016  31.380  1.00  0.00    -0.203 F 
ATOM     73  C   UNL A   1      38.066  28.721  30.765  1.00  0.00     0.198 A 
ATOM     74  C   UNL A   1      37.635  29.460  28.524  1.00  0.00     0.198 A 
ATOM     75  F   UNL A   1      39.353  29.427  26.919  1.00  0.00    -0.203 F 
ATOM     76  F   UNL A   1      37.628  28.451  32.003  1.00  0.00    -0.200 F 
ATOM     77  C   UNL A   1      37.187  29.213  29.812  1.00  0.00     0.200 A 
ATOM     78  F   UNL A   1      36.791  29.951  27.605  1.00  0.00    -0.200 F 
ATOM     79  F   UNL A   1      35.907  29.442  30.134  1.00  0.00    -0.200 F 
ENDBRANCH  55  69
BRANCH  56  80
ATOM     80  C   UNL A   1      49.213  26.745  26.194  1.00  0.00     0.064 A 
ATOM     81  C   UNL A   1      49.580  26.970  24.861  1.00  0.00     0.173 A 
ATOM     82  C   UNL A   1      50.195  26.247  27.064  1.00  0.00     0.173 A 
ATOM     83  F   UNL A   1      48.673  27.426  23.984  1.00  0.00    -0.203 F 
ATOM     84  C   UNL A   1      50.867  26.684  24.408  1.00  0.00     0.198 A 
ATOM     85  C   UNL A   1      51.491  25.993  26.618  1.00  0.00     0.198 A 
ATOM     86  F   UNL A   1      49.900  26.019  28.351  1.00  0.00    -0.203 F 
ATOM     87  F   UNL A   1      51.175  26.860  23.115  1.00  0.00    -0.200 F 
ATOM     88  C   UNL A   1      51.823  26.202  25.288  1.00  0.00     0.200 A 
ATOM     89  F   UNL A   1      52.418  25.545  27.477  1.00  0.00    -0.200 F 
ATOM     90  F   UNL A   1      53.062  25.933  24.854  1.00  0.00    -0.200 F 
ENDBRANCH  56  80
BRANCH  68  91
ATOM     91  C   UNL A   1      46.027  32.433  28.677  1.00  0.00     0.064 A 
ATOM     92  C   UNL A   1      46.568  32.776  29.924  1.00  0.00     0.173 A 
ATOM     93  C   UNL A   1      45.988  33.425  27.684  1.00  0.00     0.173 A 
ATOM     94  F   UNL A   1      46.616  31.870  30.913  1.00  0.00    -0.203 F 
ATOM     95  C   UNL A   1      47.027  34.067  30.176  1.00  0.00     0.198 A 
ATOM     96  C   UNL A   1      46.482  34.704  27.927  1.00  0.00     0.198 A 
ATOM     97  F   UNL A   1      45.488  33.149  26.470  1.00  0.00    -0.203 F 
ATOM     98  F   UNL A   1      47.491  34.386  31.391  1.00  0.00    -0.200 F 
ATOM     99  C   UNL A   1      46.991  35.027  29.174  1.00  0.00     0.200 A 
ATOM    100  F   UNL A   1      46.463  35.623  26.952  1.00  0.00    -0.200 F 
ATOM    101  F   UNL A   1      47.443  36.266  29.415  1.00  0.00    -0.200 F 
ENDBRANCH  68  91
ENDBRANCH  42  43
ENDBRANCH  34  37
ENDBRANCH  32  33
ENDBRANCH  31  32
ENDBRANCH   1  31
TORSDOF 14
ENDMDL
