MODEL 1
REMARK VINA RESULT:     -11.7      0.000      0.000
REMARK SMILES CC(C)[C@@H](C[NH+](C)C)NC(=O)N[C@@](C)(C(=O)NCCCCNC(=O)c1ccc(-c2c3nc(c(-c4c(F)c(F)c(F)c(F)c4F)c4ccc([nH]4)c(-c4c(F)c(F)c(F)c(F)c4F)c4nc(c(-c5c(F)c(F)c(F)c(F)c5F)c5ccc2[nH]5)C=C4)C=C3)cc1)C(F)(F)F
REMARK SMILES IDX 18 1 17 2 15 3 16 4 13 6 14 7 12 8 9 9 10 10 11 12 4 14 2 15
REMARK SMILES IDX 1 16 3 17 5 18 6 19 7 20 8 21 88 23 89 24 90 25 91 26 19 27
REMARK SMILES IDX 20 28 21 29 22 30 23 31 24 33 25 34 26 35 87 36 27 37 86 38
REMARK SMILES IDX 28 39 29 40 30 41 80 42 31 43 85 44 79 45 81 46 32 47 84 48
REMARK SMILES IDX 78 49 77 50 33 52 65 53 45 54 64 55 46 56 49 57 63 58 82 59
REMARK SMILES IDX 47 60 48 61 62 63 83 64 50 65 34 66 35 67 43 68 36 69 37 70
REMARK SMILES IDX 41 71 44 72 38 73 39 74 42 75 40 76 66 77 67 78 75 79 68 80
REMARK SMILES IDX 69 81 73 82 76 83 70 84 71 85 74 86 72 87 51 88 52 89 60 90
REMARK SMILES IDX 53 91 54 92 58 93 61 94 55 95 56 96 59 97 57 98
REMARK H PARENT 17 5 9 11 12 13 6 22 22 32 81 51 49 62
REMARK Flexibility Score: inf
ROOT
ATOM      1  C   UNL A   1      35.672  20.624  25.003  1.00  0.00     0.116 C 
ENDROOT
BRANCH   1   2
ATOM      2  N   UNL A   1      35.247  21.176  26.274  1.00  0.00    -0.354 N 
ATOM      3  C   UNL A   1      34.420  22.197  26.626  1.00  0.00     0.255 C 
ATOM      4  O   UNL A   1      34.214  22.274  27.842  1.00  0.00    -0.272 OA
ATOM      5  H   UNL A   1      35.640  20.713  27.049  1.00  0.00     0.163 HD
BRANCH   3   6
ATOM      6  C   UNL A   1      33.807  23.189  25.613  1.00  0.00     0.213 C 
ATOM      7  C   UNL A   1      32.733  24.106  26.251  1.00  0.00     0.056 C 
BRANCH   6   8
ATOM      8  N   UNL A   1      33.054  22.355  24.582  1.00  0.00    -0.316 N 
ATOM      9  N   UNL A   1      31.935  23.322  22.715  1.00  0.00    -0.329 N 
ATOM     10  C   UNL A   1      32.389  22.306  23.436  1.00  0.00     0.316 C 
ATOM     11  H   UNL A   1      31.418  23.052  21.922  1.00  0.00     0.165 HD
ATOM     12  O   UNL A   1      32.151  21.164  23.025  1.00  0.00    -0.249 OA
ATOM     13  H   UNL A   1      33.067  21.432  24.923  1.00  0.00     0.166 HD
BRANCH   9  14
ATOM     14  C   UNL A   1      32.058  24.750  22.878  1.00  0.00     0.141 C 
BRANCH  14  15
ATOM     15  C   UNL A   1      33.107  25.374  21.931  1.00  0.00     0.011 C 
ATOM     16  C   UNL A   1      32.530  25.579  20.524  1.00  0.00     0.010 C 
ATOM     17  C   UNL A   1      33.606  26.737  22.446  1.00  0.00     0.010 C 
ENDBRANCH  14  15
BRANCH  14  18
ATOM     18  C   UNL A   1      30.674  25.440  23.069  1.00  0.00     0.287 C 
BRANCH  18  19
ATOM     19  N   UNL A   1      30.455  26.476  24.103  1.00  0.00    -0.338 N 
ATOM     20  C   UNL A   1      29.560  27.501  23.532  1.00  0.00     0.332 C 
ATOM     21  C   UNL A   1      29.823  25.949  25.314  1.00  0.00     0.332 C 
ATOM     22  H   UNL A   1      31.366  26.850  24.368  1.00  0.00     0.347 HD
ENDBRANCH  18  19
ENDBRANCH  14  18
ENDBRANCH   9  14
ENDBRANCH   6   8
BRANCH   6  23
ATOM     23  C   UNL A   1      34.959  24.172  25.269  1.00  0.00     0.420 C 
ATOM     24  F   UNL A   1      34.660  25.484  25.353  1.00  0.00    -0.168 F 
ATOM     25  F   UNL A   1      36.036  23.947  26.067  1.00  0.00    -0.168 F 
ATOM     26  F   UNL A   1      35.405  23.979  23.997  1.00  0.00    -0.168 F 
ENDBRANCH   6  23
ENDBRANCH   3   6
ENDBRANCH   1   2
BRANCH   1  27
ATOM     27  C   UNL A   1      37.141  20.908  24.717  1.00  0.00     0.023 C 
BRANCH  27  28
ATOM     28  C   UNL A   1      38.099  19.753  24.999  1.00  0.00     0.023 C 
BRANCH  28  29
ATOM     29  C   UNL A   1      39.329  20.113  25.821  1.00  0.00     0.116 C 
BRANCH  29  30
ATOM     30  N   UNL A   1      40.297  19.030  25.894  1.00  0.00    -0.352 N 
ATOM     31  C   UNL A   1      41.656  19.088  26.102  1.00  0.00     0.251 C 
ATOM     32  H   UNL A   1      39.926  18.125  25.777  1.00  0.00     0.163 HD
ATOM     33  O   UNL A   1      42.341  18.085  26.001  1.00  0.00    -0.269 OA
BRANCH  31  34
ATOM     34  C   UNL A   1      42.278  20.390  26.415  1.00  0.00     0.039 A 
ATOM     35  C   UNL A   1      42.853  21.125  25.376  1.00  0.00     0.014 A 
ATOM     36  C   UNL A   1      42.259  20.896  27.717  1.00  0.00     0.014 A 
ATOM     37  C   UNL A   1      43.346  22.405  25.631  1.00  0.00     0.010 A 
ATOM     38  C   UNL A   1      42.677  22.202  27.951  1.00  0.00     0.010 A 
ATOM     39  C   UNL A   1      43.225  22.970  26.912  1.00  0.00    -0.014 A 
BRANCH  39  40
ATOM     40  C   UNL A   1      43.663  24.362  27.183  1.00  0.00     0.031 A 
ATOM     41  C   UNL A   1      42.669  25.380  27.669  1.00  0.00     0.074 A 
ATOM     42  C   UNL A   1      44.933  24.725  26.918  1.00  0.00     0.049 A 
ATOM     43  N   UNL A   1      42.835  26.660  27.886  1.00  0.00    -0.248 NA
ATOM     44  C   UNL A   1      41.299  24.904  27.918  1.00  0.00     0.031 C 
ATOM     45  C   UNL A   1      45.974  23.841  26.388  1.00  0.00     0.029 A 
ATOM     46  N   UNL A   1      45.562  25.939  27.043  1.00  0.00    -0.354 N 
ATOM     47  C   UNL A   1      41.592  27.144  28.268  1.00  0.00     0.074 A 
ATOM     48  C   UNL A   1      40.668  26.031  28.214  1.00  0.00     0.031 C 
ATOM     49  C   UNL A   1      47.112  24.538  26.243  1.00  0.00     0.029 A 
ATOM     50  C   UNL A   1      46.874  25.924  26.632  1.00  0.00     0.049 A 
ATOM     51  H   UNL A   1      45.117  26.744  27.393  1.00  0.00     0.167 HD
ATOM     52  C   UNL A   1      41.256  28.398  28.649  1.00  0.00     0.037 A 
ATOM     53  C   UNL A   1      47.777  26.922  26.563  1.00  0.00     0.037 A 
ATOM     54  C   UNL A   1      42.188  29.490  28.742  1.00  0.00     0.049 A 
ATOM     55  C   UNL A   1      47.379  28.303  27.011  1.00  0.00     0.074 A 
ATOM     56  C   UNL A   1      41.967  30.773  29.210  1.00  0.00     0.029 A 
ATOM     57  N   UNL A   1      43.518  29.428  28.355  1.00  0.00    -0.354 N 
ATOM     58  N   UNL A   1      46.223  28.725  27.463  1.00  0.00    -0.248 NA
ATOM     59  C   UNL A   1      48.412  29.347  26.946  1.00  0.00     0.031 C 
ATOM     60  C   UNL A   1      43.146  31.507  29.050  1.00  0.00     0.029 A 
ATOM     61  C   UNL A   1      44.121  30.662  28.544  1.00  0.00     0.049 A 
ATOM     62  H   UNL A   1      43.969  28.627  28.000  1.00  0.00     0.167 HD
ATOM     63  C   UNL A   1      46.399  30.069  27.765  1.00  0.00     0.074 A 
ATOM     64  C   UNL A   1      47.777  30.389  27.461  1.00  0.00     0.031 C 
ATOM     65  C   UNL A   1      45.498  30.960  28.248  1.00  0.00     0.037 A 
BRANCH  52  66
ATOM     66  C   UNL A   1      39.822  28.670  28.998  1.00  0.00     0.064 A 
ATOM     67  C   UNL A   1      39.331  28.493  30.300  1.00  0.00     0.173 A 
ATOM     68  C   UNL A   1      38.945  29.185  28.031  1.00  0.00     0.173 A 
ATOM     69  F   UNL A   1      40.125  27.994  31.260  1.00  0.00    -0.203 F 
ATOM     70  C   UNL A   1      38.012  28.804  30.617  1.00  0.00     0.198 A 
ATOM     71  C   UNL A   1      37.635  29.523  28.358  1.00  0.00     0.198 A 
ATOM     72  F   UNL A   1      39.365  29.377  26.771  1.00  0.00    -0.203 F 
ATOM     73  F   UNL A   1      37.554  28.592  31.858  1.00  0.00    -0.200 F 
ATOM     74  C   UNL A   1      37.169  29.328  29.648  1.00  0.00     0.200 A 
ATOM     75  F   UNL A   1      36.826  30.044  27.425  1.00  0.00    -0.200 F 
ATOM     76  F   UNL A   1      35.903  29.644  29.959  1.00  0.00    -0.200 F 
ENDBRANCH  52  66
BRANCH  53  77
ATOM     77  C   UNL A   1      49.149  26.658  26.049  1.00  0.00     0.064 A 
ATOM     78  C   UNL A   1      50.157  26.169  26.891  1.00  0.00     0.173 A 
ATOM     79  C   UNL A   1      49.489  26.920  24.713  1.00  0.00     0.173 A 
ATOM     80  F   UNL A   1      49.889  25.920  28.182  1.00  0.00    -0.203 F 
ATOM     81  C   UNL A   1      51.459  25.987  26.429  1.00  0.00     0.198 A 
ATOM     82  C   UNL A   1      50.782  26.706  24.242  1.00  0.00     0.198 A 
ATOM     83  F   UNL A   1      48.561  27.383  23.862  1.00  0.00    -0.203 F 
ATOM     84  F   UNL A   1      52.417  25.578  27.272  1.00  0.00    -0.200 F 
ATOM     85  C   UNL A   1      51.770  26.252  25.104  1.00  0.00     0.200 A 
ATOM     86  F   UNL A   1      51.074  26.947  22.957  1.00  0.00    -0.200 F 
ATOM     87  F   UNL A   1      53.022  26.080  24.659  1.00  0.00    -0.200 F 
ENDBRANCH  53  77
BRANCH  65  88
ATOM     88  C   UNL A   1      45.983  32.354  28.520  1.00  0.00     0.064 A 
ATOM     89  C   UNL A   1      45.900  33.366  27.553  1.00  0.00     0.173 A 
ATOM     90  C   UNL A   1      46.493  32.693  29.783  1.00  0.00     0.173 A 
ATOM     91  F   UNL A   1      45.432  33.092  26.326  1.00  0.00    -0.203 F 
ATOM     92  C   UNL A   1      46.333  34.660  27.832  1.00  0.00     0.198 A 
ATOM     93  C   UNL A   1      46.894  33.994  30.069  1.00  0.00     0.198 A 
ATOM     94  F   UNL A   1      46.586  31.765  30.746  1.00  0.00    -0.203 F 
ATOM     95  F   UNL A   1      46.290  35.599  26.877  1.00  0.00    -0.200 F 
ATOM     96  C   UNL A   1      46.821  34.975  29.092  1.00  0.00     0.200 A 
ATOM     97  F   UNL A   1      47.349  34.300  31.293  1.00  0.00    -0.200 F 
ATOM     98  F   UNL A   1      47.228  36.223  29.361  1.00  0.00    -0.200 F 
ENDBRANCH  65  88
ENDBRANCH  39  40
ENDBRANCH  31  34
ENDBRANCH  29  30
ENDBRANCH  28  29
ENDBRANCH  27  28
ENDBRANCH   1  27
TORSDOF 17
ENDMDL
MODEL 2
REMARK VINA RESULT:     -11.6      5.763     11.095
REMARK SMILES CC(C)[C@@H](C[NH+](C)C)NC(=O)N[C@@](C)(C(=O)NCCCCNC(=O)c1ccc(-c2c3nc(c(-c4c(F)c(F)c(F)c(F)c4F)c4ccc([nH]4)c(-c4c(F)c(F)c(F)c(F)c4F)c4nc(c(-c5c(F)c(F)c(F)c(F)c5F)c5ccc2[nH]5)C=C4)C=C3)cc1)C(F)(F)F
REMARK SMILES IDX 18 1 17 2 15 3 16 4 13 6 14 7 12 8 9 9 10 10 11 12 4 14 2 15
REMARK SMILES IDX 1 16 3 17 5 18 6 19 7 20 8 21 88 23 89 24 90 25 91 26 19 27
REMARK SMILES IDX 20 28 21 29 22 30 23 31 24 33 25 34 26 35 87 36 27 37 86 38
REMARK SMILES IDX 28 39 29 40 30 41 80 42 31 43 85 44 79 45 81 46 32 47 84 48
REMARK SMILES IDX 78 49 77 50 33 52 65 53 45 54 64 55 46 56 49 57 63 58 82 59
REMARK SMILES IDX 47 60 48 61 62 63 83 64 50 65 34 66 35 67 43 68 36 69 37 70
REMARK SMILES IDX 41 71 44 72 38 73 39 74 42 75 40 76 66 77 67 78 75 79 68 80
REMARK SMILES IDX 69 81 73 82 76 83 70 84 71 85 74 86 72 87 51 88 52 89 60 90
REMARK SMILES IDX 53 91 54 92 58 93 61 94 55 95 56 96 59 97 57 98
REMARK H PARENT 17 5 9 11 12 13 6 22 22 32 81 51 49 62
REMARK Flexibility Score: inf
ROOT
ATOM      1  C   UNL A   1      32.686  29.841  25.424  1.00  0.00     0.116 C 
ENDROOT
BRANCH   1   2
ATOM      2  N   UNL A   1      32.037  29.764  24.130  1.00  0.00    -0.354 N 
ATOM      3  C   UNL A   1      31.646  28.731  23.335  1.00  0.00     0.255 C 
ATOM      4  O   UNL A   1      31.000  29.085  22.343  1.00  0.00    -0.272 OA
ATOM      5  H   UNL A   1      31.836  30.647  23.744  1.00  0.00     0.163 HD
BRANCH   3   6
ATOM      6  C   UNL A   1      31.990  27.254  23.622  1.00  0.00     0.213 C 
ATOM      7  C   UNL A   1      31.346  26.283  22.600  1.00  0.00     0.056 C 
BRANCH   6   8
ATOM      8  N   UNL A   1      31.349  26.904  24.960  1.00  0.00    -0.316 N 
ATOM      9  N   UNL A   1      31.982  24.991  26.230  1.00  0.00    -0.329 N 
ATOM     10  C   UNL A   1      31.326  26.127  26.034  1.00  0.00     0.316 C 
ATOM     11  H   UNL A   1      31.773  24.550  27.084  1.00  0.00     0.165 HD
ATOM     12  O   UNL A   1      30.576  26.515  26.938  1.00  0.00    -0.249 OA
ATOM     13  H   UNL A   1      30.617  27.550  25.083  1.00  0.00     0.166 HD
BRANCH   9  14
ATOM     14  C   UNL A   1      32.942  24.281  25.420  1.00  0.00     0.141 C 
BRANCH  14  15
ATOM     15  C   UNL A   1      34.325  24.161  26.097  1.00  0.00     0.011 C 
ATOM     16  C   UNL A   1      34.433  22.866  26.911  1.00  0.00     0.010 C 
ATOM     17  C   UNL A   1      35.471  24.176  25.068  1.00  0.00     0.010 C 
ENDBRANCH  14  15
BRANCH  14  18
ATOM     18  C   UNL A   1      32.313  23.044  24.712  1.00  0.00     0.287 C 
BRANCH  18  19
ATOM     19  N   UNL A   1      33.063  22.250  23.714  1.00  0.00    -0.338 N 
ATOM     20  C   UNL A   1      32.561  20.863  23.770  1.00  0.00     0.332 C 
ATOM     21  C   UNL A   1      32.886  22.739  22.346  1.00  0.00     0.332 C 
ATOM     22  H   UNL A   1      34.055  22.321  23.941  1.00  0.00     0.347 HD
ENDBRANCH  18  19
ENDBRANCH  14  18
ENDBRANCH   9  14
ENDBRANCH   6   8
BRANCH   6  23
ATOM     23  C   UNL A   1      33.510  27.132  23.323  1.00  0.00     0.420 C 
ATOM     24  F   UNL A   1      34.330  27.227  24.389  1.00  0.00    -0.168 F 
ATOM     25  F   UNL A   1      33.784  25.954  22.702  1.00  0.00    -0.168 F 
ATOM     26  F   UNL A   1      33.919  28.100  22.458  1.00  0.00    -0.168 F 
ENDBRANCH   6  23
ENDBRANCH   3   6
ENDBRANCH   1   2
BRANCH   1  27
ATOM     27  C   UNL A   1      31.752  30.372  26.504  1.00  0.00     0.023 C 
BRANCH  27  28
ATOM     28  C   UNL A   1      31.617  31.892  26.564  1.00  0.00     0.023 C 
BRANCH  28  29
ATOM     29  C   UNL A   1      32.716  32.614  27.334  1.00  0.00     0.116 C 
BRANCH  29  30
ATOM     30  N   UNL A   1      32.394  34.005  27.608  1.00  0.00    -0.352 N 
ATOM     31  C   UNL A   1      32.957  34.866  28.520  1.00  0.00     0.251 C 
ATOM     32  H   UNL A   1      31.667  34.384  27.062  1.00  0.00     0.163 HD
ATOM     33  O   UNL A   1      32.474  35.968  28.713  1.00  0.00    -0.269 OA
BRANCH  31  34
ATOM     34  C   UNL A   1      34.137  34.423  29.291  1.00  0.00     0.039 A 
ATOM     35  C   UNL A   1      33.939  33.837  30.543  1.00  0.00     0.014 A 
ATOM     36  C   UNL A   1      35.424  34.551  28.763  1.00  0.00     0.014 A 
ATOM     37  C   UNL A   1      35.030  33.312  31.235  1.00  0.00     0.010 A 
ATOM     38  C   UNL A   1      36.497  33.957  29.418  1.00  0.00     0.010 A 
ATOM     39  C   UNL A   1      36.312  33.331  30.661  1.00  0.00    -0.014 A 
BRANCH  39  40
ATOM     40  C   UNL A   1      37.469  32.699  31.341  1.00  0.00     0.031 A 
ATOM     41  C   UNL A   1      38.172  31.533  30.703  1.00  0.00     0.074 A 
ATOM     42  C   UNL A   1      37.837  33.126  32.565  1.00  0.00     0.049 A 
ATOM     43  N   UNL A   1      39.147  30.796  31.173  1.00  0.00    -0.248 NA
ATOM     44  C   UNL A   1      37.696  31.119  29.372  1.00  0.00     0.031 C 
ATOM     45  C   UNL A   1      37.196  34.210  33.313  1.00  0.00     0.029 A 
ATOM     46  N   UNL A   1      38.831  32.688  33.406  1.00  0.00    -0.354 N 
ATOM     47  C   UNL A   1      39.382  29.823  30.211  1.00  0.00     0.074 A 
ATOM     48  C   UNL A   1      38.421  30.033  29.150  1.00  0.00     0.031 C 
ATOM     49  C   UNL A   1      37.817  34.359  34.494  1.00  0.00     0.029 A 
ATOM     50  C   UNL A   1      38.874  33.360  34.605  1.00  0.00     0.049 A 
ATOM     51  H   UNL A   1      39.454  31.962  33.173  1.00  0.00     0.167 HD
ATOM     52  C   UNL A   1      40.326  28.854  30.207  1.00  0.00     0.037 A 
ATOM     53  C   UNL A   1      39.667  33.177  35.678  1.00  0.00     0.037 A 
ATOM     54  C   UNL A   1      41.307  28.678  31.245  1.00  0.00     0.049 A 
ATOM     55  C   UNL A   1      40.722  32.102  35.636  1.00  0.00     0.074 A 
ATOM     56  C   UNL A   1      42.366  27.789  31.286  1.00  0.00     0.029 A 
ATOM     57  N   UNL A   1      41.345  29.402  32.426  1.00  0.00    -0.354 N 
ATOM     58  N   UNL A   1      40.997  31.250  34.679  1.00  0.00    -0.248 NA
ATOM     59  C   UNL A   1      41.582  31.968  36.820  1.00  0.00     0.031 C 
ATOM     60  C   UNL A   1      43.009  27.932  32.519  1.00  0.00     0.029 A 
ATOM     61  C   UNL A   1      42.391  28.956  33.218  1.00  0.00     0.049 A 
ATOM     62  H   UNL A   1      40.722  30.127  32.668  1.00  0.00     0.167 HD
ATOM     63  C   UNL A   1      42.077  30.504  35.130  1.00  0.00     0.074 A 
ATOM     64  C   UNL A   1      42.419  31.014  36.440  1.00  0.00     0.031 C 
ATOM     65  C   UNL A   1      42.726  29.484  34.516  1.00  0.00     0.037 A 
BRANCH  52  66
ATOM     66  C   UNL A   1      40.357  27.904  29.046  1.00  0.00     0.064 A 
ATOM     67  C   UNL A   1      39.601  26.722  29.036  1.00  0.00     0.173 A 
ATOM     68  C   UNL A   1      41.099  28.217  27.896  1.00  0.00     0.173 A 
ATOM     69  F   UNL A   1      38.882  26.371  30.114  1.00  0.00    -0.203 F 
ATOM     70  C   UNL A   1      39.600  25.881  27.927  1.00  0.00     0.198 A 
ATOM     71  C   UNL A   1      41.071  27.390  26.777  1.00  0.00     0.198 A 
ATOM     72  F   UNL A   1      41.837  29.337  27.852  1.00  0.00    -0.203 F 
ATOM     73  F   UNL A   1      38.899  24.740  27.955  1.00  0.00    -0.200 F 
ATOM     74  C   UNL A   1      40.326  26.221  26.796  1.00  0.00     0.200 A 
ATOM     75  F   UNL A   1      41.762  27.726  25.679  1.00  0.00    -0.200 F 
ATOM     76  F   UNL A   1      40.309  25.419  25.721  1.00  0.00    -0.200 F 
ENDBRANCH  52  66
BRANCH  53  77
ATOM     77  C   UNL A   1      39.500  34.027  36.889  1.00  0.00     0.064 A 
ATOM     78  C   UNL A   1      40.131  35.274  36.991  1.00  0.00     0.173 A 
ATOM     79  C   UNL A   1      38.733  33.595  37.981  1.00  0.00     0.173 A 
ATOM     80  F   UNL A   1      40.891  35.725  35.981  1.00  0.00    -0.203 F 
ATOM     81  C   UNL A   1      40.031  36.041  38.150  1.00  0.00     0.198 A 
ATOM     82  C   UNL A   1      38.606  34.377  39.127  1.00  0.00     0.198 A 
ATOM     83  F   UNL A   1      38.103  32.412  37.934  1.00  0.00    -0.203 F 
ATOM     84  F   UNL A   1      40.696  37.200  38.244  1.00  0.00    -0.200 F 
ATOM     85  C   UNL A   1      39.266  35.593  39.216  1.00  0.00     0.200 A 
ATOM     86  F   UNL A   1      37.852  33.948  40.148  1.00  0.00    -0.200 F 
ATOM     87  F   UNL A   1      39.173  36.328  40.333  1.00  0.00    -0.200 F 
ENDBRANCH  53  77
BRANCH  65  88
ATOM     88  C   UNL A   1      43.899  28.880  35.231  1.00  0.00     0.064 A 
ATOM     89  C   UNL A   1      45.201  29.371  35.060  1.00  0.00     0.173 A 
ATOM     90  C   UNL A   1      43.709  27.825  36.137  1.00  0.00     0.173 A 
ATOM     91  F   UNL A   1      45.438  30.369  34.196  1.00  0.00    -0.203 F 
ATOM     92  C   UNL A   1      46.273  28.812  35.750  1.00  0.00     0.198 A 
ATOM     93  C   UNL A   1      44.777  27.290  36.851  1.00  0.00     0.198 A 
ATOM     94  F   UNL A   1      42.482  27.323  36.344  1.00  0.00    -0.203 F 
ATOM     95  F   UNL A   1      47.515  29.265  35.534  1.00  0.00    -0.200 F 
ATOM     96  C   UNL A   1      46.059  27.779  36.651  1.00  0.00     0.200 A 
ATOM     97  F   UNL A   1      44.566  26.304  37.733  1.00  0.00    -0.200 F 
ATOM     98  F   UNL A   1      47.091  27.249  37.322  1.00  0.00    -0.200 F 
ENDBRANCH  65  88
ENDBRANCH  39  40
ENDBRANCH  31  34
ENDBRANCH  29  30
ENDBRANCH  28  29
ENDBRANCH  27  28
ENDBRANCH   1  27
TORSDOF 17
ENDMDL
MODEL 3
REMARK VINA RESULT:     -11.6      5.571      9.805
REMARK SMILES CC(C)[C@@H](C[NH+](C)C)NC(=O)N[C@@](C)(C(=O)NCCCCNC(=O)c1ccc(-c2c3nc(c(-c4c(F)c(F)c(F)c(F)c4F)c4ccc([nH]4)c(-c4c(F)c(F)c(F)c(F)c4F)c4nc(c(-c5c(F)c(F)c(F)c(F)c5F)c5ccc2[nH]5)C=C4)C=C3)cc1)C(F)(F)F
REMARK SMILES IDX 18 1 17 2 15 3 16 4 13 6 14 7 12 8 9 9 10 10 11 12 4 14 2 15
REMARK SMILES IDX 1 16 3 17 5 18 6 19 7 20 8 21 88 23 89 24 90 25 91 26 19 27
REMARK SMILES IDX 20 28 21 29 22 30 23 31 24 33 25 34 26 35 87 36 27 37 86 38
REMARK SMILES IDX 28 39 29 40 30 41 80 42 31 43 85 44 79 45 81 46 32 47 84 48
REMARK SMILES IDX 78 49 77 50 33 52 65 53 45 54 64 55 46 56 49 57 63 58 82 59
REMARK SMILES IDX 47 60 48 61 62 63 83 64 50 65 34 66 35 67 43 68 36 69 37 70
REMARK SMILES IDX 41 71 44 72 38 73 39 74 42 75 40 76 66 77 67 78 75 79 68 80
REMARK SMILES IDX 69 81 73 82 76 83 70 84 71 85 74 86 72 87 51 88 52 89 60 90
REMARK SMILES IDX 53 91 54 92 58 93 61 94 55 95 56 96 59 97 57 98
REMARK H PARENT 17 5 9 11 12 13 6 22 22 32 81 51 49 62
REMARK Flexibility Score: inf
ROOT
ATOM      1  C   UNL A   1      31.402  29.833  25.548  1.00  0.00     0.116 C 
ENDROOT
BRANCH   1   2
ATOM      2  N   UNL A   1      32.523  29.718  24.637  1.00  0.00    -0.354 N 
ATOM      3  C   UNL A   1      33.132  28.667  24.023  1.00  0.00     0.255 C 
ATOM      4  O   UNL A   1      33.995  29.002  23.205  1.00  0.00    -0.272 OA
ATOM      5  H   UNL A   1      32.931  30.585  24.413  1.00  0.00     0.163 HD
BRANCH   3   6
ATOM      6  C   UNL A   1      32.800  27.190  24.328  1.00  0.00     0.213 C 
ATOM      7  C   UNL A   1      33.537  26.207  23.384  1.00  0.00     0.056 C 
BRANCH   6   8
ATOM      8  N   UNL A   1      31.319  26.999  24.021  1.00  0.00    -0.316 N 
ATOM      9  N   UNL A   1      30.150  24.986  24.525  1.00  0.00    -0.329 N 
ATOM     10  C   UNL A   1      30.232  26.246  24.120  1.00  0.00     0.316 C 
ATOM     11  H   UNL A   1      29.246  24.604  24.467  1.00  0.00     0.165 HD
ATOM     12  O   UNL A   1      29.186  26.798  23.761  1.00  0.00    -0.249 OA
ATOM     13  H   UNL A   1      31.044  27.800  23.521  1.00  0.00     0.166 HD
BRANCH   9  14
ATOM     14  C   UNL A   1      31.143  24.070  25.033  1.00  0.00     0.141 C 
BRANCH  14  15
ATOM     15  C   UNL A   1      31.055  23.878  26.563  1.00  0.00     0.011 C 
ATOM     16  C   UNL A   1      29.892  22.951  26.938  1.00  0.00     0.010 C 
ATOM     17  C   UNL A   1      32.350  23.277  27.142  1.00  0.00     0.010 C 
ENDBRANCH  14  15
BRANCH  14  18
ATOM     18  C   UNL A   1      31.332  22.835  24.103  1.00  0.00     0.287 C 
BRANCH  18  19
ATOM     19  N   UNL A   1      32.675  22.343  23.721  1.00  0.00    -0.338 N 
ATOM     20  C   UNL A   1      32.662  20.871  23.821  1.00  0.00     0.332 C 
ATOM     21  C   UNL A   1      33.044  22.699  22.350  1.00  0.00     0.332 C 
ATOM     22  H   UNL A   1      33.355  22.776  24.346  1.00  0.00     0.347 HD
ENDBRANCH  18  19
ENDBRANCH  14  18
ENDBRANCH   9  14
ENDBRANCH   6   8
BRANCH   6  23
ATOM     23  C   UNL A   1      33.449  26.912  25.712  1.00  0.00     0.420 C 
ATOM     24  F   UNL A   1      32.606  26.889  26.764  1.00  0.00    -0.168 F 
ATOM     25  F   UNL A   1      34.118  25.729  25.700  1.00  0.00    -0.168 F 
ATOM     26  F   UNL A   1      34.385  27.853  26.013  1.00  0.00    -0.168 F 
ENDBRANCH   6  23
ENDBRANCH   3   6
ENDBRANCH   1   2
BRANCH   1  27
ATOM     27  C   UNL A   1      31.782  30.548  26.838  1.00  0.00     0.023 C 
BRANCH  27  28
ATOM     28  C   UNL A   1      31.561  32.059  26.839  1.00  0.00     0.023 C 
BRANCH  28  29
ATOM     29  C   UNL A   1      32.803  32.899  27.109  1.00  0.00     0.116 C 
BRANCH  29  30
ATOM     30  N   UNL A   1      32.489  34.230  27.603  1.00  0.00    -0.352 N 
ATOM     31  C   UNL A   1      33.043  34.923  28.654  1.00  0.00     0.251 C 
ATOM     32  H   UNL A   1      31.777  34.703  27.115  1.00  0.00     0.163 HD
ATOM     33  O   UNL A   1      32.567  35.984  29.017  1.00  0.00    -0.269 OA
BRANCH  31  34
ATOM     34  C   UNL A   1      34.204  34.344  29.362  1.00  0.00     0.039 A 
ATOM     35  C   UNL A   1      33.980  33.610  30.528  1.00  0.00     0.014 A 
ATOM     36  C   UNL A   1      35.497  34.495  28.854  1.00  0.00     0.014 A 
ATOM     37  C   UNL A   1      35.049  32.963  31.148  1.00  0.00     0.010 A 
ATOM     38  C   UNL A   1      36.546  33.784  29.428  1.00  0.00     0.010 A 
ATOM     39  C   UNL A   1      36.333  33.011  30.581  1.00  0.00    -0.014 A 
BRANCH  39  40
ATOM     40  C   UNL A   1      37.466  32.258  31.175  1.00  0.00     0.031 A 
ATOM     41  C   UNL A   1      37.981  32.627  32.538  1.00  0.00     0.074 A 
ATOM     42  C   UNL A   1      38.076  31.295  30.457  1.00  0.00     0.049 A 
ATOM     43  N   UNL A   1      39.006  32.145  33.194  1.00  0.00    -0.248 NA
ATOM     44  C   UNL A   1      37.267  33.701  33.249  1.00  0.00     0.031 C 
ATOM     45  C   UNL A   1      37.705  30.887  29.100  1.00  0.00     0.029 A 
ATOM     46  N   UNL A   1      39.149  30.495  30.760  1.00  0.00    -0.354 N 
ATOM     47  C   UNL A   1      39.075  32.871  34.375  1.00  0.00     0.074 A 
ATOM     48  C   UNL A   1      38.016  33.856  34.331  1.00  0.00     0.031 C 
ATOM     49  C   UNL A   1      38.529  29.908  28.693  1.00  0.00     0.029 A 
ATOM     50  C   UNL A   1      39.509  29.645  29.741  1.00  0.00     0.049 A 
ATOM     51  H   UNL A   1      39.618  30.527  31.625  1.00  0.00     0.167 HD
ATOM     52  C   UNL A   1      39.933  32.717  35.410  1.00  0.00     0.037 A 
ATOM     53  C   UNL A   1      40.526  28.765  29.658  1.00  0.00     0.037 A 
ATOM     54  C   UNL A   1      40.957  31.707  35.466  1.00  0.00     0.049 A 
ATOM     55  C   UNL A   1      41.453  28.603  30.834  1.00  0.00     0.074 A 
ATOM     56  C   UNL A   1      41.812  31.407  36.511  1.00  0.00     0.029 A 
ATOM     57  N   UNL A   1      41.266  30.838  34.432  1.00  0.00    -0.354 N 
ATOM     58  N   UNL A   1      41.447  29.229  31.984  1.00  0.00    -0.248 NA
ATOM     59  C   UNL A   1      42.524  27.605  30.702  1.00  0.00     0.031 C 
ATOM     60  C   UNL A   1      42.680  30.395  36.089  1.00  0.00     0.029 A 
ATOM     61  C   UNL A   1      42.322  30.022  34.803  1.00  0.00     0.049 A 
ATOM     62  H   UNL A   1      40.804  30.804  33.562  1.00  0.00     0.167 HD
ATOM     63  C   UNL A   1      42.487  28.682  32.723  1.00  0.00     0.074 A 
ATOM     64  C   UNL A   1      43.093  27.660  31.897  1.00  0.00     0.031 C 
ATOM     65  C   UNL A   1      42.906  29.000  33.973  1.00  0.00     0.037 A 
BRANCH  52  66
ATOM     66  C   UNL A   1      39.810  33.655  36.575  1.00  0.00     0.064 A 
ATOM     67  C   UNL A   1      40.484  34.885  36.609  1.00  0.00     0.173 A 
ATOM     68  C   UNL A   1      38.947  33.350  37.639  1.00  0.00     0.173 A 
ATOM     69  F   UNL A   1      41.329  35.220  35.622  1.00  0.00    -0.203 F 
ATOM     70  C   UNL A   1      40.313  35.766  37.674  1.00  0.00     0.198 A 
ATOM     71  C   UNL A   1      38.755  34.246  38.686  1.00  0.00     0.198 A 
ATOM     72  F   UNL A   1      38.275  32.188  37.653  1.00  0.00    -0.203 F 
ATOM     73  F   UNL A   1      40.996  36.918  37.703  1.00  0.00    -0.200 F 
ATOM     74  C   UNL A   1      39.441  35.450  38.705  1.00  0.00     0.200 A 
ATOM     75  F   UNL A   1      37.901  33.947  39.675  1.00  0.00    -0.200 F 
ATOM     76  F   UNL A   1      39.264  36.308  39.720  1.00  0.00    -0.200 F 
ENDBRANCH  52  66
BRANCH  53  77
ATOM     77  C   UNL A   1      40.727  27.966  28.418  1.00  0.00     0.064 A 
ATOM     78  C   UNL A   1      40.166  26.690  28.279  1.00  0.00     0.173 A 
ATOM     79  C   UNL A   1      41.513  28.450  27.360  1.00  0.00     0.173 A 
ATOM     80  F   UNL A   1      39.422  26.174  29.270  1.00  0.00    -0.203 F 
ATOM     81  C   UNL A   1      40.410  25.913  27.148  1.00  0.00     0.198 A 
ATOM     82  C   UNL A   1      41.729  27.686  26.215  1.00  0.00     0.198 A 
ATOM     83  F   UNL A   1      42.068  29.668  27.438  1.00  0.00    -0.203 F 
ATOM     84  F   UNL A   1      39.912  24.671  27.070  1.00  0.00    -0.200 F 
ATOM     85  C   UNL A   1      41.188  26.413  26.116  1.00  0.00     0.200 A 
ATOM     86  F   UNL A   1      42.467  28.181  25.213  1.00  0.00    -0.200 F 
ATOM     87  F   UNL A   1      41.426  25.665  25.030  1.00  0.00    -0.200 F 
ENDBRANCH  53  77
BRANCH  65  88
ATOM     88  C   UNL A   1      44.045  28.206  34.543  1.00  0.00     0.064 A 
ATOM     89  C   UNL A   1      45.374  28.644  34.439  1.00  0.00     0.173 A 
ATOM     90  C   UNL A   1      43.799  27.016  35.244  1.00  0.00     0.173 A 
ATOM     91  F   UNL A   1      45.664  29.768  33.767  1.00  0.00    -0.203 F 
ATOM     92  C   UNL A   1      46.415  27.906  34.994  1.00  0.00     0.198 A 
ATOM     93  C   UNL A   1      44.839  26.298  35.827  1.00  0.00     0.198 A 
ATOM     94  F   UNL A   1      42.546  26.558  35.380  1.00  0.00    -0.203 F 
ATOM     95  F   UNL A   1      47.681  28.317  34.840  1.00  0.00    -0.200 F 
ATOM     96  C   UNL A   1      46.147  26.739  35.695  1.00  0.00     0.200 A 
ATOM     97  F   UNL A   1      44.575  25.181  36.519  1.00  0.00    -0.200 F 
ATOM     98  F   UNL A   1      47.150  26.036  36.237  1.00  0.00    -0.200 F 
ENDBRANCH  65  88
ENDBRANCH  39  40
ENDBRANCH  31  34
ENDBRANCH  29  30
ENDBRANCH  28  29
ENDBRANCH  27  28
ENDBRANCH   1  27
TORSDOF 17
ENDMDL
