MODEL 1
REMARK VINA RESULT:     -12.4      0.000      0.000
REMARK SMILES CC(=O)Nc1nc(C[N@@H+]2CCO[C@@H](CC(=O)NCCCCNC(=O)c3ccc(-c4c5nc(c(-c6c(F)c(F)c(F)c(F)c6F)c6ccc([nH]6)c(-c6c(F)c(F)c(F)c(F)c6F)c6nc(c(-c7c(F)c(F)c(F)c(F)c7F)c7ccc4[nH]7)C=C6)C=C5)cc3)C2)cs1
REMARK SMILES IDX 18 1 17 2 15 3 16 4 14 6 13 7 9 8 10 9 88 10 11 12 12 13
REMARK SMILES IDX 8 14 7 15 5 16 6 17 90 18 89 19 4 20 1 21 2 22 3 23 19 25
REMARK SMILES IDX 20 26 21 27 22 28 23 29 24 31 25 32 26 33 87 34 27 35 86 36
REMARK SMILES IDX 28 37 29 38 30 39 80 40 31 41 85 42 79 43 81 44 32 45 84 46
REMARK SMILES IDX 78 47 77 48 33 50 65 51 45 52 64 53 46 54 49 55 63 56 82 57
REMARK SMILES IDX 47 58 48 59 62 61 83 62 50 63 34 64 35 65 43 66 36 67 37 68
REMARK SMILES IDX 41 69 44 70 38 71 39 72 42 73 40 74 66 75 67 76 75 77 68 78
REMARK SMILES IDX 69 79 73 80 76 81 70 82 71 83 74 84 72 85 51 86 52 87 60 88
REMARK SMILES IDX 53 89 54 90 58 91 61 92 55 93 56 94 59 95 57 96
REMARK H PARENT 17 5 9 11 4 24 22 30 81 49 49 60
REMARK Flexibility Score: inf
ROOT
ATOM      1  C   UNL A   1      32.804  29.737  27.237  1.00  0.00     0.116 C 
ENDROOT
BRANCH   1   2
ATOM      2  N   UNL A   1      32.112  28.476  27.456  1.00  0.00    -0.356 N 
ATOM      3  C   UNL A   1      32.382  27.217  27.001  1.00  0.00     0.222 C 
ATOM      4  O   UNL A   1      31.572  26.325  27.260  1.00  0.00    -0.275 OA
ATOM      5  H   UNL A   1      31.315  28.540  28.031  1.00  0.00     0.163 HD
BRANCH   3   6
ATOM      6  C   UNL A   1      33.631  26.917  26.197  1.00  0.00     0.138 C 
BRANCH   6   7
ATOM      7  C   UNL A   1      33.446  27.137  24.687  1.00  0.00     0.182 C 
ATOM      8  N   UNL A   1      31.690  28.220  23.151  1.00  0.00    -0.326 N 
ATOM      9  C   UNL A   1      32.742  29.072  22.641  1.00  0.00     0.291 C 
ATOM     10  C   UNL A   1      31.986  27.502  24.372  1.00  0.00     0.295 C 
ATOM     11  H   UNL A   1      31.078  28.980  23.446  1.00  0.00     0.348 HD
ATOM     12  C   UNL A   1      34.140  28.488  22.883  1.00  0.00     0.222 C 
ATOM     13  O   UNL A   1      34.338  28.188  24.273  1.00  0.00    -0.366 OA
BRANCH   8  14
ATOM     14  C   UNL A   1      30.641  27.706  22.290  1.00  0.00     0.320 C 
BRANCH  14  15
ATOM     15  C   UNL A   1      29.446  28.610  22.284  1.00  0.00     0.108 A 
ATOM     16  C   UNL A   1      28.315  30.386  21.626  1.00  0.00     0.189 A 
ATOM     17  N   UNL A   1      29.403  29.693  21.405  1.00  0.00    -0.219 NA
ATOM     18  S   UNL A   1      27.279  29.811  22.854  1.00  0.00    -0.105 S 
ATOM     19  C   UNL A   1      28.325  28.480  23.084  1.00  0.00     0.098 A 
BRANCH  16  20
ATOM     20  N   UNL A   1      27.865  31.523  21.027  1.00  0.00    -0.302 N 
ATOM     21  C   UNL A   1      28.788  33.084  22.728  1.00  0.00     0.114 C 
ATOM     22  C   UNL A   1      27.969  32.792  21.502  1.00  0.00     0.223 C 
ATOM     23  O   UNL A   1      27.416  33.704  20.881  1.00  0.00    -0.275 OA
ATOM     24  H   UNL A   1      27.416  31.414  20.159  1.00  0.00     0.172 HD
ENDBRANCH  16  20
ENDBRANCH  14  15
ENDBRANCH   8  14
ENDBRANCH   6   7
ENDBRANCH   3   6
ENDBRANCH   1   2
BRANCH   1  25
ATOM     25  C   UNL A   1      32.030  30.633  26.263  1.00  0.00     0.023 C 
BRANCH  25  26
ATOM     26  C   UNL A   1      31.661  32.011  26.777  1.00  0.00     0.023 C 
BRANCH  26  27
ATOM     27  C   UNL A   1      32.843  32.826  27.251  1.00  0.00     0.116 C 
BRANCH  27  28
ATOM     28  N   UNL A   1      32.506  34.193  27.630  1.00  0.00    -0.352 N 
ATOM     29  C   UNL A   1      33.078  34.977  28.608  1.00  0.00     0.251 C 
ATOM     30  H   UNL A   1      31.774  34.610  27.121  1.00  0.00     0.163 HD
ATOM     31  O   UNL A   1      32.636  36.087  28.863  1.00  0.00    -0.269 OA
BRANCH  29  32
ATOM     32  C   UNL A   1      34.209  34.422  29.382  1.00  0.00     0.039 A 
ATOM     33  C   UNL A   1      33.943  33.633  30.501  1.00  0.00     0.014 A 
ATOM     34  C   UNL A   1      35.516  34.597  28.928  1.00  0.00     0.014 A 
ATOM     35  C   UNL A   1      34.990  32.944  31.114  1.00  0.00     0.010 A 
ATOM     36  C   UNL A   1      36.530  33.812  29.457  1.00  0.00     0.010 A 
ATOM     37  C   UNL A   1      36.282  32.990  30.565  1.00  0.00    -0.014 A 
BRANCH  37  38
ATOM     38  C   UNL A   1      37.409  32.222  31.148  1.00  0.00     0.031 A 
ATOM     39  C   UNL A   1      37.892  32.562  32.532  1.00  0.00     0.074 A 
ATOM     40  C   UNL A   1      38.049  31.293  30.412  1.00  0.00     0.049 A 
ATOM     41  N   UNL A   1      38.928  32.104  33.186  1.00  0.00    -0.248 NA
ATOM     42  C   UNL A   1      37.136  33.596  33.260  1.00  0.00     0.031 C 
ATOM     43  C   UNL A   1      37.721  30.926  29.034  1.00  0.00     0.029 A 
ATOM     44  N   UNL A   1      39.120  30.492  30.722  1.00  0.00    -0.354 N 
ATOM     45  C   UNL A   1      38.966  32.819  34.376  1.00  0.00     0.074 A 
ATOM     46  C   UNL A   1      37.894  33.787  34.327  1.00  0.00     0.031 C 
ATOM     47  C   UNL A   1      38.551  29.950  28.629  1.00  0.00     0.029 A 
ATOM     48  C   UNL A   1      39.489  29.647  29.705  1.00  0.00     0.049 A 
ATOM     49  H   UNL A   1      39.580  30.522  31.592  1.00  0.00     0.167 HD
ATOM     50  C   UNL A   1      39.796  32.658  35.432  1.00  0.00     0.037 A 
ATOM     51  C   UNL A   1      40.473  28.729  29.654  1.00  0.00     0.037 A 
ATOM     52  C   UNL A   1      40.816  31.649  35.501  1.00  0.00     0.049 A 
ATOM     53  C   UNL A   1      41.348  28.531  30.861  1.00  0.00     0.074 A 
ATOM     54  C   UNL A   1      41.659  31.344  36.555  1.00  0.00     0.029 A 
ATOM     55  N   UNL A   1      41.121  30.769  34.472  1.00  0.00    -0.354 N 
ATOM     56  N   UNL A   1      41.330  29.163  32.010  1.00  0.00    -0.248 NA
ATOM     57  C   UNL A   1      42.376  27.485  30.769  1.00  0.00     0.031 C 
ATOM     58  C   UNL A   1      42.495  30.296  36.152  1.00  0.00     0.029 A 
ATOM     59  C   UNL A   1      42.144  29.925  34.864  1.00  0.00     0.049 A 
ATOM     60  H   UNL A   1      40.674  30.749  33.596  1.00  0.00     0.167 HD
ATOM     61  C   UNL A   1      42.318  28.575  32.786  1.00  0.00     0.074 A 
ATOM     62  C   UNL A   1      42.910  27.525  31.983  1.00  0.00     0.031 C 
ATOM     63  C   UNL A   1      42.703  28.875  34.050  1.00  0.00     0.037 A 
BRANCH  50  64
ATOM     64  C   UNL A   1      39.614  33.581  36.601  1.00  0.00     0.064 A 
ATOM     65  C   UNL A   1      38.793  33.239  37.687  1.00  0.00     0.173 A 
ATOM     66  C   UNL A   1      40.276  34.817  36.643  1.00  0.00     0.173 A 
ATOM     67  F   UNL A   1      38.124  32.074  37.688  1.00  0.00    -0.203 F 
ATOM     68  C   UNL A   1      38.613  34.114  38.754  1.00  0.00     0.198 A 
ATOM     69  C   UNL A   1      40.119  35.676  37.728  1.00  0.00     0.198 A 
ATOM     70  F   UNL A   1      41.073  35.192  35.632  1.00  0.00    -0.203 F 
ATOM     71  F   UNL A   1      37.777  33.791  39.750  1.00  0.00    -0.200 F 
ATOM     72  C   UNL A   1      39.281  35.329  38.777  1.00  0.00     0.200 A 
ATOM     73  F   UNL A   1      40.772  36.846  37.753  1.00  0.00    -0.200 F 
ATOM     74  F   UNL A   1      39.109  36.169  39.806  1.00  0.00    -0.200 F 
ENDBRANCH  50  64
BRANCH  51  75
ATOM     75  C   UNL A   1      40.651  27.896  28.437  1.00  0.00     0.064 A 
ATOM     76  C   UNL A   1      41.467  28.333  27.383  1.00  0.00     0.173 A 
ATOM     77  C   UNL A   1      40.014  26.655  28.297  1.00  0.00     0.173 A 
ATOM     78  F   UNL A   1      42.083  29.521  27.463  1.00  0.00    -0.203 F 
ATOM     79  C   UNL A   1      41.623  27.570  26.228  1.00  0.00     0.198 A 
ATOM     80  C   UNL A   1      40.191  25.881  27.151  1.00  0.00     0.198 A 
ATOM     81  F   UNL A   1      39.229  26.189  29.278  1.00  0.00    -0.203 F 
ATOM     82  F   UNL A   1      42.375  28.032  25.219  1.00  0.00    -0.200 F 
ATOM     83  C   UNL A   1      40.989  26.342  26.115  1.00  0.00     0.200 A 
ATOM     84  F   UNL A   1      39.587  24.689  27.051  1.00  0.00    -0.200 F 
ATOM     85  F   UNL A   1      41.140  25.607  25.004  1.00  0.00    -0.200 F 
ENDBRANCH  51  75
BRANCH  63  86
ATOM     86  C   UNL A   1      43.785  28.034  34.657  1.00  0.00     0.064 A 
ATOM     87  C   UNL A   1      45.135  28.403  34.575  1.00  0.00     0.173 A 
ATOM     88  C   UNL A   1      43.459  26.873  35.376  1.00  0.00     0.173 A 
ATOM     89  F   UNL A   1      45.495  29.496  33.887  1.00  0.00    -0.203 F 
ATOM     90  C   UNL A   1      46.124  27.628  35.173  1.00  0.00     0.198 A 
ATOM     91  C   UNL A   1      44.448  26.117  35.996  1.00  0.00     0.198 A 
ATOM     92  F   UNL A   1      42.181  26.485  35.489  1.00  0.00    -0.203 F 
ATOM     93  F   UNL A   1      47.412  27.975  35.049  1.00  0.00    -0.200 F 
ATOM     94  C   UNL A   1      45.779  26.491  35.889  1.00  0.00     0.200 A 
ATOM     95  F   UNL A   1      44.113  25.025  36.698  1.00  0.00    -0.200 F 
ATOM     96  F   UNL A   1      46.732  25.750  36.473  1.00  0.00    -0.200 F 
ENDBRANCH  63  86
ENDBRANCH  37  38
ENDBRANCH  29  32
ENDBRANCH  27  28
ENDBRANCH  26  27
ENDBRANCH  25  26
ENDBRANCH   1  25
TORSDOF 15
ENDMDL
MODEL 2
REMARK VINA RESULT:     -12.4      2.942      4.624
REMARK SMILES CC(=O)Nc1nc(C[N@@H+]2CCO[C@@H](CC(=O)NCCCCNC(=O)c3ccc(-c4c5nc(c(-c6c(F)c(F)c(F)c(F)c6F)c6ccc([nH]6)c(-c6c(F)c(F)c(F)c(F)c6F)c6nc(c(-c7c(F)c(F)c(F)c(F)c7F)c7ccc4[nH]7)C=C6)C=C5)cc3)C2)cs1
REMARK SMILES IDX 18 1 17 2 15 3 16 4 14 6 13 7 9 8 10 9 88 10 11 12 12 13
REMARK SMILES IDX 8 14 7 15 5 16 6 17 90 18 89 19 4 20 1 21 2 22 3 23 19 25
REMARK SMILES IDX 20 26 21 27 22 28 23 29 24 31 25 32 26 33 87 34 27 35 86 36
REMARK SMILES IDX 28 37 29 38 30 39 80 40 31 41 85 42 79 43 81 44 32 45 84 46
REMARK SMILES IDX 78 47 77 48 33 50 65 51 45 52 64 53 46 54 49 55 63 56 82 57
REMARK SMILES IDX 47 58 48 59 62 61 83 62 50 63 34 64 35 65 43 66 36 67 37 68
REMARK SMILES IDX 41 69 44 70 38 71 39 72 42 73 40 74 66 75 67 76 75 77 68 78
REMARK SMILES IDX 69 79 73 80 76 81 70 82 71 83 74 84 72 85 51 86 52 87 60 88
REMARK SMILES IDX 53 89 54 90 58 91 61 92 55 93 56 94 59 95 57 96
REMARK H PARENT 17 5 9 11 4 24 22 30 81 49 49 60
REMARK Flexibility Score: inf
ROOT
ATOM      1  C   UNL A   1      32.185  29.804  25.396  1.00  0.00     0.116 C 
ENDROOT
BRANCH   1   2
ATOM      2  N   UNL A   1      31.007  29.928  24.552  1.00  0.00    -0.356 N 
ATOM      3  C   UNL A   1      30.574  29.169  23.502  1.00  0.00     0.222 C 
ATOM      4  O   UNL A   1      29.578  29.552  22.887  1.00  0.00    -0.275 OA
ATOM      5  H   UNL A   1      30.421  30.688  24.775  1.00  0.00     0.163 HD
BRANCH   3   6
ATOM      6  C   UNL A   1      31.294  27.899  23.095  1.00  0.00     0.138 C 
BRANCH   6   7
ATOM      7  C   UNL A   1      30.680  26.632  23.710  1.00  0.00     0.182 C 
ATOM      8  N   UNL A   1      31.479  24.263  24.316  1.00  0.00    -0.326 N 
ATOM      9  C   UNL A   1      31.054  24.527  25.673  1.00  0.00     0.291 C 
ATOM     10  C   UNL A   1      31.580  25.414  23.444  1.00  0.00     0.295 C 
ATOM     11  H   UNL A   1      32.446  24.041  24.554  1.00  0.00     0.348 HD
ATOM     12  C   UNL A   1      30.024  25.660  25.756  1.00  0.00     0.222 C 
ATOM     13  O   UNL A   1      30.517  26.851  25.123  1.00  0.00    -0.366 OA
BRANCH   8  14
ATOM     14  C   UNL A   1      31.325  22.954  23.709  1.00  0.00     0.320 C 
BRANCH  14  15
ATOM     15  C   UNL A   1      32.300  21.968  24.278  1.00  0.00     0.108 A 
ATOM     16  C   UNL A   1      32.840  20.096  25.311  1.00  0.00     0.189 A 
ATOM     17  N   UNL A   1      31.836  20.760  24.800  1.00  0.00    -0.219 NA
ATOM     18  S   UNL A   1      34.377  20.830  25.201  1.00  0.00    -0.105 S 
ATOM     19  C   UNL A   1      33.673  22.126  24.339  1.00  0.00     0.098 A 
BRANCH  16  20
ATOM     20  N   UNL A   1      32.863  18.887  25.937  1.00  0.00    -0.302 N 
ATOM     21  C   UNL A   1      33.139  17.539  23.866  1.00  0.00     0.114 C 
ATOM     22  C   UNL A   1      32.917  17.664  25.348  1.00  0.00     0.223 C 
ATOM     23  O   UNL A   1      32.827  16.660  26.059  1.00  0.00    -0.275 OA
ATOM     24  H   UNL A   1      32.836  18.900  26.921  1.00  0.00     0.172 HD
ENDBRANCH  16  20
ENDBRANCH  14  15
ENDBRANCH   8  14
ENDBRANCH   6   7
ENDBRANCH   3   6
ENDBRANCH   1   2
BRANCH   1  25
ATOM     25  C   UNL A   1      31.943  30.413  26.782  1.00  0.00     0.023 C 
BRANCH  25  26
ATOM     26  C   UNL A   1      31.643  31.899  26.811  1.00  0.00     0.023 C 
BRANCH  26  27
ATOM     27  C   UNL A   1      32.816  32.754  27.233  1.00  0.00     0.116 C 
BRANCH  27  28
ATOM     28  N   UNL A   1      32.452  34.114  27.613  1.00  0.00    -0.352 N 
ATOM     29  C   UNL A   1      33.007  34.907  28.594  1.00  0.00     0.251 C 
ATOM     30  H   UNL A   1      31.713  34.518  27.103  1.00  0.00     0.163 HD
ATOM     31  O   UNL A   1      32.543  36.008  28.851  1.00  0.00    -0.269 OA
BRANCH  29  32
ATOM     32  C   UNL A   1      34.146  34.373  29.369  1.00  0.00     0.039 A 
ATOM     33  C   UNL A   1      33.894  33.548  30.466  1.00  0.00     0.014 A 
ATOM     34  C   UNL A   1      35.453  34.602  28.937  1.00  0.00     0.014 A 
ATOM     35  C   UNL A   1      34.957  32.880  31.076  1.00  0.00     0.010 A 
ATOM     36  C   UNL A   1      36.486  33.841  29.460  1.00  0.00     0.010 A 
ATOM     37  C   UNL A   1      36.253  32.984  30.545  1.00  0.00    -0.014 A 
BRANCH  37  38
ATOM     38  C   UNL A   1      37.399  32.241  31.125  1.00  0.00     0.031 A 
ATOM     39  C   UNL A   1      37.872  32.584  32.511  1.00  0.00     0.074 A 
ATOM     40  C   UNL A   1      38.062  31.333  30.383  1.00  0.00     0.049 A 
ATOM     41  N   UNL A   1      38.919  32.149  33.163  1.00  0.00    -0.248 NA
ATOM     42  C   UNL A   1      37.089  33.593  33.245  1.00  0.00     0.031 C 
ATOM     43  C   UNL A   1      37.746  30.967  29.002  1.00  0.00     0.029 A 
ATOM     44  N   UNL A   1      39.153  30.558  30.689  1.00  0.00    -0.354 N 
ATOM     45  C   UNL A   1      38.937  32.856  34.357  1.00  0.00     0.074 A 
ATOM     46  C   UNL A   1      37.841  33.797  34.314  1.00  0.00     0.031 C 
ATOM     47  C   UNL A   1      38.600  30.015  28.592  1.00  0.00     0.029 A 
ATOM     48  C   UNL A   1      39.545  29.729  29.666  1.00  0.00     0.049 A 
ATOM     49  H   UNL A   1      39.612  30.594  31.559  1.00  0.00     0.167 HD
ATOM     50  C   UNL A   1      39.770  32.709  35.413  1.00  0.00     0.037 A 
ATOM     51  C   UNL A   1      40.552  28.837  29.610  1.00  0.00     0.037 A 
ATOM     52  C   UNL A   1      40.816  31.726  35.477  1.00  0.00     0.049 A 
ATOM     53  C   UNL A   1      41.431  28.653  30.817  1.00  0.00     0.074 A 
ATOM     54  C   UNL A   1      41.665  31.436  36.529  1.00  0.00     0.029 A 
ATOM     55  N   UNL A   1      41.143  30.861  34.443  1.00  0.00    -0.354 N 
ATOM     56  N   UNL A   1      41.396  29.277  31.970  1.00  0.00    -0.248 NA
ATOM     57  C   UNL A   1      42.486  27.634  30.720  1.00  0.00     0.031 C 
ATOM     58  C   UNL A   1      42.528  30.413  36.121  1.00  0.00     0.029 A 
ATOM     59  C   UNL A   1      42.188  30.040  34.830  1.00  0.00     0.049 A 
ATOM     60  H   UNL A   1      40.698  30.836  33.566  1.00  0.00     0.167 HD
ATOM     61  C   UNL A   1      42.397  28.709  32.744  1.00  0.00     0.074 A 
ATOM     62  C   UNL A   1      43.017  27.680  31.934  1.00  0.00     0.031 C 
ATOM     63  C   UNL A   1      42.774  29.011  34.010  1.00  0.00     0.037 A 
BRANCH  50  64
ATOM     64  C   UNL A   1      39.564  33.620  36.588  1.00  0.00     0.064 A 
ATOM     65  C   UNL A   1      38.766  33.242  37.680  1.00  0.00     0.173 A 
ATOM     66  C   UNL A   1      40.179  34.879  36.631  1.00  0.00     0.173 A 
ATOM     67  F   UNL A   1      38.141  32.054  37.681  1.00  0.00    -0.203 F 
ATOM     68  C   UNL A   1      38.562  34.106  38.752  1.00  0.00     0.198 A 
ATOM     69  C   UNL A   1      39.999  35.728  37.720  1.00  0.00     0.198 A 
ATOM     70  F   UNL A   1      40.952  35.289  35.614  1.00  0.00    -0.203 F 
ATOM     71  F   UNL A   1      37.748  33.747  39.754  1.00  0.00    -0.200 F 
ATOM     72  C   UNL A   1      39.184  35.345  38.775  1.00  0.00     0.200 A 
ATOM     73  F   UNL A   1      40.608  36.922  37.746  1.00  0.00    -0.200 F 
ATOM     74  F   UNL A   1      38.989  36.173  39.809  1.00  0.00    -0.200 F 
ENDBRANCH  50  64
BRANCH  51  75
ATOM     75  C   UNL A   1      40.752  28.016  28.388  1.00  0.00     0.064 A 
ATOM     76  C   UNL A   1      40.150  26.755  28.267  1.00  0.00     0.173 A 
ATOM     77  C   UNL A   1      41.543  28.466  27.322  1.00  0.00     0.173 A 
ATOM     78  F   UNL A   1      39.399  26.274  29.269  1.00  0.00    -0.203 F 
ATOM     79  C   UNL A   1      40.349  25.967  27.137  1.00  0.00     0.198 A 
ATOM     80  C   UNL A   1      41.720  27.687  26.180  1.00  0.00     0.198 A 
ATOM     81  F   UNL A   1      42.135  29.667  27.385  1.00  0.00    -0.203 F 
ATOM     82  F   UNL A   1      39.796  24.748  27.066  1.00  0.00    -0.200 F 
ATOM     83  C   UNL A   1      41.130  26.436  26.091  1.00  0.00     0.200 A 
ATOM     84  F   UNL A   1      42.466  28.148  25.166  1.00  0.00    -0.200 F 
ATOM     85  F   UNL A   1      41.320  25.678  25.002  1.00  0.00    -0.200 F 
ENDBRANCH  51  75
BRANCH  63  86
ATOM     86  C   UNL A   1      43.876  28.193  34.613  1.00  0.00     0.064 A 
ATOM     87  C   UNL A   1      45.213  28.613  34.561  1.00  0.00     0.173 A 
ATOM     88  C   UNL A   1      43.582  27.004  35.298  1.00  0.00     0.173 A 
ATOM     89  F   UNL A   1      45.544  29.735  33.906  1.00  0.00    -0.203 F 
ATOM     90  C   UNL A   1      46.221  27.858  35.155  1.00  0.00     0.198 A 
ATOM     91  C   UNL A   1      44.588  26.268  35.913  1.00  0.00     0.198 A 
ATOM     92  F   UNL A   1      42.317  26.568  35.381  1.00  0.00    -0.203 F 
ATOM     93  F   UNL A   1      47.497  28.254  35.059  1.00  0.00    -0.200 F 
ATOM     94  C   UNL A   1      45.907  26.692  35.837  1.00  0.00     0.200 A 
ATOM     95  F   UNL A   1      44.282  25.147  36.583  1.00  0.00    -0.200 F 
ATOM     96  F   UNL A   1      46.877  25.971  36.416  1.00  0.00    -0.200 F 
ENDBRANCH  63  86
ENDBRANCH  37  38
ENDBRANCH  29  32
ENDBRANCH  27  28
ENDBRANCH  26  27
ENDBRANCH  25  26
ENDBRANCH   1  25
TORSDOF 15
ENDMDL
MODEL 3
REMARK VINA RESULT:     -12.3      1.630      2.581
REMARK SMILES CC(=O)Nc1nc(C[N@@H+]2CCO[C@@H](CC(=O)NCCCCNC(=O)c3ccc(-c4c5nc(c(-c6c(F)c(F)c(F)c(F)c6F)c6ccc([nH]6)c(-c6c(F)c(F)c(F)c(F)c6F)c6nc(c(-c7c(F)c(F)c(F)c(F)c7F)c7ccc4[nH]7)C=C6)C=C5)cc3)C2)cs1
REMARK SMILES IDX 18 1 17 2 15 3 16 4 14 6 13 7 9 8 10 9 88 10 11 12 12 13
REMARK SMILES IDX 8 14 7 15 5 16 6 17 90 18 89 19 4 20 1 21 2 22 3 23 19 25
REMARK SMILES IDX 20 26 21 27 22 28 23 29 24 31 25 32 26 33 87 34 27 35 86 36
REMARK SMILES IDX 28 37 29 38 30 39 80 40 31 41 85 42 79 43 81 44 32 45 84 46
REMARK SMILES IDX 78 47 77 48 33 50 65 51 45 52 64 53 46 54 49 55 63 56 82 57
REMARK SMILES IDX 47 58 48 59 62 61 83 62 50 63 34 64 35 65 43 66 36 67 37 68
REMARK SMILES IDX 41 69 44 70 38 71 39 72 42 73 40 74 66 75 67 76 75 77 68 78
REMARK SMILES IDX 69 79 73 80 76 81 70 82 71 83 74 84 72 85 51 86 52 87 60 88
REMARK SMILES IDX 53 89 54 90 58 91 61 92 55 93 56 94 59 95 57 96
REMARK H PARENT 17 5 9 11 4 24 22 30 81 49 49 60
REMARK Flexibility Score: inf
ROOT
ATOM      1  C   UNL A   1      35.033  32.554  27.836  1.00  0.00     0.116 C 
ENDROOT
BRANCH   1   2
ATOM      2  N   UNL A   1      34.946  31.102  27.810  1.00  0.00    -0.356 N 
ATOM      3  C   UNL A   1      33.946  30.274  27.385  1.00  0.00     0.222 C 
ATOM      4  O   UNL A   1      34.088  29.063  27.564  1.00  0.00    -0.275 OA
ATOM      5  H   UNL A   1      35.742  30.638  28.157  1.00  0.00     0.163 HD
BRANCH   3   6
ATOM      6  C   UNL A   1      32.697  30.818  26.721  1.00  0.00     0.138 C 
BRANCH   6   7
ATOM      7  C   UNL A   1      31.853  29.731  26.039  1.00  0.00     0.182 C 
ATOM      8  N   UNL A   1      32.168  28.030  24.134  1.00  0.00    -0.326 N 
ATOM      9  C   UNL A   1      31.839  26.989  25.083  1.00  0.00     0.291 C 
ATOM     10  C   UNL A   1      32.480  29.328  24.694  1.00  0.00     0.295 C 
ATOM     11  H   UNL A   1      33.074  27.644  23.871  1.00  0.00     0.348 HD
ATOM     12  C   UNL A   1      31.063  27.523  26.295  1.00  0.00     0.222 C 
ATOM     13  O   UNL A   1      31.773  28.600  26.926  1.00  0.00    -0.366 OA
BRANCH   8  14
ATOM     14  C   UNL A   1      31.735  27.965  22.751  1.00  0.00     0.320 C 
BRANCH  14  15
ATOM     15  C   UNL A   1      30.400  28.620  22.564  1.00  0.00     0.108 A 
ATOM     16  C   UNL A   1      29.065  30.199  21.797  1.00  0.00     0.189 A 
ATOM     17  N   UNL A   1      30.292  29.750  21.752  1.00  0.00    -0.219 NA
ATOM     18  S   UNL A   1      27.966  29.328  22.770  1.00  0.00    -0.105 S 
ATOM     19  C   UNL A   1      29.206  28.206  23.126  1.00  0.00     0.098 A 
BRANCH  16  20
ATOM     20  N   UNL A   1      28.504  31.278  21.184  1.00  0.00    -0.302 N 
ATOM     21  C   UNL A   1      28.778  32.829  23.108  1.00  0.00     0.114 C 
ATOM     22  C   UNL A   1      28.263  32.496  21.736  1.00  0.00     0.223 C 
ATOM     23  O   UNL A   1      27.653  33.338  21.070  1.00  0.00    -0.275 OA
ATOM     24  H   UNL A   1      28.246  31.164  20.241  1.00  0.00     0.172 HD
ENDBRANCH  16  20
ENDBRANCH  14  15
ENDBRANCH   8  14
ENDBRANCH   6   7
ENDBRANCH   3   6
ENDBRANCH   1   2
BRANCH   1  25
ATOM     25  C   UNL A   1      34.372  33.129  29.095  1.00  0.00     0.023 C 
BRANCH  25  26
ATOM     26  C   UNL A   1      33.279  34.153  28.863  1.00  0.00     0.023 C 
BRANCH  26  27
ATOM     27  C   UNL A   1      33.570  35.509  29.464  1.00  0.00     0.116 C 
BRANCH  27  28
ATOM     28  N   UNL A   1      32.578  35.951  30.438  1.00  0.00    -0.352 N 
ATOM     29  C   UNL A   1      32.581  35.774  31.804  1.00  0.00     0.251 C 
ATOM     30  H   UNL A   1      31.806  36.438  30.071  1.00  0.00     0.163 HD
ATOM     31  O   UNL A   1      31.636  36.138  32.488  1.00  0.00    -0.269 OA
BRANCH  29  32
ATOM     32  C   UNL A   1      33.733  35.084  32.422  1.00  0.00     0.039 A 
ATOM     33  C   UNL A   1      33.582  33.767  32.857  1.00  0.00     0.014 A 
ATOM     34  C   UNL A   1      34.980  35.708  32.463  1.00  0.00     0.014 A 
ATOM     35  C   UNL A   1      34.710  33.046  33.252  1.00  0.00     0.010 A 
ATOM     36  C   UNL A   1      36.111  34.952  32.731  1.00  0.00     0.010 A 
ATOM     37  C   UNL A   1      35.987  33.618  33.144  1.00  0.00    -0.014 A 
BRANCH  37  38
ATOM     38  C   UNL A   1      37.216  32.864  33.493  1.00  0.00     0.031 A 
ATOM     39  C   UNL A   1      37.916  33.161  34.791  1.00  0.00     0.074 A 
ATOM     40  C   UNL A   1      37.746  31.989  32.617  1.00  0.00     0.049 A 
ATOM     41  N   UNL A   1      39.059  32.710  35.241  1.00  0.00    -0.248 NA
ATOM     42  C   UNL A   1      37.266  34.136  35.684  1.00  0.00     0.031 C 
ATOM     43  C   UNL A   1      37.201  31.671  31.296  1.00  0.00     0.029 A 
ATOM     44  N   UNL A   1      38.875  31.213  32.704  1.00  0.00    -0.354 N 
ATOM     45  C   UNL A   1      39.278  33.374  36.440  1.00  0.00     0.074 A 
ATOM     46  C   UNL A   1      38.189  34.307  36.618  1.00  0.00     0.031 C 
ATOM     47  C   UNL A   1      37.975  30.742  30.712  1.00  0.00     0.029 A 
ATOM     48  C   UNL A   1      39.089  30.425  31.600  1.00  0.00     0.049 A 
ATOM     49  H   UNL A   1      39.474  31.221  33.486  1.00  0.00     0.167 HD
ATOM     50  C   UNL A   1      40.278  33.195  37.333  1.00  0.00     0.037 A 
ATOM     51  C   UNL A   1      40.074  29.544  31.341  1.00  0.00     0.037 A 
ATOM     52  C   UNL A   1      41.321  32.219  37.183  1.00  0.00     0.049 A 
ATOM     53  C   UNL A   1      41.145  29.323  32.375  1.00  0.00     0.074 A 
ATOM     54  C   UNL A   1      42.337  31.898  38.065  1.00  0.00     0.029 A 
ATOM     55  N   UNL A   1      41.471  31.395  36.077  1.00  0.00    -0.354 N 
ATOM     56  N   UNL A   1      41.304  29.904  33.539  1.00  0.00    -0.248 NA
ATOM     57  C   UNL A   1      42.170  28.317  32.063  1.00  0.00     0.031 C 
ATOM     58  C   UNL A   1      43.120  30.897  37.479  1.00  0.00     0.029 A 
ATOM     59  C   UNL A   1      42.567  30.569  36.250  1.00  0.00     0.049 A 
ATOM     60  H   UNL A   1      40.884  31.398  35.287  1.00  0.00     0.167 HD
ATOM     61  C   UNL A   1      42.423  29.317  34.111  1.00  0.00     0.074 A 
ATOM     62  C   UNL A   1      42.898  28.323  33.170  1.00  0.00     0.031 C 
ATOM     63  C   UNL A   1      43.008  29.576  35.306  1.00  0.00     0.037 A 
BRANCH  50  64
ATOM     64  C   UNL A   1      40.272  34.060  38.560  1.00  0.00     0.064 A 
ATOM     65  C   UNL A   1      40.971  35.277  38.605  1.00  0.00     0.173 A 
ATOM     66  C   UNL A   1      39.551  33.676  39.700  1.00  0.00     0.173 A 
ATOM     67  F   UNL A   1      41.691  35.682  37.546  1.00  0.00    -0.203 F 
ATOM     68  C   UNL A   1      40.979  36.058  39.757  1.00  0.00     0.198 A 
ATOM     69  C   UNL A   1      39.534  34.476  40.840  1.00  0.00     0.198 A 
ATOM     70  F   UNL A   1      38.865  32.524  39.710  1.00  0.00    -0.203 F 
ATOM     71  F   UNL A   1      41.703  37.184  39.796  1.00  0.00    -0.200 F 
ATOM     72  C   UNL A   1      40.255  35.661  40.871  1.00  0.00     0.200 A 
ATOM     73  F   UNL A   1      38.826  34.096  41.913  1.00  0.00    -0.200 F 
ATOM     74  F   UNL A   1      40.260  36.415  41.978  1.00  0.00    -0.200 F 
ENDBRANCH  50  64
BRANCH  51  75
ATOM     75  C   UNL A   1      40.066  28.770  30.073  1.00  0.00     0.064 A 
ATOM     76  C   UNL A   1      40.668  29.286  28.916  1.00  0.00     0.173 A 
ATOM     77  C   UNL A   1      39.461  27.508  29.986  1.00  0.00     0.173 A 
ATOM     78  F   UNL A   1      41.244  30.496  28.946  1.00  0.00    -0.203 F 
ATOM     79  C   UNL A   1      40.646  28.579  27.716  1.00  0.00     0.198 A 
ATOM     80  C   UNL A   1      39.462  26.791  28.791  1.00  0.00     0.198 A 
ATOM     81  F   UNL A   1      38.878  26.968  31.066  1.00  0.00    -0.203 F 
ATOM     82  F   UNL A   1      41.192  29.115  26.616  1.00  0.00    -0.200 F 
ATOM     83  C   UNL A   1      40.048  27.329  27.656  1.00  0.00     0.200 A 
ATOM     84  F   UNL A   1      38.893  25.579  28.740  1.00  0.00    -0.200 F 
ATOM     85  F   UNL A   1      40.029  26.649  26.501  1.00  0.00    -0.200 F 
ENDBRANCH  51  75
BRANCH  63  86
ATOM     86  C   UNL A   1      44.198  28.745  35.682  1.00  0.00     0.064 A 
ATOM     87  C   UNL A   1      45.504  29.156  35.379  1.00  0.00     0.173 A 
ATOM     88  C   UNL A   1      44.030  27.554  36.404  1.00  0.00     0.173 A 
ATOM     89  F   UNL A   1      45.714  30.280  34.680  1.00  0.00    -0.203 F 
ATOM     90  C   UNL A   1      46.600  28.389  35.765  1.00  0.00     0.198 A 
ATOM     91  C   UNL A   1      45.129  26.805  36.812  1.00  0.00     0.198 A 
ATOM     92  F   UNL A   1      42.800  27.126  36.724  1.00  0.00    -0.203 F 
ATOM     93  F   UNL A   1      47.838  28.777  35.431  1.00  0.00    -0.200 F 
ATOM     94  C   UNL A   1      46.412  27.220  36.488  1.00  0.00     0.200 A 
ATOM     95  F   UNL A   1      44.946  25.682  37.521  1.00  0.00    -0.200 F 
ATOM     96  F   UNL A   1      47.469  26.488  36.868  1.00  0.00    -0.200 F 
ENDBRANCH  63  86
ENDBRANCH  37  38
ENDBRANCH  29  32
ENDBRANCH  27  28
ENDBRANCH  26  27
ENDBRANCH  25  26
ENDBRANCH   1  25
TORSDOF 15
ENDMDL
