MODEL 1
REMARK VINA RESULT:     -13.2      0.000      0.000
REMARK SMILES Cc1nc(-c2ccccc2Cl)nc2sc(C(=O)NCCCCNC(=O)c3ccc(-c4c5nc(c(-c6c(F)c(F)c(F)c(F)c6F)c6ccc([nH]6)c(-c6c(F)c(F)c(F)c(F)c6F)c6nc(c(-c7c(F)c(F)c(F)c(F)c7F)c7ccc4[nH]7)C=C6)C=C5)cc3)c(N)c12
REMARK SMILES IDX 21 1 20 2 19 3 18 4 16 5 17 6 15 8 1 9 2 10 3 11 91 12 4 13
REMARK SMILES IDX 13 14 89 15 12 16 14 17 5 18 6 19 10 20 7 21 9 22 11 23 8 24
REMARK SMILES IDX 90 25 22 28 23 29 24 30 25 32 26 33 27 34 88 35 28 36 87 37
REMARK SMILES IDX 29 38 30 39 31 40 81 41 32 42 86 43 80 44 82 45 33 46 85 47
REMARK SMILES IDX 79 48 78 49 34 51 66 52 46 53 65 54 47 55 50 56 64 57 83 58
REMARK SMILES IDX 48 59 49 60 63 62 84 63 51 64 35 65 36 66 44 67 37 68 38 69
REMARK SMILES IDX 42 70 45 71 39 72 40 73 43 74 41 75 67 76 68 77 76 78 69 79
REMARK SMILES IDX 70 80 74 81 77 82 71 83 72 84 75 85 73 86 52 87 53 88 61 89
REMARK SMILES IDX 54 90 55 91 59 92 62 93 56 94 57 95 60 96 58 97
REMARK H PARENT 18 7 90 26 90 27 23 31 82 50 50 61
REMARK Flexibility Score: inf
ROOT
ATOM      1  C   UNL A   1      41.042  20.189  26.300  1.00  0.00     0.023 C 
ENDROOT
BRANCH   1   2
ATOM      2  C   UNL A   1      40.429  21.450  26.920  1.00  0.00     0.023 C 
BRANCH   2   3
ATOM      3  C   UNL A   1      39.237  22.044  26.154  1.00  0.00     0.116 C 
BRANCH   3   4
ATOM      4  N   UNL A   1      38.370  21.022  25.576  1.00  0.00    -0.351 N 
ATOM      5  C   UNL A   1      37.021  20.994  25.264  1.00  0.00     0.263 C 
ATOM      6  O   UNL A   1      36.662  19.990  24.636  1.00  0.00    -0.268 OA
ATOM      7  H   UNL A   1      38.839  20.182  25.366  1.00  0.00     0.163 HD
BRANCH   5   8
ATOM      8  C   UNL A   1      36.086  22.069  25.595  1.00  0.00     0.118 A 
ATOM      9  C   UNL A   1      31.704  22.864  27.123  1.00  0.00     0.067 C 
ATOM     10  C   UNL A   1      32.791  23.688  26.503  1.00  0.00     0.052 A 
ATOM     11  N   UNL A   1      32.491  25.016  26.327  1.00  0.00    -0.233 NA
ATOM     12  C   UNL A   1      34.086  23.233  26.156  1.00  0.00     0.056 A 
ATOM     13  C   UNL A   1      33.439  25.852  25.872  1.00  0.00     0.162 A 
ATOM     14  C   UNL A   1      34.957  24.234  25.765  1.00  0.00     0.130 A 
ATOM     15  C   UNL A   1      34.779  21.961  26.081  1.00  0.00     0.067 A 
ATOM     16  N   UNL A   1      34.697  25.527  25.593  1.00  0.00    -0.217 NA
ATOM     17  S   UNL A   1      36.533  23.708  25.542  1.00  0.00    -0.108 S 
BRANCH  13  18
ATOM     18  C   UNL A   1      33.136  27.258  25.633  1.00  0.00     0.038 A 
ATOM     19  C   UNL A   1      33.756  28.235  26.443  1.00  0.00     0.013 A 
ATOM     20  C   UNL A   1      32.117  27.671  24.764  1.00  0.00     0.052 A 
ATOM     21  C   UNL A   1      33.353  29.571  26.407  1.00  0.00     0.001 A 
ATOM     22  C   UNL A   1      31.713  29.011  24.729  1.00  0.00     0.021 A 
ATOM     23  Cl  UNL A   1      31.250  26.552  23.767  1.00  0.00    -0.084 Cl
ATOM     24  C   UNL A   1      32.324  29.957  25.555  1.00  0.00     0.002 A 
ENDBRANCH  13  18
BRANCH  15  25
ATOM     25  N   UNL A   1      34.227  20.764  26.381  1.00  0.00    -0.397 N 
ATOM     26  H   UNL A   1      34.619  20.204  27.089  1.00  0.00     0.156 HD
ATOM     27  H   UNL A   1      33.432  20.452  25.890  1.00  0.00     0.156 HD
ENDBRANCH  15  25
ENDBRANCH   5   8
ENDBRANCH   3   4
ENDBRANCH   2   3
ENDBRANCH   1   2
BRANCH   1  28
ATOM     28  C   UNL A   1      42.356  19.745  26.932  1.00  0.00     0.116 C 
BRANCH  28  29
ATOM     29  N   UNL A   1      43.401  19.453  25.953  1.00  0.00    -0.352 N 
ATOM     30  C   UNL A   1      44.029  20.350  25.104  1.00  0.00     0.251 C 
ATOM     31  H   UNL A   1      43.692  18.515  25.889  1.00  0.00     0.163 HD
ATOM     32  O   UNL A   1      44.587  19.991  24.084  1.00  0.00    -0.269 OA
BRANCH  30  33
ATOM     33  C   UNL A   1      44.008  21.772  25.485  1.00  0.00     0.039 A 
ATOM     34  C   UNL A   1      43.201  22.688  24.809  1.00  0.00     0.014 A 
ATOM     35  C   UNL A   1      44.754  22.147  26.600  1.00  0.00     0.014 A 
ATOM     36  C   UNL A   1      43.075  23.974  25.327  1.00  0.00     0.010 A 
ATOM     37  C   UNL A   1      44.530  23.373  27.178  1.00  0.00     0.010 A 
ATOM     38  C   UNL A   1      43.720  24.305  26.531  1.00  0.00    -0.014 A 
BRANCH  38  39
ATOM     39  C   UNL A   1      43.477  25.598  27.164  1.00  0.00     0.031 A 
ATOM     40  C   UNL A   1      44.435  26.689  26.819  1.00  0.00     0.074 A 
ATOM     41  C   UNL A   1      42.363  25.876  27.873  1.00  0.00     0.049 A 
ATOM     42  N   UNL A   1      45.252  27.307  27.608  1.00  0.00    -0.248 NA
ATOM     43  C   UNL A   1      44.552  27.092  25.410  1.00  0.00     0.031 C 
ATOM     44  C   UNL A   1      41.169  25.047  28.081  1.00  0.00     0.029 A 
ATOM     45  N   UNL A   1      42.040  27.033  28.513  1.00  0.00    -0.354 N 
ATOM     46  C   UNL A   1      45.879  28.287  26.840  1.00  0.00     0.074 A 
ATOM     47  C   UNL A   1      45.506  28.023  25.474  1.00  0.00     0.031 C 
ATOM     48  C   UNL A   1      40.182  25.798  28.614  1.00  0.00     0.029 A 
ATOM     49  C   UNL A   1      40.730  27.094  28.958  1.00  0.00     0.049 A 
ATOM     50  H   UNL A   1      42.685  27.765  28.648  1.00  0.00     0.167 HD
ATOM     51  C   UNL A   1      46.499  29.355  27.421  1.00  0.00     0.037 A 
ATOM     52  C   UNL A   1      40.132  28.137  29.579  1.00  0.00     0.037 A 
ATOM     53  C   UNL A   1      46.792  29.091  28.807  1.00  0.00     0.049 A 
ATOM     54  C   UNL A   1      41.207  28.968  30.168  1.00  0.00     0.074 A 
ATOM     55  C   UNL A   1      47.562  28.160  29.479  1.00  0.00     0.029 A 
ATOM     56  N   UNL A   1      45.968  29.632  29.762  1.00  0.00    -0.354 N 
ATOM     57  N   UNL A   1      41.976  28.573  31.146  1.00  0.00    -0.248 NA
ATOM     58  C   UNL A   1      41.716  30.079  29.381  1.00  0.00     0.031 C 
ATOM     59  C   UNL A   1      46.811  27.838  30.649  1.00  0.00     0.029 A 
ATOM     60  C   UNL A   1      45.663  28.630  30.646  1.00  0.00     0.049 A 
ATOM     61  H   UNL A   1      45.654  30.565  29.803  1.00  0.00     0.167 HD
ATOM     62  C   UNL A   1      43.226  29.091  30.842  1.00  0.00     0.074 A 
ATOM     63  C   UNL A   1      42.982  30.088  29.805  1.00  0.00     0.031 C 
ATOM     64  C   UNL A   1      44.367  28.472  31.264  1.00  0.00     0.037 A 
BRANCH  51  65
ATOM     65  C   UNL A   1      46.538  30.756  26.848  1.00  0.00     0.064 A 
ATOM     66  C   UNL A   1      47.757  31.468  26.851  1.00  0.00     0.173 A 
ATOM     67  C   UNL A   1      45.390  31.535  26.587  1.00  0.00     0.173 A 
ATOM     68  F   UNL A   1      48.918  30.839  27.092  1.00  0.00    -0.203 F 
ATOM     69  C   UNL A   1      47.808  32.858  26.704  1.00  0.00     0.198 A 
ATOM     70  C   UNL A   1      45.450  32.914  26.389  1.00  0.00     0.198 A 
ATOM     71  F   UNL A   1      44.155  31.020  26.619  1.00  0.00    -0.203 F 
ATOM     72  F   UNL A   1      48.975  33.500  26.852  1.00  0.00    -0.200 F 
ATOM     73  C   UNL A   1      46.653  33.581  26.485  1.00  0.00     0.200 A 
ATOM     74  F   UNL A   1      44.315  33.600  26.190  1.00  0.00    -0.200 F 
ATOM     75  F   UNL A   1      46.687  34.918  26.413  1.00  0.00    -0.200 F 
ENDBRANCH  51  65
BRANCH  52  76
ATOM     76  C   UNL A   1      38.733  28.595  29.448  1.00  0.00     0.064 A 
ATOM     77  C   UNL A   1      37.935  28.824  30.577  1.00  0.00     0.173 A 
ATOM     78  C   UNL A   1      38.248  29.090  28.221  1.00  0.00     0.173 A 
ATOM     79  F   UNL A   1      38.349  28.419  31.787  1.00  0.00    -0.203 F 
ATOM     80  C   UNL A   1      36.734  29.535  30.491  1.00  0.00     0.198 A 
ATOM     81  C   UNL A   1      37.047  29.795  28.136  1.00  0.00     0.198 A 
ATOM     82  F   UNL A   1      38.976  28.982  27.100  1.00  0.00    -0.203 F 
ATOM     83  F   UNL A   1      36.027  29.790  31.602  1.00  0.00    -0.200 F 
ATOM     84  C   UNL A   1      36.297  30.030  29.273  1.00  0.00     0.200 A 
ATOM     85  F   UNL A   1      36.656  30.301  26.957  1.00  0.00    -0.200 F 
ATOM     86  F   UNL A   1      35.182  30.768  29.202  1.00  0.00    -0.200 F 
ENDBRANCH  52  76
BRANCH  64  87
ATOM     87  C   UNL A   1      44.235  27.357  32.267  1.00  0.00     0.064 A 
ATOM     88  C   UNL A   1      44.193  25.996  31.920  1.00  0.00     0.173 A 
ATOM     89  C   UNL A   1      44.325  27.670  33.629  1.00  0.00     0.173 A 
ATOM     90  F   UNL A   1      44.200  25.610  30.640  1.00  0.00    -0.203 F 
ATOM     91  C   UNL A   1      44.211  24.997  32.893  1.00  0.00     0.198 A 
ATOM     92  C   UNL A   1      44.377  26.670  34.598  1.00  0.00     0.198 A 
ATOM     93  F   UNL A   1      44.423  28.950  34.019  1.00  0.00    -0.203 F 
ATOM     94  F   UNL A   1      44.170  23.706  32.532  1.00  0.00    -0.200 F 
ATOM     95  C   UNL A   1      44.313  25.336  34.230  1.00  0.00     0.200 A 
ATOM     96  F   UNL A   1      44.525  27.000  35.888  1.00  0.00    -0.200 F 
ATOM     97  F   UNL A   1      44.381  24.376  35.164  1.00  0.00    -0.200 F 
ENDBRANCH  64  87
ENDBRANCH  38  39
ENDBRANCH  30  33
ENDBRANCH  28  29
ENDBRANCH   1  28
TORSDOF 13
ENDMDL
MODEL 2
REMARK VINA RESULT:     -13.1      2.823      3.913
REMARK SMILES Cc1nc(-c2ccccc2Cl)nc2sc(C(=O)NCCCCNC(=O)c3ccc(-c4c5nc(c(-c6c(F)c(F)c(F)c(F)c6F)c6ccc([nH]6)c(-c6c(F)c(F)c(F)c(F)c6F)c6nc(c(-c7c(F)c(F)c(F)c(F)c7F)c7ccc4[nH]7)C=C6)C=C5)cc3)c(N)c12
REMARK SMILES IDX 21 1 20 2 19 3 18 4 16 5 17 6 15 8 1 9 2 10 3 11 91 12 4 13
REMARK SMILES IDX 13 14 89 15 12 16 14 17 5 18 6 19 10 20 7 21 9 22 11 23 8 24
REMARK SMILES IDX 90 25 22 28 23 29 24 30 25 32 26 33 27 34 88 35 28 36 87 37
REMARK SMILES IDX 29 38 30 39 31 40 81 41 32 42 86 43 80 44 82 45 33 46 85 47
REMARK SMILES IDX 79 48 78 49 34 51 66 52 46 53 65 54 47 55 50 56 64 57 83 58
REMARK SMILES IDX 48 59 49 60 63 62 84 63 51 64 35 65 36 66 44 67 37 68 38 69
REMARK SMILES IDX 42 70 45 71 39 72 40 73 43 74 41 75 67 76 68 77 76 78 69 79
REMARK SMILES IDX 70 80 74 81 77 82 71 83 72 84 75 85 73 86 52 87 53 88 61 89
REMARK SMILES IDX 54 90 55 91 59 92 62 93 56 94 57 95 60 96 58 97
REMARK H PARENT 18 7 90 26 90 27 23 31 82 50 50 61
REMARK Flexibility Score: inf
ROOT
ATOM      1  C   UNL A   1      37.022  23.330  24.859  1.00  0.00     0.023 C 
ENDROOT
BRANCH   1   2
ATOM      2  C   UNL A   1      36.703  21.872  24.509  1.00  0.00     0.023 C 
BRANCH   2   3
ATOM      3  C   UNL A   1      35.836  21.127  25.535  1.00  0.00     0.116 C 
BRANCH   3   4
ATOM      4  N   UNL A   1      34.601  20.605  24.960  1.00  0.00    -0.351 N 
ATOM      5  C   UNL A   1      33.492  21.211  24.393  1.00  0.00     0.263 C 
ATOM      6  O   UNL A   1      32.692  20.427  23.867  1.00  0.00    -0.268 OA
ATOM      7  H   UNL A   1      34.544  19.621  24.978  1.00  0.00     0.163 HD
BRANCH   5   8
ATOM      8  C   UNL A   1      33.282  22.658  24.363  1.00  0.00     0.118 A 
ATOM      9  C   UNL A   1      32.707  26.284  21.414  1.00  0.00     0.067 C 
ATOM     10  C   UNL A   1      32.990  26.124  22.877  1.00  0.00     0.052 A 
ATOM     11  N   UNL A   1      33.106  27.295  23.582  1.00  0.00    -0.233 NA
ATOM     12  C   UNL A   1      33.078  24.898  23.578  1.00  0.00     0.056 A 
ATOM     13  C   UNL A   1      33.259  27.250  24.916  1.00  0.00     0.162 A 
ATOM     14  C   UNL A   1      33.172  25.031  24.952  1.00  0.00     0.130 A 
ATOM     15  C   UNL A   1      33.113  23.485  23.248  1.00  0.00     0.067 A 
ATOM     16  N   UNL A   1      33.279  26.151  25.662  1.00  0.00    -0.217 NA
ATOM     17  S   UNL A   1      33.083  23.576  25.780  1.00  0.00    -0.108 S 
BRANCH  13  18
ATOM     18  C   UNL A   1      33.430  28.477  25.685  1.00  0.00     0.038 A 
ATOM     19  C   UNL A   1      34.531  28.581  26.565  1.00  0.00     0.013 A 
ATOM     20  C   UNL A   1      32.453  29.479  25.730  1.00  0.00     0.052 A 
ATOM     21  C   UNL A   1      34.635  29.633  27.476  1.00  0.00     0.001 A 
ATOM     22  C   UNL A   1      32.558  30.534  26.645  1.00  0.00     0.021 A 
ATOM     23  Cl  UNL A   1      31.035  29.425  24.738  1.00  0.00    -0.084 Cl
ATOM     24  C   UNL A   1      33.642  30.605  27.522  1.00  0.00     0.002 A 
ENDBRANCH  13  18
BRANCH  15  25
ATOM     25  N   UNL A   1      33.055  22.986  21.992  1.00  0.00    -0.397 N 
ATOM     26  H   UNL A   1      32.881  23.585  21.231  1.00  0.00     0.156 HD
ATOM     27  H   UNL A   1      33.188  22.022  21.839  1.00  0.00     0.156 HD
ENDBRANCH  15  25
ENDBRANCH   5   8
ENDBRANCH   3   4
ENDBRANCH   2   3
ENDBRANCH   1   2
BRANCH   1  28
ATOM     28  C   UNL A   1      37.683  23.528  26.219  1.00  0.00     0.116 C 
BRANCH  28  29
ATOM     29  N   UNL A   1      38.785  22.601  26.469  1.00  0.00    -0.352 N 
ATOM     30  C   UNL A   1      40.125  22.914  26.620  1.00  0.00     0.251 C 
ATOM     31  H   UNL A   1      38.548  21.648  26.538  1.00  0.00     0.163 HD
ATOM     32  O   UNL A   1      41.004  22.091  26.442  1.00  0.00    -0.269 OA
BRANCH  30  33
ATOM     33  C   UNL A   1      40.459  24.291  27.017  1.00  0.00     0.039 A 
ATOM     34  C   UNL A   1      40.586  25.306  26.066  1.00  0.00     0.014 A 
ATOM     35  C   UNL A   1      40.555  24.560  28.381  1.00  0.00     0.014 A 
ATOM     36  C   UNL A   1      40.715  26.620  26.508  1.00  0.00     0.010 A 
ATOM     37  C   UNL A   1      40.553  25.864  28.812  1.00  0.00     0.010 A 
ATOM     38  C   UNL A   1      40.668  26.899  27.884  1.00  0.00    -0.014 A 
BRANCH  38  39
ATOM     39  C   UNL A   1      40.651  28.281  28.354  1.00  0.00     0.031 A 
ATOM     40  C   UNL A   1      41.771  29.149  27.887  1.00  0.00     0.074 A 
ATOM     41  C   UNL A   1      39.608  28.822  29.016  1.00  0.00     0.049 A 
ATOM     42  N   UNL A   1      42.689  29.714  28.600  1.00  0.00    -0.248 NA
ATOM     43  C   UNL A   1      41.934  29.354  26.440  1.00  0.00     0.031 C 
ATOM     44  C   UNL A   1      38.296  28.234  29.314  1.00  0.00     0.029 A 
ATOM     45  N   UNL A   1      39.488  30.086  29.509  1.00  0.00    -0.354 N 
ATOM     46  C   UNL A   1      43.460  30.477  27.724  1.00  0.00     0.074 A 
ATOM     47  C   UNL A   1      43.030  30.116  26.398  1.00  0.00     0.031 C 
ATOM     48  C   UNL A   1      37.453  29.196  29.746  1.00  0.00     0.029 A 
ATOM     49  C   UNL A   1      38.212  30.416  29.935  1.00  0.00     0.049 A 
ATOM     50  H   UNL A   1      40.247  30.712  29.559  1.00  0.00     0.167 HD
ATOM     51  C   UNL A   1      44.255  31.489  28.176  1.00  0.00     0.037 A 
ATOM     52  C   UNL A   1      37.803  31.611  30.420  1.00  0.00     0.037 A 
ATOM     53  C   UNL A   1      44.518  31.349  29.586  1.00  0.00     0.049 A 
ATOM     54  C   UNL A   1      39.008  32.317  30.913  1.00  0.00     0.074 A 
ATOM     55  C   UNL A   1      45.132  30.393  30.370  1.00  0.00     0.029 A 
ATOM     56  N   UNL A   1      43.807  32.131  30.462  1.00  0.00    -0.354 N 
ATOM     57  N   UNL A   1      39.713  31.922  31.936  1.00  0.00    -0.248 NA
ATOM     58  C   UNL A   1      39.682  33.226  30.000  1.00  0.00     0.031 C 
ATOM     59  C   UNL A   1      44.354  30.342  31.566  1.00  0.00     0.029 A 
ATOM     60  C   UNL A   1      43.353  31.307  31.458  1.00  0.00     0.049 A 
ATOM     61  H   UNL A   1      43.652  33.101  30.387  1.00  0.00     0.167 HD
ATOM     62  C   UNL A   1      41.028  32.184  31.581  1.00  0.00     0.074 A 
ATOM     63  C   UNL A   1      40.938  33.077  30.428  1.00  0.00     0.031 C 
ATOM     64  C   UNL A   1      42.057  31.441  32.082  1.00  0.00     0.037 A 
BRANCH  51  65
ATOM     65  C   UNL A   1      44.516  32.786  27.438  1.00  0.00     0.064 A 
ATOM     66  C   UNL A   1      45.721  32.936  26.717  1.00  0.00     0.173 A 
ATOM     67  C   UNL A   1      43.796  33.979  27.658  1.00  0.00     0.173 A 
ATOM     68  F   UNL A   1      46.497  31.875  26.448  1.00  0.00    -0.203 F 
ATOM     69  C   UNL A   1      46.209  34.191  26.337  1.00  0.00     0.198 A 
ATOM     70  C   UNL A   1      44.261  35.224  27.232  1.00  0.00     0.198 A 
ATOM     71  F   UNL A   1      42.673  34.013  28.384  1.00  0.00    -0.203 F 
ATOM     72  F   UNL A   1      47.422  34.291  25.777  1.00  0.00    -0.200 F 
ATOM     73  C   UNL A   1      45.484  35.335  26.606  1.00  0.00     0.200 A 
ATOM     74  F   UNL A   1      43.548  36.323  27.514  1.00  0.00    -0.200 F 
ATOM     75  F   UNL A   1      45.978  36.543  26.307  1.00  0.00    -0.200 F 
ENDBRANCH  51  65
BRANCH  52  76
ATOM     76  C   UNL A   1      36.497  32.275  30.225  1.00  0.00     0.064 A 
ATOM     77  C   UNL A   1      35.673  32.592  31.314  1.00  0.00     0.173 A 
ATOM     78  C   UNL A   1      36.166  32.866  28.989  1.00  0.00     0.173 A 
ATOM     79  F   UNL A   1      35.947  32.100  32.531  1.00  0.00    -0.203 F 
ATOM     80  C   UNL A   1      34.597  33.474  31.183  1.00  0.00     0.198 A 
ATOM     81  C   UNL A   1      35.089  33.743  28.860  1.00  0.00     0.198 A 
ATOM     82  F   UNL A   1      36.938  32.679  27.910  1.00  0.00    -0.203 F 
ATOM     83  F   UNL A   1      33.868  33.804  32.260  1.00  0.00    -0.200 F 
ATOM     84  C   UNL A   1      34.313  34.059  29.960  1.00  0.00     0.200 A 
ATOM     85  F   UNL A   1      34.850  34.331  27.678  1.00  0.00    -0.200 F 
ATOM     86  F   UNL A   1      33.325  34.956  29.850  1.00  0.00    -0.200 F 
ENDBRANCH  52  76
BRANCH  64  87
ATOM     87  C   UNL A   1      41.755  30.493  33.212  1.00  0.00     0.064 A 
ATOM     88  C   UNL A   1      41.400  29.145  33.027  1.00  0.00     0.173 A 
ATOM     89  C   UNL A   1      42.001  30.916  34.524  1.00  0.00     0.173 A 
ATOM     90  F   UNL A   1      41.238  28.638  31.800  1.00  0.00    -0.203 F 
ATOM     91  C   UNL A   1      41.268  28.274  34.106  1.00  0.00     0.198 A 
ATOM     92  C   UNL A   1      41.902  30.036  35.599  1.00  0.00     0.198 A 
ATOM     93  F   UNL A   1      42.397  32.176  34.759  1.00  0.00    -0.203 F 
ATOM     94  F   UNL A   1      40.927  26.993  33.899  1.00  0.00    -0.200 F 
ATOM     95  C   UNL A   1      41.529  28.717  35.390  1.00  0.00     0.200 A 
ATOM     96  F   UNL A   1      42.203  30.456  36.835  1.00  0.00    -0.200 F 
ATOM     97  F   UNL A   1      41.451  27.868  36.425  1.00  0.00    -0.200 F 
ENDBRANCH  64  87
ENDBRANCH  38  39
ENDBRANCH  30  33
ENDBRANCH  28  29
ENDBRANCH   1  28
TORSDOF 13
ENDMDL
MODEL 3
REMARK VINA RESULT:     -13.0      3.262      8.693
REMARK SMILES Cc1nc(-c2ccccc2Cl)nc2sc(C(=O)NCCCCNC(=O)c3ccc(-c4c5nc(c(-c6c(F)c(F)c(F)c(F)c6F)c6ccc([nH]6)c(-c6c(F)c(F)c(F)c(F)c6F)c6nc(c(-c7c(F)c(F)c(F)c(F)c7F)c7ccc4[nH]7)C=C6)C=C5)cc3)c(N)c12
REMARK SMILES IDX 21 1 20 2 19 3 18 4 16 5 17 6 15 8 1 9 2 10 3 11 91 12 4 13
REMARK SMILES IDX 13 14 89 15 12 16 14 17 5 18 6 19 10 20 7 21 9 22 11 23 8 24
REMARK SMILES IDX 90 25 22 28 23 29 24 30 25 32 26 33 27 34 88 35 28 36 87 37
REMARK SMILES IDX 29 38 30 39 31 40 81 41 32 42 86 43 80 44 82 45 33 46 85 47
REMARK SMILES IDX 79 48 78 49 34 51 66 52 46 53 65 54 47 55 50 56 64 57 83 58
REMARK SMILES IDX 48 59 49 60 63 62 84 63 51 64 35 65 36 66 44 67 37 68 38 69
REMARK SMILES IDX 42 70 45 71 39 72 40 73 43 74 41 75 67 76 68 77 76 78 69 79
REMARK SMILES IDX 70 80 74 81 77 82 71 83 72 84 75 85 73 86 52 87 53 88 61 89
REMARK SMILES IDX 54 90 55 91 59 92 62 93 56 94 57 95 60 96 58 97
REMARK H PARENT 18 7 90 26 90 27 23 31 82 50 50 61
REMARK Flexibility Score: inf
ROOT
ATOM      1  C   UNL A   1      33.422  29.088  26.519  1.00  0.00     0.023 C 
ENDROOT
BRANCH   1   2
ATOM      2  C   UNL A   1      32.915  29.676  25.197  1.00  0.00     0.023 C 
BRANCH   2   3
ATOM      3  C   UNL A   1      31.389  29.670  25.020  1.00  0.00     0.116 C 
BRANCH   3   4
ATOM      4  N   UNL A   1      30.973  29.197  23.704  1.00  0.00    -0.351 N 
ATOM      5  C   UNL A   1      31.032  27.962  23.082  1.00  0.00     0.263 C 
ATOM      6  O   UNL A   1      30.434  27.904  22.000  1.00  0.00    -0.268 OA
ATOM      7  H   UNL A   1      30.569  29.900  23.144  1.00  0.00     0.163 HD
BRANCH   5   8
ATOM      8  C   UNL A   1      31.697  26.792  23.655  1.00  0.00     0.118 A 
ATOM      9  C   UNL A   1      31.128  23.353  26.820  1.00  0.00     0.067 C 
ATOM     10  C   UNL A   1      32.274  23.903  26.026  1.00  0.00     0.052 A 
ATOM     11  N   UNL A   1      33.478  23.275  26.224  1.00  0.00    -0.233 NA
ATOM     12  C   UNL A   1      32.201  24.944  25.070  1.00  0.00     0.056 A 
ATOM     13  C   UNL A   1      34.539  23.633  25.482  1.00  0.00     0.162 A 
ATOM     14  C   UNL A   1      33.365  25.143  24.351  1.00  0.00     0.130 A 
ATOM     15  C   UNL A   1      31.213  25.908  24.623  1.00  0.00     0.067 A 
ATOM     16  N   UNL A   1      34.543  24.545  24.515  1.00  0.00    -0.217 NA
ATOM     17  S   UNL A   1      33.206  26.243  23.097  1.00  0.00    -0.108 S 
BRANCH  13  18
ATOM     18  C   UNL A   1      35.840  23.015  25.702  1.00  0.00     0.038 A 
ATOM     19  C   UNL A   1      36.928  23.833  26.081  1.00  0.00     0.013 A 
ATOM     20  C   UNL A   1      36.104  21.678  25.373  1.00  0.00     0.052 A 
ATOM     21  C   UNL A   1      38.234  23.341  26.103  1.00  0.00     0.001 A 
ATOM     22  C   UNL A   1      37.415  21.186  25.394  1.00  0.00     0.021 A 
ATOM     23  Cl  UNL A   1      34.858  20.601  24.841  1.00  0.00    -0.084 Cl
ATOM     24  C   UNL A   1      38.478  22.018  25.750  1.00  0.00     0.002 A 
ENDBRANCH  13  18
BRANCH  15  25
ATOM     25  N   UNL A   1      29.958  26.012  25.119  1.00  0.00    -0.397 N 
ATOM     26  H   UNL A   1      29.240  25.438  24.768  1.00  0.00     0.156 HD
ATOM     27  H   UNL A   1      29.764  26.662  25.833  1.00  0.00     0.156 HD
ENDBRANCH  15  25
ENDBRANCH   5   8
ENDBRANCH   3   4
ENDBRANCH   2   3
ENDBRANCH   1   2
BRANCH   1  28
ATOM     28  C   UNL A   1      34.778  29.619  26.973  1.00  0.00     0.116 C 
BRANCH  28  29
ATOM     29  N   UNL A   1      34.727  30.996  27.460  1.00  0.00    -0.352 N 
ATOM     30  C   UNL A   1      35.353  31.512  28.583  1.00  0.00     0.251 C 
ATOM     31  H   UNL A   1      34.189  31.628  26.931  1.00  0.00     0.163 HD
ATOM     32  O   UNL A   1      34.967  32.530  29.126  1.00  0.00    -0.269 OA
BRANCH  30  33
ATOM     33  C   UNL A   1      36.521  30.782  29.103  1.00  0.00     0.039 A 
ATOM     34  C   UNL A   1      36.367  29.655  29.912  1.00  0.00     0.014 A 
ATOM     35  C   UNL A   1      37.780  31.207  28.684  1.00  0.00     0.014 A 
ATOM     36  C   UNL A   1      37.493  28.896  30.218  1.00  0.00     0.010 A 
ATOM     37  C   UNL A   1      38.866  30.390  28.881  1.00  0.00     0.010 A 
ATOM     38  C   UNL A   1      38.740  29.252  29.675  1.00  0.00    -0.014 A 
BRANCH  38  39
ATOM     39  C   UNL A   1      39.898  28.383  29.865  1.00  0.00     0.031 A 
ATOM     40  C   UNL A   1      40.394  28.244  31.265  1.00  0.00     0.074 A 
ATOM     41  C   UNL A   1      40.398  27.597  28.889  1.00  0.00     0.049 A 
ATOM     42  N   UNL A   1      41.539  28.608  31.742  1.00  0.00    -0.248 NA
ATOM     43  C   UNL A   1      39.476  27.699  32.276  1.00  0.00     0.031 C 
ATOM     44  C   UNL A   1      39.881  27.361  27.535  1.00  0.00     0.029 A 
ATOM     45  N   UNL A   1      41.474  26.764  28.949  1.00  0.00    -0.354 N 
ATOM     46  C   UNL A   1      41.560  28.202  33.076  1.00  0.00     0.074 A 
ATOM     47  C   UNL A   1      40.222  27.767  33.382  1.00  0.00     0.031 C 
ATOM     48  C   UNL A   1      40.516  26.305  26.984  1.00  0.00     0.029 A 
ATOM     49  C   UNL A   1      41.602  25.916  27.860  1.00  0.00     0.049 A 
ATOM     50  H   UNL A   1      42.107  26.765  29.702  1.00  0.00     0.167 HD
ATOM     51  C   UNL A   1      42.734  28.077  33.761  1.00  0.00     0.037 A 
ATOM     52  C   UNL A   1      42.544  24.962  27.683  1.00  0.00     0.037 A 
ATOM     53  C   UNL A   1      43.790  28.811  33.113  1.00  0.00     0.049 A 
ATOM     54  C   UNL A   1      43.692  25.316  28.549  1.00  0.00     0.074 A 
ATOM     55  C   UNL A   1      44.005  30.141  32.806  1.00  0.00     0.029 A 
ATOM     56  N   UNL A   1      44.693  28.116  32.347  1.00  0.00    -0.354 N 
ATOM     57  N   UNL A   1      44.442  26.367  28.366  1.00  0.00    -0.248 NA
ATOM     58  C   UNL A   1      43.742  24.734  29.880  1.00  0.00     0.031 C 
ATOM     59  C   UNL A   1      44.639  30.127  31.527  1.00  0.00     0.029 A 
ATOM     60  C   UNL A   1      44.822  28.792  31.163  1.00  0.00     0.049 A 
ATOM     61  H   UNL A   1      45.159  27.286  32.602  1.00  0.00     0.167 HD
ATOM     62  C   UNL A   1      44.726  26.824  29.644  1.00  0.00     0.074 A 
ATOM     63  C   UNL A   1      44.356  25.725  30.531  1.00  0.00     0.031 C 
ATOM     64  C   UNL A   1      44.978  28.145  29.881  1.00  0.00     0.037 A 
BRANCH  51  65
ATOM     65  C   UNL A   1      43.018  27.027  34.814  1.00  0.00     0.064 A 
ATOM     66  C   UNL A   1      43.230  27.432  36.150  1.00  0.00     0.173 A 
ATOM     67  C   UNL A   1      43.394  25.698  34.523  1.00  0.00     0.173 A 
ATOM     68  F   UNL A   1      42.917  28.674  36.549  1.00  0.00    -0.203 F 
ATOM     69  C   UNL A   1      43.858  26.605  37.088  1.00  0.00     0.198 A 
ATOM     70  C   UNL A   1      43.973  24.858  35.476  1.00  0.00     0.198 A 
ATOM     71  F   UNL A   1      43.321  25.188  33.289  1.00  0.00    -0.203 F 
ATOM     72  F   UNL A   1      44.159  27.086  38.302  1.00  0.00    -0.200 F 
ATOM     73  C   UNL A   1      44.239  25.323  36.746  1.00  0.00     0.200 A 
ATOM     74  F   UNL A   1      44.348  23.621  35.121  1.00  0.00    -0.200 F 
ATOM     75  F   UNL A   1      44.903  24.553  37.618  1.00  0.00    -0.200 F 
ENDBRANCH  51  65
BRANCH  52  76
ATOM     76  C   UNL A   1      42.392  23.641  27.037  1.00  0.00     0.064 A 
ATOM     77  C   UNL A   1      43.231  23.246  25.986  1.00  0.00     0.173 A 
ATOM     78  C   UNL A   1      41.607  22.633  27.632  1.00  0.00     0.173 A 
ATOM     79  F   UNL A   1      44.038  24.140  25.395  1.00  0.00    -0.203 F 
ATOM     80  C   UNL A   1      43.305  21.912  25.572  1.00  0.00     0.198 A 
ATOM     81  C   UNL A   1      41.680  21.304  27.215  1.00  0.00     0.198 A 
ATOM     82  F   UNL A   1      40.830  22.902  28.691  1.00  0.00    -0.203 F 
ATOM     83  F   UNL A   1      44.165  21.560  24.605  1.00  0.00    -0.200 F 
ATOM     84  C   UNL A   1      42.539  20.941  26.194  1.00  0.00     0.200 A 
ATOM     85  F   UNL A   1      40.960  20.368  27.852  1.00  0.00    -0.200 F 
ATOM     86  F   UNL A   1      42.660  19.654  25.844  1.00  0.00    -0.200 F 
ENDBRANCH  52  76
BRANCH  64  87
ATOM     87  C   UNL A   1      45.180  29.048  28.694  1.00  0.00     0.064 A 
ATOM     88  C   UNL A   1      44.143  29.768  28.076  1.00  0.00     0.173 A 
ATOM     89  C   UNL A   1      46.489  29.323  28.279  1.00  0.00     0.173 A 
ATOM     90  F   UNL A   1      42.875  29.633  28.477  1.00  0.00    -0.203 F 
ATOM     91  C   UNL A   1      44.404  30.698  27.069  1.00  0.00     0.198 A 
ATOM     92  C   UNL A   1      46.750  30.277  27.297  1.00  0.00     0.198 A 
ATOM     93  F   UNL A   1      47.524  28.707  28.869  1.00  0.00    -0.203 F 
ATOM     94  F   UNL A   1      43.394  31.371  26.497  1.00  0.00    -0.200 F 
ATOM     95  C   UNL A   1      45.708  30.958  26.689  1.00  0.00     0.200 A 
ATOM     96  F   UNL A   1      48.016  30.561  26.965  1.00  0.00    -0.200 F 
ATOM     97  F   UNL A   1      45.964  31.887  25.757  1.00  0.00    -0.200 F 
ENDBRANCH  64  87
ENDBRANCH  38  39
ENDBRANCH  30  33
ENDBRANCH  28  29
ENDBRANCH   1  28
TORSDOF 13
ENDMDL
