MODEL 1
REMARK VINA RESULT:     -11.9      0.000      0.000
REMARK SMILES C[C@H](C(=O)NCCCCNC(=O)c1ccc(-c2c3nc(c(-c4c(F)c(F)c(F)c(F)c4F)c4ccc([nH]4)c(-c4c(F)c(F)c(F)c(F)c4F)c4nc(c(-c5c(F)c(F)c(F)c(F)c5F)c5ccc2[nH]5)C=C4)C=C3)cc1)c1ccc2c3cc(Cl)ccc3n(C(=O)c3ccc(Cl)cc3)c2c1
REMARK SMILES IDX 7 1 6 2 5 3 3 4 4 5 2 7 1 8 76 9 77 10 98 11 78 12 97 13
REMARK SMILES IDX 79 14 87 15 80 16 86 17 81 18 85 19 82 20 84 21 83 22 88 23
REMARK SMILES IDX 89 24 90 25 91 26 96 27 92 28 95 29 93 30 94 31 8 32 9 33
REMARK SMILES IDX 10 34 11 35 12 37 13 38 14 39 75 40 15 41 74 42 16 43 17 44
REMARK SMILES IDX 18 45 68 46 19 47 73 48 67 49 69 50 20 51 72 52 66 53 65 54
REMARK SMILES IDX 21 56 53 57 33 58 52 59 34 60 37 61 51 62 70 63 35 64 36 65
REMARK SMILES IDX 50 67 71 68 38 69 22 70 23 71 31 72 24 73 25 74 29 75 32 76
REMARK SMILES IDX 26 77 27 78 30 79 28 80 54 81 55 82 63 83 56 84 57 85 61 86
REMARK SMILES IDX 64 87 58 88 59 89 62 90 60 91 39 92 40 93 48 94 41 95 42 96
REMARK SMILES IDX 46 97 49 98 43 99 44 100 47 101 45 102
REMARK H PARENT 5 6 10 36 69 55 37 66
REMARK Flexibility Score: inf
ROOT
ATOM      1  C   UNL A   1      34.349  35.380  28.708  1.00  0.00     0.023 C 
ENDROOT
BRANCH   1   2
ATOM      2  C   UNL A   1      33.445  36.506  29.215  1.00  0.00     0.116 C 
BRANCH   2   3
ATOM      3  N   UNL A   1      32.498  36.042  30.215  1.00  0.00    -0.356 N 
ATOM      4  C   UNL A   1      32.694  35.770  31.543  1.00  0.00     0.227 C 
ATOM      5  O   UNL A   1      31.731  35.352  32.191  1.00  0.00    -0.274 OA
ATOM      6  H   UNL A   1      31.580  35.901  29.890  1.00  0.00     0.163 HD
BRANCH   4   7
ATOM      7  C   UNL A   1      34.080  35.982  32.173  1.00  0.00     0.105 C 
ATOM      8  C   UNL A   1      34.004  36.854  33.427  1.00  0.00     0.023 C 
BRANCH   7   9
ATOM      9  C   UNL A   1      34.753  34.645  32.448  1.00  0.00    -0.034 A 
ATOM     10  C   UNL A   1      34.335  33.472  31.821  1.00  0.00     0.005 A 
ATOM     11  C   UNL A   1      35.900  34.623  33.250  1.00  0.00     0.032 A 
ATOM     12  C   UNL A   1      35.093  32.301  31.925  1.00  0.00     0.011 A 
ATOM     13  C   UNL A   1      36.714  33.474  33.282  1.00  0.00     0.057 A 
ATOM     14  C   UNL A   1      36.316  32.313  32.632  1.00  0.00     0.008 A 
ATOM     15  N   UNL A   1      38.005  33.268  33.810  1.00  0.00    -0.276 N 
ATOM     16  C   UNL A   1      37.300  31.326  32.897  1.00  0.00     0.009 A 
ATOM     17  C   UNL A   1      38.264  31.890  33.749  1.00  0.00     0.057 A 
ATOM     18  C   UNL A   1      37.398  29.971  32.514  1.00  0.00     0.031 A 
ATOM     19  C   UNL A   1      39.238  31.068  34.348  1.00  0.00     0.029 A 
ATOM     20  C   UNL A   1      38.399  29.179  33.064  1.00  0.00     0.041 A 
ATOM     21  C   UNL A   1      39.285  29.710  33.993  1.00  0.00     0.023 A 
ATOM     22  Cl  UNL A   1      38.505  27.521  32.615  1.00  0.00    -0.084 Cl
BRANCH  15  23
ATOM     23  C   UNL A   1      38.830  34.340  34.263  1.00  0.00     0.262 C 
ATOM     24  O   UNL A   1      39.517  34.904  33.405  1.00  0.00    -0.268 OA
BRANCH  23  25
ATOM     25  C   UNL A   1      39.094  34.873  35.623  1.00  0.00     0.040 A 
ATOM     26  C   UNL A   1      39.927  36.012  35.685  1.00  0.00     0.015 A 
ATOM     27  C   UNL A   1      38.786  34.199  36.807  1.00  0.00     0.015 A 
ATOM     28  C   UNL A   1      40.456  36.461  36.894  1.00  0.00     0.021 A 
ATOM     29  C   UNL A   1      39.296  34.671  38.029  1.00  0.00     0.021 A 
ATOM     30  C   UNL A   1      40.139  35.785  38.065  1.00  0.00     0.041 A 
ATOM     31  Cl  UNL A   1      40.831  36.299  39.553  1.00  0.00    -0.084 Cl
ENDBRANCH  23  25
ENDBRANCH  15  23
ENDBRANCH   7   9
ENDBRANCH   4   7
ENDBRANCH   2   3
ENDBRANCH   1   2
BRANCH   1  32
ATOM     32  C   UNL A   1      33.618  34.081  28.357  1.00  0.00     0.023 C 
BRANCH  32  33
ATOM     33  C   UNL A   1      34.512  32.859  28.186  1.00  0.00     0.116 C 
BRANCH  33  34
ATOM     34  N   UNL A   1      33.779  31.659  27.822  1.00  0.00    -0.352 N 
ATOM     35  C   UNL A   1      34.242  30.375  27.664  1.00  0.00     0.251 C 
ATOM     36  H   UNL A   1      32.815  31.784  27.666  1.00  0.00     0.163 HD
ATOM     37  O   UNL A   1      33.500  29.508  27.216  1.00  0.00    -0.269 OA
BRANCH  35  38
ATOM     38  C   UNL A   1      35.643  30.037  28.009  1.00  0.00     0.039 A 
ATOM     39  C   UNL A   1      35.902  29.436  29.245  1.00  0.00     0.014 A 
ATOM     40  C   UNL A   1      36.701  30.331  27.144  1.00  0.00     0.014 A 
ATOM     41  C   UNL A   1      37.214  29.103  29.595  1.00  0.00     0.010 A 
ATOM     42  C   UNL A   1      37.993  29.919  27.456  1.00  0.00     0.010 A 
ATOM     43  C   UNL A   1      38.270  29.325  28.696  1.00  0.00    -0.014 A 
BRANCH  43  44
ATOM     44  C   UNL A   1      39.671  28.993  29.066  1.00  0.00     0.031 A 
ATOM     45  C   UNL A   1      40.463  29.928  29.941  1.00  0.00     0.074 A 
ATOM     46  C   UNL A   1      40.240  27.867  28.597  1.00  0.00     0.049 A 
ATOM     47  N   UNL A   1      41.693  29.817  30.376  1.00  0.00    -0.248 NA
ATOM     48  C   UNL A   1      39.792  31.169  30.362  1.00  0.00     0.031 C 
ATOM     49  C   UNL A   1      39.599  26.903  27.702  1.00  0.00     0.029 A 
ATOM     50  N   UNL A   1      41.490  27.340  28.809  1.00  0.00    -0.354 N 
ATOM     51  C   UNL A   1      41.945  30.974  31.103  1.00  0.00     0.074 A 
ATOM     52  C   UNL A   1      40.765  31.804  30.997  1.00  0.00     0.031 C 
ATOM     53  C   UNL A   1      40.444  25.885  27.473  1.00  0.00     0.029 A 
ATOM     54  C   UNL A   1      41.698  26.139  28.176  1.00  0.00     0.049 A 
ATOM     55  H   UNL A   1      42.174  27.780  29.364  1.00  0.00     0.167 HD
ATOM     56  C   UNL A   1      43.046  31.304  31.818  1.00  0.00     0.037 A 
ATOM     57  C   UNL A   1      42.776  25.332  28.169  1.00  0.00     0.037 A 
ATOM     58  C   UNL A   1      44.208  30.464  31.943  1.00  0.00     0.049 A 
ATOM     59  C   UNL A   1      43.988  25.720  28.977  1.00  0.00     0.074 A 
ATOM     60  C   UNL A   1      45.352  30.678  32.692  1.00  0.00     0.029 A 
ATOM     61  N   UNL A   1      44.375  29.247  31.297  1.00  0.00    -0.354 N 
ATOM     62  N   UNL A   1      44.183  26.778  29.726  1.00  0.00    -0.248 NA
ATOM     63  C   UNL A   1      45.124  24.788  28.949  1.00  0.00     0.031 C 
ATOM     64  C   UNL A   1      46.236  29.619  32.454  1.00  0.00     0.029 A 
ATOM     65  C   UNL A   1      45.613  28.710  31.614  1.00  0.00     0.049 A 
ATOM     66  H   UNL A   1      43.712  28.827  30.703  1.00  0.00     0.167 HD
ATOM     67  C   UNL A   1      45.441  26.618  30.292  1.00  0.00     0.074 A 
ATOM     68  C   UNL A   1      45.957  25.355  29.808  1.00  0.00     0.031 C 
ATOM     69  C   UNL A   1      46.107  27.442  31.140  1.00  0.00     0.037 A 
BRANCH  56  70
ATOM     70  C   UNL A   1      43.048  32.634  32.520  1.00  0.00     0.064 A 
ATOM     71  C   UNL A   1      43.303  33.833  31.835  1.00  0.00     0.173 A 
ATOM     72  C   UNL A   1      42.766  32.714  33.892  1.00  0.00     0.173 A 
ATOM     73  F   UNL A   1      43.590  33.814  30.524  1.00  0.00    -0.203 F 
ATOM     74  C   UNL A   1      43.311  35.055  32.503  1.00  0.00     0.198 A 
ATOM     75  C   UNL A   1      42.738  33.941  34.550  1.00  0.00     0.198 A 
ATOM     76  F   UNL A   1      42.510  31.601  34.597  1.00  0.00    -0.203 F 
ATOM     77  F   UNL A   1      43.616  36.177  31.839  1.00  0.00    -0.200 F 
ATOM     78  C   UNL A   1      43.021  35.109  33.858  1.00  0.00     0.200 A 
ATOM     79  F   UNL A   1      42.443  33.993  35.857  1.00  0.00    -0.200 F 
ATOM     80  F   UNL A   1      43.022  36.286  34.498  1.00  0.00    -0.200 F 
ENDBRANCH  56  70
BRANCH  57  81
ATOM     81  C   UNL A   1      42.748  24.053  27.412  1.00  0.00     0.064 A 
ATOM     82  C   UNL A   1      42.367  22.855  28.033  1.00  0.00     0.173 A 
ATOM     83  C   UNL A   1      43.118  23.995  26.060  1.00  0.00     0.173 A 
ATOM     84  F   UNL A   1      42.022  22.854  29.330  1.00  0.00    -0.203 F 
ATOM     85  C   UNL A   1      42.387  21.645  27.343  1.00  0.00     0.198 A 
ATOM     86  C   UNL A   1      43.107  22.789  25.361  1.00  0.00     0.198 A 
ATOM     87  F   UNL A   1      43.485  25.111  25.415  1.00  0.00    -0.203 F 
ATOM     88  F   UNL A   1      42.073  20.508  27.979  1.00  0.00    -0.200 F 
ATOM     89  C   UNL A   1      42.752  21.614  26.006  1.00  0.00     0.200 A 
ATOM     90  F   UNL A   1      43.445  22.765  24.065  1.00  0.00    -0.200 F 
ATOM     91  F   UNL A   1      42.771  20.451  25.341  1.00  0.00    -0.200 F 
ENDBRANCH  57  81
BRANCH  69  92
ATOM     92  C   UNL A   1      47.440  26.972  31.653  1.00  0.00     0.064 A 
ATOM     93  C   UNL A   1      48.647  27.339  31.041  1.00  0.00     0.173 A 
ATOM     94  C   UNL A   1      47.505  26.154  32.792  1.00  0.00     0.173 A 
ATOM     95  F   UNL A   1      48.641  28.110  29.943  1.00  0.00    -0.203 F 
ATOM     96  C   UNL A   1      49.867  26.870  31.525  1.00  0.00     0.198 A 
ATOM     97  C   UNL A   1      48.728  25.718  33.295  1.00  0.00     0.198 A 
ATOM     98  F   UNL A   1      46.382  25.780  33.424  1.00  0.00    -0.203 F 
ATOM     99  F   UNL A   1      51.002  27.180  30.883  1.00  0.00    -0.200 F 
ATOM    100  C   UNL A   1      49.906  26.066  32.654  1.00  0.00     0.200 A 
ATOM    101  F   UNL A   1      48.764  24.957  34.398  1.00  0.00    -0.200 F 
ATOM    102  F   UNL A   1      51.081  25.618  33.118  1.00  0.00    -0.200 F 
ENDBRANCH  69  92
ENDBRANCH  43  44
ENDBRANCH  35  38
ENDBRANCH  33  34
ENDBRANCH  32  33
ENDBRANCH   1  32
TORSDOF 14
ENDMDL
MODEL 2
REMARK VINA RESULT:     -11.1      5.151      9.631
REMARK SMILES C[C@H](C(=O)NCCCCNC(=O)c1ccc(-c2c3nc(c(-c4c(F)c(F)c(F)c(F)c4F)c4ccc([nH]4)c(-c4c(F)c(F)c(F)c(F)c4F)c4nc(c(-c5c(F)c(F)c(F)c(F)c5F)c5ccc2[nH]5)C=C4)C=C3)cc1)c1ccc2c3cc(Cl)ccc3n(C(=O)c3ccc(Cl)cc3)c2c1
REMARK SMILES IDX 7 1 6 2 5 3 3 4 4 5 2 7 1 8 76 9 77 10 98 11 78 12 97 13
REMARK SMILES IDX 79 14 87 15 80 16 86 17 81 18 85 19 82 20 84 21 83 22 88 23
REMARK SMILES IDX 89 24 90 25 91 26 96 27 92 28 95 29 93 30 94 31 8 32 9 33
REMARK SMILES IDX 10 34 11 35 12 37 13 38 14 39 75 40 15 41 74 42 16 43 17 44
REMARK SMILES IDX 18 45 68 46 19 47 73 48 67 49 69 50 20 51 72 52 66 53 65 54
REMARK SMILES IDX 21 56 53 57 33 58 52 59 34 60 37 61 51 62 70 63 35 64 36 65
REMARK SMILES IDX 50 67 71 68 38 69 22 70 23 71 31 72 24 73 25 74 29 75 32 76
REMARK SMILES IDX 26 77 27 78 30 79 28 80 54 81 55 82 63 83 56 84 57 85 61 86
REMARK SMILES IDX 64 87 58 88 59 89 62 90 60 91 39 92 40 93 48 94 41 95 42 96
REMARK SMILES IDX 46 97 49 98 43 99 44 100 47 101 45 102
REMARK H PARENT 5 6 10 36 69 55 37 66
REMARK Flexibility Score: inf
ROOT
ATOM      1  C   UNL A   1      31.689  29.412  23.824  1.00  0.00     0.023 C 
ENDROOT
BRANCH   1   2
ATOM      2  C   UNL A   1      30.674  28.388  23.312  1.00  0.00     0.116 C 
BRANCH   2   3
ATOM      3  N   UNL A   1      31.176  27.639  22.172  1.00  0.00    -0.356 N 
ATOM      4  C   UNL A   1      31.562  26.328  22.090  1.00  0.00     0.227 C 
ATOM      5  O   UNL A   1      31.990  25.923  21.006  1.00  0.00    -0.274 OA
ATOM      6  H   UNL A   1      31.250  28.151  21.334  1.00  0.00     0.163 HD
BRANCH   4   7
ATOM      7  C   UNL A   1      31.461  25.420  23.326  1.00  0.00     0.105 C 
ATOM      8  C   UNL A   1      30.280  24.455  23.224  1.00  0.00     0.023 C 
BRANCH   7   9
ATOM      9  C   UNL A   1      32.775  24.690  23.562  1.00  0.00    -0.034 A 
ATOM     10  C   UNL A   1      33.937  25.370  23.925  1.00  0.00     0.005 A 
ATOM     11  C   UNL A   1      32.779  23.290  23.539  1.00  0.00     0.032 A 
ATOM     12  C   UNL A   1      35.073  24.668  24.339  1.00  0.00     0.011 A 
ATOM     13  C   UNL A   1      33.887  22.581  24.043  1.00  0.00     0.057 A 
ATOM     14  C   UNL A   1      35.035  23.259  24.435  1.00  0.00     0.008 A 
ATOM     15  N   UNL A   1      34.055  21.213  24.338  1.00  0.00    -0.276 N 
ATOM     16  C   UNL A   1      35.984  22.281  24.829  1.00  0.00     0.009 A 
ATOM     17  C   UNL A   1      35.415  21.013  24.624  1.00  0.00     0.057 A 
ATOM     18  C   UNL A   1      37.313  22.394  25.291  1.00  0.00     0.031 A 
ATOM     19  C   UNL A   1      36.215  19.859  24.727  1.00  0.00     0.029 A 
ATOM     20  C   UNL A   1      38.080  21.246  25.445  1.00  0.00     0.041 A 
ATOM     21  C   UNL A   1      37.552  19.999  25.135  1.00  0.00     0.023 A 
ATOM     22  Cl  UNL A   1      39.708  21.386  25.986  1.00  0.00    -0.084 Cl
BRANCH  15  23
ATOM     23  C   UNL A   1      32.967  20.291  24.353  1.00  0.00     0.262 C 
ATOM     24  O   UNL A   1      31.832  20.780  24.376  1.00  0.00    -0.268 OA
BRANCH  23  25
ATOM     25  C   UNL A   1      32.933  18.809  24.431  1.00  0.00     0.040 A 
ATOM     26  C   UNL A   1      32.528  18.268  25.672  1.00  0.00     0.015 A 
ATOM     27  C   UNL A   1      33.492  17.957  23.477  1.00  0.00     0.015 A 
ATOM     28  C   UNL A   1      32.690  16.915  25.963  1.00  0.00     0.021 A 
ATOM     29  C   UNL A   1      33.628  16.587  23.761  1.00  0.00     0.021 A 
ATOM     30  C   UNL A   1      33.243  16.077  25.004  1.00  0.00     0.041 A 
ATOM     31  Cl  UNL A   1      33.497  14.418  25.375  1.00  0.00    -0.084 Cl
ENDBRANCH  23  25
ENDBRANCH  15  23
ENDBRANCH   7   9
ENDBRANCH   4   7
ENDBRANCH   2   3
ENDBRANCH   1   2
BRANCH   1  32
ATOM     32  C   UNL A   1      33.010  28.813  24.314  1.00  0.00     0.023 C 
BRANCH  32  33
ATOM     33  C   UNL A   1      33.397  29.178  25.742  1.00  0.00     0.116 C 
BRANCH  33  34
ATOM     34  N   UNL A   1      33.003  30.525  26.116  1.00  0.00    -0.352 N 
ATOM     35  C   UNL A   1      33.525  31.342  27.090  1.00  0.00     0.251 C 
ATOM     36  H   UNL A   1      32.257  30.906  25.599  1.00  0.00     0.163 HD
ATOM     37  O   UNL A   1      32.972  32.403  27.359  1.00  0.00    -0.269 OA
BRANCH  35  38
ATOM     38  C   UNL A   1      34.740  30.936  27.835  1.00  0.00     0.039 A 
ATOM     39  C   UNL A   1      35.777  31.862  27.981  1.00  0.00     0.014 A 
ATOM     40  C   UNL A   1      34.877  29.649  28.365  1.00  0.00     0.014 A 
ATOM     41  C   UNL A   1      36.933  31.507  28.683  1.00  0.00     0.010 A 
ATOM     42  C   UNL A   1      35.989  29.327  29.137  1.00  0.00     0.010 A 
ATOM     43  C   UNL A   1      37.042  30.241  29.282  1.00  0.00    -0.014 A 
BRANCH  43  44
ATOM     44  C   UNL A   1      38.275  29.847  30.014  1.00  0.00     0.031 A 
ATOM     45  C   UNL A   1      38.512  30.345  31.416  1.00  0.00     0.074 A 
ATOM     46  C   UNL A   1      39.192  29.066  29.413  1.00  0.00     0.049 A 
ATOM     47  N   UNL A   1      39.520  30.114  32.219  1.00  0.00    -0.248 NA
ATOM     48  C   UNL A   1      37.495  31.246  31.980  1.00  0.00     0.031 C 
ATOM     49  C   UNL A   1      39.105  28.559  28.044  1.00  0.00     0.029 A 
ATOM     50  N   UNL A   1      40.380  28.559  29.880  1.00  0.00    -0.354 N 
ATOM     51  C   UNL A   1      39.264  30.850  33.370  1.00  0.00     0.074 A 
ATOM     52  C   UNL A   1      38.042  31.586  33.137  1.00  0.00     0.031 C 
ATOM     53  C   UNL A   1      40.173  27.783  27.793  1.00  0.00     0.029 A 
ATOM     54  C   UNL A   1      41.035  27.765  28.971  1.00  0.00     0.049 A 
ATOM     55  H   UNL A   1      40.729  28.746  30.781  1.00  0.00     0.167 HD
ATOM     56  C   UNL A   1      39.967  30.887  34.527  1.00  0.00     0.037 A 
ATOM     57  C   UNL A   1      42.197  27.093  29.079  1.00  0.00     0.037 A 
ATOM     58  C   UNL A   1      41.169  30.133  34.766  1.00  0.00     0.049 A 
ATOM     59  C   UNL A   1      42.958  27.148  30.379  1.00  0.00     0.074 A 
ATOM     60  C   UNL A   1      41.924  30.053  35.922  1.00  0.00     0.029 A 
ATOM     61  N   UNL A   1      41.795  29.327  33.824  1.00  0.00    -0.354 N 
ATOM     62  N   UNL A   1      42.664  27.783  31.487  1.00  0.00    -0.248 NA
ATOM     63  C   UNL A   1      44.207  26.376  30.444  1.00  0.00     0.031 C 
ATOM     64  C   UNL A   1      43.038  29.246  35.664  1.00  0.00     0.029 A 
ATOM     65  C   UNL A   1      42.939  28.765  34.368  1.00  0.00     0.049 A 
ATOM     66  H   UNL A   1      41.473  29.177  32.906  1.00  0.00     0.167 HD
ATOM     67  C   UNL A   1      43.664  27.452  32.393  1.00  0.00     0.074 A 
ATOM     68  C   UNL A   1      44.565  26.551  31.707  1.00  0.00     0.031 C 
ATOM     69  C   UNL A   1      43.818  27.855  33.680  1.00  0.00     0.037 A 
BRANCH  56  70
ATOM     70  C   UNL A   1      39.454  31.778  35.625  1.00  0.00     0.064 A 
ATOM     71  C   UNL A   1      38.510  31.329  36.562  1.00  0.00     0.173 A 
ATOM     72  C   UNL A   1      39.932  33.090  35.757  1.00  0.00     0.173 A 
ATOM     73  F   UNL A   1      38.009  30.087  36.476  1.00  0.00    -0.203 F 
ATOM     74  C   UNL A   1      38.037  32.171  37.566  1.00  0.00     0.198 A 
ATOM     75  C   UNL A   1      39.486  33.918  36.785  1.00  0.00     0.198 A 
ATOM     76  F   UNL A   1      40.839  33.571  34.893  1.00  0.00    -0.203 F 
ATOM     77  F   UNL A   1      37.092  31.738  38.411  1.00  0.00    -0.200 F 
ATOM     78  C   UNL A   1      38.531  33.462  37.681  1.00  0.00     0.200 A 
ATOM     79  F   UNL A   1      39.975  35.160  36.904  1.00  0.00    -0.200 F 
ATOM     80  F   UNL A   1      38.081  34.269  38.652  1.00  0.00    -0.200 F 
ENDBRANCH  56  70
BRANCH  57  81
ATOM     81  C   UNL A   1      42.695  26.271  27.944  1.00  0.00     0.064 A 
ATOM     82  C   UNL A   1      42.330  24.923  27.816  1.00  0.00     0.173 A 
ATOM     83  C   UNL A   1      43.557  26.806  26.976  1.00  0.00     0.173 A 
ATOM     84  F   UNL A   1      41.524  24.358  28.728  1.00  0.00    -0.203 F 
ATOM     85  C   UNL A   1      42.833  24.134  26.784  1.00  0.00     0.198 A 
ATOM     86  C   UNL A   1      44.033  26.025  25.925  1.00  0.00     0.198 A 
ATOM     87  F   UNL A   1      43.932  28.092  27.046  1.00  0.00    -0.203 F 
ATOM     88  F   UNL A   1      42.513  22.834  26.721  1.00  0.00    -0.200 F 
ATOM     89  C   UNL A   1      43.680  24.687  25.836  1.00  0.00     0.200 A 
ATOM     90  F   UNL A   1      44.838  26.567  25.001  1.00  0.00    -0.200 F 
ATOM     91  F   UNL A   1      44.162  23.929  24.842  1.00  0.00    -0.200 F 
ENDBRANCH  57  81
BRANCH  69  92
ATOM     92  C   UNL A   1      44.969  27.272  34.452  1.00  0.00     0.064 A 
ATOM     93  C   UNL A   1      46.223  27.899  34.510  1.00  0.00     0.173 A 
ATOM     94  C   UNL A   1      44.803  26.072  35.162  1.00  0.00     0.173 A 
ATOM     95  F   UNL A   1      46.438  29.041  33.840  1.00  0.00    -0.203 F 
ATOM     96  C   UNL A   1      47.278  27.324  35.214  1.00  0.00     0.198 A 
ATOM     97  C   UNL A   1      45.849  25.521  35.896  1.00  0.00     0.198 A 
ATOM     98  F   UNL A   1      43.622  25.436  35.150  1.00  0.00    -0.203 F 
ATOM     99  F   UNL A   1      48.486  27.907  35.199  1.00  0.00    -0.200 F 
ATOM    100  C   UNL A   1      47.089  26.140  35.911  1.00  0.00     0.200 A 
ATOM    101  F   UNL A   1      45.658  24.387  36.585  1.00  0.00    -0.200 F 
ATOM    102  F   UNL A   1      48.106  25.590  36.590  1.00  0.00    -0.200 F 
ENDBRANCH  69  92
ENDBRANCH  43  44
ENDBRANCH  35  38
ENDBRANCH  33  34
ENDBRANCH  32  33
ENDBRANCH   1  32
TORSDOF 14
ENDMDL
MODEL 3
REMARK VINA RESULT:     -11.0      4.921      9.471
REMARK SMILES C[C@H](C(=O)NCCCCNC(=O)c1ccc(-c2c3nc(c(-c4c(F)c(F)c(F)c(F)c4F)c4ccc([nH]4)c(-c4c(F)c(F)c(F)c(F)c4F)c4nc(c(-c5c(F)c(F)c(F)c(F)c5F)c5ccc2[nH]5)C=C4)C=C3)cc1)c1ccc2c3cc(Cl)ccc3n(C(=O)c3ccc(Cl)cc3)c2c1
REMARK SMILES IDX 7 1 6 2 5 3 3 4 4 5 2 7 1 8 76 9 77 10 98 11 78 12 97 13
REMARK SMILES IDX 79 14 87 15 80 16 86 17 81 18 85 19 82 20 84 21 83 22 88 23
REMARK SMILES IDX 89 24 90 25 91 26 96 27 92 28 95 29 93 30 94 31 8 32 9 33
REMARK SMILES IDX 10 34 11 35 12 37 13 38 14 39 75 40 15 41 74 42 16 43 17 44
REMARK SMILES IDX 18 45 68 46 19 47 73 48 67 49 69 50 20 51 72 52 66 53 65 54
REMARK SMILES IDX 21 56 53 57 33 58 52 59 34 60 37 61 51 62 70 63 35 64 36 65
REMARK SMILES IDX 50 67 71 68 38 69 22 70 23 71 31 72 24 73 25 74 29 75 32 76
REMARK SMILES IDX 26 77 27 78 30 79 28 80 54 81 55 82 63 83 56 84 57 85 61 86
REMARK SMILES IDX 64 87 58 88 59 89 62 90 60 91 39 92 40 93 48 94 41 95 42 96
REMARK SMILES IDX 46 97 49 98 43 99 44 100 47 101 45 102
REMARK H PARENT 5 6 10 36 69 55 37 66
REMARK Flexibility Score: inf
ROOT
ATOM      1  C   UNL A   1      31.784  28.202  27.065  1.00  0.00     0.023 C 
ENDROOT
BRANCH   1   2
ATOM      2  C   UNL A   1      30.826  27.329  26.251  1.00  0.00     0.116 C 
BRANCH   2   3
ATOM      3  N   UNL A   1      31.057  27.446  24.821  1.00  0.00    -0.356 N 
ATOM      4  C   UNL A   1      31.272  26.467  23.887  1.00  0.00     0.227 C 
ATOM      5  O   UNL A   1      31.478  26.820  22.724  1.00  0.00    -0.274 OA
ATOM      6  H   UNL A   1      31.061  28.367  24.471  1.00  0.00     0.163 HD
BRANCH   4   7
ATOM      7  C   UNL A   1      31.256  24.989  24.309  1.00  0.00     0.105 C 
ATOM      8  C   UNL A   1      30.416  24.137  23.357  1.00  0.00     0.023 C 
BRANCH   7   9
ATOM      9  C   UNL A   1      32.675  24.458  24.448  1.00  0.00    -0.034 A 
ATOM     10  C   UNL A   1      33.691  25.221  25.021  1.00  0.00     0.005 A 
ATOM     11  C   UNL A   1      32.929  23.123  24.107  1.00  0.00     0.032 A 
ATOM     12  C   UNL A   1      34.927  24.644  25.329  1.00  0.00     0.011 A 
ATOM     13  C   UNL A   1      34.138  22.515  24.498  1.00  0.00     0.057 A 
ATOM     14  C   UNL A   1      35.140  23.266  25.099  1.00  0.00     0.008 A 
ATOM     15  N   UNL A   1      34.542  21.165  24.484  1.00  0.00    -0.276 N 
ATOM     16  C   UNL A   1      36.241  22.399  25.314  1.00  0.00     0.009 A 
ATOM     17  C   UNL A   1      35.911  21.137  24.794  1.00  0.00     0.057 A 
ATOM     18  C   UNL A   1      37.521  22.625  25.865  1.00  0.00     0.031 A 
ATOM     19  C   UNL A   1      36.902  20.144  24.677  1.00  0.00     0.029 A 
ATOM     20  C   UNL A   1      38.478  21.620  25.797  1.00  0.00     0.041 A 
ATOM     21  C   UNL A   1      38.186  20.409  25.182  1.00  0.00     0.023 A 
ATOM     22  Cl  UNL A   1      40.047  21.904  26.448  1.00  0.00    -0.084 Cl
BRANCH  15  23
ATOM     23  C   UNL A   1      33.635  20.094  24.226  1.00  0.00     0.262 C 
ATOM     24  O   UNL A   1      32.667  20.355  23.505  1.00  0.00    -0.268 OA
BRANCH  23  25
ATOM     25  C   UNL A   1      33.584  18.702  24.741  1.00  0.00     0.040 A 
ATOM     26  C   UNL A   1      34.254  17.734  23.960  1.00  0.00     0.015 A 
ATOM     27  C   UNL A   1      32.741  18.272  25.767  1.00  0.00     0.015 A 
ATOM     28  C   UNL A   1      34.077  16.370  24.184  1.00  0.00     0.021 A 
ATOM     29  C   UNL A   1      32.587  16.897  26.011  1.00  0.00     0.021 A 
ATOM     30  C   UNL A   1      33.240  15.954  25.211  1.00  0.00     0.041 A 
ATOM     31  Cl  UNL A   1      32.974  14.274  25.459  1.00  0.00    -0.084 Cl
ENDBRANCH  23  25
ENDBRANCH  15  23
ENDBRANCH   7   9
ENDBRANCH   4   7
ENDBRANCH   2   3
ENDBRANCH   1   2
BRANCH   1  32
ATOM     32  C   UNL A   1      33.262  28.045  26.698  1.00  0.00     0.023 C 
BRANCH  32  33
ATOM     33  C   UNL A   1      33.846  29.175  25.861  1.00  0.00     0.116 C 
BRANCH  33  34
ATOM     34  N   UNL A   1      33.387  30.490  26.274  1.00  0.00    -0.352 N 
ATOM     35  C   UNL A   1      33.879  31.310  27.261  1.00  0.00     0.251 C 
ATOM     36  H   UNL A   1      32.614  30.843  25.776  1.00  0.00     0.163 HD
ATOM     37  O   UNL A   1      33.274  32.333  27.564  1.00  0.00    -0.269 OA
BRANCH  35  38
ATOM     38  C   UNL A   1      35.123  30.951  27.981  1.00  0.00     0.039 A 
ATOM     39  C   UNL A   1      35.151  29.767  28.724  1.00  0.00     0.014 A 
ATOM     40  C   UNL A   1      36.249  31.781  27.953  1.00  0.00     0.014 A 
ATOM     41  C   UNL A   1      36.313  29.403  29.409  1.00  0.00     0.010 A 
ATOM     42  C   UNL A   1      37.432  31.374  28.564  1.00  0.00     0.010 A 
ATOM     43  C   UNL A   1      37.471  30.195  29.321  1.00  0.00    -0.014 A 
BRANCH  43  44
ATOM     44  C   UNL A   1      38.706  29.826  30.062  1.00  0.00     0.031 A 
ATOM     45  C   UNL A   1      38.945  30.368  31.447  1.00  0.00     0.074 A 
ATOM     46  C   UNL A   1      39.624  29.029  29.484  1.00  0.00     0.049 A 
ATOM     47  N   UNL A   1      39.955  30.164  32.255  1.00  0.00    -0.248 NA
ATOM     48  C   UNL A   1      37.926  31.283  31.986  1.00  0.00     0.031 C 
ATOM     49  C   UNL A   1      39.535  28.479  28.131  1.00  0.00     0.029 A 
ATOM     50  N   UNL A   1      40.814  28.539  29.963  1.00  0.00    -0.354 N 
ATOM     51  C   UNL A   1      39.700  30.935  33.383  1.00  0.00     0.074 A 
ATOM     52  C   UNL A   1      38.475  31.660  33.130  1.00  0.00     0.031 C 
ATOM     53  C   UNL A   1      40.604  27.699  27.902  1.00  0.00     0.029 A 
ATOM     54  C   UNL A   1      41.469  27.719  29.077  1.00  0.00     0.049 A 
ATOM     55  H   UNL A   1      41.164  28.755  30.857  1.00  0.00     0.167 HD
ATOM     56  C   UNL A   1      40.405  31.009  34.537  1.00  0.00     0.037 A 
ATOM     57  C   UNL A   1      42.633  27.053  29.204  1.00  0.00     0.037 A 
ATOM     58  C   UNL A   1      41.610  30.266  34.796  1.00  0.00     0.049 A 
ATOM     59  C   UNL A   1      43.396  27.150  30.500  1.00  0.00     0.074 A 
ATOM     60  C   UNL A   1      42.367  30.224  35.953  1.00  0.00     0.029 A 
ATOM     61  N   UNL A   1      42.235  29.433  33.878  1.00  0.00    -0.354 N 
ATOM     62  N   UNL A   1      43.103  27.818  31.589  1.00  0.00    -0.248 NA
ATOM     63  C   UNL A   1      44.647  26.384  30.586  1.00  0.00     0.031 C 
ATOM     64  C   UNL A   1      43.482  29.412  35.718  1.00  0.00     0.029 A 
ATOM     65  C   UNL A   1      43.382  28.891  34.437  1.00  0.00     0.049 A 
ATOM     66  H   UNL A   1      41.912  29.254  32.966  1.00  0.00     0.167 HD
ATOM     67  C   UNL A   1      44.106  27.518  32.502  1.00  0.00     0.074 A 
ATOM     68  C   UNL A   1      45.008  26.599  31.842  1.00  0.00     0.031 C 
ATOM     69  C   UNL A   1      44.262  27.962  33.775  1.00  0.00     0.037 A 
BRANCH  56  70
ATOM     70  C   UNL A   1      39.892  31.932  35.608  1.00  0.00     0.064 A 
ATOM     71  C   UNL A   1      40.402  33.230  35.774  1.00  0.00     0.173 A 
ATOM     72  C   UNL A   1      38.858  31.523  36.463  1.00  0.00     0.173 A 
ATOM     73  F   UNL A   1      41.400  33.670  34.991  1.00  0.00    -0.203 F 
ATOM     74  C   UNL A   1      39.922  34.067  36.778  1.00  0.00     0.198 A 
ATOM     75  C   UNL A   1      38.355  32.376  37.442  1.00  0.00     0.198 A 
ATOM     76  F   UNL A   1      38.329  30.295  36.348  1.00  0.00    -0.203 F 
ATOM     77  F   UNL A   1      40.467  35.279  36.954  1.00  0.00    -0.200 F 
ATOM     78  C   UNL A   1      38.894  33.643  37.606  1.00  0.00     0.200 A 
ATOM     79  F   UNL A   1      37.351  31.969  38.232  1.00  0.00    -0.200 F 
ATOM     80  F   UNL A   1      38.428  34.453  38.567  1.00  0.00    -0.200 F 
ENDBRANCH  56  70
BRANCH  57  81
ATOM     81  C   UNL A   1      43.130  26.198  28.094  1.00  0.00     0.064 A 
ATOM     82  C   UNL A   1      43.861  26.750  27.031  1.00  0.00     0.173 A 
ATOM     83  C   UNL A   1      42.872  24.820  28.059  1.00  0.00     0.173 A 
ATOM     84  F   UNL A   1      44.118  28.066  27.008  1.00  0.00    -0.203 F 
ATOM     85  C   UNL A   1      44.287  25.963  25.963  1.00  0.00     0.198 A 
ATOM     86  C   UNL A   1      43.327  24.029  27.007  1.00  0.00     0.198 A 
ATOM     87  F   UNL A   1      42.183  24.240  29.053  1.00  0.00    -0.203 F 
ATOM     88  F   UNL A   1      44.933  26.528  24.934  1.00  0.00    -0.200 F 
ATOM     89  C   UNL A   1      44.024  24.602  25.954  1.00  0.00     0.200 A 
ATOM     90  F   UNL A   1      43.084  22.711  27.009  1.00  0.00    -0.200 F 
ATOM     91  F   UNL A   1      44.434  23.845  24.928  1.00  0.00    -0.200 F 
ENDBRANCH  57  81
BRANCH  69  92
ATOM     92  C   UNL A   1      45.416  27.405  34.562  1.00  0.00     0.064 A 
ATOM     93  C   UNL A   1      45.311  26.219  35.304  1.00  0.00     0.173 A 
ATOM     94  C   UNL A   1      46.656  28.064  34.553  1.00  0.00     0.173 A 
ATOM     95  F   UNL A   1      44.146  25.556  35.355  1.00  0.00    -0.203 F 
ATOM     96  C   UNL A   1      46.390  25.739  36.042  1.00  0.00     0.198 A 
ATOM     97  C   UNL A   1      47.743  27.561  35.261  1.00  0.00     0.198 A 
ATOM     98  F   UNL A   1      46.816  29.197  33.852  1.00  0.00    -0.203 F 
ATOM     99  F   UNL A   1      46.245  24.641  36.797  1.00  0.00    -0.200 F 
ATOM    100  C   UNL A   1      47.605  26.406  36.016  1.00  0.00     0.200 A 
ATOM    101  F   UNL A   1      48.922  28.196  35.218  1.00  0.00    -0.200 F 
ATOM    102  F   UNL A   1      48.643  25.940  36.725  1.00  0.00    -0.200 F 
ENDBRANCH  69  92
ENDBRANCH  43  44
ENDBRANCH  35  38
ENDBRANCH  33  34
ENDBRANCH  32  33
ENDBRANCH   1  32
TORSDOF 14
ENDMDL
