MODEL 1
REMARK VINA RESULT:     -12.3      0.000      0.000
REMARK SMILES O=C(NCCCCNC(=O)[C@@H](Cc1ccc(F)cc1)C[C@H](O)C(F)(F)F)c1ccc(-c2c3nc(c(-c4c(F)c(F)c(F)c(F)c4F)c4ccc([nH]4)c(-c4c(F)c(F)c(F)c(F)c4F)c4nc(c(-c5c(F)c(F)c(F)c(F)c5F)c5ccc2[nH]5)C=C4)C=C3)cc1
REMARK SMILES IDX 6 1 5 2 4 3 3 4 1 5 2 6 27 8 28 9 89 10 29 11 88 12 30 13
REMARK SMILES IDX 31 14 32 15 82 16 33 17 87 18 81 19 83 20 34 21 86 22 80 23
REMARK SMILES IDX 79 24 35 26 67 27 47 28 66 29 48 30 51 31 65 32 84 33 49 34
REMARK SMILES IDX 50 35 64 37 85 38 52 39 36 40 37 41 45 42 38 43 39 44 43 45
REMARK SMILES IDX 46 46 40 47 41 48 44 49 42 50 68 51 69 52 77 53 70 54 71 55
REMARK SMILES IDX 75 56 78 57 72 58 73 59 76 60 74 61 53 62 54 63 62 64 55 65
REMARK SMILES IDX 56 66 60 67 63 68 57 69 58 70 61 71 59 72 7 73 8 74 9 75
REMARK SMILES IDX 10 77 11 78 12 79 13 80 14 81 19 82 15 83 18 84 16 85 17 86
REMARK SMILES IDX 20 87 21 88 23 89 24 90 25 91 26 92 22 93
REMARK H PARENT 3 7 83 25 51 36 8 76 22 94
REMARK Flexibility Score: inf
ROOT
ATOM      1  C   UNL A   1      32.227  30.455  26.523  1.00  0.00     0.023 C 
ENDROOT
BRANCH   1   2
ATOM      2  C   UNL A   1      31.805  31.899  26.734  1.00  0.00     0.023 C 
BRANCH   2   3
ATOM      3  C   UNL A   1      32.875  32.759  27.382  1.00  0.00     0.116 C 
BRANCH   3   4
ATOM      4  N   UNL A   1      32.452  34.121  27.693  1.00  0.00    -0.352 N 
ATOM      5  O   UNL A   1      32.527  36.102  28.800  1.00  0.00    -0.269 OA
ATOM      6  C   UNL A   1      33.004  34.991  28.604  1.00  0.00     0.251 C 
ATOM      7  H   UNL A   1      31.677  34.458  27.188  1.00  0.00     0.163 HD
BRANCH   6   8
ATOM      8  C   UNL A   1      34.164  34.527  29.385  1.00  0.00     0.039 A 
ATOM      9  C   UNL A   1      35.450  34.710  28.877  1.00  0.00     0.014 A 
ATOM     10  C   UNL A   1      33.949  33.791  30.551  1.00  0.00     0.014 A 
ATOM     11  C   UNL A   1      36.499  33.991  29.425  1.00  0.00     0.010 A 
ATOM     12  C   UNL A   1      35.029  33.161  31.169  1.00  0.00     0.010 A 
ATOM     13  C   UNL A   1      36.302  33.220  30.584  1.00  0.00    -0.014 A 
BRANCH  13  14
ATOM     14  C   UNL A   1      37.469  32.535  31.186  1.00  0.00     0.031 A 
ATOM     15  C   UNL A   1      37.931  32.849  32.579  1.00  0.00     0.074 A 
ATOM     16  C   UNL A   1      38.079  31.577  30.463  1.00  0.00     0.049 A 
ATOM     17  N   UNL A   1      38.932  32.333  33.246  1.00  0.00    -0.248 NA
ATOM     18  C   UNL A   1      37.186  33.879  33.321  1.00  0.00     0.031 C 
ATOM     19  C   UNL A   1      37.707  31.199  29.097  1.00  0.00     0.029 A 
ATOM     20  N   UNL A   1      39.106  30.728  30.774  1.00  0.00    -0.354 N 
ATOM     21  C   UNL A   1      38.963  32.997  34.464  1.00  0.00     0.074 A 
ATOM     22  C   UNL A   1      37.883  33.959  34.448  1.00  0.00     0.031 C 
ATOM     23  C   UNL A   1      38.442  30.148  28.716  1.00  0.00     0.029 A 
ATOM     24  C   UNL A   1      39.394  29.834  29.775  1.00  0.00     0.049 A 
ATOM     25  H   UNL A   1      39.590  30.756  31.631  1.00  0.00     0.167 HD
ATOM     26  C   UNL A   1      39.822  32.815  35.495  1.00  0.00     0.037 A 
ATOM     27  C   UNL A   1      40.335  28.876  29.704  1.00  0.00     0.037 A 
ATOM     28  C   UNL A   1      40.866  31.823  35.511  1.00  0.00     0.049 A 
ATOM     29  C   UNL A   1      41.267  28.693  30.861  1.00  0.00     0.074 A 
ATOM     30  C   UNL A   1      41.754  31.523  36.531  1.00  0.00     0.029 A 
ATOM     31  N   UNL A   1      41.162  30.967  34.460  1.00  0.00    -0.354 N 
ATOM     32  N   UNL A   1      41.286  29.330  32.007  1.00  0.00    -0.248 NA
ATOM     33  C   UNL A   1      42.316  27.678  30.714  1.00  0.00     0.031 C 
ATOM     34  C   UNL A   1      42.612  30.514  36.080  1.00  0.00     0.029 A 
ATOM     35  C   UNL A   1      42.233  30.156  34.796  1.00  0.00     0.049 A 
ATOM     36  H   UNL A   1      40.680  30.941  33.601  1.00  0.00     0.167 HD
ATOM     37  C   UNL A   1      42.355  28.804  32.714  1.00  0.00     0.074 A 
ATOM     38  C   UNL A   1      42.941  27.774  31.880  1.00  0.00     0.031 C 
ATOM     39  C   UNL A   1      42.813  29.151  33.941  1.00  0.00     0.037 A 
BRANCH  26  40
ATOM     40  C   UNL A   1      39.694  33.715  36.689  1.00  0.00     0.064 A 
ATOM     41  C   UNL A   1      38.866  33.349  37.761  1.00  0.00     0.173 A 
ATOM     42  C   UNL A   1      40.320  34.969  36.742  1.00  0.00     0.173 A 
ATOM     43  F   UNL A   1      38.239  32.162  37.756  1.00  0.00    -0.203 F 
ATOM     44  C   UNL A   1      38.659  34.209  38.837  1.00  0.00     0.198 A 
ATOM     45  C   UNL A   1      40.128  35.818  37.830  1.00  0.00     0.198 A 
ATOM     46  F   UNL A   1      41.128  35.363  35.747  1.00  0.00    -0.203 F 
ATOM     47  F   UNL A   1      37.842  33.848  39.836  1.00  0.00    -0.200 F 
ATOM     48  C   UNL A   1      39.292  35.442  38.871  1.00  0.00     0.200 A 
ATOM     49  F   UNL A   1      40.755  37.002  37.871  1.00  0.00    -0.200 F 
ATOM     50  F   UNL A   1      39.097  36.267  39.909  1.00  0.00    -0.200 F 
ENDBRANCH  26  40
BRANCH  27  51
ATOM     51  C   UNL A   1      40.421  28.046  28.479  1.00  0.00     0.064 A 
ATOM     52  C   UNL A   1      39.818  26.780  28.419  1.00  0.00     0.173 A 
ATOM     53  C   UNL A   1      41.197  28.455  27.388  1.00  0.00     0.173 A 
ATOM     54  F   UNL A   1      39.078  26.340  29.448  1.00  0.00    -0.203 F 
ATOM     55  C   UNL A   1      40.020  25.939  27.328  1.00  0.00     0.198 A 
ATOM     56  C   UNL A   1      41.376  27.624  26.285  1.00  0.00     0.198 A 
ATOM     57  F   UNL A   1      41.783  29.662  27.399  1.00  0.00    -0.203 F 
ATOM     58  F   UNL A   1      39.481  24.713  27.322  1.00  0.00    -0.200 F 
ATOM     59  C   UNL A   1      40.799  26.362  26.262  1.00  0.00     0.200 A 
ATOM     60  F   UNL A   1      42.119  28.038  25.250  1.00  0.00    -0.200 F 
ATOM     61  F   UNL A   1      41.001  25.550  25.216  1.00  0.00    -0.200 F 
ENDBRANCH  27  51
BRANCH  39  62
ATOM     62  C   UNL A   1      44.016  28.420  34.451  1.00  0.00     0.064 A 
ATOM     63  C   UNL A   1      43.872  27.235  35.188  1.00  0.00     0.173 A 
ATOM     64  C   UNL A   1      45.308  28.929  34.259  1.00  0.00     0.173 A 
ATOM     65  F   UNL A   1      42.654  26.714  35.400  1.00  0.00    -0.203 F 
ATOM     66  C   UNL A   1      44.983  26.592  35.725  1.00  0.00     0.198 A 
ATOM     67  C   UNL A   1      46.417  28.271  34.780  1.00  0.00     0.198 A 
ATOM     68  F   UNL A   1      45.491  30.051  33.547  1.00  0.00    -0.203 F 
ATOM     69  F   UNL A   1      44.822  25.475  36.448  1.00  0.00    -0.200 F 
ATOM     70  C   UNL A   1      46.253  27.109  35.520  1.00  0.00     0.200 A 
ATOM     71  F   UNL A   1      47.646  28.758  34.562  1.00  0.00    -0.200 F 
ATOM     72  F   UNL A   1      47.322  26.482  36.030  1.00  0.00    -0.200 F 
ENDBRANCH  39  62
ENDBRANCH  13  14
ENDBRANCH   6   8
ENDBRANCH   3   4
ENDBRANCH   2   3
ENDBRANCH   1   2
BRANCH   1  73
ATOM     73  C   UNL A   1      31.438  29.695  25.463  1.00  0.00     0.116 C 
BRANCH  73  74
ATOM     74  N   UNL A   1      32.302  29.380  24.349  1.00  0.00    -0.356 N 
ATOM     75  C   UNL A   1      32.034  28.662  23.231  1.00  0.00     0.223 C 
ATOM     76  H   UNL A   1      33.217  29.738  24.411  1.00  0.00     0.163 HD
ATOM     77  O   UNL A   1      32.995  28.129  22.671  1.00  0.00    -0.275 OA
BRANCH  75  78
ATOM     78  C   UNL A   1      30.634  28.527  22.633  1.00  0.00     0.085 C 
BRANCH  78  79
ATOM     79  C   UNL A   1      29.674  27.642  23.472  1.00  0.00     0.049 C 
BRANCH  79  80
ATOM     80  C   UNL A   1      30.120  26.322  24.067  1.00  0.00    -0.047 A 
ATOM     81  C   UNL A   1      30.174  26.103  25.452  1.00  0.00     0.007 A 
ATOM     82  C   UNL A   1      30.409  25.237  23.215  1.00  0.00     0.007 A 
ATOM     83  C   UNL A   1      30.602  24.876  25.970  1.00  0.00     0.039 A 
ATOM     84  C   UNL A   1      30.821  24.004  23.732  1.00  0.00     0.039 A 
ATOM     85  C   UNL A   1      30.929  23.841  25.105  1.00  0.00     0.123 A 
ATOM     86  F   UNL A   1      31.363  22.676  25.602  1.00  0.00    -0.207 F 
ENDBRANCH  79  80
ENDBRANCH  78  79
BRANCH  78  87
ATOM     87  C   UNL A   1      30.006  29.778  22.004  1.00  0.00     0.055 C 
BRANCH  87  88
ATOM     88  C   UNL A   1      28.538  30.098  22.327  1.00  0.00     0.220 C 
BRANCH  88  89
ATOM     89  C   UNL A   1      28.292  31.424  23.063  1.00  0.00     0.414 C 
ATOM     90  F   UNL A   1      29.184  31.543  24.079  1.00  0.00    -0.168 F 
ATOM     91  F   UNL A   1      28.469  32.486  22.255  1.00  0.00    -0.168 F 
ATOM     92  F   UNL A   1      27.057  31.491  23.595  1.00  0.00    -0.168 F 
ENDBRANCH  88  89
BRANCH  88  93
ATOM     93  O   UNL A   1      27.833  30.043  21.063  1.00  0.00    -0.384 OA
ATOM     94  H   UNL A   1      27.377  29.190  20.984  1.00  0.00     0.211 HD
ENDBRANCH  88  93
ENDBRANCH  87  88
ENDBRANCH  78  87
ENDBRANCH  75  78
ENDBRANCH  73  74
ENDBRANCH   1  73
TORSDOF 17
ENDMDL
MODEL 2
REMARK VINA RESULT:     -12.2      6.159     10.738
REMARK SMILES O=C(NCCCCNC(=O)[C@@H](Cc1ccc(F)cc1)C[C@H](O)C(F)(F)F)c1ccc(-c2c3nc(c(-c4c(F)c(F)c(F)c(F)c4F)c4ccc([nH]4)c(-c4c(F)c(F)c(F)c(F)c4F)c4nc(c(-c5c(F)c(F)c(F)c(F)c5F)c5ccc2[nH]5)C=C4)C=C3)cc1
REMARK SMILES IDX 6 1 5 2 4 3 3 4 1 5 2 6 27 8 28 9 89 10 29 11 88 12 30 13
REMARK SMILES IDX 31 14 32 15 82 16 33 17 87 18 81 19 83 20 34 21 86 22 80 23
REMARK SMILES IDX 79 24 35 26 67 27 47 28 66 29 48 30 51 31 65 32 84 33 49 34
REMARK SMILES IDX 50 35 64 37 85 38 52 39 36 40 37 41 45 42 38 43 39 44 43 45
REMARK SMILES IDX 46 46 40 47 41 48 44 49 42 50 68 51 69 52 77 53 70 54 71 55
REMARK SMILES IDX 75 56 78 57 72 58 73 59 76 60 74 61 53 62 54 63 62 64 55 65
REMARK SMILES IDX 56 66 60 67 63 68 57 69 58 70 61 71 59 72 7 73 8 74 9 75
REMARK SMILES IDX 10 77 11 78 12 79 13 80 14 81 19 82 15 83 18 84 16 85 17 86
REMARK SMILES IDX 20 87 21 88 23 89 24 90 25 91 26 92 22 93
REMARK H PARENT 3 7 83 25 51 36 8 76 22 94
REMARK Flexibility Score: inf
ROOT
ATOM      1  C   UNL A   1      37.344  21.027  25.100  1.00  0.00     0.023 C 
ENDROOT
BRANCH   1   2
ATOM      2  C   UNL A   1      38.324  19.869  25.037  1.00  0.00     0.023 C 
BRANCH   2   3
ATOM      3  C   UNL A   1      39.555  20.064  25.905  1.00  0.00     0.116 C 
BRANCH   3   4
ATOM      4  N   UNL A   1      40.487  18.940  25.896  1.00  0.00    -0.352 N 
ATOM      5  O   UNL A   1      42.527  17.952  26.024  1.00  0.00    -0.269 OA
ATOM      6  C   UNL A   1      41.846  18.968  26.097  1.00  0.00     0.251 C 
ATOM      7  H   UNL A   1      40.093  18.054  25.724  1.00  0.00     0.163 HD
BRANCH   6   8
ATOM      8  C   UNL A   1      42.479  20.274  26.353  1.00  0.00     0.039 A 
ATOM      9  C   UNL A   1      42.441  20.815  27.638  1.00  0.00     0.014 A 
ATOM     10  C   UNL A   1      42.983  21.009  25.278  1.00  0.00     0.014 A 
ATOM     11  C   UNL A   1      42.722  22.159  27.811  1.00  0.00     0.010 A 
ATOM     12  C   UNL A   1      43.376  22.331  25.480  1.00  0.00     0.010 A 
ATOM     13  C   UNL A   1      43.205  22.928  26.738  1.00  0.00    -0.014 A 
BRANCH  13  14
ATOM     14  C   UNL A   1      43.574  24.341  26.987  1.00  0.00     0.031 A 
ATOM     15  C   UNL A   1      42.601  25.312  27.587  1.00  0.00     0.074 A 
ATOM     16  C   UNL A   1      44.835  24.720  26.705  1.00  0.00     0.049 A 
ATOM     17  N   UNL A   1      42.776  26.579  27.868  1.00  0.00    -0.248 NA
ATOM     18  C   UNL A   1      41.255  24.810  27.905  1.00  0.00     0.031 C 
ATOM     19  C   UNL A   1      45.857  23.850  26.117  1.00  0.00     0.029 A 
ATOM     20  N   UNL A   1      45.484  25.909  26.902  1.00  0.00    -0.354 N 
ATOM     21  C   UNL A   1      41.560  27.034  28.357  1.00  0.00     0.074 A 
ATOM     22  C   UNL A   1      40.648  25.910  28.333  1.00  0.00     0.031 C 
ATOM     23  C   UNL A   1      47.020  24.509  26.069  1.00  0.00     0.029 A 
ATOM     24  C   UNL A   1      46.807  25.872  26.541  1.00  0.00     0.049 A 
ATOM     25  H   UNL A   1      45.045  26.711  27.266  1.00  0.00     0.167 HD
ATOM     26  C   UNL A   1      41.242  28.279  28.782  1.00  0.00     0.037 A 
ATOM     27  C   UNL A   1      47.746  26.834  26.566  1.00  0.00     0.037 A 
ATOM     28  C   UNL A   1      42.173  29.376  28.839  1.00  0.00     0.049 A 
ATOM     29  C   UNL A   1      47.368  28.200  27.047  1.00  0.00     0.074 A 
ATOM     30  C   UNL A   1      41.962  30.663  29.306  1.00  0.00     0.029 A 
ATOM     31  N   UNL A   1      43.494  29.316  28.418  1.00  0.00    -0.354 N 
ATOM     32  N   UNL A   1      46.213  28.616  27.505  1.00  0.00    -0.248 NA
ATOM     33  C   UNL A   1      48.409  29.232  26.998  1.00  0.00     0.031 C 
ATOM     34  C   UNL A   1      43.143  31.391  29.129  1.00  0.00     0.029 A 
ATOM     35  C   UNL A   1      44.103  30.548  28.591  1.00  0.00     0.049 A 
ATOM     36  H   UNL A   1      43.933  28.514  28.050  1.00  0.00     0.167 HD
ATOM     37  C   UNL A   1      46.382  29.962  27.789  1.00  0.00     0.074 A 
ATOM     38  C   UNL A   1      47.760  30.284  27.479  1.00  0.00     0.031 C 
ATOM     39  C   UNL A   1      45.472  30.851  28.256  1.00  0.00     0.037 A 
BRANCH  26  40
ATOM     40  C   UNL A   1      39.825  28.542  29.202  1.00  0.00     0.064 A 
ATOM     41  C   UNL A   1      38.909  29.088  28.289  1.00  0.00     0.173 A 
ATOM     42  C   UNL A   1      39.392  28.333  30.519  1.00  0.00     0.173 A 
ATOM     43  F   UNL A   1      39.276  29.314  27.018  1.00  0.00    -0.203 F 
ATOM     44  C   UNL A   1      37.617  29.426  28.682  1.00  0.00     0.198 A 
ATOM     45  C   UNL A   1      38.091  28.652  30.904  1.00  0.00     0.198 A 
ATOM     46  F   UNL A   1      40.226  27.805  31.428  1.00  0.00    -0.203 F 
ATOM     47  F   UNL A   1      36.769  29.972  27.798  1.00  0.00    -0.200 F 
ATOM     48  C   UNL A   1      37.208  29.206  29.988  1.00  0.00     0.200 A 
ATOM     49  F   UNL A   1      37.691  28.421  32.162  1.00  0.00    -0.200 F 
ATOM     50  F   UNL A   1      35.962  29.526  30.364  1.00  0.00    -0.200 F 
ENDBRANCH  26  40
BRANCH  27  51
ATOM     51  C   UNL A   1      49.117  26.508  26.106  1.00  0.00     0.064 A 
ATOM     52  C   UNL A   1      50.079  26.008  26.997  1.00  0.00     0.173 A 
ATOM     53  C   UNL A   1      49.520  26.790  24.795  1.00  0.00     0.173 A 
ATOM     54  F   UNL A   1      49.742  25.737  28.267  1.00  0.00    -0.203 F 
ATOM     55  C   UNL A   1      51.404  25.839  26.603  1.00  0.00     0.198 A 
ATOM     56  C   UNL A   1      50.840  26.595  24.395  1.00  0.00     0.198 A 
ATOM     57  F   UNL A   1      48.630  27.259  23.908  1.00  0.00    -0.203 F 
ATOM     58  F   UNL A   1      52.315  25.418  27.490  1.00  0.00    -0.200 F 
ATOM     59  C   UNL A   1      51.783  26.134  25.302  1.00  0.00     0.200 A 
ATOM     60  F   UNL A   1      51.202  26.868  23.135  1.00  0.00    -0.200 F 
ATOM     61  F   UNL A   1      53.060  25.981  24.926  1.00  0.00    -0.200 F 
ENDBRANCH  27  51
BRANCH  39  62
ATOM     62  C   UNL A   1      45.935  32.262  28.447  1.00  0.00     0.064 A 
ATOM     63  C   UNL A   1      45.844  33.191  27.401  1.00  0.00     0.173 A 
ATOM     64  C   UNL A   1      46.524  32.673  29.651  1.00  0.00     0.173 A 
ATOM     65  F   UNL A   1      45.291  32.840  26.231  1.00  0.00    -0.203 F 
ATOM     66  C   UNL A   1      46.340  34.482  27.551  1.00  0.00     0.198 A 
ATOM     67  C   UNL A   1      46.999  33.972  29.803  1.00  0.00     0.198 A 
ATOM     68  F   UNL A   1      46.617  31.821  30.683  1.00  0.00    -0.203 F 
ATOM     69  F   UNL A   1      46.266  35.348  26.530  1.00  0.00    -0.200 F 
ATOM     70  C   UNL A   1      46.914  34.872  28.751  1.00  0.00     0.200 A 
ATOM     71  F   UNL A   1      47.534  34.355  30.970  1.00  0.00    -0.200 F 
ATOM     72  F   UNL A   1      47.382  36.119  28.896  1.00  0.00    -0.200 F 
ENDBRANCH  39  62
ENDBRANCH  13  14
ENDBRANCH   6   8
ENDBRANCH   3   4
ENDBRANCH   2   3
ENDBRANCH   1   2
BRANCH   1  73
ATOM     73  C   UNL A   1      35.883  20.657  24.865  1.00  0.00     0.116 C 
BRANCH  73  74
ATOM     74  N   UNL A   1      35.072  21.185  25.937  1.00  0.00    -0.356 N 
ATOM     75  C   UNL A   1      33.723  21.281  26.025  1.00  0.00     0.223 C 
ATOM     76  H   UNL A   1      35.570  21.524  26.716  1.00  0.00     0.163 HD
ATOM     77  O   UNL A   1      33.277  22.159  26.769  1.00  0.00    -0.275 OA
BRANCH  75  78
ATOM     78  C   UNL A   1      32.762  20.345  25.292  1.00  0.00     0.085 C 
BRANCH  78  79
ATOM     79  C   UNL A   1      32.493  20.749  23.818  1.00  0.00     0.049 C 
BRANCH  79  80
ATOM     80  C   UNL A   1      32.290  22.194  23.411  1.00  0.00    -0.047 A 
ATOM     81  C   UNL A   1      31.136  22.916  23.755  1.00  0.00     0.007 A 
ATOM     82  C   UNL A   1      33.323  22.880  22.742  1.00  0.00     0.007 A 
ATOM     83  C   UNL A   1      30.974  24.246  23.353  1.00  0.00     0.039 A 
ATOM     84  C   UNL A   1      33.169  24.216  22.354  1.00  0.00     0.039 A 
ATOM     85  C   UNL A   1      31.988  24.881  22.650  1.00  0.00     0.123 A 
ATOM     86  F   UNL A   1      31.821  26.146  22.245  1.00  0.00    -0.207 F 
ENDBRANCH  79  80
ENDBRANCH  78  79
BRANCH  78  87
ATOM     87  C   UNL A   1      32.900  18.839  25.555  1.00  0.00     0.055 C 
BRANCH  87  88
ATOM     88  C   UNL A   1      32.571  17.867  24.411  1.00  0.00     0.220 C 
BRANCH  88  89
ATOM     89  C   UNL A   1      33.779  17.179  23.755  1.00  0.00     0.414 C 
ATOM     90  F   UNL A   1      34.922  17.704  24.264  1.00  0.00    -0.168 F 
ATOM     91  F   UNL A   1      33.802  15.857  24.011  1.00  0.00    -0.168 F 
ATOM     92  F   UNL A   1      33.805  17.359  22.421  1.00  0.00    -0.168 F 
ENDBRANCH  88  89
BRANCH  88  93
ATOM     93  O   UNL A   1      31.637  16.907  24.962  1.00  0.00    -0.384 OA
ATOM     94  H   UNL A   1      30.764  17.321  25.053  1.00  0.00     0.211 HD
ENDBRANCH  88  93
ENDBRANCH  87  88
ENDBRANCH  78  87
ENDBRANCH  75  78
ENDBRANCH  73  74
ENDBRANCH   1  73
TORSDOF 17
ENDMDL
MODEL 3
REMARK VINA RESULT:     -12.2      1.390      7.429
REMARK SMILES O=C(NCCCCNC(=O)[C@@H](Cc1ccc(F)cc1)C[C@H](O)C(F)(F)F)c1ccc(-c2c3nc(c(-c4c(F)c(F)c(F)c(F)c4F)c4ccc([nH]4)c(-c4c(F)c(F)c(F)c(F)c4F)c4nc(c(-c5c(F)c(F)c(F)c(F)c5F)c5ccc2[nH]5)C=C4)C=C3)cc1
REMARK SMILES IDX 6 1 5 2 4 3 3 4 1 5 2 6 27 8 28 9 89 10 29 11 88 12 30 13
REMARK SMILES IDX 31 14 32 15 82 16 33 17 87 18 81 19 83 20 34 21 86 22 80 23
REMARK SMILES IDX 79 24 35 26 67 27 47 28 66 29 48 30 51 31 65 32 84 33 49 34
REMARK SMILES IDX 50 35 64 37 85 38 52 39 36 40 37 41 45 42 38 43 39 44 43 45
REMARK SMILES IDX 46 46 40 47 41 48 44 49 42 50 68 51 69 52 77 53 70 54 71 55
REMARK SMILES IDX 75 56 78 57 72 58 73 59 76 60 74 61 53 62 54 63 62 64 55 65
REMARK SMILES IDX 56 66 60 67 63 68 57 69 58 70 61 71 59 72 7 73 8 74 9 75
REMARK SMILES IDX 10 77 11 78 12 79 13 80 14 81 19 82 15 83 18 84 16 85 17 86
REMARK SMILES IDX 20 87 21 88 23 89 24 90 25 91 26 92 22 93
REMARK H PARENT 3 7 83 25 51 36 8 76 22 94
REMARK Flexibility Score: inf
ROOT
ATOM      1  C   UNL A   1      31.910  30.214  26.708  1.00  0.00     0.023 C 
ENDROOT
BRANCH   1   2
ATOM      2  C   UNL A   1      31.787  31.716  26.523  1.00  0.00     0.023 C 
BRANCH   2   3
ATOM      3  C   UNL A   1      32.846  32.512  27.264  1.00  0.00     0.116 C 
BRANCH   3   4
ATOM      4  N   UNL A   1      32.457  33.880  27.593  1.00  0.00    -0.352 N 
ATOM      5  O   UNL A   1      32.567  35.836  28.740  1.00  0.00    -0.269 OA
ATOM      6  C   UNL A   1      33.015  34.715  28.532  1.00  0.00     0.251 C 
ATOM      7  H   UNL A   1      31.702  34.249  27.080  1.00  0.00     0.163 HD
BRANCH   6   8
ATOM      8  C   UNL A   1      34.144  34.201  29.328  1.00  0.00     0.039 A 
ATOM      9  C   UNL A   1      35.450  34.448  28.903  1.00  0.00     0.014 A 
ATOM     10  C   UNL A   1      33.887  33.362  30.412  1.00  0.00     0.014 A 
ATOM     11  C   UNL A   1      36.485  33.700  29.438  1.00  0.00     0.010 A 
ATOM     12  C   UNL A   1      34.947  32.697  31.027  1.00  0.00     0.010 A 
ATOM     13  C   UNL A   1      36.247  32.827  30.514  1.00  0.00    -0.014 A 
BRANCH  13  14
ATOM     14  C   UNL A   1      37.396  32.109  31.112  1.00  0.00     0.031 A 
ATOM     15  C   UNL A   1      38.158  31.070  30.344  1.00  0.00     0.074 A 
ATOM     16  C   UNL A   1      37.773  32.455  32.358  1.00  0.00     0.049 A 
ATOM     17  N   UNL A   1      39.188  30.359  30.729  1.00  0.00    -0.248 NA
ATOM     18  C   UNL A   1      37.709  30.779  28.974  1.00  0.00     0.031 C 
ATOM     19  C   UNL A   1      37.095  33.452  33.189  1.00  0.00     0.029 A 
ATOM     20  N   UNL A   1      38.826  32.040  33.128  1.00  0.00    -0.354 N 
ATOM     21  C   UNL A   1      39.485  29.512  29.671  1.00  0.00     0.074 A 
ATOM     22  C   UNL A   1      38.527  29.793  28.624  1.00  0.00     0.031 C 
ATOM     23  C   UNL A   1      37.788  33.627  34.321  1.00  0.00     0.029 A 
ATOM     24  C   UNL A   1      38.908  32.693  34.332  1.00  0.00     0.049 A 
ATOM     25  H   UNL A   1      39.461  31.343  32.847  1.00  0.00     0.167 HD
ATOM     26  C   UNL A   1      40.470  28.586  29.590  1.00  0.00     0.037 A 
ATOM     27  C   UNL A   1      39.777  32.547  35.347  1.00  0.00     0.037 A 
ATOM     28  C   UNL A   1      41.443  28.349  30.625  1.00  0.00     0.049 A 
ATOM     29  C   UNL A   1      40.860  31.520  35.228  1.00  0.00     0.074 A 
ATOM     30  C   UNL A   1      42.513  27.471  30.617  1.00  0.00     0.029 A 
ATOM     31  N   UNL A   1      41.465  28.995  31.853  1.00  0.00    -0.354 N 
ATOM     32  N   UNL A   1      41.128  30.725  34.221  1.00  0.00    -0.248 NA
ATOM     33  C   UNL A   1      41.745  31.353  36.386  1.00  0.00     0.031 C 
ATOM     34  C   UNL A   1      43.158  27.557  31.855  1.00  0.00     0.029 A 
ATOM     35  C   UNL A   1      42.516  28.518  32.619  1.00  0.00     0.049 A 
ATOM     36  H   UNL A   1      40.828  29.691  32.137  1.00  0.00     0.167 HD
ATOM     37  C   UNL A   1      42.206  29.954  34.625  1.00  0.00     0.074 A 
ATOM     38  C   UNL A   1      42.560  30.398  35.959  1.00  0.00     0.031 C 
ATOM     39  C   UNL A   1      42.838  28.961  33.953  1.00  0.00     0.037 A 
BRANCH  26  40
ATOM     40  C   UNL A   1      40.543  27.738  28.354  1.00  0.00     0.064 A 
ATOM     41  C   UNL A   1      39.914  26.483  28.323  1.00  0.00     0.173 A 
ATOM     42  C   UNL A   1      41.295  28.123  27.235  1.00  0.00     0.173 A 
ATOM     43  F   UNL A   1      39.187  26.066  29.371  1.00  0.00    -0.203 F 
ATOM     44  C   UNL A   1      40.045  25.640  27.223  1.00  0.00     0.198 A 
ATOM     45  C   UNL A   1      41.406  27.286  26.127  1.00  0.00     0.198 A 
ATOM     46  F   UNL A   1      41.908  29.315  27.211  1.00  0.00    -0.203 F 
ATOM     47  F   UNL A   1      39.457  24.436  27.227  1.00  0.00    -0.200 F 
ATOM     48  C   UNL A   1      40.790  26.043  26.124  1.00  0.00     0.200 A 
ATOM     49  F   UNL A   1      42.111  27.683  25.058  1.00  0.00    -0.200 F 
ATOM     50  F   UNL A   1      40.911  25.234  25.063  1.00  0.00    -0.200 F 
ENDBRANCH  26  40
BRANCH  27  51
ATOM     51  C   UNL A   1      39.624  33.399  36.550  1.00  0.00     0.064 A 
ATOM     52  C   UNL A   1      38.787  33.013  37.608  1.00  0.00     0.173 A 
ATOM     53  C   UNL A   1      40.223  34.663  36.615  1.00  0.00     0.173 A 
ATOM     54  F   UNL A   1      38.179  31.818  37.581  1.00  0.00    -0.203 F 
ATOM     55  C   UNL A   1      38.526  33.875  38.670  1.00  0.00     0.198 A 
ATOM     56  C   UNL A   1      39.983  35.514  37.691  1.00  0.00     0.198 A 
ATOM     57  F   UNL A   1      41.039  35.068  35.630  1.00  0.00    -0.203 F 
ATOM     58  F   UNL A   1      37.677  33.506  39.637  1.00  0.00    -0.200 F 
ATOM     59  C   UNL A   1      39.125  35.126  38.710  1.00  0.00     0.200 A 
ATOM     60  F   UNL A   1      40.572  36.716  37.735  1.00  0.00    -0.200 F 
ATOM     61  F   UNL A   1      38.867  35.960  39.726  1.00  0.00    -0.200 F 
ENDBRANCH  27  51
BRANCH  39  62
ATOM     62  C   UNL A   1      43.970  28.277  34.655  1.00  0.00     0.064 A 
ATOM     63  C   UNL A   1      43.740  27.133  35.432  1.00  0.00     0.173 A 
ATOM     64  C   UNL A   1      45.272  28.794  34.604  1.00  0.00     0.173 A 
ATOM     65  F   UNL A   1      42.510  26.605  35.513  1.00  0.00    -0.203 F 
ATOM     66  C   UNL A   1      44.776  26.537  36.144  1.00  0.00     0.198 A 
ATOM     67  C   UNL A   1      46.308  28.183  35.300  1.00  0.00     0.198 A 
ATOM     68  F   UNL A   1      45.538  29.879  33.860  1.00  0.00    -0.203 F 
ATOM     69  F   UNL A   1      44.531  25.458  36.902  1.00  0.00    -0.200 F 
ATOM     70  C   UNL A   1      46.058  27.060  36.077  1.00  0.00     0.200 A 
ATOM     71  F   UNL A   1      47.552  28.676  35.217  1.00  0.00    -0.200 F 
ATOM     72  F   UNL A   1      47.057  26.479  36.756  1.00  0.00    -0.200 F 
ENDBRANCH  39  62
ENDBRANCH  13  14
ENDBRANCH   6   8
ENDBRANCH   3   4
ENDBRANCH   2   3
ENDBRANCH   1   2
BRANCH   1  73
ATOM     73  C   UNL A   1      33.218  29.603  26.220  1.00  0.00     0.116 C 
BRANCH  73  74
ATOM     74  N   UNL A   1      33.296  29.712  24.782  1.00  0.00    -0.356 N 
ATOM     75  C   UNL A   1      33.117  28.757  23.837  1.00  0.00     0.223 C 
ATOM     76  H   UNL A   1      33.510  30.610  24.438  1.00  0.00     0.163 HD
ATOM     77  O   UNL A   1      33.677  28.938  22.752  1.00  0.00    -0.275 OA
BRANCH  75  78
ATOM     78  C   UNL A   1      32.239  27.523  24.044  1.00  0.00     0.085 C 
BRANCH  78  79
ATOM     79  C   UNL A   1      32.815  26.506  25.066  1.00  0.00     0.049 C 
BRANCH  79  80
ATOM     80  C   UNL A   1      33.702  25.356  24.634  1.00  0.00    -0.047 A 
ATOM     81  C   UNL A   1      33.575  24.740  23.379  1.00  0.00     0.007 A 
ATOM     82  C   UNL A   1      34.756  24.937  25.472  1.00  0.00     0.007 A 
ATOM     83  C   UNL A   1      34.402  23.672  23.015  1.00  0.00     0.039 A 
ATOM     84  C   UNL A   1      35.595  23.881  25.102  1.00  0.00     0.039 A 
ATOM     85  C   UNL A   1      35.399  23.248  23.883  1.00  0.00     0.123 A 
ATOM     86  F   UNL A   1      36.173  22.209  23.544  1.00  0.00    -0.207 F 
ENDBRANCH  79  80
ENDBRANCH  78  79
BRANCH  78  87
ATOM     87  C   UNL A   1      30.720  27.732  24.097  1.00  0.00     0.055 C 
BRANCH  87  88
ATOM     88  C   UNL A   1      29.975  28.004  22.781  1.00  0.00     0.220 C 
BRANCH  88  89
ATOM     89  C   UNL A   1      29.526  29.457  22.558  1.00  0.00     0.414 C 
ATOM     90  F   UNL A   1      28.238  29.465  22.130  1.00  0.00    -0.168 F 
ATOM     91  F   UNL A   1      29.570  30.175  23.696  1.00  0.00    -0.168 F 
ATOM     92  F   UNL A   1      30.270  30.083  21.626  1.00  0.00    -0.168 F 
ENDBRANCH  88  89
BRANCH  88  93
ATOM     93  O   UNL A   1      30.854  27.543  21.725  1.00  0.00    -0.384 OA
ATOM     94  H   UNL A   1      30.676  28.045  20.914  1.00  0.00     0.211 HD
ENDBRANCH  88  93
ENDBRANCH  87  88
ENDBRANCH  78  87
ENDBRANCH  75  78
ENDBRANCH  73  74
ENDBRANCH   1  73
TORSDOF 17
ENDMDL
