MODEL 1
REMARK VINA RESULT:     -13.7      0.000      0.000
REMARK SMILES Cc1ccccc1OCC(=O)N[C@@H](Cc1c[nH]c2ccccc12)C(=O)NCCCCNC(=O)c1ccc(-c2c3nc(c(-c4c(F)c(F)c(F)c(F)c4F)c4ccc([nH]4)c(-c4c(F)c(F)c(F)c(F)c4F)c4nc(c(-c5c(F)c(F)c(F)c(F)c5F)c5ccc2[nH]5)C=C4)C=C3)cc1
REMARK SMILES IDX 27 1 26 2 24 3 25 4 13 6 12 7 10 8 11 9 9 11 8 12 7 13 1 14
REMARK SMILES IDX 2 15 3 16 4 17 6 18 5 19 14 20 15 21 16 22 23 23 17 24 18 25
REMARK SMILES IDX 22 26 19 28 21 29 20 30 28 31 29 32 30 33 31 34 32 35 33 37
REMARK SMILES IDX 34 38 35 39 96 40 36 41 95 42 37 43 38 44 39 45 89 46 40 47
REMARK SMILES IDX 94 48 88 49 90 50 41 51 93 52 87 53 86 54 42 56 74 57 54 58
REMARK SMILES IDX 73 59 55 60 58 61 72 62 91 63 56 64 57 65 71 67 92 68 59 69
REMARK SMILES IDX 43 70 44 71 52 72 45 73 46 74 50 75 53 76 47 77 48 78 51 79
REMARK SMILES IDX 49 80 75 81 76 82 84 83 77 84 78 85 82 86 85 87 79 88 80 89
REMARK SMILES IDX 83 90 81 91 60 92 61 93 69 94 62 95 63 96 67 97 70 98 64 99
REMARK SMILES IDX 65 100 68 101 66 102
REMARK H PARENT 26 5 12 10 17 27 31 36 90 55 58 66
REMARK Flexibility Score: inf
ROOT
ATOM      1  C   UNL A   1      35.732  21.114  25.691  1.00  0.00     0.116 C 
ENDROOT
BRANCH   1   2
ATOM      2  N   UNL A   1      34.482  20.444  25.367  1.00  0.00    -0.354 N 
ATOM      3  C   UNL A   1      33.281  20.942  24.935  1.00  0.00     0.242 C 
ATOM      4  O   UNL A   1      32.552  20.154  24.319  1.00  0.00    -0.273 OA
ATOM      5  H   UNL A   1      34.502  19.466  25.477  1.00  0.00     0.163 HD
BRANCH   3   6
ATOM      6  C   UNL A   1      32.842  22.423  25.101  1.00  0.00     0.175 C 
BRANCH   6   7
ATOM      7  N   UNL A   1      32.296  22.664  26.436  1.00  0.00    -0.341 N 
ATOM      8  C   UNL A   1      31.144  23.331  26.721  1.00  0.00     0.258 C 
ATOM      9  O   UNL A   1      30.448  22.935  27.658  1.00  0.00    -0.271 OA
ATOM     10  H   UNL A   1      32.810  22.313  27.199  1.00  0.00     0.164 HD
BRANCH   8  11
ATOM     11  C   UNL A   1      30.757  24.553  25.885  1.00  0.00     0.329 C 
BRANCH  11  12
ATOM     12  O   UNL A   1      30.898  25.836  26.464  1.00  0.00    -0.484 OA
BRANCH  12  13
ATOM     13  C   UNL A   1      30.859  26.981  25.719  1.00  0.00     0.122 A 
ATOM     14  C   UNL A   1      31.890  28.741  27.328  1.00  0.00     0.048 C 
ATOM     15  C   UNL A   1      31.287  28.281  26.032  1.00  0.00    -0.009 A 
ATOM     16  C   UNL A   1      31.159  29.288  25.046  1.00  0.00     0.007 A 
ATOM     17  C   UNL A   1      30.568  29.038  23.810  1.00  0.00     0.001 A 
ATOM     18  C   UNL A   1      30.242  26.755  24.474  1.00  0.00     0.047 A 
ATOM     19  C   UNL A   1      30.096  27.768  23.526  1.00  0.00     0.004 A 
ENDBRANCH  12  13
ENDBRANCH  11  12
ENDBRANCH   8  11
ENDBRANCH   6   7
BRANCH   6  20
ATOM     20  C   UNL A   1      33.896  23.440  24.624  1.00  0.00     0.072 C 
BRANCH  20  21
ATOM     21  C   UNL A   1      33.456  24.343  23.519  1.00  0.00    -0.020 A 
ATOM     22  C   UNL A   1      32.882  23.955  22.323  1.00  0.00     0.087 A 
ATOM     23  C   UNL A   1      33.600  25.766  23.471  1.00  0.00     0.003 A 
ATOM     24  N   UNL A   1      32.762  25.062  21.525  1.00  0.00    -0.361 N 
ATOM     25  C   UNL A   1      33.261  26.167  22.178  1.00  0.00     0.046 A 
ATOM     26  C   UNL A   1      34.069  26.736  24.381  1.00  0.00     0.010 A 
ATOM     27  H   UNL A   1      32.377  25.068  20.619  1.00  0.00     0.166 HD
ATOM     28  C   UNL A   1      33.450  27.478  21.731  1.00  0.00     0.026 A 
ATOM     29  C   UNL A   1      34.210  28.063  23.960  1.00  0.00     0.001 A 
ATOM     30  C   UNL A   1      33.923  28.421  22.647  1.00  0.00     0.002 A 
ENDBRANCH  20  21
ENDBRANCH   6  20
ENDBRANCH   3   6
ENDBRANCH   1   2
BRANCH   1  31
ATOM     31  C   UNL A   1      36.886  20.832  24.727  1.00  0.00     0.023 C 
BRANCH  31  32
ATOM     32  C   UNL A   1      38.283  20.851  25.346  1.00  0.00     0.023 C 
BRANCH  32  33
ATOM     33  C   UNL A   1      38.703  22.179  25.967  1.00  0.00     0.116 C 
BRANCH  33  34
ATOM     34  N   UNL A   1      40.121  22.328  26.249  1.00  0.00    -0.352 N 
ATOM     35  C   UNL A   1      40.867  23.466  26.522  1.00  0.00     0.251 C 
ATOM     36  H   UNL A   1      40.634  21.488  26.246  1.00  0.00     0.163 HD
ATOM     37  O   UNL A   1      42.082  23.372  26.607  1.00  0.00    -0.269 OA
BRANCH  35  38
ATOM     38  C   UNL A   1      40.212  24.764  26.868  1.00  0.00     0.039 A 
ATOM     39  C   UNL A   1      40.602  25.908  26.150  1.00  0.00     0.014 A 
ATOM     40  C   UNL A   1      39.391  24.916  27.979  1.00  0.00     0.014 A 
ATOM     41  C   UNL A   1      40.402  27.176  26.698  1.00  0.00     0.010 A 
ATOM     42  C   UNL A   1      39.300  26.149  28.586  1.00  0.00     0.010 A 
ATOM     43  C   UNL A   1      39.879  27.265  27.984  1.00  0.00    -0.014 A 
BRANCH  43  44
ATOM     44  C   UNL A   1      40.061  28.412  28.864  1.00  0.00     0.031 A 
ATOM     45  C   UNL A   1      39.015  29.446  28.991  1.00  0.00     0.074 A 
ATOM     46  C   UNL A   1      41.137  28.407  29.685  1.00  0.00     0.049 A 
ATOM     47  N   UNL A   1      39.225  30.643  29.428  1.00  0.00    -0.248 NA
ATOM     48  C   UNL A   1      37.634  29.214  28.585  1.00  0.00     0.031 C 
ATOM     49  C   UNL A   1      41.357  29.220  30.875  1.00  0.00     0.029 A 
ATOM     50  N   UNL A   1      42.373  27.780  29.470  1.00  0.00    -0.354 N 
ATOM     51  C   UNL A   1      37.998  31.246  29.603  1.00  0.00     0.074 A 
ATOM     52  C   UNL A   1      37.044  30.334  29.012  1.00  0.00     0.031 C 
ATOM     53  C   UNL A   1      42.679  29.281  31.111  1.00  0.00     0.029 A 
ATOM     54  C   UNL A   1      43.342  28.658  29.973  1.00  0.00     0.049 A 
ATOM     55  H   UNL A   1      42.528  26.901  29.052  1.00  0.00     0.167 HD
ATOM     56  C   UNL A   1      37.907  32.388  30.347  1.00  0.00     0.037 A 
ATOM     57  C   UNL A   1      44.310  29.254  29.219  1.00  0.00     0.037 A 
ATOM     58  C   UNL A   1      39.223  32.812  30.814  1.00  0.00     0.049 A 
ATOM     59  C   UNL A   1      44.302  30.758  29.343  1.00  0.00     0.074 A 
ATOM     60  C   UNL A   1      39.895  32.585  32.004  1.00  0.00     0.029 A 
ATOM     61  N   UNL A   1      40.165  33.290  29.910  1.00  0.00    -0.354 N 
ATOM     62  N   UNL A   1      43.241  31.449  29.647  1.00  0.00    -0.248 NA
ATOM     63  C   UNL A   1      45.465  31.590  29.055  1.00  0.00     0.031 C 
ATOM     64  C   UNL A   1      41.261  32.881  31.798  1.00  0.00     0.029 A 
ATOM     65  C   UNL A   1      41.419  33.307  30.491  1.00  0.00     0.049 A 
ATOM     66  H   UNL A   1      39.967  33.576  28.989  1.00  0.00     0.167 HD
ATOM     67  C   UNL A   1      43.542  32.782  29.562  1.00  0.00     0.074 A 
ATOM     68  C   UNL A   1      44.947  32.819  29.206  1.00  0.00     0.031 C 
ATOM     69  C   UNL A   1      42.595  33.744  29.756  1.00  0.00     0.037 A 
BRANCH  56  70
ATOM     70  C   UNL A   1      36.610  32.928  30.915  1.00  0.00     0.064 A 
ATOM     71  C   UNL A   1      35.820  33.839  30.178  1.00  0.00     0.173 A 
ATOM     72  C   UNL A   1      36.119  32.635  32.200  1.00  0.00     0.173 A 
ATOM     73  F   UNL A   1      36.084  34.120  28.897  1.00  0.00    -0.203 F 
ATOM     74  C   UNL A   1      34.722  34.503  30.732  1.00  0.00     0.198 A 
ATOM     75  C   UNL A   1      35.054  33.339  32.775  1.00  0.00     0.198 A 
ATOM     76  F   UNL A   1      36.617  31.621  32.918  1.00  0.00    -0.203 F 
ATOM     77  F   UNL A   1      34.022  35.368  29.984  1.00  0.00    -0.200 F 
ATOM     78  C   UNL A   1      34.364  34.286  32.045  1.00  0.00     0.200 A 
ATOM     79  F   UNL A   1      34.701  33.090  34.045  1.00  0.00    -0.200 F 
ATOM     80  F   UNL A   1      33.347  34.961  32.595  1.00  0.00    -0.200 F 
ENDBRANCH  56  70
BRANCH  57  81
ATOM     81  C   UNL A   1      44.642  28.573  27.941  1.00  0.00     0.064 A 
ATOM     82  C   UNL A   1      45.576  27.527  27.943  1.00  0.00     0.173 A 
ATOM     83  C   UNL A   1      43.817  28.703  26.816  1.00  0.00     0.173 A 
ATOM     84  F   UNL A   1      46.403  27.380  28.987  1.00  0.00    -0.203 F 
ATOM     85  C   UNL A   1      45.597  26.574  26.925  1.00  0.00     0.198 A 
ATOM     86  C   UNL A   1      43.850  27.759  25.790  1.00  0.00     0.198 A 
ATOM     87  F   UNL A   1      42.886  29.666  26.768  1.00  0.00    -0.203 F 
ATOM     88  F   UNL A   1      46.413  25.515  27.018  1.00  0.00    -0.200 F 
ATOM     89  C   UNL A   1      44.713  26.677  25.863  1.00  0.00     0.200 A 
ATOM     90  F   UNL A   1      42.965  27.838  24.787  1.00  0.00    -0.200 F 
ATOM     91  F   UNL A   1      44.655  25.708  24.939  1.00  0.00    -0.200 F 
ENDBRANCH  57  81
BRANCH  69  92
ATOM     92  C   UNL A   1      42.742  35.191  29.365  1.00  0.00     0.064 A 
ATOM     93  C   UNL A   1      42.086  35.764  28.262  1.00  0.00     0.173 A 
ATOM     94  C   UNL A   1      43.442  36.095  30.198  1.00  0.00     0.173 A 
ATOM     95  F   UNL A   1      41.285  35.037  27.472  1.00  0.00    -0.203 F 
ATOM     96  C   UNL A   1      42.183  37.126  27.971  1.00  0.00     0.198 A 
ATOM     97  C   UNL A   1      43.489  37.463  29.935  1.00  0.00     0.198 A 
ATOM     98  F   UNL A   1      44.073  35.679  31.306  1.00  0.00    -0.203 F 
ATOM     99  F   UNL A   1      41.574  37.615  26.881  1.00  0.00    -0.200 F 
ATOM    100  C   UNL A   1      42.875  37.976  28.812  1.00  0.00     0.200 A 
ATOM    101  F   UNL A   1      44.113  38.284  30.792  1.00  0.00    -0.200 F 
ATOM    102  F   UNL A   1      42.927  39.289  28.552  1.00  0.00    -0.200 F 
ENDBRANCH  69  92
ENDBRANCH  43  44
ENDBRANCH  35  38
ENDBRANCH  33  34
ENDBRANCH  32  33
ENDBRANCH  31  32
ENDBRANCH   1  31
TORSDOF 17
ENDMDL
MODEL 2
REMARK VINA RESULT:     -13.6      1.270      2.262
REMARK SMILES Cc1ccccc1OCC(=O)N[C@@H](Cc1c[nH]c2ccccc12)C(=O)NCCCCNC(=O)c1ccc(-c2c3nc(c(-c4c(F)c(F)c(F)c(F)c4F)c4ccc([nH]4)c(-c4c(F)c(F)c(F)c(F)c4F)c4nc(c(-c5c(F)c(F)c(F)c(F)c5F)c5ccc2[nH]5)C=C4)C=C3)cc1
REMARK SMILES IDX 27 1 26 2 24 3 25 4 13 6 12 7 10 8 11 9 9 11 8 12 7 13 1 14
REMARK SMILES IDX 2 15 3 16 4 17 6 18 5 19 14 20 15 21 16 22 23 23 17 24 18 25
REMARK SMILES IDX 22 26 19 28 21 29 20 30 28 31 29 32 30 33 31 34 32 35 33 37
REMARK SMILES IDX 34 38 35 39 96 40 36 41 95 42 37 43 38 44 39 45 89 46 40 47
REMARK SMILES IDX 94 48 88 49 90 50 41 51 93 52 87 53 86 54 42 56 74 57 54 58
REMARK SMILES IDX 73 59 55 60 58 61 72 62 91 63 56 64 57 65 71 67 92 68 59 69
REMARK SMILES IDX 43 70 44 71 52 72 45 73 46 74 50 75 53 76 47 77 48 78 51 79
REMARK SMILES IDX 49 80 75 81 76 82 84 83 77 84 78 85 82 86 85 87 79 88 80 89
REMARK SMILES IDX 83 90 81 91 60 92 61 93 69 94 62 95 63 96 67 97 70 98 64 99
REMARK SMILES IDX 65 100 68 101 66 102
REMARK H PARENT 26 5 12 10 17 27 31 36 90 55 58 66
REMARK Flexibility Score: inf
ROOT
ATOM      1  C   UNL A   1      36.493  21.887  25.063  1.00  0.00     0.116 C 
ENDROOT
BRANCH   1   2
ATOM      2  N   UNL A   1      35.872  21.977  26.375  1.00  0.00    -0.354 N 
ATOM      3  C   UNL A   1      34.574  22.214  26.742  1.00  0.00     0.242 C 
ATOM      4  O   UNL A   1      34.236  21.802  27.859  1.00  0.00    -0.273 OA
ATOM      5  H   UNL A   1      36.491  21.845  27.130  1.00  0.00     0.163 HD
BRANCH   3   6
ATOM      6  C   UNL A   1      33.516  22.879  25.818  1.00  0.00     0.175 C 
BRANCH   6   7
ATOM      7  N   UNL A   1      32.613  21.880  25.246  1.00  0.00    -0.341 N 
ATOM      8  C   UNL A   1      32.296  21.750  23.928  1.00  0.00     0.258 C 
ATOM      9  O   UNL A   1      32.140  20.618  23.467  1.00  0.00    -0.271 OA
ATOM     10  H   UNL A   1      32.196  21.245  25.872  1.00  0.00     0.164 HD
BRANCH   8  11
ATOM     11  C   UNL A   1      32.130  23.005  23.068  1.00  0.00     0.329 C 
BRANCH  11  12
ATOM     12  O   UNL A   1      30.888  23.682  23.099  1.00  0.00    -0.484 OA
BRANCH  12  13
ATOM     13  C   UNL A   1      30.797  25.043  23.025  1.00  0.00     0.122 A 
ATOM     14  C   UNL A   1      32.572  25.635  21.224  1.00  0.00     0.048 C 
ATOM     15  C   UNL A   1      31.495  25.957  22.220  1.00  0.00    -0.009 A 
ATOM     16  C   UNL A   1      31.172  27.330  22.324  1.00  0.00     0.007 A 
ATOM     17  C   UNL A   1      30.235  27.800  23.241  1.00  0.00     0.001 A 
ATOM     18  C   UNL A   1      29.871  25.540  23.963  1.00  0.00     0.047 A 
ATOM     19  C   UNL A   1      29.589  26.902  24.073  1.00  0.00     0.004 A 
ENDBRANCH  12  13
ENDBRANCH  11  12
ENDBRANCH   8  11
ENDBRANCH   6   7
BRANCH   6  20
ATOM     20  C   UNL A   1      32.831  24.109  26.444  1.00  0.00     0.072 C 
BRANCH  20  21
ATOM     21  C   UNL A   1      33.134  25.413  25.782  1.00  0.00    -0.020 A 
ATOM     22  C   UNL A   1      34.009  25.615  24.732  1.00  0.00     0.087 A 
ATOM     23  C   UNL A   1      32.618  26.696  26.148  1.00  0.00     0.003 A 
ATOM     24  N   UNL A   1      34.115  26.963  24.515  1.00  0.00    -0.361 N 
ATOM     25  C   UNL A   1      33.330  27.646  25.415  1.00  0.00     0.046 A 
ATOM     26  C   UNL A   1      31.673  27.140  27.097  1.00  0.00     0.010 A 
ATOM     27  H   UNL A   1      34.672  27.382  23.818  1.00  0.00     0.166 HD
ATOM     28  C   UNL A   1      33.199  29.019  25.649  1.00  0.00     0.026 A 
ATOM     29  C   UNL A   1      31.495  28.512  27.300  1.00  0.00     0.001 A 
ATOM     30  C   UNL A   1      32.263  29.436  26.598  1.00  0.00     0.002 A 
ENDBRANCH  20  21
ENDBRANCH   6  20
ENDBRANCH   3   6
ENDBRANCH   1   2
BRANCH   1  31
ATOM     31  C   UNL A   1      37.580  20.821  24.933  1.00  0.00     0.023 C 
BRANCH  31  32
ATOM     32  C   UNL A   1      38.837  21.052  25.771  1.00  0.00     0.023 C 
BRANCH  32  33
ATOM     33  C   UNL A   1      39.196  22.514  26.019  1.00  0.00     0.116 C 
BRANCH  33  34
ATOM     34  N   UNL A   1      40.561  22.769  26.446  1.00  0.00    -0.352 N 
ATOM     35  C   UNL A   1      41.184  23.959  26.795  1.00  0.00     0.251 C 
ATOM     36  H   UNL A   1      41.134  21.971  26.497  1.00  0.00     0.163 HD
ATOM     37  O   UNL A   1      42.387  23.959  27.005  1.00  0.00    -0.269 OA
BRANCH  35  38
ATOM     38  C   UNL A   1      40.398  25.200  27.070  1.00  0.00     0.039 A 
ATOM     39  C   UNL A   1      40.691  26.346  26.310  1.00  0.00     0.014 A 
ATOM     40  C   UNL A   1      39.541  25.318  28.158  1.00  0.00     0.014 A 
ATOM     41  C   UNL A   1      40.357  27.610  26.796  1.00  0.00     0.010 A 
ATOM     42  C   UNL A   1      39.317  26.561  28.708  1.00  0.00     0.010 A 
ATOM     43  C   UNL A   1      39.799  27.701  28.068  1.00  0.00    -0.014 A 
BRANCH  43  44
ATOM     44  C   UNL A   1      39.847  28.898  28.899  1.00  0.00     0.031 A 
ATOM     45  C   UNL A   1      38.801  29.934  28.803  1.00  0.00     0.074 A 
ATOM     46  C   UNL A   1      40.782  28.942  29.877  1.00  0.00     0.049 A 
ATOM     47  N   UNL A   1      38.947  31.154  29.199  1.00  0.00    -0.248 NA
ATOM     48  C   UNL A   1      37.499  29.675  28.200  1.00  0.00     0.031 C 
ATOM     49  C   UNL A   1      40.819  29.822  31.039  1.00  0.00     0.029 A 
ATOM     50  N   UNL A   1      42.033  28.307  29.893  1.00  0.00    -0.354 N 
ATOM     51  C   UNL A   1      37.711  31.763  29.146  1.00  0.00     0.074 A 
ATOM     52  C   UNL A   1      36.856  30.816  28.466  1.00  0.00     0.031 C 
ATOM     53  C   UNL A   1      42.089  29.900  31.474  1.00  0.00     0.029 A 
ATOM     54  C   UNL A   1      42.917  29.216  30.491  1.00  0.00     0.049 A 
ATOM     55  H   UNL A   1      42.247  27.407  29.555  1.00  0.00     0.167 HD
ATOM     56  C   UNL A   1      37.513  32.945  29.801  1.00  0.00     0.037 A 
ATOM     57  C   UNL A   1      43.994  29.771  29.864  1.00  0.00     0.037 A 
ATOM     58  C   UNL A   1      38.742  33.398  30.443  1.00  0.00     0.049 A 
ATOM     59  C   UNL A   1      43.976  31.279  29.901  1.00  0.00     0.074 A 
ATOM     60  C   UNL A   1      39.219  33.241  31.734  1.00  0.00     0.029 A 
ATOM     61  N   UNL A   1      39.816  33.827  29.671  1.00  0.00    -0.354 N 
ATOM     62  N   UNL A   1      42.885  31.983  29.996  1.00  0.00    -0.248 NA
ATOM     63  C   UNL A   1      45.175  32.097  29.751  1.00  0.00     0.031 C 
ATOM     64  C   UNL A   1      40.602  33.529  31.727  1.00  0.00     0.029 A 
ATOM     65  C   UNL A   1      40.965  33.881  30.439  1.00  0.00     0.049 A 
ATOM     66  H   UNL A   1      39.767  34.060  28.716  1.00  0.00     0.167 HD
ATOM     67  C   UNL A   1      43.203  33.310  29.883  1.00  0.00     0.074 A 
ATOM     68  C   UNL A   1      44.646  33.331  29.750  1.00  0.00     0.031 C 
ATOM     69  C   UNL A   1      42.244  34.279  29.873  1.00  0.00     0.037 A 
BRANCH  56  70
ATOM     70  C   UNL A   1      36.146  33.512  30.128  1.00  0.00     0.064 A 
ATOM     71  C   UNL A   1      35.337  34.081  29.118  1.00  0.00     0.173 A 
ATOM     72  C   UNL A   1      35.600  33.581  31.422  1.00  0.00     0.173 A 
ATOM     73  F   UNL A   1      35.658  33.981  27.823  1.00  0.00    -0.203 F 
ATOM     74  C   UNL A   1      34.160  34.780  29.401  1.00  0.00     0.198 A 
ATOM     75  C   UNL A   1      34.451  34.327  31.714  1.00  0.00     0.198 A 
ATOM     76  F   UNL A   1      36.128  32.882  32.435  1.00  0.00    -0.203 F 
ATOM     77  F   UNL A   1      33.444  35.309  28.398  1.00  0.00    -0.200 F 
ATOM     78  C   UNL A   1      33.739  34.941  30.703  1.00  0.00     0.200 A 
ATOM     79  F   UNL A   1      34.040  34.445  32.985  1.00  0.00    -0.200 F 
ATOM     80  F   UNL A   1      32.641  35.656  30.981  1.00  0.00    -0.200 F 
ENDBRANCH  56  70
BRANCH  57  81
ATOM     81  C   UNL A   1      44.518  29.019  28.694  1.00  0.00     0.064 A 
ATOM     82  C   UNL A   1      45.445  27.988  28.900  1.00  0.00     0.173 A 
ATOM     83  C   UNL A   1      43.870  29.071  27.453  1.00  0.00     0.173 A 
ATOM     84  F   UNL A   1      46.107  27.915  30.063  1.00  0.00    -0.203 F 
ATOM     85  C   UNL A   1      45.623  26.977  27.957  1.00  0.00     0.198 A 
ATOM     86  C   UNL A   1      44.061  28.068  26.503  1.00  0.00     0.198 A 
ATOM     87  F   UNL A   1      42.953  30.017  27.208  1.00  0.00    -0.203 F 
ATOM     88  F   UNL A   1      46.420  25.936  28.235  1.00  0.00    -0.200 F 
ATOM     89  C   UNL A   1      44.909  27.004  26.770  1.00  0.00     0.200 A 
ATOM     90  F   UNL A   1      43.337  28.075  25.376  1.00  0.00    -0.200 F 
ATOM     91  F   UNL A   1      44.994  25.981  25.908  1.00  0.00    -0.200 F 
ENDBRANCH  57  81
BRANCH  69  92
ATOM     92  C   UNL A   1      42.459  35.702  29.429  1.00  0.00     0.064 A 
ATOM     93  C   UNL A   1      43.241  36.625  30.144  1.00  0.00     0.173 A 
ATOM     94  C   UNL A   1      42.000  36.138  28.164  1.00  0.00     0.173 A 
ATOM     95  F   UNL A   1      43.841  36.289  31.293  1.00  0.00    -0.203 F 
ATOM     96  C   UNL A   1      43.483  37.915  29.666  1.00  0.00     0.198 A 
ATOM     97  C   UNL A   1      42.292  37.407  27.666  1.00  0.00     0.198 A 
ATOM     98  F   UNL A   1      41.281  35.335  27.366  1.00  0.00    -0.203 F 
ATOM     99  F   UNL A   1      44.198  38.772  30.409  1.00  0.00    -0.200 F 
ATOM    100  C   UNL A   1      43.018  38.301  28.424  1.00  0.00     0.200 A 
ATOM    101  F   UNL A   1      41.886  37.748  26.434  1.00  0.00    -0.200 F 
ATOM    102  F   UNL A   1      43.291  39.524  27.951  1.00  0.00    -0.200 F 
ENDBRANCH  69  92
ENDBRANCH  43  44
ENDBRANCH  35  38
ENDBRANCH  33  34
ENDBRANCH  32  33
ENDBRANCH  31  32
ENDBRANCH   1  31
TORSDOF 17
ENDMDL
MODEL 3
REMARK VINA RESULT:     -13.4      3.373      9.206
REMARK SMILES Cc1ccccc1OCC(=O)N[C@@H](Cc1c[nH]c2ccccc12)C(=O)NCCCCNC(=O)c1ccc(-c2c3nc(c(-c4c(F)c(F)c(F)c(F)c4F)c4ccc([nH]4)c(-c4c(F)c(F)c(F)c(F)c4F)c4nc(c(-c5c(F)c(F)c(F)c(F)c5F)c5ccc2[nH]5)C=C4)C=C3)cc1
REMARK SMILES IDX 27 1 26 2 24 3 25 4 13 6 12 7 10 8 11 9 9 11 8 12 7 13 1 14
REMARK SMILES IDX 2 15 3 16 4 17 6 18 5 19 14 20 15 21 16 22 23 23 17 24 18 25
REMARK SMILES IDX 22 26 19 28 21 29 20 30 28 31 29 32 30 33 31 34 32 35 33 37
REMARK SMILES IDX 34 38 35 39 96 40 36 41 95 42 37 43 38 44 39 45 89 46 40 47
REMARK SMILES IDX 94 48 88 49 90 50 41 51 93 52 87 53 86 54 42 56 74 57 54 58
REMARK SMILES IDX 73 59 55 60 58 61 72 62 91 63 56 64 57 65 71 67 92 68 59 69
REMARK SMILES IDX 43 70 44 71 52 72 45 73 46 74 50 75 53 76 47 77 48 78 51 79
REMARK SMILES IDX 49 80 75 81 76 82 84 83 77 84 78 85 82 86 85 87 79 88 80 89
REMARK SMILES IDX 83 90 81 91 60 92 61 93 69 94 62 95 63 96 67 97 70 98 64 99
REMARK SMILES IDX 65 100 68 101 66 102
REMARK H PARENT 26 5 12 10 17 27 31 36 90 55 58 66
REMARK Flexibility Score: inf
ROOT
ATOM      1  C   UNL A   1      32.209  29.826  25.536  1.00  0.00     0.116 C 
ENDROOT
BRANCH   1   2
ATOM      2  N   UNL A   1      33.284  29.621  24.578  1.00  0.00    -0.354 N 
ATOM      3  C   UNL A   1      33.472  28.649  23.632  1.00  0.00     0.242 C 
ATOM      4  O   UNL A   1      34.204  28.946  22.680  1.00  0.00    -0.273 OA
ATOM      5  H   UNL A   1      34.001  30.296  24.617  1.00  0.00     0.163 HD
BRANCH   3   6
ATOM      6  C   UNL A   1      32.764  27.266  23.653  1.00  0.00     0.175 C 
BRANCH   6   7
ATOM      7  N   UNL A   1      31.478  27.321  22.958  1.00  0.00    -0.341 N 
ATOM      8  C   UNL A   1      30.287  26.871  23.442  1.00  0.00     0.258 C 
ATOM      9  O   UNL A   1      29.264  27.505  23.176  1.00  0.00    -0.271 OA
ATOM     10  H   UNL A   1      31.474  27.718  22.057  1.00  0.00     0.164 HD
BRANCH   8  11
ATOM     11  C   UNL A   1      30.253  25.593  24.284  1.00  0.00     0.329 C 
BRANCH  11  12
ATOM     12  O   UNL A   1      30.226  24.347  23.614  1.00  0.00    -0.484 OA
BRANCH  12  13
ATOM     13  C   UNL A   1      30.996  23.290  24.008  1.00  0.00     0.122 A 
ATOM     14  C   UNL A   1      30.574  23.202  26.570  1.00  0.00     0.048 C 
ATOM     15  C   UNL A   1      31.185  22.730  25.281  1.00  0.00    -0.009 A 
ATOM     16  C   UNL A   1      32.025  21.598  25.401  1.00  0.00     0.007 A 
ATOM     17  C   UNL A   1      32.712  21.070  24.310  1.00  0.00     0.001 A 
ATOM     18  C   UNL A   1      31.718  22.758  22.922  1.00  0.00     0.047 A 
ATOM     19  C   UNL A   1      32.567  21.660  23.067  1.00  0.00     0.004 A 
ENDBRANCH  12  13
ENDBRANCH  11  12
ENDBRANCH   8  11
ENDBRANCH   6   7
BRANCH   6  20
ATOM     20  C   UNL A   1      33.681  26.094  23.255  1.00  0.00     0.072 C 
BRANCH  20  21
ATOM     21  C   UNL A   1      34.060  25.173  24.368  1.00  0.00    -0.020 A 
ATOM     22  C   UNL A   1      33.638  25.260  25.682  1.00  0.00     0.087 A 
ATOM     23  C   UNL A   1      34.971  24.073  24.294  1.00  0.00     0.003 A 
ATOM     24  N   UNL A   1      34.322  24.327  26.415  1.00  0.00    -0.361 N 
ATOM     25  C   UNL A   1      35.194  23.639  25.602  1.00  0.00     0.046 A 
ATOM     26  C   UNL A   1      35.690  23.463  23.245  1.00  0.00     0.010 A 
ATOM     27  H   UNL A   1      34.208  24.171  27.381  1.00  0.00     0.166 HD
ATOM     28  C   UNL A   1      36.165  22.682  25.914  1.00  0.00     0.026 A 
ATOM     29  C   UNL A   1      36.625  22.465  23.542  1.00  0.00     0.001 A 
ATOM     30  C   UNL A   1      36.871  22.097  24.860  1.00  0.00     0.002 A 
ENDBRANCH  20  21
ENDBRANCH   6  20
ENDBRANCH   3   6
ENDBRANCH   1   2
BRANCH   1  31
ATOM     31  C   UNL A   1      32.498  29.325  26.951  1.00  0.00     0.023 C 
BRANCH  31  32
ATOM     32  C   UNL A   1      33.958  28.983  27.246  1.00  0.00     0.023 C 
BRANCH  32  33
ATOM     33  C   UNL A   1      34.848  30.170  27.598  1.00  0.00     0.116 C 
BRANCH  33  34
ATOM     34  N   UNL A   1      34.161  31.423  27.861  1.00  0.00    -0.352 N 
ATOM     35  C   UNL A   1      34.468  32.444  28.749  1.00  0.00     0.251 C 
ATOM     36  H   UNL A   1      33.350  31.571  27.323  1.00  0.00     0.163 HD
ATOM     37  O   UNL A   1      33.673  33.361  28.896  1.00  0.00    -0.269 OA
BRANCH  35  38
ATOM     38  C   UNL A   1      35.806  32.530  29.409  1.00  0.00     0.039 A 
ATOM     39  C   UNL A   1      36.844  33.170  28.709  1.00  0.00     0.014 A 
ATOM     40  C   UNL A   1      36.108  31.846  30.581  1.00  0.00     0.014 A 
ATOM     41  C   UNL A   1      38.173  32.893  29.028  1.00  0.00     0.010 A 
ATOM     42  C   UNL A   1      37.410  31.468  30.823  1.00  0.00     0.010 A 
ATOM     43  C   UNL A   1      38.433  31.926  29.995  1.00  0.00    -0.014 A 
BRANCH  43  44
ATOM     44  C   UNL A   1      39.683  31.184  30.095  1.00  0.00     0.031 A 
ATOM     45  C   UNL A   1      39.850  29.879  29.425  1.00  0.00     0.074 A 
ATOM     46  C   UNL A   1      40.737  31.809  30.671  1.00  0.00     0.049 A 
ATOM     47  N   UNL A   1      40.740  29.003  29.751  1.00  0.00    -0.248 NA
ATOM     48  C   UNL A   1      38.976  29.440  28.344  1.00  0.00     0.031 C 
ATOM     49  C   UNL A   1      42.147  31.451  30.580  1.00  0.00     0.029 A 
ATOM     50  N   UNL A   1      40.704  32.809  31.654  1.00  0.00    -0.354 N 
ATOM     51  C   UNL A   1      40.731  28.018  28.786  1.00  0.00     0.074 A 
ATOM     52  C   UNL A   1      39.579  28.310  27.964  1.00  0.00     0.031 C 
ATOM     53  C   UNL A   1      42.790  31.980  31.636  1.00  0.00     0.029 A 
ATOM     54  C   UNL A   1      41.772  32.533  32.519  1.00  0.00     0.049 A 
ATOM     55  H   UNL A   1      40.062  33.553  31.723  1.00  0.00     0.167 HD
ATOM     56  C   UNL A   1      41.776  27.142  28.708  1.00  0.00     0.037 A 
ATOM     57  C   UNL A   1      41.635  32.216  33.839  1.00  0.00     0.037 A 
ATOM     58  C   UNL A   1      42.753  27.399  29.761  1.00  0.00     0.049 A 
ATOM     59  C   UNL A   1      42.297  30.907  34.195  1.00  0.00     0.074 A 
ATOM     60  C   UNL A   1      43.920  28.145  29.771  1.00  0.00     0.029 A 
ATOM     61  N   UNL A   1      42.434  27.141  31.089  1.00  0.00    -0.354 N 
ATOM     62  N   UNL A   1      42.486  29.941  33.343  1.00  0.00    -0.248 NA
ATOM     63  C   UNL A   1      42.716  30.567  35.550  1.00  0.00     0.031 C 
ATOM     64  C   UNL A   1      44.278  28.380  31.118  1.00  0.00     0.029 A 
ATOM     65  C   UNL A   1      43.341  27.762  31.928  1.00  0.00     0.049 A 
ATOM     66  H   UNL A   1      41.671  26.595  31.390  1.00  0.00     0.167 HD
ATOM     67  C   UNL A   1      42.998  28.859  34.006  1.00  0.00     0.074 A 
ATOM     68  C   UNL A   1      43.141  29.304  35.379  1.00  0.00     0.031 C 
ATOM     69  C   UNL A   1      43.228  27.673  33.374  1.00  0.00     0.037 A 
BRANCH  56  70
ATOM     70  C   UNL A   1      42.066  26.277  27.498  1.00  0.00     0.064 A 
ATOM     71  C   UNL A   1      41.422  25.030  27.327  1.00  0.00     0.173 A 
ATOM     72  C   UNL A   1      43.010  26.588  26.503  1.00  0.00     0.173 A 
ATOM     73  F   UNL A   1      40.411  24.649  28.117  1.00  0.00    -0.203 F 
ATOM     74  C   UNL A   1      41.794  24.121  26.333  1.00  0.00     0.198 A 
ATOM     75  C   UNL A   1      43.422  25.658  25.541  1.00  0.00     0.198 A 
ATOM     76  F   UNL A   1      43.522  27.821  26.394  1.00  0.00    -0.203 F 
ATOM     77  F   UNL A   1      41.153  22.947  26.232  1.00  0.00    -0.200 F 
ATOM     78  C   UNL A   1      42.824  24.416  25.466  1.00  0.00     0.200 A 
ATOM     79  F   UNL A   1      44.405  25.976  24.686  1.00  0.00    -0.200 F 
ATOM     80  F   UNL A   1      43.218  23.524  24.548  1.00  0.00    -0.200 F 
ENDBRANCH  56  70
BRANCH  57  81
ATOM     81  C   UNL A   1      40.369  32.657  34.480  1.00  0.00     0.064 A 
ATOM     82  C   UNL A   1      40.307  33.924  35.076  1.00  0.00     0.173 A 
ATOM     83  C   UNL A   1      39.158  32.005  34.211  1.00  0.00     0.173 A 
ATOM     84  F   UNL A   1      41.441  34.572  35.374  1.00  0.00    -0.203 F 
ATOM     85  C   UNL A   1      39.088  34.569  35.277  1.00  0.00     0.198 A 
ATOM     86  C   UNL A   1      37.938  32.645  34.428  1.00  0.00     0.198 A 
ATOM     87  F   UNL A   1      39.153  30.804  33.617  1.00  0.00    -0.203 F 
ATOM     88  F   UNL A   1      39.065  35.830  35.729  1.00  0.00    -0.200 F 
ATOM     89  C   UNL A   1      37.904  33.938  34.926  1.00  0.00     0.200 A 
ATOM     90  F   UNL A   1      36.800  32.049  34.048  1.00  0.00    -0.200 F 
ATOM     91  F   UNL A   1      36.739  34.593  35.015  1.00  0.00    -0.200 F 
ENDBRANCH  57  81
BRANCH  69  92
ATOM     92  C   UNL A   1      43.467  26.358  34.068  1.00  0.00     0.064 A 
ATOM     93  C   UNL A   1      42.466  25.659  34.766  1.00  0.00     0.173 A 
ATOM     94  C   UNL A   1      44.696  25.675  33.914  1.00  0.00     0.173 A 
ATOM     95  F   UNL A   1      41.221  26.142  34.867  1.00  0.00    -0.203 F 
ATOM     96  C   UNL A   1      42.700  24.405  35.334  1.00  0.00     0.198 A 
ATOM     97  C   UNL A   1      44.906  24.398  34.433  1.00  0.00     0.198 A 
ATOM     98  F   UNL A   1      45.715  26.215  33.230  1.00  0.00    -0.203 F 
ATOM     99  F   UNL A   1      41.725  23.802  36.029  1.00  0.00    -0.200 F 
ATOM    100  C   UNL A   1      43.914  23.771  35.159  1.00  0.00     0.200 A 
ATOM    101  F   UNL A   1      46.068  23.770  34.205  1.00  0.00    -0.200 F 
ATOM    102  F   UNL A   1      44.118  22.549  35.667  1.00  0.00    -0.200 F 
ENDBRANCH  69  92
ENDBRANCH  43  44
ENDBRANCH  35  38
ENDBRANCH  33  34
ENDBRANCH  32  33
ENDBRANCH  31  32
ENDBRANCH   1  31
TORSDOF 17
ENDMDL
