MODEL 1
REMARK VINA RESULT:     -13.2      0.000      0.000
REMARK SMILES O=C(NCCCCNC(=O)c1ccc(-c2c3nc(c(-c4c(F)c(F)c(F)c(F)c4F)c4ccc([nH]4)c(-c4c(F)c(F)c(F)c(F)c4F)c4nc(c(-c5c(F)c(F)c(F)c(F)c5F)c5ccc2[nH]5)C=C4)C=C3)cc1)c1ccc(NC(=O)c2c(F)c(F)c(F)c(F)c2F)cc1
REMARK SMILES IDX 5 1 4 2 3 3 1 4 2 5 74 7 75 8 93 9 76 10 92 11 77 12 78 13
REMARK SMILES IDX 79 14 80 16 81 17 82 18 90 19 83 20 84 21 88 22 91 23 85 24
REMARK SMILES IDX 86 25 89 26 87 27 6 28 7 29 8 30 9 31 10 33 11 34 12 35
REMARK SMILES IDX 73 36 13 37 72 38 14 39 15 40 16 41 66 42 17 43 71 44 65 45
REMARK SMILES IDX 67 46 18 47 70 48 64 49 63 50 19 52 51 53 31 54 50 55 32 56
REMARK SMILES IDX 35 57 49 58 68 59 33 60 34 61 48 63 69 64 36 65 20 66 21 67
REMARK SMILES IDX 29 68 22 69 23 70 27 71 30 72 24 73 25 74 28 75 26 76 52 77
REMARK SMILES IDX 53 78 61 79 54 80 55 81 59 82 62 83 56 84 57 85 60 86 58 87
REMARK SMILES IDX 37 88 38 89 46 90 39 91 40 92 44 93 47 94 41 95 42 96 45 97
REMARK SMILES IDX 43 98
REMARK H PARENT 3 6 78 15 8 32 67 51 35 62
REMARK Flexibility Score: inf
ROOT
ATOM      1  C   UNL A   1      33.028  29.328  24.782  1.00  0.00     0.023 C 
ENDROOT
BRANCH   1   2
ATOM      2  C   UNL A   1      31.522  29.407  24.978  1.00  0.00     0.116 C 
BRANCH   2   3
ATOM      3  N   UNL A   1      30.775  29.648  23.751  1.00  0.00    -0.352 N 
ATOM      4  O   UNL A   1      29.872  29.099  21.742  1.00  0.00    -0.269 OA
ATOM      5  C   UNL A   1      30.428  28.737  22.774  1.00  0.00     0.251 C 
ATOM      6  H   UNL A   1      30.480  30.575  23.601  1.00  0.00     0.163 HD
BRANCH   5   7
ATOM      7  C   UNL A   1      30.767  27.312  22.974  1.00  0.00     0.039 A 
ATOM      8  C   UNL A   1      31.828  26.751  22.271  1.00  0.00     0.016 A 
ATOM      9  C   UNL A   1      29.977  26.506  23.791  1.00  0.00     0.016 A 
ATOM     10  C   UNL A   1      31.991  25.369  22.248  1.00  0.00     0.027 A 
ATOM     11  C   UNL A   1      30.206  25.122  23.827  1.00  0.00     0.027 A 
ATOM     12  C   UNL A   1      31.204  24.532  23.034  1.00  0.00     0.041 A 
BRANCH  12  13
ATOM     13  N   UNL A   1      31.322  23.127  23.087  1.00  0.00    -0.322 N 
ATOM     14  C   UNL A   1      32.258  22.266  23.618  1.00  0.00     0.261 C 
ATOM     15  H   UNL A   1      30.574  22.661  22.648  1.00  0.00     0.170 HD
ATOM     16  O   UNL A   1      32.140  21.051  23.474  1.00  0.00    -0.269 OA
BRANCH  14  17
ATOM     17  C   UNL A   1      33.418  22.739  24.363  1.00  0.00     0.117 A 
ATOM     18  C   UNL A   1      33.372  22.750  25.757  1.00  0.00     0.177 A 
ATOM     19  C   UNL A   1      34.581  23.122  23.698  1.00  0.00     0.177 A 
ATOM     20  F   UNL A   1      32.261  22.385  26.410  1.00  0.00    -0.203 F 
ATOM     21  C   UNL A   1      34.515  23.071  26.481  1.00  0.00     0.198 A 
ATOM     22  C   UNL A   1      35.726  23.418  24.429  1.00  0.00     0.198 A 
ATOM     23  F   UNL A   1      34.639  23.097  22.360  1.00  0.00    -0.203 F 
ATOM     24  F   UNL A   1      34.491  23.026  27.820  1.00  0.00    -0.200 F 
ATOM     25  C   UNL A   1      35.696  23.382  25.818  1.00  0.00     0.200 A 
ATOM     26  F   UNL A   1      36.879  23.664  23.792  1.00  0.00    -0.200 F 
ATOM     27  F   UNL A   1      36.816  23.608  26.517  1.00  0.00    -0.200 F 
ENDBRANCH  14  17
ENDBRANCH  12  13
ENDBRANCH   5   7
ENDBRANCH   2   3
ENDBRANCH   1   2
BRANCH   1  28
ATOM     28  C   UNL A   1      33.774  28.458  25.786  1.00  0.00     0.023 C 
BRANCH  28  29
ATOM     29  C   UNL A   1      33.473  28.741  27.255  1.00  0.00     0.116 C 
BRANCH  29  30
ATOM     30  N   UNL A   1      33.636  30.142  27.625  1.00  0.00    -0.352 N 
ATOM     31  C   UNL A   1      34.728  30.797  28.147  1.00  0.00     0.251 C 
ATOM     32  H   UNL A   1      32.843  30.706  27.478  1.00  0.00     0.163 HD
ATOM     33  O   UNL A   1      34.639  31.970  28.491  1.00  0.00    -0.269 OA
BRANCH  31  34
ATOM     34  C   UNL A   1      35.996  30.066  28.342  1.00  0.00     0.039 A 
ATOM     35  C   UNL A   1      36.944  30.076  27.316  1.00  0.00     0.014 A 
ATOM     36  C   UNL A   1      36.272  29.427  29.552  1.00  0.00     0.014 A 
ATOM     37  C   UNL A   1      38.218  29.555  27.550  1.00  0.00     0.010 A 
ATOM     38  C   UNL A   1      37.562  28.978  29.811  1.00  0.00     0.010 A 
ATOM     39  C   UNL A   1      38.554  29.063  28.822  1.00  0.00    -0.014 A 
BRANCH  39  40
ATOM     40  C   UNL A   1      39.951  28.702  29.167  1.00  0.00     0.031 A 
ATOM     41  C   UNL A   1      40.846  29.693  29.850  1.00  0.00     0.074 A 
ATOM     42  C   UNL A   1      40.447  27.520  28.753  1.00  0.00     0.049 A 
ATOM     43  N   UNL A   1      42.126  29.610  30.111  1.00  0.00    -0.248 NA
ATOM     44  C   UNL A   1      40.226  30.960  30.265  1.00  0.00     0.031 C 
ATOM     45  C   UNL A   1      39.697  26.499  28.018  1.00  0.00     0.029 A 
ATOM     46  N   UNL A   1      41.708  26.989  28.863  1.00  0.00    -0.354 N 
ATOM     47  C   UNL A   1      42.468  30.817  30.703  1.00  0.00     0.074 A 
ATOM     48  C   UNL A   1      41.272  31.633  30.721  1.00  0.00     0.031 C 
ATOM     49  C   UNL A   1      40.509  25.466  27.746  1.00  0.00     0.029 A 
ATOM     50  C   UNL A   1      41.845  25.767  28.253  1.00  0.00     0.049 A 
ATOM     51  H   UNL A   1      42.445  27.442  29.334  1.00  0.00     0.167 HD
ATOM     52  C   UNL A   1      43.667  31.201  31.201  1.00  0.00     0.037 A 
ATOM     53  C   UNL A   1      42.928  24.982  28.100  1.00  0.00     0.037 A 
ATOM     54  C   UNL A   1      44.846  30.378  31.205  1.00  0.00     0.049 A 
ATOM     55  C   UNL A   1      44.246  25.425  28.668  1.00  0.00     0.074 A 
ATOM     56  C   UNL A   1      46.081  30.639  31.776  1.00  0.00     0.029 A 
ATOM     57  N   UNL A   1      44.940  29.132  30.603  1.00  0.00    -0.354 N 
ATOM     58  N   UNL A   1      44.539  26.535  29.298  1.00  0.00    -0.248 NA
ATOM     59  C   UNL A   1      45.382  24.507  28.503  1.00  0.00     0.031 C 
ATOM     60  C   UNL A   1      46.932  29.568  31.484  1.00  0.00     0.029 A 
ATOM     61  C   UNL A   1      46.220  28.624  30.762  1.00  0.00     0.049 A 
ATOM     62  H   UNL A   1      44.205  28.675  30.133  1.00  0.00     0.167 HD
ATOM     63  C   UNL A   1      45.888  26.451  29.611  1.00  0.00     0.074 A 
ATOM     64  C   UNL A   1      46.353  25.170  29.118  1.00  0.00     0.031 C 
ATOM     65  C   UNL A   1      46.670  27.355  30.248  1.00  0.00     0.037 A 
BRANCH  52  66
ATOM     66  C   UNL A   1      43.757  32.578  31.787  1.00  0.00     0.064 A 
ATOM     67  C   UNL A   1      44.165  33.678  31.017  1.00  0.00     0.173 A 
ATOM     68  C   UNL A   1      43.418  32.806  33.129  1.00  0.00     0.173 A 
ATOM     69  F   UNL A   1      44.513  33.509  29.731  1.00  0.00    -0.203 F 
ATOM     70  C   UNL A   1      44.263  34.949  31.577  1.00  0.00     0.198 A 
ATOM     71  C   UNL A   1      43.491  34.083  33.679  1.00  0.00     0.198 A 
ATOM     72  F   UNL A   1      43.017  31.790  33.907  1.00  0.00    -0.203 F 
ATOM     73  F   UNL A   1      44.706  35.973  30.836  1.00  0.00    -0.200 F 
ATOM     74  C   UNL A   1      43.921  35.151  32.905  1.00  0.00     0.200 A 
ATOM     75  F   UNL A   1      43.153  34.280  34.961  1.00  0.00    -0.200 F 
ATOM     76  F   UNL A   1      44.018  36.374  33.444  1.00  0.00    -0.200 F 
ENDBRANCH  52  66
BRANCH  53  77
ATOM     77  C   UNL A   1      42.799  23.692  27.376  1.00  0.00     0.064 A 
ATOM     78  C   UNL A   1      43.178  23.582  26.032  1.00  0.00     0.173 A 
ATOM     79  C   UNL A   1      42.329  22.540  28.023  1.00  0.00     0.173 A 
ATOM     80  F   UNL A   1      43.616  24.663  25.370  1.00  0.00    -0.203 F 
ATOM     81  C   UNL A   1      43.087  22.367  25.359  1.00  0.00     0.198 A 
ATOM     82  C   UNL A   1      42.258  21.320  27.353  1.00  0.00     0.198 A 
ATOM     83  F   UNL A   1      41.959  22.595  29.310  1.00  0.00    -0.203 F 
ATOM     84  F   UNL A   1      43.434  22.292  24.067  1.00  0.00    -0.200 F 
ATOM     85  C   UNL A   1      42.634  21.235  26.022  1.00  0.00     0.200 A 
ATOM     86  F   UNL A   1      41.832  20.227  28.001  1.00  0.00    -0.200 F 
ATOM     87  F   UNL A   1      42.559  20.064  25.376  1.00  0.00    -0.200 F 
ENDBRANCH  53  77
BRANCH  65  88
ATOM     88  C   UNL A   1      48.112  26.994  30.444  1.00  0.00     0.064 A 
ATOM     89  C   UNL A   1      48.522  26.198  31.524  1.00  0.00     0.173 A 
ATOM     90  C   UNL A   1      49.085  27.409  29.524  1.00  0.00     0.173 A 
ATOM     91  F   UNL A   1      47.629  25.793  32.440  1.00  0.00    -0.203 F 
ATOM     92  C   UNL A   1      49.858  25.842  31.683  1.00  0.00     0.198 A 
ATOM     93  C   UNL A   1      50.417  27.032  29.674  1.00  0.00     0.198 A 
ATOM     94  F   UNL A   1      48.742  28.169  28.474  1.00  0.00    -0.203 F 
ATOM     95  F   UNL A   1      50.233  25.110  32.741  1.00  0.00    -0.200 F 
ATOM     96  C   UNL A   1      50.803  26.253  30.755  1.00  0.00     0.200 A 
ATOM     97  F   UNL A   1      51.327  27.423  28.772  1.00  0.00    -0.200 F 
ATOM     98  F   UNL A   1      52.087  25.904  30.905  1.00  0.00    -0.200 F 
ENDBRANCH  65  88
ENDBRANCH  39  40
ENDBRANCH  31  34
ENDBRANCH  29  30
ENDBRANCH  28  29
ENDBRANCH   1  28
TORSDOF 13
ENDMDL
MODEL 2
REMARK VINA RESULT:     -13.1      0.613      2.002
REMARK SMILES O=C(NCCCCNC(=O)c1ccc(-c2c3nc(c(-c4c(F)c(F)c(F)c(F)c4F)c4ccc([nH]4)c(-c4c(F)c(F)c(F)c(F)c4F)c4nc(c(-c5c(F)c(F)c(F)c(F)c5F)c5ccc2[nH]5)C=C4)C=C3)cc1)c1ccc(NC(=O)c2c(F)c(F)c(F)c(F)c2F)cc1
REMARK SMILES IDX 5 1 4 2 3 3 1 4 2 5 74 7 75 8 93 9 76 10 92 11 77 12 78 13
REMARK SMILES IDX 79 14 80 16 81 17 82 18 90 19 83 20 84 21 88 22 91 23 85 24
REMARK SMILES IDX 86 25 89 26 87 27 6 28 7 29 8 30 9 31 10 33 11 34 12 35
REMARK SMILES IDX 73 36 13 37 72 38 14 39 15 40 16 41 66 42 17 43 71 44 65 45
REMARK SMILES IDX 67 46 18 47 70 48 64 49 63 50 19 52 51 53 31 54 50 55 32 56
REMARK SMILES IDX 35 57 49 58 68 59 33 60 34 61 48 63 69 64 36 65 20 66 21 67
REMARK SMILES IDX 29 68 22 69 23 70 27 71 30 72 24 73 25 74 28 75 26 76 52 77
REMARK SMILES IDX 53 78 61 79 54 80 55 81 59 82 62 83 56 84 57 85 60 86 58 87
REMARK SMILES IDX 37 88 38 89 46 90 39 91 40 92 44 93 47 94 41 95 42 96 45 97
REMARK SMILES IDX 43 98
REMARK H PARENT 3 6 78 15 8 32 67 51 35 62
REMARK Flexibility Score: inf
ROOT
ATOM      1  C   UNL A   1      32.989  29.325  24.789  1.00  0.00     0.023 C 
ENDROOT
BRANCH   1   2
ATOM      2  C   UNL A   1      31.476  29.353  24.941  1.00  0.00     0.116 C 
BRANCH   2   3
ATOM      3  N   UNL A   1      30.757  29.602  23.699  1.00  0.00    -0.352 N 
ATOM      4  O   UNL A   1      29.903  29.065  21.666  1.00  0.00    -0.269 OA
ATOM      5  C   UNL A   1      30.436  28.697  22.708  1.00  0.00     0.251 C 
ATOM      6  H   UNL A   1      30.463  30.529  23.549  1.00  0.00     0.163 HD
BRANCH   5   7
ATOM      7  C   UNL A   1      30.774  27.272  22.905  1.00  0.00     0.039 A 
ATOM      8  C   UNL A   1      31.849  26.717  22.219  1.00  0.00     0.016 A 
ATOM      9  C   UNL A   1      29.971  26.458  23.701  1.00  0.00     0.016 A 
ATOM     10  C   UNL A   1      32.017  25.336  22.190  1.00  0.00     0.027 A 
ATOM     11  C   UNL A   1      30.202  25.075  23.732  1.00  0.00     0.027 A 
ATOM     12  C   UNL A   1      31.217  24.492  22.955  1.00  0.00     0.041 A 
BRANCH  12  13
ATOM     13  N   UNL A   1      31.337  23.087  23.001  1.00  0.00    -0.322 N 
ATOM     14  C   UNL A   1      32.266  22.224  23.541  1.00  0.00     0.261 C 
ATOM     15  H   UNL A   1      30.597  22.622  22.547  1.00  0.00     0.170 HD
ATOM     16  O   UNL A   1      32.154  21.011  23.387  1.00  0.00    -0.269 OA
BRANCH  14  17
ATOM     17  C   UNL A   1      33.413  22.696  24.308  1.00  0.00     0.117 A 
ATOM     18  C   UNL A   1      33.334  22.726  25.699  1.00  0.00     0.177 A 
ATOM     19  C   UNL A   1      34.596  23.057  23.665  1.00  0.00     0.177 A 
ATOM     20  F   UNL A   1      32.204  22.382  26.330  1.00  0.00    -0.203 F 
ATOM     21  C   UNL A   1      34.463  23.045  26.446  1.00  0.00     0.198 A 
ATOM     22  C   UNL A   1      35.727  23.350  24.420  1.00  0.00     0.198 A 
ATOM     23  F   UNL A   1      34.686  23.012  22.329  1.00  0.00    -0.203 F 
ATOM     24  F   UNL A   1      34.407  23.019  27.785  1.00  0.00    -0.200 F 
ATOM     25  C   UNL A   1      35.663  23.334  25.808  1.00  0.00     0.200 A 
ATOM     26  F   UNL A   1      36.897  23.574  23.808  1.00  0.00    -0.200 F 
ATOM     27  F   UNL A   1      36.768  23.558  26.531  1.00  0.00    -0.200 F 
ENDBRANCH  14  17
ENDBRANCH  12  13
ENDBRANCH   5   7
ENDBRANCH   2   3
ENDBRANCH   1   2
BRANCH   1  28
ATOM     28  C   UNL A   1      33.727  28.400  25.748  1.00  0.00     0.023 C 
BRANCH  28  29
ATOM     29  C   UNL A   1      33.436  28.620  27.229  1.00  0.00     0.116 C 
BRANCH  29  30
ATOM     30  N   UNL A   1      33.509  30.018  27.638  1.00  0.00    -0.352 N 
ATOM     31  C   UNL A   1      34.561  30.730  28.167  1.00  0.00     0.251 C 
ATOM     32  H   UNL A   1      32.678  30.532  27.516  1.00  0.00     0.163 HD
ATOM     33  O   UNL A   1      34.399  31.885  28.545  1.00  0.00    -0.269 OA
BRANCH  31  34
ATOM     34  C   UNL A   1      35.877  30.080  28.329  1.00  0.00     0.039 A 
ATOM     35  C   UNL A   1      36.767  30.083  27.251  1.00  0.00     0.014 A 
ATOM     36  C   UNL A   1      36.253  29.526  29.553  1.00  0.00     0.014 A 
ATOM     37  C   UNL A   1      38.079  29.645  27.440  1.00  0.00     0.010 A 
ATOM     38  C   UNL A   1      37.580  29.162  29.762  1.00  0.00     0.010 A 
ATOM     39  C   UNL A   1      38.511  29.245  28.715  1.00  0.00    -0.014 A 
BRANCH  39  40
ATOM     40  C   UNL A   1      39.942  28.979  28.999  1.00  0.00     0.031 A 
ATOM     41  C   UNL A   1      40.810  30.048  29.594  1.00  0.00     0.074 A 
ATOM     42  C   UNL A   1      40.486  27.811  28.605  1.00  0.00     0.049 A 
ATOM     43  N   UNL A   1      42.104  30.049  29.789  1.00  0.00    -0.248 NA
ATOM     44  C   UNL A   1      40.138  31.293  29.992  1.00  0.00     0.031 C 
ATOM     45  C   UNL A   1      39.761  26.719  27.952  1.00  0.00     0.029 A 
ATOM     46  N   UNL A   1      41.780  27.358  28.668  1.00  0.00    -0.354 N 
ATOM     47  C   UNL A   1      42.404  31.298  30.315  1.00  0.00     0.074 A 
ATOM     48  C   UNL A   1      41.164  32.043  30.366  1.00  0.00     0.031 C 
ATOM     49  C   UNL A   1      40.618  25.724  27.677  1.00  0.00     0.029 A 
ATOM     50  C   UNL A   1      41.958  26.121  28.100  1.00  0.00     0.049 A 
ATOM     51  H   UNL A   1      42.512  27.872  29.082  1.00  0.00     0.167 HD
ATOM     52  C   UNL A   1      43.601  31.770  30.734  1.00  0.00     0.037 A 
ATOM     53  C   UNL A   1      43.077  25.394  27.920  1.00  0.00     0.037 A 
ATOM     54  C   UNL A   1      44.827  31.017  30.707  1.00  0.00     0.049 A 
ATOM     55  C   UNL A   1      44.393  25.936  28.399  1.00  0.00     0.074 A 
ATOM     56  C   UNL A   1      46.071  31.372  31.200  1.00  0.00     0.029 A 
ATOM     57  N   UNL A   1      44.963  29.754  30.149  1.00  0.00    -0.354 N 
ATOM     58  N   UNL A   1      44.652  27.086  28.969  1.00  0.00    -0.248 NA
ATOM     59  C   UNL A   1      45.572  25.079  28.210  1.00  0.00     0.031 C 
ATOM     60  C   UNL A   1      46.969  30.340  30.905  1.00  0.00     0.029 A 
ATOM     61  C   UNL A   1      46.278  29.327  30.259  1.00  0.00     0.049 A 
ATOM     62  H   UNL A   1      44.234  29.237  29.737  1.00  0.00     0.167 HD
ATOM     63  C   UNL A   1      46.017  27.093  29.213  1.00  0.00     0.074 A 
ATOM     64  C   UNL A   1      46.532  25.821  28.746  1.00  0.00     0.031 C 
ATOM     65  C   UNL A   1      46.776  28.066  29.772  1.00  0.00     0.037 A 
BRANCH  52  66
ATOM     66  C   UNL A   1      43.639  33.173  31.260  1.00  0.00     0.064 A 
ATOM     67  C   UNL A   1      43.474  33.449  32.627  1.00  0.00     0.173 A 
ATOM     68  C   UNL A   1      43.856  34.254  30.394  1.00  0.00     0.173 A 
ATOM     69  F   UNL A   1      43.250  32.449  33.494  1.00  0.00    -0.203 F 
ATOM     70  C   UNL A   1      43.491  34.757  33.101  1.00  0.00     0.198 A 
ATOM     71  C   UNL A   1      43.900  35.560  30.876  1.00  0.00     0.198 A 
ATOM     72  F   UNL A   1      44.024  34.045  29.080  1.00  0.00    -0.203 F 
ATOM     73  F   UNL A   1      43.280  34.999  34.402  1.00  0.00    -0.200 F 
ATOM     74  C   UNL A   1      43.709  35.811  32.227  1.00  0.00     0.200 A 
ATOM     75  F   UNL A   1      44.118  36.578  30.032  1.00  0.00    -0.200 F 
ATOM     76  F   UNL A   1      43.724  37.070  32.685  1.00  0.00    -0.200 F 
ENDBRANCH  52  66
BRANCH  53  77
ATOM     77  C   UNL A   1      42.988  24.070  27.254  1.00  0.00     0.064 A 
ATOM     78  C   UNL A   1      42.575  22.936  27.964  1.00  0.00     0.173 A 
ATOM     79  C   UNL A   1      43.281  23.922  25.891  1.00  0.00     0.173 A 
ATOM     80  F   UNL A   1      42.304  23.029  29.274  1.00  0.00    -0.203 F 
ATOM     81  C   UNL A   1      42.461  21.698  27.336  1.00  0.00     0.198 A 
ATOM     82  C   UNL A   1      43.146  22.687  25.259  1.00  0.00     0.198 A 
ATOM     83  F   UNL A   1      43.675  24.980  25.169  1.00  0.00    -0.203 F 
ATOM     84  F   UNL A   1      42.086  20.623  28.041  1.00  0.00    -0.200 F 
ATOM     85  C   UNL A   1      42.740  21.577  25.982  1.00  0.00     0.200 A 
ATOM     86  F   UNL A   1      43.404  22.577  23.948  1.00  0.00    -0.200 F 
ATOM     87  F   UNL A   1      42.618  20.388  25.376  1.00  0.00    -0.200 F 
ENDBRANCH  53  77
BRANCH  65  88
ATOM     88  C   UNL A   1      48.245  27.797  29.905  1.00  0.00     0.064 A 
ATOM     89  C   UNL A   1      49.150  28.197  28.910  1.00  0.00     0.173 A 
ATOM     90  C   UNL A   1      48.758  27.174  31.052  1.00  0.00     0.173 A 
ATOM     91  F   UNL A   1      48.703  28.779  27.787  1.00  0.00    -0.203 F 
ATOM     92  C   UNL A   1      50.515  27.969  29.053  1.00  0.00     0.198 A 
ATOM     93  C   UNL A   1      50.126  26.968  31.202  1.00  0.00     0.198 A 
ATOM     94  F   UNL A   1      47.932  26.776  32.031  1.00  0.00    -0.203 F 
ATOM     95  F   UNL A   1      51.359  28.328  28.076  1.00  0.00    -0.200 F 
ATOM     96  C   UNL A   1      51.003  27.362  30.201  1.00  0.00     0.200 A 
ATOM     97  F   UNL A   1      50.597  26.390  32.314  1.00  0.00    -0.200 F 
ATOM     98  F   UNL A   1      52.319  27.151  30.342  1.00  0.00    -0.200 F 
ENDBRANCH  65  88
ENDBRANCH  39  40
ENDBRANCH  31  34
ENDBRANCH  29  30
ENDBRANCH  28  29
ENDBRANCH   1  28
TORSDOF 13
ENDMDL
MODEL 3
REMARK VINA RESULT:     -13.1      3.536      7.923
REMARK SMILES O=C(NCCCCNC(=O)c1ccc(-c2c3nc(c(-c4c(F)c(F)c(F)c(F)c4F)c4ccc([nH]4)c(-c4c(F)c(F)c(F)c(F)c4F)c4nc(c(-c5c(F)c(F)c(F)c(F)c5F)c5ccc2[nH]5)C=C4)C=C3)cc1)c1ccc(NC(=O)c2c(F)c(F)c(F)c(F)c2F)cc1
REMARK SMILES IDX 5 1 4 2 3 3 1 4 2 5 74 7 75 8 93 9 76 10 92 11 77 12 78 13
REMARK SMILES IDX 79 14 80 16 81 17 82 18 90 19 83 20 84 21 88 22 91 23 85 24
REMARK SMILES IDX 86 25 89 26 87 27 6 28 7 29 8 30 9 31 10 33 11 34 12 35
REMARK SMILES IDX 73 36 13 37 72 38 14 39 15 40 16 41 66 42 17 43 71 44 65 45
REMARK SMILES IDX 67 46 18 47 70 48 64 49 63 50 19 52 51 53 31 54 50 55 32 56
REMARK SMILES IDX 35 57 49 58 68 59 33 60 34 61 48 63 69 64 36 65 20 66 21 67
REMARK SMILES IDX 29 68 22 69 23 70 27 71 30 72 24 73 25 74 28 75 26 76 52 77
REMARK SMILES IDX 53 78 61 79 54 80 55 81 59 82 62 83 56 84 57 85 60 86 58 87
REMARK SMILES IDX 37 88 38 89 46 90 39 91 40 92 44 93 47 94 41 95 42 96 45 97
REMARK SMILES IDX 43 98
REMARK H PARENT 3 6 78 15 8 32 67 51 35 62
REMARK Flexibility Score: inf
ROOT
ATOM      1  C   UNL A   1      36.905  21.717  25.046  1.00  0.00     0.023 C 
ENDROOT
BRANCH   1   2
ATOM      2  C   UNL A   1      35.583  21.446  25.747  1.00  0.00     0.116 C 
BRANCH   2   3
ATOM      3  N   UNL A   1      34.887  20.259  25.268  1.00  0.00    -0.352 N 
ATOM      4  O   UNL A   1      33.117  19.089  24.463  1.00  0.00    -0.269 OA
ATOM      5  C   UNL A   1      33.614  20.175  24.745  1.00  0.00     0.251 C 
ATOM      6  H   UNL A   1      35.388  19.414  25.323  1.00  0.00     0.163 HD
BRANCH   5   7
ATOM      7  C   UNL A   1      32.835  21.418  24.557  1.00  0.00     0.039 A 
ATOM      8  C   UNL A   1      31.965  21.843  25.555  1.00  0.00     0.016 A 
ATOM      9  C   UNL A   1      32.897  22.116  23.352  1.00  0.00     0.016 A 
ATOM     10  C   UNL A   1      31.042  22.850  25.288  1.00  0.00     0.027 A 
ATOM     11  C   UNL A   1      32.020  23.186  23.127  1.00  0.00     0.027 A 
ATOM     12  C   UNL A   1      31.061  23.553  24.086  1.00  0.00     0.041 A 
BRANCH  12  13
ATOM     13  N   UNL A   1      30.179  24.601  23.749  1.00  0.00    -0.322 N 
ATOM     14  C   UNL A   1      30.215  25.969  23.908  1.00  0.00     0.261 C 
ATOM     15  H   UNL A   1      29.359  24.286  23.303  1.00  0.00     0.170 HD
ATOM     16  O   UNL A   1      29.262  26.663  23.560  1.00  0.00    -0.269 OA
BRANCH  14  17
ATOM     17  C   UNL A   1      31.362  26.655  24.491  1.00  0.00     0.117 A 
ATOM     18  C   UNL A   1      32.400  27.070  23.658  1.00  0.00     0.177 A 
ATOM     19  C   UNL A   1      31.397  26.947  25.853  1.00  0.00     0.177 A 
ATOM     20  F   UNL A   1      32.380  26.795  22.347  1.00  0.00    -0.203 F 
ATOM     21  C   UNL A   1      33.434  27.841  24.178  1.00  0.00     0.198 A 
ATOM     22  C   UNL A   1      32.421  27.740  26.360  1.00  0.00     0.198 A 
ATOM     23  F   UNL A   1      30.394  26.569  26.657  1.00  0.00    -0.203 F 
ATOM     24  F   UNL A   1      34.404  28.290  23.369  1.00  0.00    -0.200 F 
ATOM     25  C   UNL A   1      33.432  28.195  25.522  1.00  0.00     0.200 A 
ATOM     26  F   UNL A   1      32.392  28.128  27.642  1.00  0.00    -0.200 F 
ATOM     27  F   UNL A   1      34.383  29.007  26.001  1.00  0.00    -0.200 F 
ENDBRANCH  14  17
ENDBRANCH  12  13
ENDBRANCH   5   7
ENDBRANCH   2   3
ENDBRANCH   1   2
BRANCH   1  28
ATOM     28  C   UNL A   1      37.875  20.543  25.001  1.00  0.00     0.023 C 
BRANCH  28  29
ATOM     29  C   UNL A   1      39.167  20.724  25.792  1.00  0.00     0.116 C 
BRANCH  29  30
ATOM     30  N   UNL A   1      40.005  19.531  25.822  1.00  0.00    -0.352 N 
ATOM     31  C   UNL A   1      41.354  19.405  26.060  1.00  0.00     0.251 C 
ATOM     32  H   UNL A   1      39.533  18.686  25.645  1.00  0.00     0.163 HD
ATOM     33  O   UNL A   1      41.904  18.316  25.942  1.00  0.00    -0.269 OA
BRANCH  31  34
ATOM     34  C   UNL A   1      42.152  20.599  26.407  1.00  0.00     0.039 A 
ATOM     35  C   UNL A   1      42.727  21.347  25.377  1.00  0.00     0.014 A 
ATOM     36  C   UNL A   1      42.279  21.010  27.734  1.00  0.00     0.014 A 
ATOM     37  C   UNL A   1      43.320  22.577  25.667  1.00  0.00     0.010 A 
ATOM     38  C   UNL A   1      42.802  22.268  28.014  1.00  0.00     0.010 A 
ATOM     39  C   UNL A   1      43.301  23.075  26.980  1.00  0.00    -0.014 A 
BRANCH  39  40
ATOM     40  C   UNL A   1      43.728  24.461  27.288  1.00  0.00     0.031 A 
ATOM     41  C   UNL A   1      42.734  25.472  27.777  1.00  0.00     0.074 A 
ATOM     42  C   UNL A   1      44.991  24.839  27.008  1.00  0.00     0.049 A 
ATOM     43  N   UNL A   1      42.888  26.757  27.970  1.00  0.00    -0.248 NA
ATOM     44  C   UNL A   1      41.377  24.978  28.053  1.00  0.00     0.031 C 
ATOM     45  C   UNL A   1      46.034  23.967  26.464  1.00  0.00     0.029 A 
ATOM     46  N   UNL A   1      45.605  26.062  27.114  1.00  0.00    -0.354 N 
ATOM     47  C   UNL A   1      41.646  27.228  28.373  1.00  0.00     0.074 A 
ATOM     48  C   UNL A   1      40.739  26.100  28.352  1.00  0.00     0.031 C 
ATOM     49  C   UNL A   1      47.156  24.680  26.286  1.00  0.00     0.029 A 
ATOM     50  C   UNL A   1      46.903  26.066  26.668  1.00  0.00     0.049 A 
ATOM     51  H   UNL A   1      45.157  26.861  27.476  1.00  0.00     0.167 HD
ATOM     52  C   UNL A   1      41.300  28.484  28.743  1.00  0.00     0.037 A 
ATOM     53  C   UNL A   1      47.788  27.076  26.559  1.00  0.00     0.037 A 
ATOM     54  C   UNL A   1      42.210  29.597  28.789  1.00  0.00     0.049 A 
ATOM     55  C   UNL A   1      47.384  28.458  26.982  1.00  0.00     0.074 A 
ATOM     56  C   UNL A   1      41.980  30.884  29.245  1.00  0.00     0.029 A 
ATOM     57  N   UNL A   1      43.528  29.556  28.356  1.00  0.00    -0.354 N 
ATOM     58  N   UNL A   1      46.230  28.876  27.439  1.00  0.00    -0.248 NA
ATOM     59  C   UNL A   1      48.406  29.510  26.876  1.00  0.00     0.031 C 
ATOM     60  C   UNL A   1      43.146  31.632  29.050  1.00  0.00     0.029 A 
ATOM     61  C   UNL A   1      44.114  30.803  28.506  1.00  0.00     0.049 A 
ATOM     62  H   UNL A   1      43.979  28.759  27.996  1.00  0.00     0.167 HD
ATOM     63  C   UNL A   1      46.383  30.233  27.680  1.00  0.00     0.074 A 
ATOM     64  C   UNL A   1      47.751  30.567  27.338  1.00  0.00     0.031 C 
ATOM     65  C   UNL A   1      45.471  31.122  28.142  1.00  0.00     0.037 A 
BRANCH  52  66
ATOM     66  C   UNL A   1      39.871  28.715  29.132  1.00  0.00     0.064 A 
ATOM     67  C   UNL A   1      39.431  28.534  30.452  1.00  0.00     0.173 A 
ATOM     68  C   UNL A   1      38.932  29.136  28.179  1.00  0.00     0.173 A 
ATOM     69  F   UNL A   1      40.289  28.118  31.398  1.00  0.00    -0.203 F 
ATOM     70  C   UNL A   1      38.098  28.733  30.797  1.00  0.00     0.198 A 
ATOM     71  C   UNL A   1      37.604  29.361  28.533  1.00  0.00     0.198 A 
ATOM     72  F   UNL A   1      39.302  29.328  26.905  1.00  0.00    -0.203 F 
ATOM     73  F   UNL A   1      37.691  28.503  32.053  1.00  0.00    -0.200 F 
ATOM     74  C   UNL A   1      37.187  29.151  29.839  1.00  0.00     0.200 A 
ATOM     75  F   UNL A   1      36.726  29.772  27.608  1.00  0.00    -0.200 F 
ATOM     76  F   UNL A   1      35.902  29.341  30.172  1.00  0.00    -0.200 F 
ENDBRANCH  52  66
BRANCH  53  77
ATOM     77  C   UNL A   1      49.145  26.802  26.024  1.00  0.00     0.064 A 
ATOM     78  C   UNL A   1      50.156  26.299  26.853  1.00  0.00     0.173 A 
ATOM     79  C   UNL A   1      49.447  27.005  24.670  1.00  0.00     0.173 A 
ATOM     80  F   UNL A   1      49.916  26.108  28.159  1.00  0.00    -0.203 F 
ATOM     81  C   UNL A   1      51.422  26.012  26.349  1.00  0.00     0.198 A 
ATOM     82  C   UNL A   1      50.708  26.698  24.162  1.00  0.00     0.198 A 
ATOM     83  F   UNL A   1      48.511  27.479  23.836  1.00  0.00    -0.203 F 
ATOM     84  F   UNL A   1      52.379  25.554  27.166  1.00  0.00    -0.200 F 
ATOM     85  C   UNL A   1      51.695  26.205  25.002  1.00  0.00     0.200 A 
ATOM     86  F   UNL A   1      50.963  26.873  22.858  1.00  0.00    -0.200 F 
ATOM     87  F   UNL A   1      52.909  25.917  24.515  1.00  0.00    -0.200 F 
ENDBRANCH  53  77
BRANCH  65  88
ATOM     88  C   UNL A   1      45.921  32.544  28.299  1.00  0.00     0.064 A 
ATOM     89  C   UNL A   1      45.749  33.479  27.268  1.00  0.00     0.173 A 
ATOM     90  C   UNL A   1      46.489  32.986  29.503  1.00  0.00     0.173 A 
ATOM     91  F   UNL A   1      45.228  33.098  26.092  1.00  0.00    -0.203 F 
ATOM     92  C   UNL A   1      46.143  34.803  27.432  1.00  0.00     0.198 A 
ATOM     93  C   UNL A   1      46.861  34.317  29.672  1.00  0.00     0.198 A 
ATOM     94  F   UNL A   1      46.671  32.129  30.519  1.00  0.00    -0.203 F 
ATOM     95  F   UNL A   1      46.001  35.673  26.423  1.00  0.00    -0.200 F 
ATOM     96  C   UNL A   1      46.691  35.223  28.635  1.00  0.00     0.200 A 
ATOM     97  F   UNL A   1      47.383  34.722  30.837  1.00  0.00    -0.200 F 
ATOM     98  F   UNL A   1      47.063  36.500  28.794  1.00  0.00    -0.200 F 
ENDBRANCH  65  88
ENDBRANCH  39  40
ENDBRANCH  31  34
ENDBRANCH  29  30
ENDBRANCH  28  29
ENDBRANCH   1  28
TORSDOF 13
ENDMDL
