MODEL 1
REMARK VINA RESULT:     -12.1      0.000      0.000
REMARK SMILES CC[C@@H](C)[C@H](NC(=O)Cn1ccc(C(F)(F)F)n1)C(=O)NCCCCNC(=O)c1ccc(-c2c3nc(c(-c4c(F)c(F)c(F)c(F)c4F)c4ccc([nH]4)c(-c4c(F)c(F)c(F)c(F)c4F)c4nc(c(-c5c(F)c(F)c(F)c(F)c5F)c5ccc2[nH]5)C=C4)C=C3)cc1
REMARK SMILES IDX 22 1 21 2 19 3 20 4 5 6 3 7 4 8 2 9 1 10 6 11 7 12 8 14 9 15
REMARK SMILES IDX 10 16 11 17 18 18 12 19 13 20 14 21 15 22 16 23 17 24 23 25
REMARK SMILES IDX 24 26 25 27 26 28 27 29 28 31 29 32 30 33 91 34 31 35 90 36
REMARK SMILES IDX 32 37 33 38 34 39 84 40 35 41 89 42 83 43 85 44 36 45 88 46
REMARK SMILES IDX 82 47 81 48 37 50 69 51 49 52 68 53 50 54 53 55 67 56 86 57
REMARK SMILES IDX 51 58 52 59 66 61 87 62 54 63 38 64 39 65 47 66 40 67 41 68
REMARK SMILES IDX 45 69 48 70 42 71 43 72 46 73 44 74 70 75 71 76 79 77 72 78
REMARK SMILES IDX 73 79 77 80 80 81 74 82 75 83 78 84 76 85 55 86 56 87 64 88
REMARK SMILES IDX 57 89 58 90 62 91 65 92 59 93 60 94 63 95 61 96
REMARK H PARENT 21 5 6 13 26 30 85 49 53 60
REMARK Flexibility Score: inf
ROOT
ATOM      1  C   UNL A   1      32.087  27.927  27.194  1.00  0.00     0.116 C 
ENDROOT
BRANCH   1   2
ATOM      2  N   UNL A   1      30.954  27.024  27.047  1.00  0.00    -0.354 N 
ATOM      3  C   UNL A   1      30.763  25.989  26.163  1.00  0.00     0.242 C 
ATOM      4  O   UNL A   1      29.969  25.105  26.501  1.00  0.00    -0.273 OA
ATOM      5  H   UNL A   1      30.213  27.178  27.676  1.00  0.00     0.163 HD
BRANCH   3   6
ATOM      6  C   UNL A   1      31.592  25.840  24.870  1.00  0.00     0.174 C 
BRANCH   6   7
ATOM      7  C   UNL A   1      31.646  27.224  24.081  1.00  0.00     0.018 C 
ATOM      8  C   UNL A   1      30.598  27.239  22.958  1.00  0.00     0.010 C 
BRANCH   7   9
ATOM      9  C   UNL A   1      33.062  27.552  23.547  1.00  0.00     0.002 C 
ATOM     10  C   UNL A   1      33.409  28.951  23.074  1.00  0.00     0.004 C 
ENDBRANCH   7   9
ENDBRANCH   6   7
BRANCH   6  11
ATOM     11  N   UNL A   1      31.175  24.720  24.009  1.00  0.00    -0.342 N 
ATOM     12  C   UNL A   1      31.644  23.434  23.932  1.00  0.00     0.242 C 
ATOM     13  H   UNL A   1      30.440  24.929  23.388  1.00  0.00     0.164 HD
ATOM     14  O   UNL A   1      31.462  22.873  22.843  1.00  0.00    -0.273 OA
BRANCH  12  15
ATOM     15  C   UNL A   1      32.087  22.608  25.125  1.00  0.00     0.243 C 
BRANCH  15  16
ATOM     16  N   UNL A   1      33.422  22.046  25.135  1.00  0.00    -0.263 N 
ATOM     17  C   UNL A   1      33.719  20.711  25.221  1.00  0.00     0.110 A 
ATOM     18  N   UNL A   1      34.469  22.782  24.730  1.00  0.00    -0.168 NA
ATOM     19  C   UNL A   1      35.066  20.597  25.000  1.00  0.00     0.055 A 
ATOM     20  C   UNL A   1      35.485  21.900  24.629  1.00  0.00     0.166 A 
BRANCH  20  21
ATOM     21  C   UNL A   1      36.859  22.271  24.151  1.00  0.00     0.435 C 
ATOM     22  F   UNL A   1      36.869  22.578  22.827  1.00  0.00    -0.164 F 
ATOM     23  F   UNL A   1      37.327  23.373  24.804  1.00  0.00    -0.164 F 
ATOM     24  F   UNL A   1      37.781  21.292  24.344  1.00  0.00    -0.164 F 
ENDBRANCH  20  21
ENDBRANCH  15  16
ENDBRANCH  12  15
ENDBRANCH   6  11
ENDBRANCH   3   6
ENDBRANCH   1   2
BRANCH   1  25
ATOM     25  C   UNL A   1      31.820  29.431  27.245  1.00  0.00     0.023 C 
BRANCH  25  26
ATOM     26  C   UNL A   1      32.786  30.372  26.528  1.00  0.00     0.023 C 
BRANCH  26  27
ATOM     27  C   UNL A   1      34.130  30.526  27.210  1.00  0.00     0.116 C 
BRANCH  27  28
ATOM     28  N   UNL A   1      34.111  31.547  28.258  1.00  0.00    -0.352 N 
ATOM     29  C   UNL A   1      34.973  31.708  29.328  1.00  0.00     0.251 C 
ATOM     30  H   UNL A   1      33.385  32.210  28.194  1.00  0.00     0.163 HD
ATOM     31  O   UNL A   1      34.654  32.356  30.311  1.00  0.00    -0.269 OA
BRANCH  29  32
ATOM     32  C   UNL A   1      36.305  31.091  29.238  1.00  0.00     0.039 A 
ATOM     33  C   UNL A   1      37.473  31.845  29.134  1.00  0.00     0.014 A 
ATOM     34  C   UNL A   1      36.351  29.704  29.318  1.00  0.00     0.014 A 
ATOM     35  C   UNL A   1      38.692  31.175  29.168  1.00  0.00     0.010 A 
ATOM     36  C   UNL A   1      37.528  29.087  29.612  1.00  0.00     0.010 A 
ATOM     37  C   UNL A   1      38.700  29.792  29.418  1.00  0.00    -0.014 A 
BRANCH  37  38
ATOM     38  C   UNL A   1      39.930  29.039  29.570  1.00  0.00     0.031 A 
ATOM     39  C   UNL A   1      40.316  28.824  30.981  1.00  0.00     0.074 A 
ATOM     40  C   UNL A   1      40.521  28.401  28.537  1.00  0.00     0.049 A 
ATOM     41  N   UNL A   1      41.248  29.432  31.630  1.00  0.00    -0.248 NA
ATOM     42  C   UNL A   1      39.444  27.993  31.825  1.00  0.00     0.031 C 
ATOM     43  C   UNL A   1      40.048  28.245  27.154  1.00  0.00     0.029 A 
ATOM     44  N   UNL A   1      41.663  27.667  28.540  1.00  0.00    -0.354 N 
ATOM     45  C   UNL A   1      41.238  28.881  32.906  1.00  0.00     0.074 A 
ATOM     46  C   UNL A   1      39.975  28.205  33.031  1.00  0.00     0.031 C 
ATOM     47  C   UNL A   1      40.775  27.293  26.528  1.00  0.00     0.029 A 
ATOM     48  C   UNL A   1      41.868  26.903  27.396  1.00  0.00     0.049 A 
ATOM     49  H   UNL A   1      42.296  27.675  29.293  1.00  0.00     0.167 HD
ATOM     50  C   UNL A   1      42.398  28.779  33.613  1.00  0.00     0.037 A 
ATOM     51  C   UNL A   1      42.863  26.000  27.207  1.00  0.00     0.037 A 
ATOM     52  C   UNL A   1      43.422  29.609  33.012  1.00  0.00     0.049 A 
ATOM     53  C   UNL A   1      43.928  26.321  28.194  1.00  0.00     0.074 A 
ATOM     54  C   UNL A   1      43.550  30.958  32.740  1.00  0.00     0.029 A 
ATOM     55  N   UNL A   1      44.358  28.983  32.221  1.00  0.00    -0.354 N 
ATOM     56  N   UNL A   1      44.642  27.412  28.157  1.00  0.00    -0.248 NA
ATOM     57  C   UNL A   1      43.857  25.665  29.491  1.00  0.00     0.031 C 
ATOM     58  C   UNL A   1      44.204  31.021  31.472  1.00  0.00     0.029 A 
ATOM     59  C   UNL A   1      44.515  29.720  31.078  1.00  0.00     0.049 A 
ATOM     60  H   UNL A   1      44.832  28.148  32.441  1.00  0.00     0.167 HD
ATOM     61  C   UNL A   1      44.736  27.817  29.480  1.00  0.00     0.074 A 
ATOM     62  C   UNL A   1      44.306  26.660  30.264  1.00  0.00     0.031 C 
ATOM     63  C   UNL A   1      44.860  29.141  29.799  1.00  0.00     0.037 A 
BRANCH  50  64
ATOM     64  C   UNL A   1      42.754  27.626  34.531  1.00  0.00     0.064 A 
ATOM     65  C   UNL A   1      43.105  26.392  33.939  1.00  0.00     0.173 A 
ATOM     66  C   UNL A   1      42.461  27.564  35.910  1.00  0.00     0.173 A 
ATOM     67  F   UNL A   1      43.430  26.326  32.639  1.00  0.00    -0.203 F 
ATOM     68  C   UNL A   1      43.020  25.185  34.635  1.00  0.00     0.198 A 
ATOM     69  C   UNL A   1      42.424  26.362  36.615  1.00  0.00     0.198 A 
ATOM     70  F   UNL A   1      42.098  28.632  36.626  1.00  0.00    -0.203 F 
ATOM     71  F   UNL A   1      43.209  24.030  33.984  1.00  0.00    -0.200 F 
ATOM     72  C   UNL A   1      42.660  25.169  35.968  1.00  0.00     0.200 A 
ATOM     73  F   UNL A   1      42.071  26.368  37.908  1.00  0.00    -0.200 F 
ATOM     74  F   UNL A   1      42.498  24.010  36.617  1.00  0.00    -0.200 F 
ENDBRANCH  50  64
BRANCH  51  75
ATOM     75  C   UNL A   1      42.821  24.712  26.475  1.00  0.00     0.064 A 
ATOM     76  C   UNL A   1      43.650  24.483  25.365  1.00  0.00     0.173 A 
ATOM     77  C   UNL A   1      42.188  23.581  27.025  1.00  0.00     0.173 A 
ATOM     78  F   UNL A   1      44.324  25.500  24.806  1.00  0.00    -0.203 F 
ATOM     79  C   UNL A   1      43.862  23.196  24.858  1.00  0.00     0.198 A 
ATOM     80  C   UNL A   1      42.396  22.297  26.516  1.00  0.00     0.198 A 
ATOM     81  F   UNL A   1      41.433  23.686  28.128  1.00  0.00    -0.203 F 
ATOM     82  F   UNL A   1      44.713  23.009  23.838  1.00  0.00    -0.200 F 
ATOM     83  C   UNL A   1      43.245  22.103  25.442  1.00  0.00     0.200 A 
ATOM     84  F   UNL A   1      41.823  21.243  27.115  1.00  0.00    -0.200 F 
ATOM     85  F   UNL A   1      43.500  20.862  25.001  1.00  0.00    -0.200 F 
ENDBRANCH  51  75
BRANCH  63  86
ATOM     86  C   UNL A   1      45.179  30.102  28.686  1.00  0.00     0.064 A 
ATOM     87  C   UNL A   1      44.215  30.723  27.871  1.00  0.00     0.173 A 
ATOM     88  C   UNL A   1      46.508  30.516  28.539  1.00  0.00     0.173 A 
ATOM     89  F   UNL A   1      42.913  30.454  28.014  1.00  0.00    -0.203 F 
ATOM     90  C   UNL A   1      44.577  31.681  26.925  1.00  0.00     0.198 A 
ATOM     91  C   UNL A   1      46.863  31.499  27.619  1.00  0.00     0.198 A 
ATOM     92  F   UNL A   1      47.464  29.997  29.325  1.00  0.00    -0.203 F 
ATOM     93  F   UNL A   1      43.641  32.249  26.151  1.00  0.00    -0.200 F 
ATOM     94  C   UNL A   1      45.900  32.074  26.806  1.00  0.00     0.200 A 
ATOM     95  F   UNL A   1      48.135  31.910  27.544  1.00  0.00    -0.200 F 
ATOM     96  F   UNL A   1      46.244  33.025  25.926  1.00  0.00    -0.200 F 
ENDBRANCH  63  86
ENDBRANCH  37  38
ENDBRANCH  29  32
ENDBRANCH  27  28
ENDBRANCH  26  27
ENDBRANCH  25  26
ENDBRANCH   1  25
TORSDOF 17
ENDMDL
MODEL 2
REMARK VINA RESULT:     -12.1      4.126      8.220
REMARK SMILES CC[C@@H](C)[C@H](NC(=O)Cn1ccc(C(F)(F)F)n1)C(=O)NCCCCNC(=O)c1ccc(-c2c3nc(c(-c4c(F)c(F)c(F)c(F)c4F)c4ccc([nH]4)c(-c4c(F)c(F)c(F)c(F)c4F)c4nc(c(-c5c(F)c(F)c(F)c(F)c5F)c5ccc2[nH]5)C=C4)C=C3)cc1
REMARK SMILES IDX 22 1 21 2 19 3 20 4 5 6 3 7 4 8 2 9 1 10 6 11 7 12 8 14 9 15
REMARK SMILES IDX 10 16 11 17 18 18 12 19 13 20 14 21 15 22 16 23 17 24 23 25
REMARK SMILES IDX 24 26 25 27 26 28 27 29 28 31 29 32 30 33 91 34 31 35 90 36
REMARK SMILES IDX 32 37 33 38 34 39 84 40 35 41 89 42 83 43 85 44 36 45 88 46
REMARK SMILES IDX 82 47 81 48 37 50 69 51 49 52 68 53 50 54 53 55 67 56 86 57
REMARK SMILES IDX 51 58 52 59 66 61 87 62 54 63 38 64 39 65 47 66 40 67 41 68
REMARK SMILES IDX 45 69 48 70 42 71 43 72 46 73 44 74 70 75 71 76 79 77 72 78
REMARK SMILES IDX 73 79 77 80 80 81 74 82 75 83 78 84 76 85 55 86 56 87 64 88
REMARK SMILES IDX 57 89 58 90 62 91 65 92 59 93 60 94 63 95 61 96
REMARK H PARENT 21 5 6 13 26 30 85 49 53 60
REMARK Flexibility Score: inf
ROOT
ATOM      1  C   UNL A   1      35.392  33.461  34.341  1.00  0.00     0.116 C 
ENDROOT
BRANCH   1   2
ATOM      2  N   UNL A   1      36.461  34.366  34.740  1.00  0.00    -0.354 N 
ATOM      3  C   UNL A   1      37.824  34.191  34.693  1.00  0.00     0.242 C 
ATOM      4  O   UNL A   1      38.518  35.213  34.650  1.00  0.00    -0.273 OA
ATOM      5  H   UNL A   1      36.164  35.234  35.096  1.00  0.00     0.163 HD
BRANCH   3   6
ATOM      6  C   UNL A   1      38.477  32.800  34.557  1.00  0.00     0.174 C 
BRANCH   6   7
ATOM      7  C   UNL A   1      38.574  32.378  33.023  1.00  0.00     0.018 C 
ATOM      8  C   UNL A   1      38.046  30.949  32.828  1.00  0.00     0.010 C 
BRANCH   7   9
ATOM      9  C   UNL A   1      40.002  32.544  32.447  1.00  0.00     0.002 C 
ATOM     10  C   UNL A   1      40.333  33.686  31.507  1.00  0.00     0.004 C 
ENDBRANCH   7   9
ENDBRANCH   6   7
BRANCH   6  11
ATOM     11  N   UNL A   1      37.852  31.754  35.387  1.00  0.00    -0.342 N 
ATOM     12  C   UNL A   1      38.096  31.385  36.686  1.00  0.00     0.242 C 
ATOM     13  H   UNL A   1      37.147  31.236  34.936  1.00  0.00     0.164 HD
ATOM     14  O   UNL A   1      37.792  30.217  36.964  1.00  0.00    -0.273 OA
BRANCH  12  15
ATOM     15  C   UNL A   1      38.424  32.353  37.807  1.00  0.00     0.243 C 
BRANCH  15  16
ATOM     16  N   UNL A   1      37.702  32.250  39.059  1.00  0.00    -0.263 N 
ATOM     17  C   UNL A   1      36.339  32.302  39.194  1.00  0.00     0.110 A 
ATOM     18  N   UNL A   1      38.311  31.764  40.152  1.00  0.00    -0.168 NA
ATOM     19  C   UNL A   1      36.064  31.970  40.494  1.00  0.00     0.055 A 
ATOM     20  C   UNL A   1      37.311  31.574  41.040  1.00  0.00     0.166 A 
BRANCH  20  21
ATOM     21  C   UNL A   1      37.518  30.987  42.406  1.00  0.00     0.435 C 
ATOM     22  F   UNL A   1      36.363  30.946  43.120  1.00  0.00    -0.164 F 
ATOM     23  F   UNL A   1      37.967  29.702  42.326  1.00  0.00    -0.164 F 
ATOM     24  F   UNL A   1      38.430  31.664  43.152  1.00  0.00    -0.164 F 
ENDBRANCH  20  21
ENDBRANCH  15  16
ENDBRANCH  12  15
ENDBRANCH   6  11
ENDBRANCH   3   6
ENDBRANCH   1   2
BRANCH   1  25
ATOM     25  C   UNL A   1      34.401  33.928  33.275  1.00  0.00     0.023 C 
BRANCH  25  26
ATOM     26  C   UNL A   1      34.801  33.823  31.805  1.00  0.00     0.023 C 
BRANCH  26  27
ATOM     27  C   UNL A   1      34.790  32.411  31.255  1.00  0.00     0.116 C 
BRANCH  27  28
ATOM     28  N   UNL A   1      34.550  32.375  29.813  1.00  0.00    -0.352 N 
ATOM     29  C   UNL A   1      35.418  32.016  28.797  1.00  0.00     0.251 C 
ATOM     30  H   UNL A   1      33.646  32.642  29.525  1.00  0.00     0.163 HD
ATOM     31  O   UNL A   1      35.227  32.364  27.644  1.00  0.00    -0.269 OA
BRANCH  29  32
ATOM     32  C   UNL A   1      36.576  31.179  29.145  1.00  0.00     0.039 A 
ATOM     33  C   UNL A   1      36.475  29.799  29.322  1.00  0.00     0.014 A 
ATOM     34  C   UNL A   1      37.803  31.826  29.237  1.00  0.00     0.014 A 
ATOM     35  C   UNL A   1      37.645  29.078  29.538  1.00  0.00     0.010 A 
ATOM     36  C   UNL A   1      38.951  31.098  29.186  1.00  0.00     0.010 A 
ATOM     37  C   UNL A   1      38.879  29.745  29.457  1.00  0.00    -0.014 A 
BRANCH  37  38
ATOM     38  C   UNL A   1      40.146  29.049  29.569  1.00  0.00     0.031 A 
ATOM     39  C   UNL A   1      40.584  28.849  30.967  1.00  0.00     0.074 A 
ATOM     40  C   UNL A   1      40.734  28.442  28.516  1.00  0.00     0.049 A 
ATOM     41  N   UNL A   1      41.506  29.498  31.590  1.00  0.00    -0.248 NA
ATOM     42  C   UNL A   1      39.777  27.975  31.833  1.00  0.00     0.031 C 
ATOM     43  C   UNL A   1      40.228  28.268  27.148  1.00  0.00     0.029 A 
ATOM     44  N   UNL A   1      41.909  27.761  28.482  1.00  0.00    -0.354 N 
ATOM     45  C   UNL A   1      41.560  28.944  32.863  1.00  0.00     0.074 A 
ATOM     46  C   UNL A   1      40.334  28.209  33.024  1.00  0.00     0.031 C 
ATOM     47  C   UNL A   1      40.979  27.352  26.496  1.00  0.00     0.029 A 
ATOM     48  C   UNL A   1      42.114  27.011  27.329  1.00  0.00     0.049 A 
ATOM     49  H   UNL A   1      42.563  27.797  29.216  1.00  0.00     0.167 HD
ATOM     50  C   UNL A   1      42.745  28.894  33.534  1.00  0.00     0.037 A 
ATOM     51  C   UNL A   1      43.144  26.156  27.107  1.00  0.00     0.037 A 
ATOM     52  C   UNL A   1      43.711  29.772  32.906  1.00  0.00     0.049 A 
ATOM     53  C   UNL A   1      44.222  26.523  28.063  1.00  0.00     0.074 A 
ATOM     54  C   UNL A   1      43.767  31.126  32.636  1.00  0.00     0.029 A 
ATOM     55  N   UNL A   1      44.650  29.192  32.085  1.00  0.00    -0.354 N 
ATOM     56  N   UNL A   1      44.883  27.647  28.008  1.00  0.00    -0.248 NA
ATOM     57  C   UNL A   1      44.221  25.862  29.358  1.00  0.00     0.031 C 
ATOM     58  C   UNL A   1      44.379  31.223  31.349  1.00  0.00     0.029 A 
ATOM     59  C   UNL A   1      44.738  29.939  30.940  1.00  0.00     0.049 A 
ATOM     60  H   UNL A   1      45.169  28.380  32.287  1.00  0.00     0.167 HD
ATOM     61  C   UNL A   1      44.999  28.053  29.329  1.00  0.00     0.074 A 
ATOM     62  C   UNL A   1      44.647  26.874  30.121  1.00  0.00     0.031 C 
ATOM     63  C   UNL A   1      45.070  29.379  29.650  1.00  0.00     0.037 A 
BRANCH  50  64
ATOM     64  C   UNL A   1      43.182  27.756  34.437  1.00  0.00     0.064 A 
ATOM     65  C   UNL A   1      43.421  26.496  33.844  1.00  0.00     0.173 A 
ATOM     66  C   UNL A   1      43.063  27.742  35.843  1.00  0.00     0.173 A 
ATOM     67  F   UNL A   1      43.578  26.383  32.517  1.00  0.00    -0.203 F 
ATOM     68  C   UNL A   1      43.392  25.312  34.584  1.00  0.00     0.198 A 
ATOM     69  C   UNL A   1      43.082  26.561  36.584  1.00  0.00     0.198 A 
ATOM     70  F   UNL A   1      42.823  28.840  36.565  1.00  0.00    -0.203 F 
ATOM     71  F   UNL A   1      43.466  24.134  33.950  1.00  0.00    -0.200 F 
ATOM     72  C   UNL A   1      43.202  25.344  35.951  1.00  0.00     0.200 A 
ATOM     73  F   UNL A   1      42.894  26.615  37.911  1.00  0.00    -0.200 F 
ATOM     74  F   UNL A   1      43.091  24.209  36.652  1.00  0.00    -0.200 F 
ENDBRANCH  50  64
BRANCH  51  75
ATOM     75  C   UNL A   1      43.140  24.869  26.371  1.00  0.00     0.064 A 
ATOM     76  C   UNL A   1      43.972  24.669  25.257  1.00  0.00     0.173 A 
ATOM     77  C   UNL A   1      42.544  23.717  26.920  1.00  0.00     0.173 A 
ATOM     78  F   UNL A   1      44.611  25.708  24.699  1.00  0.00    -0.203 F 
ATOM     79  C   UNL A   1      44.222  23.391  24.746  1.00  0.00     0.198 A 
ATOM     80  C   UNL A   1      42.790  22.442  26.407  1.00  0.00     0.198 A 
ATOM     81  F   UNL A   1      41.790  23.795  28.026  1.00  0.00    -0.203 F 
ATOM     82  F   UNL A   1      45.075  23.233  23.723  1.00  0.00    -0.200 F 
ATOM     83  C   UNL A   1      43.642  22.277  25.329  1.00  0.00     0.200 A 
ATOM     84  F   UNL A   1      42.252  21.369  27.004  1.00  0.00    -0.200 F 
ATOM     85  F   UNL A   1      43.934  21.047  24.884  1.00  0.00    -0.200 F 
ENDBRANCH  51  75
BRANCH  63  86
ATOM     86  C   UNL A   1      45.311  30.357  28.532  1.00  0.00     0.064 A 
ATOM     87  C   UNL A   1      44.294  30.952  27.762  1.00  0.00     0.173 A 
ATOM     88  C   UNL A   1      46.618  30.815  28.330  1.00  0.00     0.173 A 
ATOM     89  F   UNL A   1      43.008  30.640  27.959  1.00  0.00    -0.203 F 
ATOM     90  C   UNL A   1      44.584  31.926  26.809  1.00  0.00     0.198 A 
ATOM     91  C   UNL A   1      46.902  31.815  27.405  1.00  0.00     0.198 A 
ATOM     92  F   UNL A   1      47.623  30.323  29.072  1.00  0.00    -0.203 F 
ATOM     93  F   UNL A   1      43.598  32.470  26.080  1.00  0.00    -0.200 F 
ATOM     94  C   UNL A   1      45.887  32.364  26.637  1.00  0.00     0.200 A 
ATOM     95  F   UNL A   1      48.156  32.267  27.278  1.00  0.00    -0.200 F 
ATOM     96  F   UNL A   1      46.162  33.331  25.751  1.00  0.00    -0.200 F 
ENDBRANCH  63  86
ENDBRANCH  37  38
ENDBRANCH  29  32
ENDBRANCH  27  28
ENDBRANCH  26  27
ENDBRANCH  25  26
ENDBRANCH   1  25
TORSDOF 17
ENDMDL
MODEL 3
REMARK VINA RESULT:     -12.0      3.261      8.839
REMARK SMILES CC[C@@H](C)[C@H](NC(=O)Cn1ccc(C(F)(F)F)n1)C(=O)NCCCCNC(=O)c1ccc(-c2c3nc(c(-c4c(F)c(F)c(F)c(F)c4F)c4ccc([nH]4)c(-c4c(F)c(F)c(F)c(F)c4F)c4nc(c(-c5c(F)c(F)c(F)c(F)c5F)c5ccc2[nH]5)C=C4)C=C3)cc1
REMARK SMILES IDX 22 1 21 2 19 3 20 4 5 6 3 7 4 8 2 9 1 10 6 11 7 12 8 14 9 15
REMARK SMILES IDX 10 16 11 17 18 18 12 19 13 20 14 21 15 22 16 23 17 24 23 25
REMARK SMILES IDX 24 26 25 27 26 28 27 29 28 31 29 32 30 33 91 34 31 35 90 36
REMARK SMILES IDX 32 37 33 38 34 39 84 40 35 41 89 42 83 43 85 44 36 45 88 46
REMARK SMILES IDX 82 47 81 48 37 50 69 51 49 52 68 53 50 54 53 55 67 56 86 57
REMARK SMILES IDX 51 58 52 59 66 61 87 62 54 63 38 64 39 65 47 66 40 67 41 68
REMARK SMILES IDX 45 69 48 70 42 71 43 72 46 73 44 74 70 75 71 76 79 77 72 78
REMARK SMILES IDX 73 79 77 80 80 81 74 82 75 83 78 84 76 85 55 86 56 87 64 88
REMARK SMILES IDX 57 89 58 90 62 91 65 92 59 93 60 94 63 95 61 96
REMARK H PARENT 21 5 6 13 26 30 85 49 53 60
REMARK Flexibility Score: inf
ROOT
ATOM      1  C   UNL A   1      37.652  23.950  25.687  1.00  0.00     0.116 C 
ENDROOT
BRANCH   1   2
ATOM      2  N   UNL A   1      37.170  23.302  24.476  1.00  0.00    -0.354 N 
ATOM      3  C   UNL A   1      35.901  23.256  23.948  1.00  0.00     0.242 C 
ATOM      4  O   UNL A   1      35.808  23.053  22.733  1.00  0.00    -0.273 OA
ATOM      5  H   UNL A   1      37.855  22.824  23.956  1.00  0.00     0.163 HD
BRANCH   3   6
ATOM      6  C   UNL A   1      34.644  23.579  24.783  1.00  0.00     0.174 C 
BRANCH   6   7
ATOM      7  C   UNL A   1      34.155  22.287  25.577  1.00  0.00     0.018 C 
ATOM      8  C   UNL A   1      34.458  22.434  27.075  1.00  0.00     0.010 C 
BRANCH   7   9
ATOM      9  C   UNL A   1      34.741  20.974  25.001  1.00  0.00     0.002 C 
ATOM     10  C   UNL A   1      33.836  19.816  24.628  1.00  0.00     0.004 C 
ENDBRANCH   7   9
ENDBRANCH   6   7
BRANCH   6  11
ATOM     11  N   UNL A   1      33.555  24.212  24.018  1.00  0.00    -0.342 N 
ATOM     12  C   UNL A   1      32.330  24.671  24.429  1.00  0.00     0.242 C 
ATOM     13  H   UNL A   1      33.737  24.324  23.057  1.00  0.00     0.164 HD
ATOM     14  O   UNL A   1      31.461  24.705  23.547  1.00  0.00    -0.273 OA
BRANCH  12  15
ATOM     15  C   UNL A   1      32.072  25.371  25.750  1.00  0.00     0.243 C 
BRANCH  15  16
ATOM     16  N   UNL A   1      32.338  26.792  25.856  1.00  0.00    -0.263 N 
ATOM     17  C   UNL A   1      31.403  27.785  25.714  1.00  0.00     0.110 A 
ATOM     18  N   UNL A   1      33.471  27.227  26.428  1.00  0.00    -0.168 NA
ATOM     19  C   UNL A   1      32.018  28.953  26.081  1.00  0.00     0.055 A 
ATOM     20  C   UNL A   1      33.282  28.555  26.585  1.00  0.00     0.166 A 
BRANCH  20  21
ATOM     21  C   UNL A   1      34.283  29.460  27.243  1.00  0.00     0.435 C 
ATOM     22  F   UNL A   1      35.379  29.656  26.464  1.00  0.00    -0.164 F 
ATOM     23  F   UNL A   1      33.752  30.695  27.475  1.00  0.00    -0.164 F 
ATOM     24  F   UNL A   1      34.720  29.001  28.444  1.00  0.00    -0.164 F 
ENDBRANCH  20  21
ENDBRANCH  15  16
ENDBRANCH  12  15
ENDBRANCH   6  11
ENDBRANCH   3   6
ENDBRANCH   1   2
BRANCH   1  25
ATOM     25  C   UNL A   1      38.538  23.148  26.640  1.00  0.00     0.023 C 
BRANCH  25  26
ATOM     26  C   UNL A   1      39.209  21.877  26.125  1.00  0.00     0.023 C 
BRANCH  26  27
ATOM     27  C   UNL A   1      40.423  21.445  26.922  1.00  0.00     0.116 C 
BRANCH  27  28
ATOM     28  N   UNL A   1      41.668  21.598  26.170  1.00  0.00    -0.352 N 
ATOM     29  C   UNL A   1      42.365  22.756  25.872  1.00  0.00     0.251 C 
ATOM     30  H   UNL A   1      42.065  20.764  25.828  1.00  0.00     0.163 HD
ATOM     31  O   UNL A   1      43.170  22.797  24.957  1.00  0.00    -0.269 OA
BRANCH  29  32
ATOM     32  C   UNL A   1      42.123  23.940  26.710  1.00  0.00     0.039 A 
ATOM     33  C   UNL A   1      42.633  24.058  28.003  1.00  0.00     0.014 A 
ATOM     34  C   UNL A   1      41.399  24.974  26.128  1.00  0.00     0.014 A 
ATOM     35  C   UNL A   1      42.445  25.261  28.675  1.00  0.00     0.010 A 
ATOM     36  C   UNL A   1      41.446  26.218  26.676  1.00  0.00     0.010 A 
ATOM     37  C   UNL A   1      41.856  26.337  27.990  1.00  0.00    -0.014 A 
BRANCH  37  38
ATOM     38  C   UNL A   1      41.717  27.653  28.584  1.00  0.00     0.031 A 
ATOM     39  C   UNL A   1      42.803  28.583  28.209  1.00  0.00     0.074 A 
ATOM     40  C   UNL A   1      40.590  28.047  29.214  1.00  0.00     0.049 A 
ATOM     41  N   UNL A   1      43.794  28.954  28.945  1.00  0.00    -0.248 NA
ATOM     42  C   UNL A   1      42.918  28.991  26.801  1.00  0.00     0.031 C 
ATOM     43  C   UNL A   1      39.309  27.340  29.348  1.00  0.00     0.029 A 
ATOM     44  N   UNL A   1      40.329  29.240  29.809  1.00  0.00    -0.354 N 
ATOM     45  C   UNL A   1      44.530  29.837  28.165  1.00  0.00     0.074 A 
ATOM     46  C   UNL A   1      44.093  29.624  26.811  1.00  0.00     0.031 C 
ATOM     47  C   UNL A   1      38.357  28.196  29.781  1.00  0.00     0.029 A 
ATOM     48  C   UNL A   1      38.990  29.454  30.123  1.00  0.00     0.049 A 
ATOM     49  H   UNL A   1      41.032  29.900  30.003  1.00  0.00     0.167 HD
ATOM     50  C   UNL A   1      45.201  30.868  28.753  1.00  0.00     0.037 A 
ATOM     51  C   UNL A   1      38.459  30.604  30.608  1.00  0.00     0.037 A 
ATOM     52  C   UNL A   1      45.304  30.646  30.181  1.00  0.00     0.049 A 
ATOM     53  C   UNL A   1      39.584  31.388  31.184  1.00  0.00     0.074 A 
ATOM     54  C   UNL A   1      45.850  29.658  30.978  1.00  0.00     0.029 A 
ATOM     55  N   UNL A   1      44.426  31.330  30.989  1.00  0.00    -0.354 N 
ATOM     56  N   UNL A   1      40.254  31.020  32.240  1.00  0.00    -0.248 NA
ATOM     57  C   UNL A   1      40.271  32.318  30.301  1.00  0.00     0.031 C 
ATOM     58  C   UNL A   1      44.931  29.502  32.058  1.00  0.00     0.029 A 
ATOM     59  C   UNL A   1      43.920  30.452  31.911  1.00  0.00     0.049 A 
ATOM     60  H   UNL A   1      44.200  32.285  30.916  1.00  0.00     0.167 HD
ATOM     61  C   UNL A   1      41.577  31.305  31.937  1.00  0.00     0.074 A 
ATOM     62  C   UNL A   1      41.517  32.180  30.766  1.00  0.00     0.031 C 
ATOM     63  C   UNL A   1      42.593  30.565  32.472  1.00  0.00     0.037 A 
BRANCH  50  64
ATOM     64  C   UNL A   1      45.355  32.253  28.155  1.00  0.00     0.064 A 
ATOM     65  C   UNL A   1      44.181  32.959  27.809  1.00  0.00     0.173 A 
ATOM     66  C   UNL A   1      46.549  32.778  27.614  1.00  0.00     0.173 A 
ATOM     67  F   UNL A   1      42.987  32.573  28.283  1.00  0.00    -0.203 F 
ATOM     68  C   UNL A   1      44.191  34.003  26.882  1.00  0.00     0.198 A 
ATOM     69  C   UNL A   1      46.559  33.852  26.726  1.00  0.00     0.198 A 
ATOM     70  F   UNL A   1      47.748  32.229  27.827  1.00  0.00    -0.203 F 
ATOM     71  F   UNL A   1      43.031  34.533  26.469  1.00  0.00    -0.200 F 
ATOM     72  C   UNL A   1      45.378  34.436  26.325  1.00  0.00     0.200 A 
ATOM     73  F   UNL A   1      47.723  34.255  26.195  1.00  0.00    -0.200 F 
ATOM     74  F   UNL A   1      45.383  35.380  25.377  1.00  0.00    -0.200 F 
ENDBRANCH  50  64
BRANCH  51  75
ATOM     75  C   UNL A   1      37.135  31.206  30.326  1.00  0.00     0.064 A 
ATOM     76  C   UNL A   1      36.251  31.532  31.367  1.00  0.00     0.173 A 
ATOM     77  C   UNL A   1      36.832  31.743  29.059  1.00  0.00     0.173 A 
ATOM     78  F   UNL A   1      36.488  31.096  32.613  1.00  0.00    -0.203 F 
ATOM     79  C   UNL A   1      35.152  32.375  31.163  1.00  0.00     0.198 A 
ATOM     80  C   UNL A   1      35.733  32.581  28.855  1.00  0.00     0.198 A 
ATOM     81  F   UNL A   1      37.653  31.548  28.017  1.00  0.00    -0.203 F 
ATOM     82  F   UNL A   1      34.369  32.717  32.197  1.00  0.00    -0.200 F 
ATOM     83  C   UNL A   1      34.902  32.909  29.910  1.00  0.00     0.200 A 
ATOM     84  F   UNL A   1      35.524  33.122  27.646  1.00  0.00    -0.200 F 
ATOM     85  F   UNL A   1      33.890  33.770  29.728  1.00  0.00    -0.200 F 
ENDBRANCH  51  75
BRANCH  63  86
ATOM     86  C   UNL A   1      42.259  29.636  33.608  1.00  0.00     0.064 A 
ATOM     87  C   UNL A   1      41.842  28.302  33.448  1.00  0.00     0.173 A 
ATOM     88  C   UNL A   1      42.510  30.078  34.912  1.00  0.00     0.173 A 
ATOM     89  F   UNL A   1      41.671  27.773  32.231  1.00  0.00    -0.203 F 
ATOM     90  C   UNL A   1      41.647  27.468  34.548  1.00  0.00     0.198 A 
ATOM     91  C   UNL A   1      42.350  29.233  36.007  1.00  0.00     0.198 A 
ATOM     92  F   UNL A   1      42.960  31.324  35.123  1.00  0.00    -0.203 F 
ATOM     93  F   UNL A   1      41.238  26.203  34.369  1.00  0.00    -0.200 F 
ATOM     94  C   UNL A   1      41.910  27.932  35.826  1.00  0.00     0.200 A 
ATOM     95  F   UNL A   1      42.653  29.673  37.235  1.00  0.00    -0.200 F 
ATOM     96  F   UNL A   1      41.763  27.119  36.882  1.00  0.00    -0.200 F 
ENDBRANCH  63  86
ENDBRANCH  37  38
ENDBRANCH  29  32
ENDBRANCH  27  28
ENDBRANCH  26  27
ENDBRANCH  25  26
ENDBRANCH   1  25
TORSDOF 17
ENDMDL
