MODEL 1
REMARK VINA RESULT:     -13.3      0.000      0.000
REMARK SMILES Cc1coc2c(C)c3oc(=O)c(CCC(=O)N[C@H](CC(C)C)C(=O)NCCCCNC(=O)c4ccc(-c5c6nc(c(-c7c(F)c(F)c(F)c(F)c7F)c7ccc([nH]7)c(-c7c(F)c(F)c(F)c(F)c7F)c7nc(c(-c8c(F)c(F)c(F)c(F)c8F)c8ccc5[nH]8)C=C7)C=C6)cc4)c(C)c3cc12
REMARK SMILES IDX 26 1 25 2 23 3 24 4 18 6 17 7 15 8 16 9 14 11 13 12 12 13
REMARK SMILES IDX 1 14 2 15 3 16 100 17 4 18 5 19 99 20 6 21 98 22 7 23 8 24
REMARK SMILES IDX 96 25 9 26 97 27 10 28 11 29 19 30 20 31 21 32 22 33 27 34
REMARK SMILES IDX 28 35 29 36 30 37 31 38 32 40 33 41 34 42 95 43 35 44 94 45
REMARK SMILES IDX 36 46 37 47 38 48 88 49 39 50 93 51 87 52 89 53 40 54 92 55
REMARK SMILES IDX 86 56 85 57 41 59 73 60 53 61 72 62 54 63 57 64 71 65 90 66
REMARK SMILES IDX 55 67 56 68 70 70 91 71 58 72 42 73 43 74 51 75 44 76 45 77
REMARK SMILES IDX 49 78 52 79 46 80 47 81 50 82 48 83 74 84 75 85 83 86 76 87
REMARK SMILES IDX 77 88 81 89 84 90 78 91 79 92 82 93 80 94 59 95 60 96 68 97
REMARK SMILES IDX 61 98 62 99 66 100 69 101 63 102 64 103 67 104 65 105
REMARK H PARENT 25 5 17 10 30 39 89 58 57 69
REMARK Flexibility Score: inf
ROOT
ATOM      1  C   UNL A   1      33.904  30.959  27.723  1.00  0.00     0.116 C 
ENDROOT
BRANCH   1   2
ATOM      2  N   UNL A   1      32.636  31.169  26.874  1.00  0.00    -0.354 N 
ATOM      3  C   UNL A   1      31.692  30.799  25.960  1.00  0.00     0.242 C 
ATOM      4  O   UNL A   1      30.839  31.694  25.776  1.00  0.00    -0.273 OA
ATOM      5  H   UNL A   1      32.343  32.071  27.137  1.00  0.00     0.163 HD
BRANCH   3   6
ATOM      6  C   UNL A   1      31.450  29.507  25.080  1.00  0.00     0.171 C 
BRANCH   6   7
ATOM      7  N   UNL A   1      30.358  29.547  24.137  1.00  0.00    -0.344 N 
ATOM      8  C   UNL A   1      30.496  29.212  22.824  1.00  0.00     0.220 C 
ATOM      9  O   UNL A   1      30.028  29.997  21.995  1.00  0.00    -0.275 OA
ATOM     10  H   UNL A   1      29.472  29.832  24.458  1.00  0.00     0.164 HD
BRANCH   8  11
ATOM     11  C   UNL A   1      31.004  27.833  22.411  1.00  0.00     0.105 C 
BRANCH  11  12
ATOM     12  C   UNL A   1      30.642  26.386  22.877  1.00  0.00     0.053 C 
BRANCH  12  13
ATOM     13  C   UNL A   1      31.505  25.156  23.199  1.00  0.00     0.042 A 
ATOM     14  C   UNL A   1      37.603  23.566  25.499  1.00  0.00     0.048 C 
ATOM     15  C   UNL A   1      36.558  22.560  25.183  1.00  0.00    -0.005 A 
ATOM     16  C   UNL A   1      36.559  21.204  25.428  1.00  0.00     0.199 A 
ATOM     17  C   UNL A   1      35.328  22.804  24.515  1.00  0.00     0.024 A 
ATOM     18  O   UNL A   1      35.381  20.633  25.046  1.00  0.00    -0.464 OA
ATOM     19  C   UNL A   1      34.620  21.616  24.478  1.00  0.00     0.140 A 
ATOM     20  C   UNL A   1      34.728  23.947  23.991  1.00  0.00     0.024 A 
ATOM     21  C   UNL A   1      33.310  21.499  23.988  1.00  0.00     0.036 A 
ATOM     22  C   UNL A   1      33.530  23.875  23.312  1.00  0.00     0.022 A 
ATOM     23  C   UNL A   1      32.469  20.294  24.257  1.00  0.00     0.052 C 
ATOM     24  C   UNL A   1      32.828  22.667  23.352  1.00  0.00     0.145 A 
ATOM     25  C   UNL A   1      32.804  25.069  22.826  1.00  0.00    -0.030 A 
ATOM     26  O   UNL A   1      31.537  22.753  22.844  1.00  0.00    -0.422 OA
ATOM     27  C   UNL A   1      33.528  26.116  22.042  1.00  0.00     0.046 C 
ATOM     28  C   UNL A   1      31.037  23.765  23.638  1.00  0.00     0.339 A 
ATOM     29  O   UNL A   1      30.434  23.463  24.651  1.00  0.00    -0.246 OA
ENDBRANCH  12  13
ENDBRANCH  11  12
ENDBRANCH   8  11
ENDBRANCH   6   7
BRANCH   6  30
ATOM     30  C   UNL A   1      31.371  28.133  25.887  1.00  0.00     0.038 C 
BRANCH  30  31
ATOM     31  C   UNL A   1      32.575  27.273  26.398  1.00  0.00    -0.015 C 
ATOM     32  C   UNL A   1      32.270  25.781  26.516  1.00  0.00     0.007 C 
ATOM     33  C   UNL A   1      33.834  27.478  25.492  1.00  0.00     0.007 C 
ENDBRANCH  30  31
ENDBRANCH   6  30
ENDBRANCH   3   6
ENDBRANCH   1   2
BRANCH   1  34
ATOM     34  C   UNL A   1      34.785  32.276  27.835  1.00  0.00     0.023 C 
BRANCH  34  35
ATOM     35  C   UNL A   1      34.288  33.704  28.123  1.00  0.00     0.023 C 
BRANCH  35  36
ATOM     36  C   UNL A   1      34.895  34.440  29.299  1.00  0.00     0.116 C 
BRANCH  36  37
ATOM     37  N   UNL A   1      34.008  35.311  30.078  1.00  0.00    -0.352 N 
ATOM     38  C   UNL A   1      33.763  35.179  31.456  1.00  0.00     0.251 C 
ATOM     39  H   UNL A   1      33.552  36.041  29.602  1.00  0.00     0.163 HD
ATOM     40  O   UNL A   1      32.858  35.705  32.026  1.00  0.00    -0.269 OA
BRANCH  38  41
ATOM     41  C   UNL A   1      34.731  34.308  32.168  1.00  0.00     0.039 A 
ATOM     42  C   UNL A   1      34.551  32.925  32.144  1.00  0.00     0.014 A 
ATOM     43  C   UNL A   1      35.968  34.885  32.445  1.00  0.00     0.014 A 
ATOM     44  C   UNL A   1      35.679  32.113  32.236  1.00  0.00     0.010 A 
ATOM     45  C   UNL A   1      37.088  34.077  32.404  1.00  0.00     0.010 A 
ATOM     46  C   UNL A   1      36.963  32.690  32.279  1.00  0.00    -0.014 A 
BRANCH  46  47
ATOM     47  C   UNL A   1      38.138  31.836  32.055  1.00  0.00     0.031 A 
ATOM     48  C   UNL A   1      38.939  31.464  33.265  1.00  0.00     0.074 A 
ATOM     49  C   UNL A   1      38.477  31.260  30.882  1.00  0.00     0.049 A 
ATOM     50  N   UNL A   1      40.128  31.876  33.567  1.00  0.00    -0.248 NA
ATOM     51  C   UNL A   1      38.349  30.579  34.281  1.00  0.00     0.031 C 
ATOM     52  C   UNL A   1      37.704  31.193  29.638  1.00  0.00     0.029 A 
ATOM     53  N   UNL A   1      39.606  30.546  30.578  1.00  0.00    -0.354 N 
ATOM     54  C   UNL A   1      40.513  31.180  34.712  1.00  0.00     0.074 A 
ATOM     55  C   UNL A   1      39.340  30.486  35.175  1.00  0.00     0.031 C 
ATOM     56  C   UNL A   1      38.271  30.306  28.796  1.00  0.00     0.029 A 
ATOM     57  C   UNL A   1      39.554  29.916  29.347  1.00  0.00     0.049 A 
ATOM     58  H   UNL A   1      40.381  30.485  31.181  1.00  0.00     0.167 HD
ATOM     59  C   UNL A   1      41.830  31.064  35.050  1.00  0.00     0.037 A 
ATOM     60  C   UNL A   1      40.512  29.170  28.757  1.00  0.00     0.037 A 
ATOM     61  C   UNL A   1      42.653  31.943  34.264  1.00  0.00     0.049 A 
ATOM     62  C   UNL A   1      41.825  29.609  29.275  1.00  0.00     0.074 A 
ATOM     63  C   UNL A   1      43.079  33.251  34.308  1.00  0.00     0.029 A 
ATOM     64  N   UNL A   1      42.916  31.472  33.009  1.00  0.00    -0.354 N 
ATOM     65  N   UNL A   1      42.319  30.801  29.074  1.00  0.00    -0.248 NA
ATOM     66  C   UNL A   1      42.521  28.802  30.272  1.00  0.00     0.031 C 
ATOM     67  C   UNL A   1      43.474  33.593  32.978  1.00  0.00     0.029 A 
ATOM     68  C   UNL A   1      43.297  32.480  32.164  1.00  0.00     0.049 A 
ATOM     69  H   UNL A   1      42.842  30.527  32.746  1.00  0.00     0.167 HD
ATOM     70  C   UNL A   1      43.095  31.035  30.187  1.00  0.00     0.074 A 
ATOM     71  C   UNL A   1      43.337  29.728  30.780  1.00  0.00     0.031 C 
ATOM     72  C   UNL A   1      43.183  32.278  30.738  1.00  0.00     0.037 A 
BRANCH  59  73
ATOM     73  C   UNL A   1      42.464  29.887  35.761  1.00  0.00     0.064 A 
ATOM     74  C   UNL A   1      43.405  30.116  36.790  1.00  0.00     0.173 A 
ATOM     75  C   UNL A   1      42.427  28.571  35.257  1.00  0.00     0.173 A 
ATOM     76  F   UNL A   1      43.549  31.339  37.325  1.00  0.00    -0.203 F 
ATOM     77  C   UNL A   1      44.274  29.116  37.239  1.00  0.00     0.198 A 
ATOM     78  C   UNL A   1      43.262  27.562  35.743  1.00  0.00     0.198 A 
ATOM     79  F   UNL A   1      41.668  28.244  34.204  1.00  0.00    -0.203 F 
ATOM     80  F   UNL A   1      45.221  29.408  38.141  1.00  0.00    -0.200 F 
ATOM     81  C   UNL A   1      44.202  27.839  36.714  1.00  0.00     0.200 A 
ATOM     82  F   UNL A   1      43.199  26.337  35.202  1.00  0.00    -0.200 F 
ATOM     83  F   UNL A   1      45.064  26.892  37.105  1.00  0.00    -0.200 F 
ENDBRANCH  59  73
BRANCH  60  84
ATOM     84  C   UNL A   1      40.332  27.970  27.918  1.00  0.00     0.064 A 
ATOM     85  C   UNL A   1      41.031  27.821  26.712  1.00  0.00     0.173 A 
ATOM     86  C   UNL A   1      39.698  26.822  28.431  1.00  0.00     0.173 A 
ATOM     87  F   UNL A   1      41.679  28.866  26.175  1.00  0.00    -0.203 F 
ATOM     88  C   UNL A   1      41.143  26.580  26.085  1.00  0.00     0.198 A 
ATOM     89  C   UNL A   1      39.805  25.584  27.800  1.00  0.00     0.198 A 
ATOM     90  F   UNL A   1      39.050  26.860  29.605  1.00  0.00    -0.203 F 
ATOM     91  F   UNL A   1      41.889  26.457  24.978  1.00  0.00    -0.200 F 
ATOM     92  C   UNL A   1      40.545  25.458  26.639  1.00  0.00     0.200 A 
ATOM     93  F   UNL A   1      39.247  24.502  28.360  1.00  0.00    -0.200 F 
ATOM     94  F   UNL A   1      40.720  24.254  26.080  1.00  0.00    -0.200 F 
ENDBRANCH  60  84
BRANCH  72  95
ATOM     95  C   UNL A   1      42.946  33.456  29.850  1.00  0.00     0.064 A 
ATOM     96  C   UNL A   1      43.892  33.980  28.955  1.00  0.00     0.173 A 
ATOM     97  C   UNL A   1      41.678  34.052  29.875  1.00  0.00     0.173 A 
ATOM     98  F   UNL A   1      45.099  33.418  28.822  1.00  0.00    -0.203 F 
ATOM     99  C   UNL A   1      43.592  35.083  28.157  1.00  0.00     0.198 A 
ATOM    100  C   UNL A   1      41.371  35.132  29.054  1.00  0.00     0.198 A 
ATOM    101  F   UNL A   1      40.724  33.567  30.686  1.00  0.00    -0.203 F 
ATOM    102  F   UNL A   1      44.519  35.585  27.326  1.00  0.00    -0.200 F 
ATOM    103  C   UNL A   1      42.331  35.655  28.203  1.00  0.00     0.200 A 
ATOM    104  F   UNL A   1      40.138  35.658  29.079  1.00  0.00    -0.200 F 
ATOM    105  F   UNL A   1      42.034  36.700  27.419  1.00  0.00    -0.200 F 
ENDBRANCH  72  95
ENDBRANCH  46  47
ENDBRANCH  38  41
ENDBRANCH  36  37
ENDBRANCH  35  36
ENDBRANCH  34  35
ENDBRANCH   1  34
TORSDOF 17
ENDMDL
MODEL 2
REMARK VINA RESULT:     -12.8      4.031      9.872
REMARK SMILES Cc1coc2c(C)c3oc(=O)c(CCC(=O)N[C@H](CC(C)C)C(=O)NCCCCNC(=O)c4ccc(-c5c6nc(c(-c7c(F)c(F)c(F)c(F)c7F)c7ccc([nH]7)c(-c7c(F)c(F)c(F)c(F)c7F)c7nc(c(-c8c(F)c(F)c(F)c(F)c8F)c8ccc5[nH]8)C=C7)C=C6)cc4)c(C)c3cc12
REMARK SMILES IDX 26 1 25 2 23 3 24 4 18 6 17 7 15 8 16 9 14 11 13 12 12 13
REMARK SMILES IDX 1 14 2 15 3 16 100 17 4 18 5 19 99 20 6 21 98 22 7 23 8 24
REMARK SMILES IDX 96 25 9 26 97 27 10 28 11 29 19 30 20 31 21 32 22 33 27 34
REMARK SMILES IDX 28 35 29 36 30 37 31 38 32 40 33 41 34 42 95 43 35 44 94 45
REMARK SMILES IDX 36 46 37 47 38 48 88 49 39 50 93 51 87 52 89 53 40 54 92 55
REMARK SMILES IDX 86 56 85 57 41 59 73 60 53 61 72 62 54 63 57 64 71 65 90 66
REMARK SMILES IDX 55 67 56 68 70 70 91 71 58 72 42 73 43 74 51 75 44 76 45 77
REMARK SMILES IDX 49 78 52 79 46 80 47 81 50 82 48 83 74 84 75 85 83 86 76 87
REMARK SMILES IDX 77 88 81 89 84 90 78 91 79 92 82 93 80 94 59 95 60 96 68 97
REMARK SMILES IDX 61 98 62 99 66 100 69 101 63 102 64 103 67 104 65 105
REMARK H PARENT 25 5 17 10 30 39 89 58 57 69
REMARK Flexibility Score: inf
ROOT
ATOM      1  C   UNL A   1      38.714  21.596  25.773  1.00  0.00     0.116 C 
ENDROOT
BRANCH   1   2
ATOM      2  N   UNL A   1      38.064  22.952  26.112  1.00  0.00    -0.354 N 
ATOM      3  C   UNL A   1      37.017  23.818  26.231  1.00  0.00     0.242 C 
ATOM      4  O   UNL A   1      37.380  24.942  26.638  1.00  0.00    -0.273 OA
ATOM      5  H   UNL A   1      38.831  23.494  26.407  1.00  0.00     0.163 HD
BRANCH   3   6
ATOM      6  C   UNL A   1      35.461  23.718  25.957  1.00  0.00     0.171 C 
BRANCH   6   7
ATOM      7  N   UNL A   1      34.846  22.423  26.118  1.00  0.00    -0.344 N 
ATOM      8  C   UNL A   1      33.912  22.156  27.073  1.00  0.00     0.220 C 
ATOM      9  O   UNL A   1      34.080  21.138  27.750  1.00  0.00    -0.275 OA
ATOM     10  H   UNL A   1      35.115  21.697  25.510  1.00  0.00     0.164 HD
BRANCH   8  11
ATOM     11  C   UNL A   1      32.613  22.953  27.150  1.00  0.00     0.105 C 
BRANCH  11  12
ATOM     12  C   UNL A   1      31.695  23.592  26.060  1.00  0.00     0.053 C 
BRANCH  12  13
ATOM     13  C   UNL A   1      31.493  25.045  25.597  1.00  0.00     0.042 A 
ATOM     14  C   UNL A   1      26.949  28.931  22.559  1.00  0.00     0.048 C 
ATOM     15  C   UNL A   1      28.236  29.441  23.094  1.00  0.00    -0.005 A 
ATOM     16  C   UNL A   1      28.668  30.743  23.218  1.00  0.00     0.199 A 
ATOM     17  C   UNL A   1      29.321  28.656  23.568  1.00  0.00     0.024 A 
ATOM     18  O   UNL A   1      29.889  30.803  23.820  1.00  0.00    -0.464 OA
ATOM     19  C   UNL A   1      30.298  29.517  24.035  1.00  0.00     0.140 A 
ATOM     20  C   UNL A   1      29.532  27.285  23.697  1.00  0.00     0.024 A 
ATOM     21  C   UNL A   1      31.473  29.095  24.677  1.00  0.00     0.036 A 
ATOM     22  C   UNL A   1      30.744  26.789  24.131  1.00  0.00     0.022 A 
ATOM     23  C   UNL A   1      32.337  30.040  25.446  1.00  0.00     0.052 C 
ATOM     24  C   UNL A   1      31.675  27.695  24.644  1.00  0.00     0.145 A 
ATOM     25  C   UNL A   1      30.985  25.350  24.381  1.00  0.00    -0.030 A 
ATOM     26  O   UNL A   1      32.761  27.091  25.266  1.00  0.00    -0.422 OA
ATOM     27  C   UNL A   1      30.601  24.339  23.349  1.00  0.00     0.046 C 
ATOM     28  C   UNL A   1      32.100  26.317  26.199  1.00  0.00     0.339 A 
ATOM     29  O   UNL A   1      31.932  26.771  27.315  1.00  0.00    -0.246 OA
ENDBRANCH  12  13
ENDBRANCH  11  12
ENDBRANCH   8  11
ENDBRANCH   6   7
BRANCH   6  30
ATOM     30  C   UNL A   1      34.967  24.344  24.575  1.00  0.00     0.038 C 
BRANCH  30  31
ATOM     31  C   UNL A   1      34.999  23.656  23.168  1.00  0.00    -0.015 C 
ATOM     32  C   UNL A   1      36.269  22.852  22.897  1.00  0.00     0.007 C 
ATOM     33  C   UNL A   1      33.748  22.739  22.965  1.00  0.00     0.007 C 
ENDBRANCH  30  31
ENDBRANCH   6  30
ENDBRANCH   3   6
ENDBRANCH   1   2
BRANCH   1  34
ATOM     34  C   UNL A   1      40.014  21.312  26.640  1.00  0.00     0.023 C 
BRANCH  34  35
ATOM     35  C   UNL A   1      41.035  20.178  26.440  1.00  0.00     0.023 C 
BRANCH  35  36
ATOM     36  C   UNL A   1      42.506  20.528  26.511  1.00  0.00     0.116 C 
BRANCH  36  37
ATOM     37  N   UNL A   1      43.450  19.606  25.871  1.00  0.00    -0.352 N 
ATOM     38  C   UNL A   1      44.448  19.986  24.958  1.00  0.00     0.251 C 
ATOM     39  H   UNL A   1      43.379  18.651  26.098  1.00  0.00     0.163 HD
ATOM     40  O   UNL A   1      45.029  19.223  24.248  1.00  0.00    -0.269 OA
BRANCH  38  41
ATOM     41  C   UNL A   1      44.731  21.442  24.932  1.00  0.00     0.039 A 
ATOM     42  C   UNL A   1      43.816  22.304  24.326  1.00  0.00     0.014 A 
ATOM     43  C   UNL A   1      45.656  21.892  25.870  1.00  0.00     0.014 A 
ATOM     44  C   UNL A   1      43.726  23.609  24.803  1.00  0.00     0.010 A 
ATOM     45  C   UNL A   1      45.469  23.145  26.422  1.00  0.00     0.010 A 
ATOM     46  C   UNL A   1      44.495  24.010  25.913  1.00  0.00    -0.014 A 
BRANCH  46  47
ATOM     47  C   UNL A   1      44.162  25.268  26.596  1.00  0.00     0.031 A 
ATOM     48  C   UNL A   1      45.095  26.419  26.377  1.00  0.00     0.074 A 
ATOM     49  C   UNL A   1      43.030  25.508  27.292  1.00  0.00     0.049 A 
ATOM     50  N   UNL A   1      45.904  26.941  27.242  1.00  0.00    -0.248 NA
ATOM     51  C   UNL A   1      45.185  27.035  25.044  1.00  0.00     0.031 C 
ATOM     52  C   UNL A   1      41.824  24.680  27.390  1.00  0.00     0.029 A 
ATOM     53  N   UNL A   1      42.704  26.610  28.037  1.00  0.00    -0.354 N 
ATOM     54  C   UNL A   1      46.481  28.053  26.630  1.00  0.00     0.074 A 
ATOM     55  C   UNL A   1      46.094  27.995  25.244  1.00  0.00     0.031 C 
ATOM     56  C   UNL A   1      40.827  25.392  27.956  1.00  0.00     0.029 A 
ATOM     57  C   UNL A   1      41.385  26.632  28.455  1.00  0.00     0.049 A 
ATOM     58  H   UNL A   1      43.349  27.322  28.252  1.00  0.00     0.167 HD
ATOM     59  C   UNL A   1      47.046  29.046  27.376  1.00  0.00     0.037 A 
ATOM     60  C   UNL A   1      40.776  27.561  29.221  1.00  0.00     0.037 A 
ATOM     61  C   UNL A   1      47.194  28.652  28.750  1.00  0.00     0.049 A 
ATOM     62  C   UNL A   1      41.800  28.209  30.068  1.00  0.00     0.074 A 
ATOM     63  C   UNL A   1      48.110  27.977  29.524  1.00  0.00     0.029 A 
ATOM     64  N   UNL A   1      46.039  28.742  29.475  1.00  0.00    -0.354 N 
ATOM     65  N   UNL A   1      42.481  27.579  30.986  1.00  0.00    -0.248 NA
ATOM     66  C   UNL A   1      42.287  29.541  29.729  1.00  0.00     0.031 C 
ATOM     67  C   UNL A   1      47.409  27.533  30.688  1.00  0.00     0.029 A 
ATOM     68  C   UNL A   1      46.091  27.966  30.602  1.00  0.00     0.049 A 
ATOM     69  H   UNL A   1      45.267  29.296  29.218  1.00  0.00     0.167 HD
ATOM     70  C   UNL A   1      43.686  28.244  31.025  1.00  0.00     0.074 A 
ATOM     71  C   UNL A   1      43.446  29.532  30.391  1.00  0.00     0.031 C 
ATOM     72  C   UNL A   1      44.854  27.577  31.241  1.00  0.00     0.037 A 
BRANCH  59  73
ATOM     73  C   UNL A   1      47.083  30.516  27.014  1.00  0.00     0.064 A 
ATOM     74  C   UNL A   1      48.304  31.223  27.088  1.00  0.00     0.173 A 
ATOM     75  C   UNL A   1      45.926  31.315  26.917  1.00  0.00     0.173 A 
ATOM     76  F   UNL A   1      49.467  30.567  27.213  1.00  0.00    -0.203 F 
ATOM     77  C   UNL A   1      48.353  32.621  27.113  1.00  0.00     0.198 A 
ATOM     78  C   UNL A   1      45.982  32.710  26.893  1.00  0.00     0.198 A 
ATOM     79  F   UNL A   1      44.698  30.781  26.959  1.00  0.00    -0.203 F 
ATOM     80  F   UNL A   1      49.524  33.247  27.292  1.00  0.00    -0.200 F 
ATOM     81  C   UNL A   1      47.190  33.364  27.017  1.00  0.00     0.200 A 
ATOM     82  F   UNL A   1      44.843  33.415  26.827  1.00  0.00    -0.200 F 
ATOM     83  F   UNL A   1      47.227  34.701  27.091  1.00  0.00    -0.200 F 
ENDBRANCH  59  73
BRANCH  60  84
ATOM     84  C   UNL A   1      39.386  28.047  29.115  1.00  0.00     0.064 A 
ATOM     85  C   UNL A   1      38.559  28.119  30.245  1.00  0.00     0.173 A 
ATOM     86  C   UNL A   1      38.947  28.725  27.961  1.00  0.00     0.173 A 
ATOM     87  F   UNL A   1      38.923  27.518  31.387  1.00  0.00    -0.203 F 
ATOM     88  C   UNL A   1      37.388  28.878  30.240  1.00  0.00     0.198 A 
ATOM     89  C   UNL A   1      37.774  29.476  27.956  1.00  0.00     0.198 A 
ATOM     90  F   UNL A   1      39.701  28.752  26.852  1.00  0.00    -0.203 F 
ATOM     91  F   UNL A   1      36.663  28.993  31.362  1.00  0.00    -0.200 F 
ATOM     92  C   UNL A   1      37.005  29.571  29.102  1.00  0.00     0.200 A 
ATOM     93  F   UNL A   1      37.430  30.164  26.859  1.00  0.00    -0.200 F 
ATOM     94  F   UNL A   1      35.925  30.362  29.123  1.00  0.00    -0.200 F 
ENDBRANCH  60  84
BRANCH  72  95
ATOM     95  C   UNL A   1      44.796  26.289  31.996  1.00  0.00     0.064 A 
ATOM     96  C   UNL A   1      44.876  26.183  33.393  1.00  0.00     0.173 A 
ATOM     97  C   UNL A   1      44.603  25.108  31.266  1.00  0.00     0.173 A 
ATOM     98  F   UNL A   1      44.987  27.272  34.162  1.00  0.00    -0.203 F 
ATOM     99  C   UNL A   1      44.812  24.941  34.025  1.00  0.00     0.198 A 
ATOM    100  C   UNL A   1      44.505  23.875  31.901  1.00  0.00     0.198 A 
ATOM    101  F   UNL A   1      44.483  25.157  29.930  1.00  0.00    -0.203 F 
ATOM    102  F   UNL A   1      44.915  24.859  35.360  1.00  0.00    -0.200 F 
ATOM    103  C   UNL A   1      44.622  23.789  33.278  1.00  0.00     0.200 A 
ATOM    104  F   UNL A   1      44.287  22.768  31.176  1.00  0.00    -0.200 F 
ATOM    105  F   UNL A   1      44.535  22.598  33.886  1.00  0.00    -0.200 F 
ENDBRANCH  72  95
ENDBRANCH  46  47
ENDBRANCH  38  41
ENDBRANCH  36  37
ENDBRANCH  35  36
ENDBRANCH  34  35
ENDBRANCH   1  34
TORSDOF 17
ENDMDL
MODEL 3
REMARK VINA RESULT:     -12.2      5.282      9.576
REMARK SMILES Cc1coc2c(C)c3oc(=O)c(CCC(=O)N[C@H](CC(C)C)C(=O)NCCCCNC(=O)c4ccc(-c5c6nc(c(-c7c(F)c(F)c(F)c(F)c7F)c7ccc([nH]7)c(-c7c(F)c(F)c(F)c(F)c7F)c7nc(c(-c8c(F)c(F)c(F)c(F)c8F)c8ccc5[nH]8)C=C7)C=C6)cc4)c(C)c3cc12
REMARK SMILES IDX 26 1 25 2 23 3 24 4 18 6 17 7 15 8 16 9 14 11 13 12 12 13
REMARK SMILES IDX 1 14 2 15 3 16 100 17 4 18 5 19 99 20 6 21 98 22 7 23 8 24
REMARK SMILES IDX 96 25 9 26 97 27 10 28 11 29 19 30 20 31 21 32 22 33 27 34
REMARK SMILES IDX 28 35 29 36 30 37 31 38 32 40 33 41 34 42 95 43 35 44 94 45
REMARK SMILES IDX 36 46 37 47 38 48 88 49 39 50 93 51 87 52 89 53 40 54 92 55
REMARK SMILES IDX 86 56 85 57 41 59 73 60 53 61 72 62 54 63 57 64 71 65 90 66
REMARK SMILES IDX 55 67 56 68 70 70 91 71 58 72 42 73 43 74 51 75 44 76 45 77
REMARK SMILES IDX 49 78 52 79 46 80 47 81 50 82 48 83 74 84 75 85 83 86 76 87
REMARK SMILES IDX 77 88 81 89 84 90 78 91 79 92 82 93 80 94 59 95 60 96 68 97
REMARK SMILES IDX 61 98 62 99 66 100 69 101 63 102 64 103 67 104 65 105
REMARK H PARENT 25 5 17 10 30 39 89 58 57 69
REMARK Flexibility Score: inf
ROOT
ATOM      1  C   UNL A   1      45.692  31.830  33.150  1.00  0.00     0.116 C 
ENDROOT
BRANCH   1   2
ATOM      2  N   UNL A   1      46.443  30.720  32.388  1.00  0.00    -0.354 N 
ATOM      3  C   UNL A   1      46.528  29.576  31.651  1.00  0.00     0.242 C 
ATOM      4  O   UNL A   1      47.712  29.271  31.390  1.00  0.00    -0.273 OA
ATOM      5  H   UNL A   1      47.386  30.985  32.491  1.00  0.00     0.163 HD
BRANCH   3   6
ATOM      6  C   UNL A   1      45.471  28.551  31.072  1.00  0.00     0.171 C 
BRANCH   6   7
ATOM      7  N   UNL A   1      44.211  29.090  30.619  1.00  0.00    -0.344 N 
ATOM      8  C   UNL A   1      43.685  28.823  29.391  1.00  0.00     0.220 C 
ATOM      9  O   UNL A   1      43.283  29.786  28.734  1.00  0.00    -0.275 OA
ATOM     10  H   UNL A   1      43.709  29.681  31.225  1.00  0.00     0.164 HD
BRANCH   8  11
ATOM     11  C   UNL A   1      43.406  27.389  28.948  1.00  0.00     0.105 C 
BRANCH  11  12
ATOM     12  C   UNL A   1      43.298  26.715  27.543  1.00  0.00     0.053 C 
BRANCH  12  13
ATOM     13  C   UNL A   1      43.062  25.259  27.109  1.00  0.00     0.042 A 
ATOM     14  C   UNL A   1      46.402  19.971  24.686  1.00  0.00     0.048 C 
ATOM     15  C   UNL A   1      44.963  19.936  25.047  1.00  0.00    -0.005 A 
ATOM     16  C   UNL A   1      44.112  18.854  25.110  1.00  0.00     0.199 A 
ATOM     17  C   UNL A   1      44.150  21.053  25.376  1.00  0.00     0.024 A 
ATOM     18  O   UNL A   1      42.875  19.225  25.547  1.00  0.00    -0.464 OA
ATOM     19  C   UNL A   1      42.892  20.582  25.709  1.00  0.00     0.140 A 
ATOM     20  C   UNL A   1      44.391  22.422  25.478  1.00  0.00     0.024 A 
ATOM     21  C   UNL A   1      41.853  21.393  26.192  1.00  0.00     0.036 A 
ATOM     22  C   UNL A   1      43.367  23.306  25.751  1.00  0.00     0.022 A 
ATOM     23  C   UNL A   1      40.636  20.817  26.839  1.00  0.00     0.052 C 
ATOM     24  C   UNL A   1      42.133  22.778  26.134  1.00  0.00     0.145 A 
ATOM     25  C   UNL A   1      43.588  24.753  25.969  1.00  0.00    -0.030 A 
ATOM     26  O   UNL A   1      41.239  23.732  26.610  1.00  0.00    -0.422 OA
ATOM     27  C   UNL A   1      44.411  25.538  24.998  1.00  0.00     0.046 C 
ATOM     28  C   UNL A   1      41.998  24.283  27.623  1.00  0.00     0.339 A 
ATOM     29  O   UNL A   1      41.866  23.846  28.751  1.00  0.00    -0.246 OA
ENDBRANCH  12  13
ENDBRANCH  11  12
ENDBRANCH   8  11
ENDBRANCH   6   7
BRANCH   6  30
ATOM     30  C   UNL A   1      45.175  27.279  31.988  1.00  0.00     0.038 C 
BRANCH  30  31
ATOM     31  C   UNL A   1      45.651  25.808  31.734  1.00  0.00    -0.015 C 
ATOM     32  C   UNL A   1      44.530  24.771  31.801  1.00  0.00     0.007 C 
ATOM     33  C   UNL A   1      46.390  25.688  30.361  1.00  0.00     0.007 C 
ENDBRANCH  30  31
ENDBRANCH   6  30
ENDBRANCH   3   6
ENDBRANCH   1   2
BRANCH   1  34
ATOM     34  C   UNL A   1      45.431  33.113  32.251  1.00  0.00     0.023 C 
BRANCH  34  35
ATOM     35  C   UNL A   1      46.482  34.098  31.711  1.00  0.00     0.023 C 
BRANCH  35  36
ATOM     36  C   UNL A   1      46.000  35.439  31.200  1.00  0.00     0.116 C 
BRANCH  36  37
ATOM     37  N   UNL A   1      46.635  35.966  29.987  1.00  0.00    -0.352 N 
ATOM     38  C   UNL A   1      46.140  35.793  28.683  1.00  0.00     0.251 C 
ATOM     39  H   UNL A   1      47.469  36.478  30.094  1.00  0.00     0.163 HD
ATOM     40  O   UNL A   1      46.780  35.985  27.695  1.00  0.00    -0.269 OA
BRANCH  38  41
ATOM     41  C   UNL A   1      44.730  35.335  28.620  1.00  0.00     0.039 A 
ATOM     42  C   UNL A   1      44.458  33.968  28.581  1.00  0.00     0.014 A 
ATOM     43  C   UNL A   1      43.778  36.264  29.031  1.00  0.00     0.014 A 
ATOM     44  C   UNL A   1      43.258  33.519  29.127  1.00  0.00     0.010 A 
ATOM     45  C   UNL A   1      42.653  35.798  29.685  1.00  0.00     0.010 A 
ATOM     46  C   UNL A   1      42.387  34.428  29.760  1.00  0.00    -0.014 A 
BRANCH  46  47
ATOM     47  C   UNL A   1      41.298  33.907  30.599  1.00  0.00     0.031 A 
ATOM     48  C   UNL A   1      41.628  33.635  32.035  1.00  0.00     0.074 A 
ATOM     49  C   UNL A   1      40.009  33.775  30.220  1.00  0.00     0.049 A 
ATOM     50  N   UNL A   1      41.724  32.477  32.606  1.00  0.00    -0.248 NA
ATOM     51  C   UNL A   1      41.933  34.759  32.933  1.00  0.00     0.031 C 
ATOM     52  C   UNL A   1      39.361  34.261  28.998  1.00  0.00     0.029 A 
ATOM     53  N   UNL A   1      38.973  33.202  30.907  1.00  0.00    -0.354 N 
ATOM     54  C   UNL A   1      41.930  32.717  33.963  1.00  0.00     0.074 A 
ATOM     55  C   UNL A   1      42.168  34.132  34.091  1.00  0.00     0.031 C 
ATOM     56  C   UNL A   1      38.021  34.164  29.124  1.00  0.00     0.029 A 
ATOM     57  C   UNL A   1      37.734  33.412  30.328  1.00  0.00     0.049 A 
ATOM     58  H   UNL A   1      39.098  32.690  31.739  1.00  0.00     0.167 HD
ATOM     59  C   UNL A   1      41.665  31.753  34.892  1.00  0.00     0.037 A 
ATOM     60  C   UNL A   1      36.535  32.954  30.748  1.00  0.00     0.037 A 
ATOM     61  C   UNL A   1      41.438  30.476  34.272  1.00  0.00     0.049 A 
ATOM     62  C   UNL A   1      36.757  31.711  31.518  1.00  0.00     0.074 A 
ATOM     63  C   UNL A   1      42.188  29.408  33.834  1.00  0.00     0.029 A 
ATOM     64  N   UNL A   1      40.186  30.336  33.744  1.00  0.00    -0.354 N 
ATOM     65  N   UNL A   1      37.242  30.616  30.997  1.00  0.00    -0.248 NA
ATOM     66  C   UNL A   1      36.690  31.736  32.974  1.00  0.00     0.031 C 
ATOM     67  C   UNL A   1      41.374  28.698  32.898  1.00  0.00     0.029 A 
ATOM     68  C   UNL A   1      40.145  29.340  32.805  1.00  0.00     0.049 A 
ATOM     69  H   UNL A   1      39.411  30.882  34.006  1.00  0.00     0.167 HD
ATOM     70  C   UNL A   1      37.910  30.016  32.041  1.00  0.00     0.074 A 
ATOM     71  C   UNL A   1      37.383  30.630  33.251  1.00  0.00     0.031 C 
ATOM     72  C   UNL A   1      39.072  29.335  31.837  1.00  0.00     0.037 A 
BRANCH  59  73
ATOM     73  C   UNL A   1      41.179  31.991  36.306  1.00  0.00     0.064 A 
ATOM     74  C   UNL A   1      39.910  32.574  36.520  1.00  0.00     0.173 A 
ATOM     75  C   UNL A   1      42.033  31.972  37.427  1.00  0.00     0.173 A 
ATOM     76  F   UNL A   1      39.026  32.674  35.516  1.00  0.00    -0.203 F 
ATOM     77  C   UNL A   1      39.548  33.137  37.749  1.00  0.00     0.198 A 
ATOM     78  C   UNL A   1      41.650  32.490  38.666  1.00  0.00     0.198 A 
ATOM     79  F   UNL A   1      43.303  31.558  37.335  1.00  0.00    -0.203 F 
ATOM     80  F   UNL A   1      38.375  33.772  37.874  1.00  0.00    -0.200 F 
ATOM     81  C   UNL A   1      40.419  33.095  38.822  1.00  0.00     0.200 A 
ATOM     82  F   UNL A   1      42.518  32.467  39.688  1.00  0.00    -0.200 F 
ATOM     83  F   UNL A   1      40.097  33.676  39.984  1.00  0.00    -0.200 F 
ENDBRANCH  59  73
BRANCH  60  84
ATOM     84  C   UNL A   1      35.232  33.642  30.680  1.00  0.00     0.064 A 
ATOM     85  C   UNL A   1      34.859  34.578  31.654  1.00  0.00     0.173 A 
ATOM     86  C   UNL A   1      34.463  33.612  29.500  1.00  0.00     0.173 A 
ATOM     87  F   UNL A   1      35.559  34.681  32.794  1.00  0.00    -0.203 F 
ATOM     88  C   UNL A   1      33.813  35.476  31.437  1.00  0.00     0.198 A 
ATOM     89  C   UNL A   1      33.414  34.505  29.288  1.00  0.00     0.198 A 
ATOM     90  F   UNL A   1      34.780  32.784  28.493  1.00  0.00    -0.203 F 
ATOM     91  F   UNL A   1      33.536  36.412  32.356  1.00  0.00    -0.200 F 
ATOM     92  C   UNL A   1      33.103  35.451  30.247  1.00  0.00     0.200 A 
ATOM     93  F   UNL A   1      32.755  34.489  28.121  1.00  0.00    -0.200 F 
ATOM     94  F   UNL A   1      32.153  36.364  30.007  1.00  0.00    -0.200 F 
ENDBRANCH  60  84
BRANCH  72  95
ATOM     95  C   UNL A   1      39.311  28.745  30.485  1.00  0.00     0.064 A 
ATOM     96  C   UNL A   1      39.855  29.446  29.397  1.00  0.00     0.173 A 
ATOM     97  C   UNL A   1      39.014  27.389  30.299  1.00  0.00     0.173 A 
ATOM     98  F   UNL A   1      40.231  30.724  29.519  1.00  0.00    -0.203 F 
ATOM     99  C   UNL A   1      40.048  28.822  28.165  1.00  0.00     0.198 A 
ATOM    100  C   UNL A   1      39.240  26.760  29.079  1.00  0.00     0.198 A 
ATOM    101  F   UNL A   1      38.526  26.662  31.318  1.00  0.00    -0.203 F 
ATOM    102  F   UNL A   1      40.547  29.516  27.130  1.00  0.00    -0.200 F 
ATOM    103  C   UNL A   1      39.746  27.479  28.008  1.00  0.00     0.200 A 
ATOM    104  F   UNL A   1      38.977  25.452  28.945  1.00  0.00    -0.200 F 
ATOM    105  F   UNL A   1      39.954  26.873  26.832  1.00  0.00    -0.200 F 
ENDBRANCH  72  95
ENDBRANCH  46  47
ENDBRANCH  38  41
ENDBRANCH  36  37
ENDBRANCH  35  36
ENDBRANCH  34  35
ENDBRANCH   1  34
TORSDOF 17
ENDMDL
