MODEL 1
REMARK VINA RESULT:     -13.5      0.000      0.000
REMARK SMILES CC(=O)N[C@@H](C)C(=O)Nc1ccc(C)cc1C(=O)NCCCCNC(=O)c1ccc(-c2c3nc(c(-c4c(F)c(F)c(F)c(F)c4F)c4ccc([nH]4)c(-c4c(F)c(F)c(F)c(F)c4F)c4nc(c(-c5c(F)c(F)c(F)c(F)c5F)c5ccc2[nH]5)C=C4)C=C3)cc1
REMARK SMILES IDX 21 1 20 2 19 3 17 4 18 5 16 7 10 8 11 9 12 10 15 11 13 12
REMARK SMILES IDX 14 13 9 14 7 15 8 16 5 18 6 19 4 20 1 21 2 22 3 23 22 25
REMARK SMILES IDX 23 26 24 27 25 28 26 30 27 31 28 32 89 33 29 34 88 35 30 36
REMARK SMILES IDX 31 37 32 38 82 39 33 40 87 41 81 42 83 43 34 44 86 45 80 46
REMARK SMILES IDX 79 47 35 49 67 50 47 51 66 52 48 53 51 54 65 55 84 56 49 57
REMARK SMILES IDX 50 58 64 60 85 61 52 62 36 63 37 64 45 65 38 66 39 67 43 68
REMARK SMILES IDX 46 69 40 70 41 71 44 72 42 73 68 74 69 75 77 76 70 77 71 78
REMARK SMILES IDX 75 79 78 80 72 81 73 82 76 83 74 84 53 85 54 86 62 87 55 88
REMARK SMILES IDX 56 89 60 90 63 91 57 92 58 93 61 94 59 95
REMARK H PARENT 19 6 9 17 4 24 24 29 83 48 51 59
REMARK Flexibility Score: inf
ROOT
ATOM      1  C   UNL A   1      31.961  29.612  26.738  1.00  0.00     0.023 C 
ENDROOT
BRANCH   1   2
ATOM      2  C   UNL A   1      32.235  28.194  27.225  1.00  0.00     0.116 C 
BRANCH   2   3
ATOM      3  N   UNL A   1      31.252  27.179  26.950  1.00  0.00    -0.352 N 
ATOM      4  C   UNL A   1      31.372  25.878  26.507  1.00  0.00     0.253 C 
ATOM      5  O   UNL A   1      30.308  25.253  26.431  1.00  0.00    -0.269 OA
ATOM      6  H   UNL A   1      30.323  27.467  27.106  1.00  0.00     0.163 HD
BRANCH   4   7
ATOM      7  C   UNL A   1      32.628  25.162  26.069  1.00  0.00     0.063 A 
ATOM      8  C   UNL A   1      33.773  25.651  25.412  1.00  0.00     0.054 A 
ATOM      9  C   UNL A   1      34.904  24.830  25.247  1.00  0.00     0.027 A 
ATOM     10  C   UNL A   1      34.884  23.485  25.592  1.00  0.00     0.005 A 
ATOM     11  C   UNL A   1      32.636  23.782  26.402  1.00  0.00     0.019 A 
ATOM     12  C   UNL A   1      33.729  22.937  26.134  1.00  0.00    -0.050 A 
ATOM     13  C   UNL A   1      33.668  21.475  26.468  1.00  0.00     0.044 C 
BRANCH   8  14
ATOM     14  N   UNL A   1      33.921  26.952  24.929  1.00  0.00    -0.324 N 
ATOM     15  C   UNL A   1      33.385  27.466  23.766  1.00  0.00     0.246 C 
ATOM     16  O   UNL A   1      33.629  28.651  23.511  1.00  0.00    -0.272 OA
ATOM     17  H   UNL A   1      34.464  27.566  25.473  1.00  0.00     0.170 HD
BRANCH  15  18
ATOM     18  C   UNL A   1      32.404  26.660  22.845  1.00  0.00     0.168 C 
ATOM     19  C   UNL A   1      33.006  25.549  21.987  1.00  0.00     0.041 C 
BRANCH  18  20
ATOM     20  N   UNL A   1      31.573  27.532  22.032  1.00  0.00    -0.345 N 
ATOM     21  C   UNL A   1      29.721  27.668  23.644  1.00  0.00     0.114 C 
ATOM     22  C   UNL A   1      30.393  28.115  22.377  1.00  0.00     0.217 C 
ATOM     23  O   UNL A   1      29.900  28.954  21.628  1.00  0.00    -0.275 OA
ATOM     24  H   UNL A   1      31.902  27.721  21.123  1.00  0.00     0.164 HD
ENDBRANCH  18  20
ENDBRANCH  15  18
ENDBRANCH   8  14
ENDBRANCH   4   7
ENDBRANCH   2   3
ENDBRANCH   1   2
BRANCH   1  25
ATOM     25  C   UNL A   1      32.879  30.715  27.228  1.00  0.00     0.023 C 
BRANCH  25  26
ATOM     26  C   UNL A   1      34.349  30.352  27.328  1.00  0.00     0.116 C 
BRANCH  26  27
ATOM     27  N   UNL A   1      35.246  31.394  27.790  1.00  0.00    -0.352 N 
ATOM     28  C   UNL A   1      36.510  31.295  28.363  1.00  0.00     0.251 C 
ATOM     29  H   UNL A   1      34.909  32.312  27.681  1.00  0.00     0.163 HD
ATOM     30  O   UNL A   1      37.029  32.301  28.814  1.00  0.00    -0.269 OA
BRANCH  28  31
ATOM     31  C   UNL A   1      37.296  30.022  28.312  1.00  0.00     0.039 A 
ATOM     32  C   UNL A   1      37.330  29.210  29.460  1.00  0.00     0.014 A 
ATOM     33  C   UNL A   1      38.132  29.704  27.251  1.00  0.00     0.014 A 
ATOM     34  C   UNL A   1      38.344  28.262  29.621  1.00  0.00     0.010 A 
ATOM     35  C   UNL A   1      39.207  28.877  27.452  1.00  0.00     0.010 A 
ATOM     36  C   UNL A   1      39.341  28.193  28.656  1.00  0.00    -0.014 A 
BRANCH  36  37
ATOM     37  C   UNL A   1      40.625  27.533  28.810  1.00  0.00     0.031 A 
ATOM     38  C   UNL A   1      40.770  26.101  28.489  1.00  0.00     0.074 A 
ATOM     39  C   UNL A   1      41.710  28.327  28.954  1.00  0.00     0.049 A 
ATOM     40  N   UNL A   1      41.765  25.375  28.869  1.00  0.00    -0.248 NA
ATOM     41  C   UNL A   1      39.791  25.364  27.697  1.00  0.00     0.031 C 
ATOM     42  C   UNL A   1      43.108  27.985  28.721  1.00  0.00     0.029 A 
ATOM     43  N   UNL A   1      41.755  29.617  29.505  1.00  0.00    -0.354 N 
ATOM     44  C   UNL A   1      41.719  24.201  28.152  1.00  0.00     0.074 A 
ATOM     45  C   UNL A   1      40.441  24.216  27.480  1.00  0.00     0.031 C 
ATOM     46  C   UNL A   1      43.883  28.865  29.375  1.00  0.00     0.029 A 
ATOM     47  C   UNL A   1      42.998  29.698  30.171  1.00  0.00     0.049 A 
ATOM     48  H   UNL A   1      41.065  30.318  29.442  1.00  0.00     0.167 HD
ATOM     49  C   UNL A   1      42.833  23.417  28.092  1.00  0.00     0.037 A 
ATOM     50  C   UNL A   1      43.044  29.792  31.533  1.00  0.00     0.037 A 
ATOM     51  C   UNL A   1      43.918  23.996  28.882  1.00  0.00     0.049 A 
ATOM     52  C   UNL A   1      43.736  28.622  32.190  1.00  0.00     0.074 A 
ATOM     53  C   UNL A   1      45.011  24.772  28.529  1.00  0.00     0.029 A 
ATOM     54  N   UNL A   1      43.778  24.120  30.261  1.00  0.00    -0.354 N 
ATOM     55  N   UNL A   1      43.860  27.444  31.642  1.00  0.00    -0.248 NA
ATOM     56  C   UNL A   1      44.340  28.692  33.515  1.00  0.00     0.031 C 
ATOM     57  C   UNL A   1      45.501  25.402  29.698  1.00  0.00     0.029 A 
ATOM     58  C   UNL A   1      44.717  25.000  30.766  1.00  0.00     0.049 A 
ATOM     59  H   UNL A   1      43.105  23.646  30.802  1.00  0.00     0.167 HD
ATOM     60  C   UNL A   1      44.529  26.610  32.501  1.00  0.00     0.074 A 
ATOM     61  C   UNL A   1      44.818  27.443  33.655  1.00  0.00     0.031 C 
ATOM     62  C   UNL A   1      44.788  25.306  32.187  1.00  0.00     0.037 A 
BRANCH  49  63
ATOM     63  C   UNL A   1      43.022  22.313  27.075  1.00  0.00     0.064 A 
ATOM     64  C   UNL A   1      42.279  21.115  27.152  1.00  0.00     0.173 A 
ATOM     65  C   UNL A   1      43.959  22.359  26.027  1.00  0.00     0.173 A 
ATOM     66  F   UNL A   1      41.279  20.964  28.028  1.00  0.00    -0.203 F 
ATOM     67  C   UNL A   1      42.538  20.015  26.329  1.00  0.00     0.198 A 
ATOM     68  C   UNL A   1      44.256  21.241  25.238  1.00  0.00     0.198 A 
ATOM     69  F   UNL A   1      44.582  23.500  25.704  1.00  0.00    -0.203 F 
ATOM     70  F   UNL A   1      41.803  18.901  26.459  1.00  0.00    -0.200 F 
ATOM     71  C   UNL A   1      43.553  20.065  25.398  1.00  0.00     0.200 A 
ATOM     72  F   UNL A   1      45.233  21.314  24.322  1.00  0.00    -0.200 F 
ATOM     73  F   UNL A   1      43.834  18.994  24.642  1.00  0.00    -0.200 F 
ENDBRANCH  49  63
BRANCH  50  74
ATOM     74  C   UNL A   1      41.880  30.529  32.098  1.00  0.00     0.064 A 
ATOM     75  C   UNL A   1      41.867  31.934  31.987  1.00  0.00     0.173 A 
ATOM     76  C   UNL A   1      40.658  29.891  32.346  1.00  0.00     0.173 A 
ATOM     77  F   UNL A   1      43.013  32.594  31.749  1.00  0.00    -0.203 F 
ATOM     78  C   UNL A   1      40.674  32.653  31.997  1.00  0.00     0.198 A 
ATOM     79  C   UNL A   1      39.465  30.619  32.369  1.00  0.00     0.198 A 
ATOM     80  F   UNL A   1      40.597  28.555  32.444  1.00  0.00    -0.203 F 
ATOM     81  F   UNL A   1      40.689  33.976  31.779  1.00  0.00    -0.200 F 
ATOM     82  C   UNL A   1      39.470  31.989  32.157  1.00  0.00     0.200 A 
ATOM     83  F   UNL A   1      38.295  29.975  32.500  1.00  0.00    -0.200 F 
ATOM     84  F   UNL A   1      38.314  32.663  32.072  1.00  0.00    -0.200 F 
ENDBRANCH  50  74
BRANCH  62  85
ATOM     85  C   UNL A   1      45.252  24.228  33.143  1.00  0.00     0.064 A 
ATOM     86  C   UNL A   1      44.470  23.127  33.529  1.00  0.00     0.173 A 
ATOM     87  C   UNL A   1      46.595  24.199  33.600  1.00  0.00     0.173 A 
ATOM     88  F   UNL A   1      43.229  22.951  33.060  1.00  0.00    -0.203 F 
ATOM     89  C   UNL A   1      44.961  22.124  34.371  1.00  0.00     0.198 A 
ATOM     90  C   UNL A   1      47.101  23.164  34.383  1.00  0.00     0.198 A 
ATOM     91  F   UNL A   1      47.472  25.161  33.277  1.00  0.00    -0.203 F 
ATOM     92  F   UNL A   1      44.153  21.125  34.751  1.00  0.00    -0.200 F 
ATOM     93  C   UNL A   1      46.278  22.135  34.787  1.00  0.00     0.200 A 
ATOM     94  F   UNL A   1      48.398  23.159  34.725  1.00  0.00    -0.200 F 
ATOM     95  F   UNL A   1      46.756  21.147  35.554  1.00  0.00    -0.200 F 
ENDBRANCH  62  85
ENDBRANCH  36  37
ENDBRANCH  28  31
ENDBRANCH  26  27
ENDBRANCH  25  26
ENDBRANCH   1  25
TORSDOF 14
ENDMDL
MODEL 2
REMARK VINA RESULT:     -13.3      3.816     10.237
REMARK SMILES CC(=O)N[C@@H](C)C(=O)Nc1ccc(C)cc1C(=O)NCCCCNC(=O)c1ccc(-c2c3nc(c(-c4c(F)c(F)c(F)c(F)c4F)c4ccc([nH]4)c(-c4c(F)c(F)c(F)c(F)c4F)c4nc(c(-c5c(F)c(F)c(F)c(F)c5F)c5ccc2[nH]5)C=C4)C=C3)cc1
REMARK SMILES IDX 21 1 20 2 19 3 17 4 18 5 16 7 10 8 11 9 12 10 15 11 13 12
REMARK SMILES IDX 14 13 9 14 7 15 8 16 5 18 6 19 4 20 1 21 2 22 3 23 22 25
REMARK SMILES IDX 23 26 24 27 25 28 26 30 27 31 28 32 89 33 29 34 88 35 30 36
REMARK SMILES IDX 31 37 32 38 82 39 33 40 87 41 81 42 83 43 34 44 86 45 80 46
REMARK SMILES IDX 79 47 35 49 67 50 47 51 66 52 48 53 51 54 65 55 84 56 49 57
REMARK SMILES IDX 50 58 64 60 85 61 52 62 36 63 37 64 45 65 38 66 39 67 43 68
REMARK SMILES IDX 46 69 40 70 41 71 44 72 42 73 68 74 69 75 77 76 70 77 71 78
REMARK SMILES IDX 75 79 78 80 72 81 73 82 76 83 74 84 53 85 54 86 62 87 55 88
REMARK SMILES IDX 56 89 60 90 63 91 57 92 58 93 61 94 59 95
REMARK H PARENT 19 6 9 17 4 24 24 29 83 48 51 59
REMARK Flexibility Score: inf
ROOT
ATOM      1  C   UNL A   1      37.122  21.602  24.384  1.00  0.00     0.023 C 
ENDROOT
BRANCH   1   2
ATOM      2  C   UNL A   1      36.603  22.966  23.944  1.00  0.00     0.116 C 
BRANCH   2   3
ATOM      3  N   UNL A   1      35.492  23.008  23.032  1.00  0.00    -0.352 N 
ATOM      4  C   UNL A   1      34.402  23.850  22.945  1.00  0.00     0.253 C 
ATOM      5  O   UNL A   1      33.652  23.637  21.986  1.00  0.00    -0.269 OA
ATOM      6  H   UNL A   1      35.512  22.305  22.341  1.00  0.00     0.163 HD
BRANCH   4   7
ATOM      7  C   UNL A   1      34.008  24.951  23.901  1.00  0.00     0.063 A 
ATOM      8  C   UNL A   1      34.119  25.024  25.303  1.00  0.00     0.054 A 
ATOM      9  C   UNL A   1      33.835  26.226  25.978  1.00  0.00     0.027 A 
ATOM     10  C   UNL A   1      33.305  27.326  25.316  1.00  0.00     0.005 A 
ATOM     11  C   UNL A   1      33.455  26.088  23.255  1.00  0.00     0.019 A 
ATOM     12  C   UNL A   1      33.068  27.250  23.949  1.00  0.00    -0.050 A 
ATOM     13  C   UNL A   1      32.450  28.408  23.222  1.00  0.00     0.044 C 
BRANCH   8  14
ATOM     14  N   UNL A   1      34.554  23.983  26.124  1.00  0.00    -0.324 N 
ATOM     15  C   UNL A   1      33.845  22.851  26.468  1.00  0.00     0.246 C 
ATOM     16  O   UNL A   1      34.409  22.038  27.208  1.00  0.00    -0.272 OA
ATOM     17  H   UNL A   1      35.462  24.065  26.497  1.00  0.00     0.170 HD
BRANCH  15  18
ATOM     18  C   UNL A   1      32.436  22.510  25.871  1.00  0.00     0.168 C 
ATOM     19  C   UNL A   1      31.242  23.303  26.400  1.00  0.00     0.041 C 
BRANCH  18  20
ATOM     20  N   UNL A   1      32.152  21.086  25.912  1.00  0.00    -0.345 N 
ATOM     21  C   UNL A   1      32.528  20.698  23.512  1.00  0.00     0.114 C 
ATOM     22  C   UNL A   1      32.280  20.182  24.901  1.00  0.00     0.217 C 
ATOM     23  O   UNL A   1      32.152  18.987  25.150  1.00  0.00    -0.275 OA
ATOM     24  H   UNL A   1      31.826  20.732  26.772  1.00  0.00     0.164 HD
ENDBRANCH  18  20
ENDBRANCH  15  18
ENDBRANCH   8  14
ENDBRANCH   4   7
ENDBRANCH   2   3
ENDBRANCH   1   2
BRANCH   1  25
ATOM     25  C   UNL A   1      37.978  21.544  25.634  1.00  0.00     0.023 C 
BRANCH  25  26
ATOM     26  C   UNL A   1      38.507  22.876  26.133  1.00  0.00     0.116 C 
BRANCH  26  27
ATOM     27  N   UNL A   1      39.852  22.879  26.676  1.00  0.00    -0.352 N 
ATOM     28  C   UNL A   1      40.637  23.943  27.107  1.00  0.00     0.251 C 
ATOM     29  H   UNL A   1      40.273  21.993  26.749  1.00  0.00     0.163 HD
ATOM     30  O   UNL A   1      41.803  23.731  27.394  1.00  0.00    -0.269 OA
BRANCH  28  31
ATOM     31  C   UNL A   1      40.053  25.297  27.361  1.00  0.00     0.039 A 
ATOM     32  C   UNL A   1      40.415  26.352  26.504  1.00  0.00     0.014 A 
ATOM     33  C   UNL A   1      39.319  25.592  28.501  1.00  0.00     0.014 A 
ATOM     34  C   UNL A   1      40.250  27.679  26.915  1.00  0.00     0.010 A 
ATOM     35  C   UNL A   1      39.276  26.879  28.973  1.00  0.00     0.010 A 
ATOM     36  C   UNL A   1      39.786  27.918  28.202  1.00  0.00    -0.014 A 
BRANCH  36  37
ATOM     37  C   UNL A   1      39.871  29.181  28.912  1.00  0.00     0.031 A 
ATOM     38  C   UNL A   1      38.816  30.198  28.752  1.00  0.00     0.074 A 
ATOM     39  C   UNL A   1      40.761  29.256  29.927  1.00  0.00     0.049 A 
ATOM     40  N   UNL A   1      38.948  31.434  29.093  1.00  0.00    -0.248 NA
ATOM     41  C   UNL A   1      37.503  29.895  28.190  1.00  0.00     0.031 C 
ATOM     42  C   UNL A   1      40.778  30.203  31.036  1.00  0.00     0.029 A 
ATOM     43  N   UNL A   1      41.959  28.537  30.065  1.00  0.00    -0.354 N 
ATOM     44  C   UNL A   1      37.695  32.004  29.080  1.00  0.00     0.074 A 
ATOM     45  C   UNL A   1      36.838  31.025  28.455  1.00  0.00     0.031 C 
ATOM     46  C   UNL A   1      42.014  30.234  31.559  1.00  0.00     0.029 A 
ATOM     47  C   UNL A   1      42.859  29.424  30.697  1.00  0.00     0.049 A 
ATOM     48  H   UNL A   1      42.135  27.610  29.782  1.00  0.00     0.167 HD
ATOM     49  C   UNL A   1      37.497  33.183  29.736  1.00  0.00     0.037 A 
ATOM     50  C   UNL A   1      43.949  29.895  30.022  1.00  0.00     0.037 A 
ATOM     51  C   UNL A   1      38.743  33.661  30.333  1.00  0.00     0.049 A 
ATOM     52  C   UNL A   1      43.938  31.393  29.839  1.00  0.00     0.074 A 
ATOM     53  C   UNL A   1      39.252  33.567  31.619  1.00  0.00     0.029 A 
ATOM     54  N   UNL A   1      39.811  34.012  29.512  1.00  0.00    -0.354 N 
ATOM     55  N   UNL A   1      42.858  32.125  29.864  1.00  0.00    -0.248 NA
ATOM     56  C   UNL A   1      45.145  32.180  29.610  1.00  0.00     0.031 C 
ATOM     57  C   UNL A   1      40.644  33.816  31.561  1.00  0.00     0.029 A 
ATOM     58  C   UNL A   1      40.982  34.078  30.244  1.00  0.00     0.049 A 
ATOM     59  H   UNL A   1      39.743  34.189  28.547  1.00  0.00     0.167 HD
ATOM     60  C   UNL A   1      43.193  33.439  29.657  1.00  0.00     0.074 A 
ATOM     61  C   UNL A   1      44.638  33.421  29.516  1.00  0.00     0.031 C 
ATOM     62  C   UNL A   1      42.251  34.428  29.622  1.00  0.00     0.037 A 
BRANCH  49  63
ATOM     63  C   UNL A   1      36.128  33.721  30.091  1.00  0.00     0.064 A 
ATOM     64  C   UNL A   1      35.256  34.210  29.096  1.00  0.00     0.173 A 
ATOM     65  C   UNL A   1      35.638  33.822  31.406  1.00  0.00     0.173 A 
ATOM     66  F   UNL A   1      35.535  34.085  27.793  1.00  0.00    -0.203 F 
ATOM     67  C   UNL A   1      34.054  34.856  29.399  1.00  0.00     0.198 A 
ATOM     68  C   UNL A   1      34.462  34.516  31.715  1.00  0.00     0.198 A 
ATOM     69  F   UNL A   1      36.258  33.214  32.426  1.00  0.00    -0.203 F 
ATOM     70  F   UNL A   1      33.274  35.309  28.408  1.00  0.00    -0.200 F 
ATOM     71  C   UNL A   1      33.676  35.044  30.712  1.00  0.00     0.200 A 
ATOM     72  F   UNL A   1      34.098  34.670  32.997  1.00  0.00    -0.200 F 
ATOM     73  F   UNL A   1      32.548  35.706  31.006  1.00  0.00    -0.200 F 
ENDBRANCH  49  63
BRANCH  50  74
ATOM     74  C   UNL A   1      44.483  28.913  29.038  1.00  0.00     0.064 A 
ATOM     75  C   UNL A   1      45.243  27.831  29.527  1.00  0.00     0.173 A 
ATOM     76  C   UNL A   1      43.936  28.788  27.754  1.00  0.00     0.173 A 
ATOM     77  F   UNL A   1      45.789  27.900  30.753  1.00  0.00    -0.203 F 
ATOM     78  C   UNL A   1      45.345  26.635  28.819  1.00  0.00     0.198 A 
ATOM     79  C   UNL A   1      44.053  27.591  27.042  1.00  0.00     0.198 A 
ATOM     80  F   UNL A   1      43.188  29.773  27.237  1.00  0.00    -0.203 F 
ATOM     81  F   UNL A   1      45.984  25.589  29.362  1.00  0.00    -0.200 F 
ATOM     82  C   UNL A   1      44.722  26.507  27.590  1.00  0.00     0.200 A 
ATOM     83  F   UNL A   1      43.431  27.456  25.861  1.00  0.00    -0.200 F 
ATOM     84  F   UNL A   1      44.736  25.329  26.949  1.00  0.00    -0.200 F 
ENDBRANCH  50  74
BRANCH  62  85
ATOM     85  C   UNL A   1      42.454  35.844  29.128  1.00  0.00     0.064 A 
ATOM     86  C   UNL A   1      41.882  36.357  27.952  1.00  0.00     0.173 A 
ATOM     87  C   UNL A   1      43.139  36.795  29.927  1.00  0.00     0.173 A 
ATOM     88  F   UNL A   1      41.092  35.609  27.173  1.00  0.00    -0.203 F 
ATOM     89  C   UNL A   1      42.051  37.690  27.563  1.00  0.00     0.198 A 
ATOM     90  C   UNL A   1      43.248  38.138  29.570  1.00  0.00     0.198 A 
ATOM     91  F   UNL A   1      43.701  36.461  31.098  1.00  0.00    -0.203 F 
ATOM     92  F   UNL A   1      41.529  38.112  26.404  1.00  0.00    -0.200 F 
ATOM     93  C   UNL A   1      42.722  38.582  28.377  1.00  0.00     0.200 A 
ATOM     94  F   UNL A   1      43.848  39.001  30.402  1.00  0.00    -0.200 F 
ATOM     95  F   UNL A   1      42.840  39.868  28.022  1.00  0.00    -0.200 F 
ENDBRANCH  62  85
ENDBRANCH  36  37
ENDBRANCH  28  31
ENDBRANCH  26  27
ENDBRANCH  25  26
ENDBRANCH   1  25
TORSDOF 14
ENDMDL
MODEL 3
REMARK VINA RESULT:     -13.3      3.770      9.798
REMARK SMILES CC(=O)N[C@@H](C)C(=O)Nc1ccc(C)cc1C(=O)NCCCCNC(=O)c1ccc(-c2c3nc(c(-c4c(F)c(F)c(F)c(F)c4F)c4ccc([nH]4)c(-c4c(F)c(F)c(F)c(F)c4F)c4nc(c(-c5c(F)c(F)c(F)c(F)c5F)c5ccc2[nH]5)C=C4)C=C3)cc1
REMARK SMILES IDX 21 1 20 2 19 3 17 4 18 5 16 7 10 8 11 9 12 10 15 11 13 12
REMARK SMILES IDX 14 13 9 14 7 15 8 16 5 18 6 19 4 20 1 21 2 22 3 23 22 25
REMARK SMILES IDX 23 26 24 27 25 28 26 30 27 31 28 32 89 33 29 34 88 35 30 36
REMARK SMILES IDX 31 37 32 38 82 39 33 40 87 41 81 42 83 43 34 44 86 45 80 46
REMARK SMILES IDX 79 47 35 49 67 50 47 51 66 52 48 53 51 54 65 55 84 56 49 57
REMARK SMILES IDX 50 58 64 60 85 61 52 62 36 63 37 64 45 65 38 66 39 67 43 68
REMARK SMILES IDX 46 69 40 70 41 71 44 72 42 73 68 74 69 75 77 76 70 77 71 78
REMARK SMILES IDX 75 79 78 80 72 81 73 82 76 83 74 84 53 85 54 86 62 87 55 88
REMARK SMILES IDX 56 89 60 90 63 91 57 92 58 93 61 94 59 95
REMARK H PARENT 19 6 9 17 4 24 24 29 83 48 51 59
REMARK Flexibility Score: inf
ROOT
ATOM      1  C   UNL A   1      36.803  22.673  24.156  1.00  0.00     0.023 C 
ENDROOT
BRANCH   1   2
ATOM      2  C   UNL A   1      36.250  23.951  24.775  1.00  0.00     0.116 C 
BRANCH   2   3
ATOM      3  N   UNL A   1      35.059  23.858  25.577  1.00  0.00    -0.352 N 
ATOM      4  C   UNL A   1      34.015  24.737  25.782  1.00  0.00     0.253 C 
ATOM      5  O   UNL A   1      33.106  24.308  26.501  1.00  0.00    -0.269 OA
ATOM      6  H   UNL A   1      34.973  23.009  26.071  1.00  0.00     0.163 HD
BRANCH   4   7
ATOM      7  C   UNL A   1      33.887  26.153  25.274  1.00  0.00     0.063 A 
ATOM      8  C   UNL A   1      33.737  26.640  23.961  1.00  0.00     0.054 A 
ATOM      9  C   UNL A   1      33.470  28.003  23.733  1.00  0.00     0.027 A 
ATOM     10  C   UNL A   1      33.486  28.931  24.767  1.00  0.00     0.005 A 
ATOM     11  C   UNL A   1      33.907  27.127  26.306  1.00  0.00     0.019 A 
ATOM     12  C   UNL A   1      33.749  28.504  26.063  1.00  0.00    -0.050 A 
ATOM     13  C   UNL A   1      33.821  29.496  27.187  1.00  0.00     0.044 C 
BRANCH   8  14
ATOM     14  N   UNL A   1      33.780  25.854  22.809  1.00  0.00    -0.324 N 
ATOM     15  C   UNL A   1      32.888  24.864  22.452  1.00  0.00     0.246 C 
ATOM     16  O   UNL A   1      33.095  24.280  21.382  1.00  0.00    -0.272 OA
ATOM     17  H   UNL A   1      34.524  26.023  22.186  1.00  0.00     0.170 HD
BRANCH  15  18
ATOM     18  C   UNL A   1      31.587  24.549  23.269  1.00  0.00     0.168 C 
ATOM     19  C   UNL A   1      31.037  23.126  23.184  1.00  0.00     0.041 C 
BRANCH  18  20
ATOM     20  N   UNL A   1      30.530  25.513  23.014  1.00  0.00    -0.345 N 
ATOM     21  C   UNL A   1      30.234  26.169  25.366  1.00  0.00     0.114 C 
ATOM     22  C   UNL A   1      29.947  26.362  23.904  1.00  0.00     0.217 C 
ATOM     23  O   UNL A   1      29.180  27.227  23.489  1.00  0.00    -0.275 OA
ATOM     24  H   UNL A   1      30.196  25.557  22.089  1.00  0.00     0.164 HD
ENDBRANCH  18  20
ENDBRANCH  15  18
ENDBRANCH   8  14
ENDBRANCH   4   7
ENDBRANCH   2   3
ENDBRANCH   1   2
BRANCH   1  25
ATOM     25  C   UNL A   1      37.789  21.863  24.976  1.00  0.00     0.023 C 
BRANCH  25  26
ATOM     26  C   UNL A   1      38.354  22.558  26.201  1.00  0.00     0.116 C 
BRANCH  26  27
ATOM     27  N   UNL A   1      39.798  22.560  26.340  1.00  0.00    -0.352 N 
ATOM     28  C   UNL A   1      40.678  23.625  26.499  1.00  0.00     0.251 C 
ATOM     29  H   UNL A   1      40.220  21.671  26.318  1.00  0.00     0.163 HD
ATOM     30  O   UNL A   1      41.876  23.408  26.450  1.00  0.00    -0.269 OA
BRANCH  28  31
ATOM     31  C   UNL A   1      40.195  24.993  26.867  1.00  0.00     0.039 A 
ATOM     32  C   UNL A   1      40.632  26.086  26.098  1.00  0.00     0.014 A 
ATOM     33  C   UNL A   1      39.485  25.245  28.033  1.00  0.00     0.014 A 
ATOM     34  C   UNL A   1      40.566  27.383  26.617  1.00  0.00     0.010 A 
ATOM     35  C   UNL A   1      39.538  26.489  28.609  1.00  0.00     0.010 A 
ATOM     36  C   UNL A   1      40.122  27.548  27.923  1.00  0.00    -0.014 A 
BRANCH  36  37
ATOM     37  C   UNL A   1      40.299  28.738  28.734  1.00  0.00     0.031 A 
ATOM     38  C   UNL A   1      39.215  29.731  28.848  1.00  0.00     0.074 A 
ATOM     39  C   UNL A   1      41.341  28.745  29.595  1.00  0.00     0.049 A 
ATOM     40  N   UNL A   1      39.380  30.932  29.286  1.00  0.00    -0.248 NA
ATOM     41  C   UNL A   1      37.834  29.441  28.476  1.00  0.00     0.031 C 
ATOM     42  C   UNL A   1      41.522  29.580  30.777  1.00  0.00     0.029 A 
ATOM     43  N   UNL A   1      42.558  28.056  29.467  1.00  0.00    -0.354 N 
ATOM     44  C   UNL A   1      38.133  31.459  29.532  1.00  0.00     0.074 A 
ATOM     45  C   UNL A   1      37.202  30.516  28.957  1.00  0.00     0.031 C 
ATOM     46  C   UNL A   1      42.827  29.601  31.095  1.00  0.00     0.029 A 
ATOM     47  C   UNL A   1      43.533  28.906  30.032  1.00  0.00     0.049 A 
ATOM     48  H   UNL A   1      42.701  27.167  29.067  1.00  0.00     0.167 HD
ATOM     49  C   UNL A   1      38.024  32.562  30.327  1.00  0.00     0.037 A 
ATOM     50  C   UNL A   1      44.491  29.476  29.241  1.00  0.00     0.037 A 
ATOM     51  C   UNL A   1      39.342  33.020  30.761  1.00  0.00     0.049 A 
ATOM     52  C   UNL A   1      44.425  30.984  29.214  1.00  0.00     0.074 A 
ATOM     53  C   UNL A   1      40.055  32.820  31.933  1.00  0.00     0.029 A 
ATOM     54  N   UNL A   1      40.257  33.484  29.819  1.00  0.00    -0.354 N 
ATOM     55  N   UNL A   1      43.352  31.674  29.486  1.00  0.00    -0.248 NA
ATOM     56  C   UNL A   1      45.565  31.828  28.876  1.00  0.00     0.031 C 
ATOM     57  C   UNL A   1      41.415  33.119  31.678  1.00  0.00     0.029 A 
ATOM     58  C   UNL A   1      41.529  33.518  30.357  1.00  0.00     0.049 A 
ATOM     59  H   UNL A   1      40.028  33.752  28.900  1.00  0.00     0.167 HD
ATOM     60  C   UNL A   1      43.626  33.012  29.362  1.00  0.00     0.074 A 
ATOM     61  C   UNL A   1      45.029  33.056  28.990  1.00  0.00     0.031 C 
ATOM     62  C   UNL A   1      42.674  33.968  29.578  1.00  0.00     0.037 A 
BRANCH  49  63
ATOM     63  C   UNL A   1      36.722  33.017  30.949  1.00  0.00     0.064 A 
ATOM     64  C   UNL A   1      35.790  33.781  30.214  1.00  0.00     0.173 A 
ATOM     65  C   UNL A   1      36.358  32.769  32.285  1.00  0.00     0.173 A 
ATOM     66  F   UNL A   1      35.945  34.008  28.904  1.00  0.00    -0.203 F 
ATOM     67  C   UNL A   1      34.656  34.350  30.800  1.00  0.00     0.198 A 
ATOM     68  C   UNL A   1      35.252  33.382  32.886  1.00  0.00     0.198 A 
ATOM     69  F   UNL A   1      37.035  31.890  33.036  1.00  0.00    -0.203 F 
ATOM     70  F   UNL A   1      33.814  35.076  30.050  1.00  0.00    -0.200 F 
ATOM     71  C   UNL A   1      34.407  34.183  32.145  1.00  0.00     0.200 A 
ATOM     72  F   UNL A   1      35.014  33.190  34.192  1.00  0.00    -0.200 F 
ATOM     73  F   UNL A   1      33.347  34.769  32.718  1.00  0.00    -0.200 F 
ENDBRANCH  49  63
BRANCH  50  74
ATOM     74  C   UNL A   1      44.875  28.612  28.091  1.00  0.00     0.064 A 
ATOM     75  C   UNL A   1      45.666  27.475  28.351  1.00  0.00     0.173 A 
ATOM     76  C   UNL A   1      44.167  28.643  26.882  1.00  0.00     0.173 A 
ATOM     77  F   UNL A   1      46.363  27.396  29.496  1.00  0.00    -0.203 F 
ATOM     78  C   UNL A   1      45.650  26.369  27.503  1.00  0.00     0.198 A 
ATOM     79  C   UNL A   1      44.166  27.536  26.028  1.00  0.00     0.198 A 
ATOM     80  F   UNL A   1      43.382  29.687  26.582  1.00  0.00    -0.203 F 
ATOM     81  F   UNL A   1      46.328  25.262  27.835  1.00  0.00    -0.200 F 
ATOM     82  C   UNL A   1      44.875  26.390  26.356  1.00  0.00     0.200 A 
ATOM     83  F   UNL A   1      43.397  27.545  24.929  1.00  0.00    -0.200 F 
ATOM     84  F   UNL A   1      44.780  25.296  25.588  1.00  0.00    -0.200 F 
ENDBRANCH  50  74
BRANCH  62  85
ATOM     85  C   UNL A   1      42.770  35.431  29.203  1.00  0.00     0.064 A 
ATOM     86  C   UNL A   1      42.099  36.010  28.114  1.00  0.00     0.173 A 
ATOM     87  C   UNL A   1      43.453  36.348  30.043  1.00  0.00     0.173 A 
ATOM     88  F   UNL A   1      41.302  35.288  27.317  1.00  0.00    -0.203 F 
ATOM     89  C   UNL A   1      42.171  37.380  27.838  1.00  0.00     0.198 A 
ATOM     90  C   UNL A   1      43.467  37.721  29.804  1.00  0.00     0.198 A 
ATOM     91  F   UNL A   1      44.104  35.946  31.145  1.00  0.00    -0.203 F 
ATOM     92  F   UNL A   1      41.555  37.870  26.753  1.00  0.00    -0.200 F 
ATOM     93  C   UNL A   1      42.844  38.235  28.688  1.00  0.00     0.200 A 
ATOM     94  F   UNL A   1      44.071  38.542  30.674  1.00  0.00    -0.200 F 
ATOM     95  F   UNL A   1      42.871  39.552  28.445  1.00  0.00    -0.200 F 
ENDBRANCH  62  85
ENDBRANCH  36  37
ENDBRANCH  28  31
ENDBRANCH  26  27
ENDBRANCH  25  26
ENDBRANCH   1  25
TORSDOF 14
ENDMDL
