MODEL 1
REMARK VINA RESULT:     -13.4      0.000      0.000
REMARK SMILES O=C(NCCCCNC(=O)[C@H]1Cc2[nH]cnc2CN1S(=O)(=O)c1cccs1)c1ccc(-c2c3nc(c(-c4c(F)c(F)c(F)c(F)c4F)c4ccc([nH]4)c(-c4c(F)c(F)c(F)c(F)c4F)c4nc(c(-c5c(F)c(F)c(F)c(F)c5F)c5ccc2[nH]5)C=C4)C=C3)cc1
REMARK SMILES IDX 5 1 4 2 3 3 1 4 2 5 28 7 29 8 90 9 30 10 89 11 31 12 32 13
REMARK SMILES IDX 33 14 83 15 34 16 88 17 82 18 84 19 35 20 87 21 81 22 80 23
REMARK SMILES IDX 36 25 68 26 48 27 67 28 49 29 52 30 66 31 85 32 50 33 51 34
REMARK SMILES IDX 65 36 86 37 53 38 37 39 38 40 46 41 39 42 40 43 44 44 47 45
REMARK SMILES IDX 41 46 42 47 45 48 43 49 69 50 70 51 78 52 71 53 72 54 76 55
REMARK SMILES IDX 79 56 73 57 74 58 77 59 75 60 54 61 55 62 63 63 56 64 57 65
REMARK SMILES IDX 61 66 64 67 58 68 59 69 62 70 60 71 6 72 7 73 8 74 9 75
REMARK SMILES IDX 10 77 11 78 12 79 19 80 13 81 18 82 14 83 17 84 15 85 16 87
REMARK SMILES IDX 20 88 21 89 22 90 23 91 24 92 27 93 25 94 26 95
REMARK H PARENT 3 6 84 24 52 35 8 76 14 86
REMARK Flexibility Score: inf
ROOT
ATOM      1  C   UNL A   1      31.965  29.898  26.852  1.00  0.00     0.023 C 
ENDROOT
BRANCH   1   2
ATOM      2  C   UNL A   1      33.392  30.435  26.829  1.00  0.00     0.116 C 
BRANCH   2   3
ATOM      3  N   UNL A   1      33.665  31.442  27.828  1.00  0.00    -0.352 N 
ATOM      4  O   UNL A   1      34.632  32.825  29.241  1.00  0.00    -0.269 OA
ATOM      5  C   UNL A   1      34.752  31.792  28.577  1.00  0.00     0.251 C 
ATOM      6  H   UNL A   1      32.883  32.012  28.012  1.00  0.00     0.163 HD
BRANCH   5   7
ATOM      7  C   UNL A   1      36.017  31.015  28.689  1.00  0.00     0.039 A 
ATOM      8  C   UNL A   1      36.138  29.625  28.648  1.00  0.00     0.014 A 
ATOM      9  C   UNL A   1      37.181  31.780  28.899  1.00  0.00     0.014 A 
ATOM     10  C   UNL A   1      37.365  29.012  28.900  1.00  0.00     0.010 A 
ATOM     11  C   UNL A   1      38.412  31.176  29.127  1.00  0.00     0.010 A 
ATOM     12  C   UNL A   1      38.495  29.788  29.165  1.00  0.00    -0.014 A 
BRANCH  12  13
ATOM     13  C   UNL A   1      39.775  29.111  29.362  1.00  0.00     0.031 A 
ATOM     14  C   UNL A   1      40.210  28.951  30.784  1.00  0.00     0.074 A 
ATOM     15  C   UNL A   1      40.442  28.505  28.360  1.00  0.00     0.049 A 
ATOM     16  N   UNL A   1      41.339  29.277  31.332  1.00  0.00    -0.248 NA
ATOM     17  C   UNL A   1      39.229  28.401  31.733  1.00  0.00     0.031 C 
ATOM     18  C   UNL A   1      39.997  28.298  26.980  1.00  0.00     0.029 A 
ATOM     19  N   UNL A   1      41.630  27.836  28.404  1.00  0.00    -0.354 N 
ATOM     20  C   UNL A   1      41.270  28.843  32.657  1.00  0.00     0.074 A 
ATOM     21  C   UNL A   1      39.916  28.410  32.876  1.00  0.00     0.031 C 
ATOM     22  C   UNL A   1      40.791  27.376  26.389  1.00  0.00     0.029 A 
ATOM     23  C   UNL A   1      41.866  27.027  27.302  1.00  0.00     0.049 A 
ATOM     24  H   UNL A   1      42.264  27.920  29.153  1.00  0.00     0.167 HD
ATOM     25  C   UNL A   1      42.382  28.700  33.431  1.00  0.00     0.037 A 
ATOM     26  C   UNL A   1      42.831  26.082  27.182  1.00  0.00     0.037 A 
ATOM     27  C   UNL A   1      43.476  29.490  32.935  1.00  0.00     0.049 A 
ATOM     28  C   UNL A   1      43.866  26.353  28.206  1.00  0.00     0.074 A 
ATOM     29  C   UNL A   1      43.689  30.840  32.734  1.00  0.00     0.029 A 
ATOM     30  N   UNL A   1      44.495  28.860  32.266  1.00  0.00    -0.354 N 
ATOM     31  N   UNL A   1      44.672  27.378  28.185  1.00  0.00    -0.248 NA
ATOM     32  C   UNL A   1      43.733  25.689  29.494  1.00  0.00     0.031 C 
ATOM     33  C   UNL A   1      44.493  30.915  31.559  1.00  0.00     0.029 A 
ATOM     34  C   UNL A   1      44.748  29.607  31.147  1.00  0.00     0.049 A 
ATOM     35  H   UNL A   1      44.954  28.032  32.537  1.00  0.00     0.167 HD
ATOM     36  C   UNL A   1      44.812  27.743  29.514  1.00  0.00     0.074 A 
ATOM     37  C   UNL A   1      44.293  26.613  30.278  1.00  0.00     0.031 C 
ATOM     38  C   UNL A   1      45.075  29.034  29.866  1.00  0.00     0.037 A 
BRANCH  25  39
ATOM     39  C   UNL A   1      42.587  27.591  34.442  1.00  0.00     0.064 A 
ATOM     40  C   UNL A   1      43.123  26.358  34.011  1.00  0.00     0.173 A 
ATOM     41  C   UNL A   1      41.989  27.575  35.720  1.00  0.00     0.173 A 
ATOM     42  F   UNL A   1      43.718  26.250  32.813  1.00  0.00    -0.203 F 
ATOM     43  C   UNL A   1      42.972  25.184  34.755  1.00  0.00     0.198 A 
ATOM     44  C   UNL A   1      41.886  26.411  36.482  1.00  0.00     0.198 A 
ATOM     45  F   UNL A   1      41.385  28.650  36.240  1.00  0.00    -0.203 F 
ATOM     46  F   UNL A   1      43.372  24.014  34.238  1.00  0.00    -0.200 F 
ATOM     47  C   UNL A   1      42.341  25.210  35.984  1.00  0.00     0.200 A 
ATOM     48  F   UNL A   1      41.263  26.454  37.669  1.00  0.00    -0.200 F 
ATOM     49  F   UNL A   1      42.128  24.076  36.664  1.00  0.00    -0.200 F 
ENDBRANCH  25  39
BRANCH  26  50
ATOM     50  C   UNL A   1      42.756  24.793  26.455  1.00  0.00     0.064 A 
ATOM     51  C   UNL A   1      43.612  24.510  25.379  1.00  0.00     0.173 A 
ATOM     52  C   UNL A   1      42.026  23.706  26.976  1.00  0.00     0.173 A 
ATOM     53  F   UNL A   1      44.384  25.476  24.859  1.00  0.00    -0.203 F 
ATOM     54  C   UNL A   1      43.739  23.214  24.864  1.00  0.00     0.198 A 
ATOM     55  C   UNL A   1      42.145  22.418  26.456  1.00  0.00     0.198 A 
ATOM     56  F   UNL A   1      41.253  23.855  28.063  1.00  0.00    -0.203 F 
ATOM     57  F   UNL A   1      44.610  22.970  23.875  1.00  0.00    -0.200 F 
ATOM     58  C   UNL A   1      43.010  22.169  25.408  1.00  0.00     0.200 A 
ATOM     59  F   UNL A   1      41.464  21.409  27.019  1.00  0.00    -0.200 F 
ATOM     60  F   UNL A   1      43.175  20.919  24.954  1.00  0.00    -0.200 F 
ENDBRANCH  26  50
BRANCH  38  61
ATOM     61  C   UNL A   1      45.468  29.993  28.780  1.00  0.00     0.064 A 
ATOM     62  C   UNL A   1      44.542  30.689  27.984  1.00  0.00     0.173 A 
ATOM     63  C   UNL A   1      46.818  30.339  28.652  1.00  0.00     0.173 A 
ATOM     64  F   UNL A   1      43.225  30.491  28.126  1.00  0.00    -0.203 F 
ATOM     65  C   UNL A   1      44.958  31.656  27.072  1.00  0.00     0.198 A 
ATOM     66  C   UNL A   1      47.228  31.331  27.767  1.00  0.00     0.198 A 
ATOM     67  F   UNL A   1      47.741  29.750  29.432  1.00  0.00    -0.203 F 
ATOM     68  F   UNL A   1      44.054  32.302  26.320  1.00  0.00    -0.200 F 
ATOM     69  C   UNL A   1      46.299  31.983  26.971  1.00  0.00     0.200 A 
ATOM     70  F   UNL A   1      48.520  31.681  27.710  1.00  0.00    -0.200 F 
ATOM     71  F   UNL A   1      46.695  32.947  26.128  1.00  0.00    -0.200 F 
ENDBRANCH  38  61
ENDBRANCH  12  13
ENDBRANCH   5   7
ENDBRANCH   2   3
ENDBRANCH   1   2
BRANCH   1  72
ATOM     72  C   UNL A   1      31.776  28.539  27.528  1.00  0.00     0.023 C 
BRANCH  72  73
ATOM     73  C   UNL A   1      32.369  27.325  26.815  1.00  0.00     0.116 C 
BRANCH  73  74
ATOM     74  N   UNL A   1      31.508  26.158  26.875  1.00  0.00    -0.355 N 
ATOM     75  C   UNL A   1      31.694  24.873  26.472  1.00  0.00     0.238 C 
ATOM     76  H   UNL A   1      30.627  26.329  27.283  1.00  0.00     0.163 HD
ATOM     77  O   UNL A   1      30.805  24.076  26.792  1.00  0.00    -0.273 OA
BRANCH  75  78
ATOM     78  C   UNL A   1      32.925  24.429  25.699  1.00  0.00     0.168 C 
ATOM     79  C   UNL A   1      33.598  23.337  26.625  1.00  0.00     0.086 C 
ATOM     80  N   UNL A   1      32.761  23.805  24.315  1.00  0.00    -0.178 NA
ATOM     81  C   UNL A   1      34.838  22.866  25.972  1.00  0.00     0.041 A 
ATOM     82  C   UNL A   1      34.153  23.625  23.665  1.00  0.00     0.161 C 
ATOM     83  N   UNL A   1      35.909  22.214  26.501  1.00  0.00    -0.348 N 
ATOM     84  C   UNL A   1      35.093  22.992  24.631  1.00  0.00     0.077 A 
ATOM     85  C   UNL A   1      36.800  22.036  25.474  1.00  0.00     0.197 A 
ATOM     86  H   UNL A   1      36.021  21.926  27.436  1.00  0.00     0.167 HD
ATOM     87  N   UNL A   1      36.336  22.504  24.333  1.00  0.00    -0.240 NA
BRANCH  80  88
ATOM     88  S   UNL A   1      31.774  24.523  23.131  1.00  0.00     0.253 S 
ATOM     89  O   UNL A   1      32.484  24.382  21.880  1.00  0.00    -0.206 OA
ATOM     90  O   UNL A   1      30.466  23.916  23.291  1.00  0.00    -0.206 OA
BRANCH  88  91
ATOM     91  C   UNL A   1      31.442  26.268  23.313  1.00  0.00     0.135 A 
ATOM     92  C   UNL A   1      30.356  27.067  23.619  1.00  0.00     0.033 A 
ATOM     93  S   UNL A   1      32.835  27.258  23.035  1.00  0.00    -0.131 S 
ATOM     94  C   UNL A   1      30.675  28.457  23.691  1.00  0.00     0.013 A 
ATOM     95  C   UNL A   1      31.981  28.702  23.342  1.00  0.00     0.066 A 
ENDBRANCH  88  91
ENDBRANCH  80  88
ENDBRANCH  75  78
ENDBRANCH  73  74
ENDBRANCH  72  73
ENDBRANCH   1  72
TORSDOF 13
ENDMDL
MODEL 2
REMARK VINA RESULT:     -13.2      3.047      8.705
REMARK SMILES O=C(NCCCCNC(=O)[C@H]1Cc2[nH]cnc2CN1S(=O)(=O)c1cccs1)c1ccc(-c2c3nc(c(-c4c(F)c(F)c(F)c(F)c4F)c4ccc([nH]4)c(-c4c(F)c(F)c(F)c(F)c4F)c4nc(c(-c5c(F)c(F)c(F)c(F)c5F)c5ccc2[nH]5)C=C4)C=C3)cc1
REMARK SMILES IDX 5 1 4 2 3 3 1 4 2 5 28 7 29 8 90 9 30 10 89 11 31 12 32 13
REMARK SMILES IDX 33 14 83 15 34 16 88 17 82 18 84 19 35 20 87 21 81 22 80 23
REMARK SMILES IDX 36 25 68 26 48 27 67 28 49 29 52 30 66 31 85 32 50 33 51 34
REMARK SMILES IDX 65 36 86 37 53 38 37 39 38 40 46 41 39 42 40 43 44 44 47 45
REMARK SMILES IDX 41 46 42 47 45 48 43 49 69 50 70 51 78 52 71 53 72 54 76 55
REMARK SMILES IDX 79 56 73 57 74 58 77 59 75 60 54 61 55 62 63 63 56 64 57 65
REMARK SMILES IDX 61 66 64 67 58 68 59 69 62 70 60 71 6 72 7 73 8 74 9 75
REMARK SMILES IDX 10 77 11 78 12 79 19 80 13 81 18 82 14 83 17 84 15 85 16 87
REMARK SMILES IDX 20 88 21 89 22 90 23 91 24 92 27 93 25 94 26 95
REMARK H PARENT 3 6 84 24 52 35 8 76 14 86
REMARK Flexibility Score: inf
ROOT
ATOM      1  C   UNL A   1      37.046  21.621  24.604  1.00  0.00     0.023 C 
ENDROOT
BRANCH   1   2
ATOM      2  C   UNL A   1      37.804  22.267  25.760  1.00  0.00     0.116 C 
BRANCH   2   3
ATOM      3  N   UNL A   1      39.228  22.027  25.746  1.00  0.00    -0.352 N 
ATOM      4  O   UNL A   1      41.389  22.045  26.162  1.00  0.00    -0.269 OA
ATOM      5  C   UNL A   1      40.318  22.646  26.287  1.00  0.00     0.251 C 
ATOM      6  H   UNL A   1      39.470  21.227  25.224  1.00  0.00     0.163 HD
BRANCH   5   7
ATOM      7  C   UNL A   1      40.321  23.977  26.953  1.00  0.00     0.039 A 
ATOM      8  C   UNL A   1      39.367  24.983  26.792  1.00  0.00     0.014 A 
ATOM      9  C   UNL A   1      41.427  24.236  27.786  1.00  0.00     0.014 A 
ATOM     10  C   UNL A   1      39.554  26.238  27.368  1.00  0.00     0.010 A 
ATOM     11  C   UNL A   1      41.609  25.477  28.383  1.00  0.00     0.010 A 
ATOM     12  C   UNL A   1      40.688  26.492  28.142  1.00  0.00    -0.014 A 
BRANCH  12  13
ATOM     13  C   UNL A   1      40.817  27.800  28.781  1.00  0.00     0.031 A 
ATOM     14  C   UNL A   1      41.915  28.671  28.256  1.00  0.00     0.074 A 
ATOM     15  C   UNL A   1      39.909  28.278  29.655  1.00  0.00     0.049 A 
ATOM     16  N   UNL A   1      42.856  29.277  28.910  1.00  0.00    -0.248 NA
ATOM     17  C   UNL A   1      42.001  28.842  26.797  1.00  0.00     0.031 C 
ATOM     18  C   UNL A   1      38.623  27.687  30.029  1.00  0.00     0.029 A 
ATOM     19  N   UNL A   1      39.903  29.474  30.313  1.00  0.00    -0.354 N 
ATOM     20  C   UNL A   1      43.567  30.023  27.968  1.00  0.00     0.074 A 
ATOM     21  C   UNL A   1      43.066  29.635  26.676  1.00  0.00     0.031 C 
ATOM     22  C   UNL A   1      37.873  28.616  30.664  1.00  0.00     0.029 A 
ATOM     23  C   UNL A   1      38.670  29.817  30.851  1.00  0.00     0.049 A 
ATOM     24  H   UNL A   1      40.702  30.042  30.399  1.00  0.00     0.167 HD
ATOM     25  C   UNL A   1      44.394  31.044  28.327  1.00  0.00     0.037 A 
ATOM     26  C   UNL A   1      38.309  31.028  31.342  1.00  0.00     0.037 A 
ATOM     27  C   UNL A   1      44.821  30.922  29.694  1.00  0.00     0.049 A 
ATOM     28  C   UNL A   1      39.546  31.789  31.637  1.00  0.00     0.074 A 
ATOM     29  C   UNL A   1      45.537  29.981  30.409  1.00  0.00     0.029 A 
ATOM     30  N   UNL A   1      44.254  31.739  30.639  1.00  0.00    -0.354 N 
ATOM     31  N   UNL A   1      40.380  31.493  32.594  1.00  0.00    -0.248 NA
ATOM     32  C   UNL A   1      40.073  32.653  30.592  1.00  0.00     0.031 C 
ATOM     33  C   UNL A   1      44.946  29.976  31.706  1.00  0.00     0.029 A 
ATOM     34  C   UNL A   1      43.938  30.941  31.706  1.00  0.00     0.049 A 
ATOM     35  H   UNL A   1      44.102  32.709  30.564  1.00  0.00     0.167 HD
ATOM     36  C   UNL A   1      41.632  31.774  32.069  1.00  0.00     0.074 A 
ATOM     37  C   UNL A   1      41.375  32.574  30.876  1.00  0.00     0.031 C 
ATOM     38  C   UNL A   1      42.740  31.100  32.491  1.00  0.00     0.037 A 
BRANCH  25  39
ATOM     39  C   UNL A   1      44.551  32.335  27.550  1.00  0.00     0.064 A 
ATOM     40  C   UNL A   1      45.709  32.529  26.766  1.00  0.00     0.173 A 
ATOM     41  C   UNL A   1      43.787  33.496  27.796  1.00  0.00     0.173 A 
ATOM     42  F   UNL A   1      46.515  31.500  26.465  1.00  0.00    -0.203 F 
ATOM     43  C   UNL A   1      46.123  33.801  26.359  1.00  0.00     0.198 A 
ATOM     44  C   UNL A   1      44.177  34.756  27.342  1.00  0.00     0.198 A 
ATOM     45  F   UNL A   1      42.697  33.482  28.571  1.00  0.00    -0.203 F 
ATOM     46  F   UNL A   1      47.302  33.949  25.739  1.00  0.00    -0.200 F 
ATOM     47  C   UNL A   1      45.363  34.915  26.659  1.00  0.00     0.200 A 
ATOM     48  F   UNL A   1      43.431  35.826  27.651  1.00  0.00    -0.200 F 
ATOM     49  F   UNL A   1      45.793  36.141  26.336  1.00  0.00    -0.200 F 
ENDBRANCH  25  39
BRANCH  26  50
ATOM     50  C   UNL A   1      36.979  31.677  31.275  1.00  0.00     0.064 A 
ATOM     51  C   UNL A   1      36.247  31.963  32.439  1.00  0.00     0.173 A 
ATOM     52  C   UNL A   1      36.521  32.274  30.084  1.00  0.00     0.173 A 
ATOM     53  F   UNL A   1      36.646  31.479  33.623  1.00  0.00    -0.203 F 
ATOM     54  C   UNL A   1      35.130  32.808  32.412  1.00  0.00     0.198 A 
ATOM     55  C   UNL A   1      35.403  33.107  30.057  1.00  0.00     0.198 A 
ATOM     56  F   UNL A   1      37.206  32.138  28.939  1.00  0.00    -0.203 F 
ATOM     57  F   UNL A   1      34.491  33.106  33.552  1.00  0.00    -0.200 F 
ATOM     58  C   UNL A   1      34.714  33.383  31.223  1.00  0.00     0.200 A 
ATOM     59  F   UNL A   1      35.036  33.689  28.907  1.00  0.00    -0.200 F 
ATOM     60  F   UNL A   1      33.682  34.237  31.207  1.00  0.00    -0.200 F 
ENDBRANCH  26  50
BRANCH  38  61
ATOM     61  C   UNL A   1      42.617  30.239  33.714  1.00  0.00     0.064 A 
ATOM     62  C   UNL A   1      42.753  30.727  35.025  1.00  0.00     0.173 A 
ATOM     63  C   UNL A   1      42.187  28.916  33.559  1.00  0.00     0.173 A 
ATOM     64  F   UNL A   1      43.057  32.011  35.255  1.00  0.00    -0.203 F 
ATOM     65  C   UNL A   1      42.511  29.911  36.127  1.00  0.00     0.198 A 
ATOM     66  C   UNL A   1      41.909  28.114  34.661  1.00  0.00     0.198 A 
ATOM     67  F   UNL A   1      41.979  28.416  32.329  1.00  0.00    -0.203 F 
ATOM     68  F   UNL A   1      42.655  30.399  37.369  1.00  0.00    -0.200 F 
ATOM     69  C   UNL A   1      42.081  28.608  35.945  1.00  0.00     0.200 A 
ATOM     70  F   UNL A   1      41.442  26.871  34.481  1.00  0.00    -0.200 F 
ATOM     71  F   UNL A   1      41.800  27.837  37.005  1.00  0.00    -0.200 F 
ENDBRANCH  38  61
ENDBRANCH  12  13
ENDBRANCH   5   7
ENDBRANCH   2   3
ENDBRANCH   1   2
BRANCH   1  72
ATOM     72  C   UNL A   1      36.450  22.585  23.578  1.00  0.00     0.023 C 
BRANCH  72  73
ATOM     73  C   UNL A   1      35.554  23.699  24.117  1.00  0.00     0.116 C 
BRANCH  73  74
ATOM     74  N   UNL A   1      34.601  24.182  23.134  1.00  0.00    -0.355 N 
ATOM     75  C   UNL A   1      33.689  25.190  23.176  1.00  0.00     0.238 C 
ATOM     76  H   UNL A   1      34.618  23.689  22.281  1.00  0.00     0.163 HD
ATOM     77  O   UNL A   1      33.114  25.437  22.110  1.00  0.00    -0.273 OA
BRANCH  75  78
ATOM     78  C   UNL A   1      33.407  25.985  24.440  1.00  0.00     0.168 C 
ATOM     79  C   UNL A   1      33.535  27.496  23.992  1.00  0.00     0.086 C 
ATOM     80  N   UNL A   1      32.056  25.837  25.137  1.00  0.00    -0.178 NA
ATOM     81  C   UNL A   1      33.314  28.358  25.172  1.00  0.00     0.041 A 
ATOM     82  C   UNL A   1      32.091  26.588  26.489  1.00  0.00     0.161 C 
ATOM     83  N   UNL A   1      33.647  29.662  25.375  1.00  0.00    -0.348 N 
ATOM     84  C   UNL A   1      32.658  27.952  26.305  1.00  0.00     0.077 A 
ATOM     85  C   UNL A   1      33.244  29.971  26.648  1.00  0.00     0.197 A 
ATOM     86  H   UNL A   1      34.089  30.264  24.732  1.00  0.00     0.167 HD
ATOM     87  N   UNL A   1      32.650  28.953  27.238  1.00  0.00    -0.240 NA
BRANCH  80  88
ATOM     88  S   UNL A   1      31.390  24.306  25.461  1.00  0.00     0.253 S 
ATOM     89  O   UNL A   1      30.473  24.494  26.563  1.00  0.00    -0.206 OA
ATOM     90  O   UNL A   1      30.896  23.817  24.188  1.00  0.00    -0.206 OA
BRANCH  88  91
ATOM     91  C   UNL A   1      32.524  23.030  25.980  1.00  0.00     0.135 A 
ATOM     92  C   UNL A   1      33.468  22.855  26.976  1.00  0.00     0.033 A 
ATOM     93  S   UNL A   1      32.453  21.612  24.989  1.00  0.00    -0.131 S 
ATOM     94  C   UNL A   1      34.071  21.561  26.967  1.00  0.00     0.013 A 
ATOM     95  C   UNL A   1      33.645  20.804  25.903  1.00  0.00     0.066 A 
ENDBRANCH  88  91
ENDBRANCH  80  88
ENDBRANCH  75  78
ENDBRANCH  73  74
ENDBRANCH  72  73
ENDBRANCH   1  72
TORSDOF 13
ENDMDL
MODEL 3
REMARK VINA RESULT:     -13.2      2.803      8.327
REMARK SMILES O=C(NCCCCNC(=O)[C@H]1Cc2[nH]cnc2CN1S(=O)(=O)c1cccs1)c1ccc(-c2c3nc(c(-c4c(F)c(F)c(F)c(F)c4F)c4ccc([nH]4)c(-c4c(F)c(F)c(F)c(F)c4F)c4nc(c(-c5c(F)c(F)c(F)c(F)c5F)c5ccc2[nH]5)C=C4)C=C3)cc1
REMARK SMILES IDX 5 1 4 2 3 3 1 4 2 5 28 7 29 8 90 9 30 10 89 11 31 12 32 13
REMARK SMILES IDX 33 14 83 15 34 16 88 17 82 18 84 19 35 20 87 21 81 22 80 23
REMARK SMILES IDX 36 25 68 26 48 27 67 28 49 29 52 30 66 31 85 32 50 33 51 34
REMARK SMILES IDX 65 36 86 37 53 38 37 39 38 40 46 41 39 42 40 43 44 44 47 45
REMARK SMILES IDX 41 46 42 47 45 48 43 49 69 50 70 51 78 52 71 53 72 54 76 55
REMARK SMILES IDX 79 56 73 57 74 58 77 59 75 60 54 61 55 62 63 63 56 64 57 65
REMARK SMILES IDX 61 66 64 67 58 68 59 69 62 70 60 71 6 72 7 73 8 74 9 75
REMARK SMILES IDX 10 77 11 78 12 79 19 80 13 81 18 82 14 83 17 84 15 85 16 87
REMARK SMILES IDX 20 88 21 89 22 90 23 91 24 92 27 93 25 94 26 95
REMARK H PARENT 3 6 84 24 52 35 8 76 14 86
REMARK Flexibility Score: inf
ROOT
ATOM      1  C   UNL A   1      36.756  21.494  24.373  1.00  0.00     0.023 C 
ENDROOT
BRANCH   1   2
ATOM      2  C   UNL A   1      37.440  21.749  25.712  1.00  0.00     0.116 C 
BRANCH   2   3
ATOM      3  N   UNL A   1      38.803  21.278  25.784  1.00  0.00    -0.352 N 
ATOM      4  O   UNL A   1      40.916  20.961  26.313  1.00  0.00    -0.269 OA
ATOM      5  C   UNL A   1      39.956  21.735  26.356  1.00  0.00     0.251 C 
ATOM      6  H   UNL A   1      38.933  20.425  25.308  1.00  0.00     0.163 HD
BRANCH   5   7
ATOM      7  C   UNL A   1      40.149  23.078  26.969  1.00  0.00     0.039 A 
ATOM      8  C   UNL A   1      39.392  24.221  26.706  1.00  0.00     0.014 A 
ATOM      9  C   UNL A   1      41.234  23.187  27.860  1.00  0.00     0.014 A 
ATOM     10  C   UNL A   1      39.760  25.454  27.244  1.00  0.00     0.010 A 
ATOM     11  C   UNL A   1      41.592  24.409  28.418  1.00  0.00     0.010 A 
ATOM     12  C   UNL A   1      40.875  25.551  28.078  1.00  0.00    -0.014 A 
BRANCH  12  13
ATOM     13  C   UNL A   1      41.190  26.848  28.672  1.00  0.00     0.031 A 
ATOM     14  C   UNL A   1      42.417  27.521  28.143  1.00  0.00     0.074 A 
ATOM     15  C   UNL A   1      40.350  27.493  29.506  1.00  0.00     0.049 A 
ATOM     16  N   UNL A   1      43.428  28.003  28.796  1.00  0.00    -0.248 NA
ATOM     17  C   UNL A   1      42.556  27.619  26.681  1.00  0.00     0.031 C 
ATOM     18  C   UNL A   1      38.982  27.119  29.870  1.00  0.00     0.029 A 
ATOM     19  N   UNL A   1      40.514  28.701  30.119  1.00  0.00    -0.354 N 
ATOM     20  C   UNL A   1      44.262  28.594  27.845  1.00  0.00     0.074 A 
ATOM     21  C   UNL A   1      43.731  28.236  26.556  1.00  0.00     0.031 C 
ATOM     22  C   UNL A   1      38.372  28.176  30.452  1.00  0.00     0.029 A 
ATOM     23  C   UNL A   1      39.339  29.248  30.614  1.00  0.00     0.049 A 
ATOM     24  H   UNL A   1      41.389  29.145  30.204  1.00  0.00     0.167 HD
ATOM     25  C   UNL A   1      45.228  29.492  28.186  1.00  0.00     0.037 A 
ATOM     26  C   UNL A   1      39.158  30.519  31.052  1.00  0.00     0.037 A 
ATOM     27  C   UNL A   1      45.607  29.360  29.567  1.00  0.00     0.049 A 
ATOM     28  C   UNL A   1      40.491  31.094  31.349  1.00  0.00     0.074 A 
ATOM     29  C   UNL A   1      46.157  28.350  30.333  1.00  0.00     0.029 A 
ATOM     30  N   UNL A   1      45.153  30.290  30.467  1.00  0.00    -0.354 N 
ATOM     31  N   UNL A   1      41.253  30.714  32.336  1.00  0.00    -0.248 NA
ATOM     32  C   UNL A   1      41.163  31.827  30.287  1.00  0.00     0.031 C 
ATOM     33  C   UNL A   1      45.549  28.487  31.615  1.00  0.00     0.029 A 
ATOM     34  C   UNL A   1      44.700  29.593  31.555  1.00  0.00     0.049 A 
ATOM     35  H   UNL A   1      45.153  31.269  30.354  1.00  0.00     0.167 HD
ATOM     36  C   UNL A   1      42.542  30.780  31.831  1.00  0.00     0.074 A 
ATOM     37  C   UNL A   1      42.432  31.562  30.604  1.00  0.00     0.031 C 
ATOM     38  C   UNL A   1      43.526  29.963  32.304  1.00  0.00     0.037 A 
BRANCH  25  39
ATOM     39  C   UNL A   1      45.595  30.711  27.367  1.00  0.00     0.064 A 
ATOM     40  C   UNL A   1      46.954  30.971  27.090  1.00  0.00     0.173 A 
ATOM     41  C   UNL A   1      44.714  31.787  27.126  1.00  0.00     0.173 A 
ATOM     42  F   UNL A   1      47.887  30.024  27.279  1.00  0.00    -0.203 F 
ATOM     43  C   UNL A   1      47.405  32.239  26.711  1.00  0.00     0.198 A 
ATOM     44  C   UNL A   1      45.162  33.037  26.697  1.00  0.00     0.198 A 
ATOM     45  F   UNL A   1      43.406  31.714  27.397  1.00  0.00    -0.203 F 
ATOM     46  F   UNL A   1      48.720  32.471  26.598  1.00  0.00    -0.200 F 
ATOM     47  C   UNL A   1      46.509  33.274  26.527  1.00  0.00     0.200 A 
ATOM     48  F   UNL A   1      44.278  34.032  26.533  1.00  0.00    -0.200 F 
ATOM     49  F   UNL A   1      46.942  34.508  26.237  1.00  0.00    -0.200 F 
ENDBRANCH  25  39
BRANCH  26  50
ATOM     50  C   UNL A   1      37.944  31.359  30.929  1.00  0.00     0.064 A 
ATOM     51  C   UNL A   1      37.430  31.720  29.673  1.00  0.00     0.173 A 
ATOM     52  C   UNL A   1      37.111  31.601  32.039  1.00  0.00     0.173 A 
ATOM     53  F   UNL A   1      38.135  31.475  28.560  1.00  0.00    -0.203 F 
ATOM     54  C   UNL A   1      36.152  32.275  29.537  1.00  0.00     0.198 A 
ATOM     55  C   UNL A   1      35.843  32.164  31.904  1.00  0.00     0.198 A 
ATOM     56  F   UNL A   1      37.474  31.206  33.269  1.00  0.00    -0.203 F 
ATOM     57  F   UNL A   1      35.669  32.552  28.318  1.00  0.00    -0.200 F 
ATOM     58  C   UNL A   1      35.357  32.490  30.652  1.00  0.00     0.200 A 
ATOM     59  F   UNL A   1      35.070  32.328  32.987  1.00  0.00    -0.200 F 
ATOM     60  F   UNL A   1      34.113  32.967  30.517  1.00  0.00    -0.200 F 
ENDBRANCH  26  50
BRANCH  38  61
ATOM     61  C   UNL A   1      43.250  29.180  33.555  1.00  0.00     0.064 A 
ATOM     62  C   UNL A   1      42.576  27.947  33.568  1.00  0.00     0.173 A 
ATOM     63  C   UNL A   1      43.830  29.614  34.754  1.00  0.00     0.173 A 
ATOM     64  F   UNL A   1      42.089  27.416  32.440  1.00  0.00    -0.203 F 
ATOM     65  C   UNL A   1      42.452  27.206  34.741  1.00  0.00     0.198 A 
ATOM     66  C   UNL A   1      43.737  28.853  35.916  1.00  0.00     0.198 A 
ATOM     67  F   UNL A   1      44.539  30.754  34.785  1.00  0.00    -0.203 F 
ATOM     68  F   UNL A   1      41.799  26.035  34.728  1.00  0.00    -0.200 F 
ATOM     69  C   UNL A   1      43.040  27.654  35.911  1.00  0.00     0.200 A 
ATOM     70  F   UNL A   1      44.351  29.265  37.033  1.00  0.00    -0.200 F 
ATOM     71  F   UNL A   1      42.963  26.918  37.028  1.00  0.00    -0.200 F 
ENDBRANCH  38  61
ENDBRANCH  12  13
ENDBRANCH   5   7
ENDBRANCH   2   3
ENDBRANCH   1   2
BRANCH   1  72
ATOM     72  C   UNL A   1      36.443  22.737  23.538  1.00  0.00     0.023 C 
BRANCH  72  73
ATOM     73  C   UNL A   1      35.453  23.737  24.134  1.00  0.00     0.116 C 
BRANCH  73  74
ATOM     74  N   UNL A   1      34.455  24.181  23.178  1.00  0.00    -0.355 N 
ATOM     75  C   UNL A   1      33.537  25.183  23.227  1.00  0.00     0.238 C 
ATOM     76  H   UNL A   1      34.441  23.662  22.341  1.00  0.00     0.163 HD
ATOM     77  O   UNL A   1      32.916  25.392  22.179  1.00  0.00    -0.273 OA
BRANCH  75  78
ATOM     78  C   UNL A   1      33.301  26.015  24.476  1.00  0.00     0.168 C 
ATOM     79  C   UNL A   1      33.449  27.512  23.987  1.00  0.00     0.086 C 
ATOM     80  N   UNL A   1      31.965  25.912  25.208  1.00  0.00    -0.178 NA
ATOM     81  C   UNL A   1      33.273  28.407  25.150  1.00  0.00     0.041 A 
ATOM     82  C   UNL A   1      32.047  26.695  26.540  1.00  0.00     0.161 C 
ATOM     83  N   UNL A   1      33.636  29.708  25.312  1.00  0.00    -0.348 N 
ATOM     84  C   UNL A   1      32.636  28.042  26.308  1.00  0.00     0.077 A 
ATOM     85  C   UNL A   1      33.270  30.057  26.586  1.00  0.00     0.197 A 
ATOM     86  H   UNL A   1      34.075  30.285  24.645  1.00  0.00     0.167 HD
ATOM     87  N   UNL A   1      32.670  29.066  27.215  1.00  0.00    -0.240 NA
BRANCH  80  88
ATOM     88  S   UNL A   1      31.275  24.404  25.586  1.00  0.00     0.253 S 
ATOM     89  O   UNL A   1      30.399  24.636  26.713  1.00  0.00    -0.206 OA
ATOM     90  O   UNL A   1      30.730  23.899  24.340  1.00  0.00    -0.206 OA
BRANCH  88  91
ATOM     91  C   UNL A   1      32.398  23.113  26.096  1.00  0.00     0.135 A 
ATOM     92  C   UNL A   1      33.347  22.926  27.085  1.00  0.00     0.033 A 
ATOM     93  S   UNL A   1      32.302  21.697  25.106  1.00  0.00    -0.131 S 
ATOM     94  C   UNL A   1      33.934  21.625  27.071  1.00  0.00     0.013 A 
ATOM     95  C   UNL A   1      33.491  20.874  26.010  1.00  0.00     0.066 A 
ENDBRANCH  88  91
ENDBRANCH  80  88
ENDBRANCH  75  78
ENDBRANCH  73  74
ENDBRANCH  72  73
ENDBRANCH   1  72
TORSDOF 13
ENDMDL
