MODEL 1
REMARK VINA RESULT:     -12.5      0.000      0.000
REMARK SMILES COc1ccc(CSc2ncccc2C(=O)NCCCCNC(=O)c2ccc(-c3c4nc(c(-c5c(F)c(F)c(F)c(F)c5F)c5ccc([nH]5)c(-c5c(F)c(F)c(F)c(F)c5F)c5nc(c(-c6c(F)c(F)c(F)c(F)c6F)c6ccc3[nH]6)C=C5)C=C4)cc2)cc1
REMARK SMILES IDX 18 1 17 2 15 3 16 4 14 6 9 7 10 8 11 9 13 10 12 11 8 12 7 13
REMARK SMILES IDX 6 14 3 15 4 16 89 17 5 18 88 19 2 20 1 21 19 22 20 23 21 24
REMARK SMILES IDX 22 25 23 26 24 28 25 29 26 30 87 31 27 32 86 33 28 34 29 35
REMARK SMILES IDX 30 36 80 37 31 38 85 39 79 40 81 41 32 42 84 43 78 44 77 45
REMARK SMILES IDX 33 47 65 48 45 49 64 50 46 51 49 52 63 53 82 54 47 55 48 56
REMARK SMILES IDX 62 58 83 59 50 60 34 61 35 62 43 63 36 64 37 65 41 66 44 67
REMARK SMILES IDX 38 68 39 69 42 70 40 71 66 72 67 73 75 74 68 75 69 76 73 77
REMARK SMILES IDX 76 78 70 79 71 80 74 81 72 82 51 83 52 84 60 85 53 86 54 87
REMARK SMILES IDX 58 88 61 89 55 90 56 91 59 92 57 93
REMARK H PARENT 17 5 22 27 81 46 49 57
REMARK Flexibility Score: inf
ROOT
ATOM      1  C   UNL A   1      33.115  29.918  26.399  1.00  0.00     0.116 C 
ENDROOT
BRANCH   1   2
ATOM      2  N   UNL A   1      33.626  29.676  25.064  1.00  0.00    -0.352 N 
ATOM      3  C   UNL A   1      33.499  28.645  24.159  1.00  0.00     0.254 C 
ATOM      4  O   UNL A   1      33.593  28.970  22.976  1.00  0.00    -0.269 OA
ATOM      5  H   UNL A   1      34.187  30.412  24.729  1.00  0.00     0.163 HD
BRANCH   3   6
ATOM      6  C   UNL A   1      33.303  27.211  24.524  1.00  0.00     0.072 A 
ATOM      7  C   UNL A   1      32.431  26.385  23.790  1.00  0.00     0.109 A 
ATOM      8  N   UNL A   1      32.215  25.073  24.104  1.00  0.00    -0.249 NA
ATOM      9  C   UNL A   1      32.834  24.560  25.181  1.00  0.00     0.112 A 
ATOM     10  C   UNL A   1      33.904  26.631  25.648  1.00  0.00     0.018 A 
ATOM     11  C   UNL A   1      33.684  25.293  25.977  1.00  0.00     0.021 A 
BRANCH   7  12
ATOM     12  S   UNL A   1      31.402  26.888  22.421  1.00  0.00    -0.101 SA
BRANCH  12  13
ATOM     13  C   UNL A   1      29.817  27.071  23.278  1.00  0.00     0.112 C 
BRANCH  13  14
ATOM     14  C   UNL A   1      29.228  28.459  23.200  1.00  0.00    -0.037 A 
ATOM     15  C   UNL A   1      28.110  31.049  23.121  1.00  0.00     0.118 A 
ATOM     16  C   UNL A   1      29.490  30.877  23.219  1.00  0.00     0.047 A 
ATOM     17  C   UNL A   1      27.288  29.924  23.055  1.00  0.00     0.047 A 
ATOM     18  C   UNL A   1      30.044  29.597  23.276  1.00  0.00     0.008 A 
ATOM     19  C   UNL A   1      27.843  28.638  23.091  1.00  0.00     0.008 A 
BRANCH  15  20
ATOM     20  O   UNL A   1      27.700  32.351  23.054  1.00  0.00    -0.497 OA
ATOM     21  C   UNL A   1      28.716  33.342  22.983  1.00  0.00     0.278 C 
ENDBRANCH  15  20
ENDBRANCH  13  14
ENDBRANCH  12  13
ENDBRANCH   7  12
ENDBRANCH   3   6
ENDBRANCH   1   2
BRANCH   1  22
ATOM     22  C   UNL A   1      31.692  30.453  26.452  1.00  0.00     0.023 C 
BRANCH  22  23
ATOM     23  C   UNL A   1      31.567  31.973  26.544  1.00  0.00     0.023 C 
BRANCH  23  24
ATOM     24  C   UNL A   1      32.676  32.709  27.288  1.00  0.00     0.116 C 
BRANCH  24  25
ATOM     25  N   UNL A   1      32.350  34.082  27.632  1.00  0.00    -0.352 N 
ATOM     26  C   UNL A   1      32.961  34.911  28.544  1.00  0.00     0.251 C 
ATOM     27  H   UNL A   1      31.587  34.472  27.146  1.00  0.00     0.163 HD
ATOM     28  O   UNL A   1      32.514  36.027  28.764  1.00  0.00    -0.269 OA
BRANCH  26  29
ATOM     29  C   UNL A   1      34.139  34.424  29.297  1.00  0.00     0.039 A 
ATOM     30  C   UNL A   1      33.935  33.821  30.540  1.00  0.00     0.014 A 
ATOM     31  C   UNL A   1      35.428  34.533  28.770  1.00  0.00     0.014 A 
ATOM     32  C   UNL A   1      35.017  33.265  31.225  1.00  0.00     0.010 A 
ATOM     33  C   UNL A   1      36.493  33.913  29.417  1.00  0.00     0.010 A 
ATOM     34  C   UNL A   1      36.300  33.274  30.651  1.00  0.00    -0.014 A 
BRANCH  34  35
ATOM     35  C   UNL A   1      37.448  32.622  31.331  1.00  0.00     0.031 A 
ATOM     36  C   UNL A   1      38.174  31.488  30.663  1.00  0.00     0.074 A 
ATOM     37  C   UNL A   1      37.799  33.012  32.572  1.00  0.00     0.049 A 
ATOM     38  N   UNL A   1      39.163  30.759  31.112  1.00  0.00    -0.248 NA
ATOM     39  C   UNL A   1      37.708  31.104  29.321  1.00  0.00     0.031 C 
ATOM     40  C   UNL A   1      37.138  34.064  33.345  1.00  0.00     0.029 A 
ATOM     41  N   UNL A   1      38.792  32.562  33.404  1.00  0.00    -0.354 N 
ATOM     42  C   UNL A   1      39.426  29.824  30.119  1.00  0.00     0.074 A 
ATOM     43  C   UNL A   1      38.457  30.042  29.067  1.00  0.00     0.031 C 
ATOM     44  C   UNL A   1      37.759  34.195  34.529  1.00  0.00     0.029 A 
ATOM     45  C   UNL A   1      38.837  33.214  34.613  1.00  0.00     0.049 A 
ATOM     46  H   UNL A   1      39.414  31.839  33.160  1.00  0.00     0.167 HD
ATOM     47  C   UNL A   1      40.403  28.888  30.077  1.00  0.00     0.037 A 
ATOM     48  C   UNL A   1      39.655  33.038  35.668  1.00  0.00     0.037 A 
ATOM     49  C   UNL A   1      41.381  28.691  31.114  1.00  0.00     0.049 A 
ATOM     50  C   UNL A   1      40.734  31.993  35.593  1.00  0.00     0.074 A 
ATOM     51  C   UNL A   1      42.448  27.810  31.139  1.00  0.00     0.029 A 
ATOM     52  N   UNL A   1      41.409  29.388  32.313  1.00  0.00    -0.354 N 
ATOM     53  N   UNL A   1      41.021  31.166  34.617  1.00  0.00    -0.248 NA
ATOM     54  C   UNL A   1      41.611  31.862  36.766  1.00  0.00     0.031 C 
ATOM     55  C   UNL A   1      43.095  27.942  32.372  1.00  0.00     0.029 A 
ATOM     56  C   UNL A   1      42.463  28.942  33.094  1.00  0.00     0.049 A 
ATOM     57  H   UNL A   1      40.773  30.094  32.572  1.00  0.00     0.167 HD
ATOM     58  C   UNL A   1      42.125  30.441  35.041  1.00  0.00     0.074 A 
ATOM     59  C   UNL A   1      42.467  30.935  36.359  1.00  0.00     0.031 C 
ATOM     60  C   UNL A   1      42.796  29.453  34.399  1.00  0.00     0.037 A 
BRANCH  47  61
ATOM     61  C   UNL A   1      40.466  28.007  28.862  1.00  0.00     0.064 A 
ATOM     62  C   UNL A   1      39.762  26.794  28.795  1.00  0.00     0.173 A 
ATOM     63  C   UNL A   1      41.213  28.394  27.738  1.00  0.00     0.173 A 
ATOM     64  F   UNL A   1      39.043  26.373  29.845  1.00  0.00    -0.203 F 
ATOM     65  C   UNL A   1      39.828  25.989  27.660  1.00  0.00     0.198 A 
ATOM     66  C   UNL A   1      41.251  27.601  26.595  1.00  0.00     0.198 A 
ATOM     67  F   UNL A   1      41.900  29.545  27.747  1.00  0.00    -0.203 F 
ATOM     68  F   UNL A   1      39.187  24.811  27.640  1.00  0.00    -0.200 F 
ATOM     69  C   UNL A   1      40.565  26.396  26.559  1.00  0.00     0.200 A 
ATOM     70  F   UNL A   1      41.952  28.002  25.526  1.00  0.00    -0.200 F 
ATOM     71  F   UNL A   1      40.621  25.623  25.466  1.00  0.00    -0.200 F 
ENDBRANCH  47  61
BRANCH  48  72
ATOM     72  C   UNL A   1      39.506  33.893  36.876  1.00  0.00     0.064 A 
ATOM     73  C   UNL A   1      38.754  33.458  37.976  1.00  0.00     0.173 A 
ATOM     74  C   UNL A   1      40.102  35.159  36.953  1.00  0.00     0.173 A 
ATOM     75  F   UNL A   1      38.147  32.263  37.942  1.00  0.00    -0.203 F 
ATOM     76  C   UNL A   1      38.584  34.268  39.098  1.00  0.00     0.198 A 
ATOM     77  C   UNL A   1      39.956  35.957  38.087  1.00  0.00     0.198 A 
ATOM     78  F   UNL A   1      40.837  35.620  35.931  1.00  0.00    -0.203 F 
ATOM     79  F   UNL A   1      37.820  33.847  40.115  1.00  0.00    -0.200 F 
ATOM     80  C   UNL A   1      39.189  35.514  39.154  1.00  0.00     0.200 A 
ATOM     81  F   UNL A   1      40.556  37.153  38.145  1.00  0.00    -0.200 F 
ATOM     82  F   UNL A   1      39.029  36.290  40.235  1.00  0.00    -0.200 F 
ENDBRANCH  48  72
BRANCH  60  83
ATOM     83  C   UNL A   1      43.993  28.870  35.092  1.00  0.00     0.064 A 
ATOM     84  C   UNL A   1      45.275  29.417  34.937  1.00  0.00     0.173 A 
ATOM     85  C   UNL A   1      43.848  27.770  35.952  1.00  0.00     0.173 A 
ATOM     86  F   UNL A   1      45.469  30.458  34.114  1.00  0.00    -0.203 F 
ATOM     87  C   UNL A   1      46.372  28.868  35.597  1.00  0.00     0.198 A 
ATOM     88  C   UNL A   1      44.941  27.244  36.635  1.00  0.00     0.198 A 
ATOM     89  F   UNL A   1      42.642  27.214  36.141  1.00  0.00    -0.203 F 
ATOM     90  F   UNL A   1      47.595  29.376  35.395  1.00  0.00    -0.200 F 
ATOM     91  C   UNL A   1      46.202  27.787  36.450  1.00  0.00     0.200 A 
ATOM     92  F   UNL A   1      44.772  26.210  37.470  1.00  0.00    -0.200 F 
ATOM     93  F   UNL A   1      47.258  27.265  37.089  1.00  0.00    -0.200 F 
ENDBRANCH  60  83
ENDBRANCH  34  35
ENDBRANCH  26  29
ENDBRANCH  24  25
ENDBRANCH  23  24
ENDBRANCH  22  23
ENDBRANCH   1  22
TORSDOF 15
ENDMDL
MODEL 2
REMARK VINA RESULT:     -12.5      6.021     10.407
REMARK SMILES COc1ccc(CSc2ncccc2C(=O)NCCCCNC(=O)c2ccc(-c3c4nc(c(-c5c(F)c(F)c(F)c(F)c5F)c5ccc([nH]5)c(-c5c(F)c(F)c(F)c(F)c5F)c5nc(c(-c6c(F)c(F)c(F)c(F)c6F)c6ccc3[nH]6)C=C5)C=C4)cc2)cc1
REMARK SMILES IDX 18 1 17 2 15 3 16 4 14 6 9 7 10 8 11 9 13 10 12 11 8 12 7 13
REMARK SMILES IDX 6 14 3 15 4 16 89 17 5 18 88 19 2 20 1 21 19 22 20 23 21 24
REMARK SMILES IDX 22 25 23 26 24 28 25 29 26 30 87 31 27 32 86 33 28 34 29 35
REMARK SMILES IDX 30 36 80 37 31 38 85 39 79 40 81 41 32 42 84 43 78 44 77 45
REMARK SMILES IDX 33 47 65 48 45 49 64 50 46 51 49 52 63 53 82 54 47 55 48 56
REMARK SMILES IDX 62 58 83 59 50 60 34 61 35 62 43 63 36 64 37 65 41 66 44 67
REMARK SMILES IDX 38 68 39 69 42 70 40 71 66 72 67 73 75 74 68 75 69 76 73 77
REMARK SMILES IDX 76 78 70 79 71 80 74 81 72 82 51 83 52 84 60 85 53 86 54 87
REMARK SMILES IDX 58 88 61 89 55 90 56 91 59 92 57 93
REMARK H PARENT 17 5 22 27 81 46 49 57
REMARK Flexibility Score: inf
ROOT
ATOM      1  C   UNL A   1      36.434  21.943  25.303  1.00  0.00     0.116 C 
ENDROOT
BRANCH   1   2
ATOM      2  N   UNL A   1      35.779  22.325  26.539  1.00  0.00    -0.352 N 
ATOM      3  C   UNL A   1      34.569  22.909  26.844  1.00  0.00     0.254 C 
ATOM      4  O   UNL A   1      34.105  22.610  27.945  1.00  0.00    -0.269 OA
ATOM      5  H   UNL A   1      36.318  22.123  27.337  1.00  0.00     0.163 HD
BRANCH   3   6
ATOM      6  C   UNL A   1      33.843  23.873  25.967  1.00  0.00     0.072 A 
ATOM      7  C   UNL A   1      32.608  23.538  25.381  1.00  0.00     0.109 A 
ATOM      8  N   UNL A   1      31.923  24.389  24.560  1.00  0.00    -0.249 NA
ATOM      9  C   UNL A   1      32.469  25.582  24.271  1.00  0.00     0.112 A 
ATOM     10  C   UNL A   1      34.376  25.120  25.615  1.00  0.00     0.018 A 
ATOM     11  C   UNL A   1      33.683  25.991  24.774  1.00  0.00     0.021 A 
BRANCH   7  12
ATOM     12  S   UNL A   1      31.771  21.966  25.507  1.00  0.00    -0.101 SA
BRANCH  12  13
ATOM     13  C   UNL A   1      32.330  21.196  23.965  1.00  0.00     0.112 C 
BRANCH  13  14
ATOM     14  C   UNL A   1      32.581  19.710  24.072  1.00  0.00    -0.037 A 
ATOM     15  C   UNL A   1      33.116  16.945  24.249  1.00  0.00     0.118 A 
ATOM     16  C   UNL A   1      33.147  17.746  25.389  1.00  0.00     0.047 A 
ATOM     17  C   UNL A   1      32.809  17.527  23.018  1.00  0.00     0.047 A 
ATOM     18  C   UNL A   1      32.900  19.117  25.302  1.00  0.00     0.008 A 
ATOM     19  C   UNL A   1      32.541  18.899  22.931  1.00  0.00     0.008 A 
BRANCH  15  20
ATOM     20  O   UNL A   1      33.355  15.618  24.475  1.00  0.00    -0.497 OA
ATOM     21  C   UNL A   1      32.602  14.996  25.507  1.00  0.00     0.278 C 
ENDBRANCH  15  20
ENDBRANCH  13  14
ENDBRANCH  12  13
ENDBRANCH   7  12
ENDBRANCH   3   6
ENDBRANCH   1   2
BRANCH   1  22
ATOM     22  C   UNL A   1      36.552  20.442  25.081  1.00  0.00     0.023 C 
BRANCH  22  23
ATOM     23  C   UNL A   1      37.956  19.938  24.751  1.00  0.00     0.023 C 
BRANCH  23  24
ATOM     24  C   UNL A   1      39.051  20.245  25.765  1.00  0.00     0.116 C 
BRANCH  24  25
ATOM     25  N   UNL A   1      40.079  19.222  25.855  1.00  0.00    -0.352 N 
ATOM     26  C   UNL A   1      41.418  19.367  26.141  1.00  0.00     0.251 C 
ATOM     27  H   UNL A   1      39.777  18.299  25.688  1.00  0.00     0.163 HD
ATOM     28  O   UNL A   1      42.166  18.401  26.109  1.00  0.00    -0.269 OA
BRANCH  26  29
ATOM     29  C   UNL A   1      41.957  20.713  26.442  1.00  0.00     0.039 A 
ATOM     30  C   UNL A   1      42.144  21.608  25.386  1.00  0.00     0.014 A 
ATOM     31  C   UNL A   1      42.245  21.099  27.753  1.00  0.00     0.014 A 
ATOM     32  C   UNL A   1      42.557  22.915  25.653  1.00  0.00     0.010 A 
ATOM     33  C   UNL A   1      42.585  22.422  28.025  1.00  0.00     0.010 A 
ATOM     34  C   UNL A   1      42.745  23.342  26.979  1.00  0.00    -0.014 A 
BRANCH  34  35
ATOM     35  C   UNL A   1      43.112  24.748  27.286  1.00  0.00     0.031 A 
ATOM     36  C   UNL A   1      44.515  25.231  27.043  1.00  0.00     0.074 A 
ATOM     37  C   UNL A   1      42.200  25.572  27.837  1.00  0.00     0.049 A 
ATOM     38  N   UNL A   1      45.044  26.401  27.293  1.00  0.00    -0.248 NA
ATOM     39  C   UNL A   1      45.458  24.258  26.468  1.00  0.00     0.031 C 
ATOM     40  C   UNL A   1      40.823  25.206  28.169  1.00  0.00     0.029 A 
ATOM     41  N   UNL A   1      42.298  26.885  28.223  1.00  0.00    -0.354 N 
ATOM     42  C   UNL A   1      46.378  26.301  26.922  1.00  0.00     0.074 A 
ATOM     43  C   UNL A   1      46.593  24.940  26.481  1.00  0.00     0.031 C 
ATOM     44  C   UNL A   1      40.197  26.275  28.687  1.00  0.00     0.029 A 
ATOM     45  C   UNL A   1      41.136  27.391  28.756  1.00  0.00     0.049 A 
ATOM     46  H   UNL A   1      43.121  27.415  28.129  1.00  0.00     0.167 HD
ATOM     47  C   UNL A   1      47.330  27.264  26.922  1.00  0.00     0.037 A 
ATOM     48  C   UNL A   1      40.864  28.615  29.247  1.00  0.00     0.037 A 
ATOM     49  C   UNL A   1      47.106  28.623  27.337  1.00  0.00     0.049 A 
ATOM     50  C   UNL A   1      41.939  29.667  29.232  1.00  0.00     0.074 A 
ATOM     51  C   UNL A   1      47.989  29.689  27.318  1.00  0.00     0.029 A 
ATOM     52  N   UNL A   1      45.909  29.104  27.848  1.00  0.00    -0.354 N 
ATOM     53  N   UNL A   1      43.176  29.582  28.807  1.00  0.00    -0.248 NA
ATOM     54  C   UNL A   1      41.576  30.991  29.759  1.00  0.00     0.031 C 
ATOM     55  C   UNL A   1      47.341  30.804  27.860  1.00  0.00     0.029 A 
ATOM     56  C   UNL A   1      46.037  30.447  28.167  1.00  0.00     0.049 A 
ATOM     57  H   UNL A   1      45.090  28.570  27.967  1.00  0.00     0.167 HD
ATOM     58  C   UNL A   1      43.729  30.842  28.985  1.00  0.00     0.074 A 
ATOM     59  C   UNL A   1      42.688  31.680  29.543  1.00  0.00     0.031 C 
ATOM     60  C   UNL A   1      44.986  31.269  28.711  1.00  0.00     0.037 A 
BRANCH  47  61
ATOM     61  C   UNL A   1      48.704  26.880  26.452  1.00  0.00     0.064 A 
ATOM     62  C   UNL A   1      49.652  26.323  27.324  1.00  0.00     0.173 A 
ATOM     63  C   UNL A   1      49.067  27.041  25.105  1.00  0.00     0.173 A 
ATOM     64  F   UNL A   1      49.359  26.159  28.622  1.00  0.00    -0.203 F 
ATOM     65  C   UNL A   1      50.921  25.969  26.873  1.00  0.00     0.198 A 
ATOM     66  C   UNL A   1      50.326  26.657  24.652  1.00  0.00     0.198 A 
ATOM     67  F   UNL A   1      48.198  27.563  24.228  1.00  0.00    -0.203 F 
ATOM     68  F   UNL A   1      51.826  25.486  27.737  1.00  0.00    -0.200 F 
ATOM     69  C   UNL A   1      51.255  26.129  25.537  1.00  0.00     0.200 A 
ATOM     70  F   UNL A   1      50.643  26.799  23.357  1.00  0.00    -0.200 F 
ATOM     71  F   UNL A   1      52.474  25.781  25.104  1.00  0.00    -0.200 F 
ENDBRANCH  47  61
BRANCH  48  72
ATOM     72  C   UNL A   1      39.504  28.923  29.765  1.00  0.00     0.064 A 
ATOM     73  C   UNL A   1      38.532  29.499  28.936  1.00  0.00     0.173 A 
ATOM     74  C   UNL A   1      39.151  28.657  31.095  1.00  0.00     0.173 A 
ATOM     75  F   UNL A   1      38.828  29.791  27.660  1.00  0.00    -0.203 F 
ATOM     76  C   UNL A   1      37.267  29.820  29.423  1.00  0.00     0.198 A 
ATOM     77  C   UNL A   1      37.876  28.951  31.575  1.00  0.00     0.198 A 
ATOM     78  F   UNL A   1      40.042  28.100  31.929  1.00  0.00    -0.203 F 
ATOM     79  F   UNL A   1      36.373  30.414  28.621  1.00  0.00    -0.200 F 
ATOM     80  C   UNL A   1      36.938  29.541  30.741  1.00  0.00     0.200 A 
ATOM     81  F   UNL A   1      37.557  28.664  32.844  1.00  0.00    -0.200 F 
ATOM     82  F   UNL A   1      35.720  29.846  31.209  1.00  0.00    -0.200 F 
ENDBRANCH  48  72
BRANCH  60  83
ATOM     83  C   UNL A   1      45.296  32.714  28.971  1.00  0.00     0.064 A 
ATOM     84  C   UNL A   1      45.869  33.141  30.178  1.00  0.00     0.173 A 
ATOM     85  C   UNL A   1      45.048  33.681  27.984  1.00  0.00     0.173 A 
ATOM     86  F   UNL A   1      46.111  32.259  31.159  1.00  0.00    -0.203 F 
ATOM     87  C   UNL A   1      46.159  34.485  30.396  1.00  0.00     0.198 A 
ATOM     88  C   UNL A   1      45.368  35.019  28.193  1.00  0.00     0.198 A 
ATOM     89  F   UNL A   1      44.507  33.324  26.809  1.00  0.00    -0.203 F 
ATOM     90  F   UNL A   1      46.661  34.877  31.575  1.00  0.00    -0.200 F 
ATOM     91  C   UNL A   1      45.916  35.421  29.401  1.00  0.00     0.200 A 
ATOM     92  F   UNL A   1      45.146  35.918  27.226  1.00  0.00    -0.200 F 
ATOM     93  F   UNL A   1      46.202  36.713  29.612  1.00  0.00    -0.200 F 
ENDBRANCH  60  83
ENDBRANCH  34  35
ENDBRANCH  26  29
ENDBRANCH  24  25
ENDBRANCH  23  24
ENDBRANCH  22  23
ENDBRANCH   1  22
TORSDOF 15
ENDMDL
MODEL 3
REMARK VINA RESULT:     -12.5      6.140     11.639
REMARK SMILES COc1ccc(CSc2ncccc2C(=O)NCCCCNC(=O)c2ccc(-c3c4nc(c(-c5c(F)c(F)c(F)c(F)c5F)c5ccc([nH]5)c(-c5c(F)c(F)c(F)c(F)c5F)c5nc(c(-c6c(F)c(F)c(F)c(F)c6F)c6ccc3[nH]6)C=C5)C=C4)cc2)cc1
REMARK SMILES IDX 18 1 17 2 15 3 16 4 14 6 9 7 10 8 11 9 13 10 12 11 8 12 7 13
REMARK SMILES IDX 6 14 3 15 4 16 89 17 5 18 88 19 2 20 1 21 19 22 20 23 21 24
REMARK SMILES IDX 22 25 23 26 24 28 25 29 26 30 87 31 27 32 86 33 28 34 29 35
REMARK SMILES IDX 30 36 80 37 31 38 85 39 79 40 81 41 32 42 84 43 78 44 77 45
REMARK SMILES IDX 33 47 65 48 45 49 64 50 46 51 49 52 63 53 82 54 47 55 48 56
REMARK SMILES IDX 62 58 83 59 50 60 34 61 35 62 43 63 36 64 37 65 41 66 44 67
REMARK SMILES IDX 38 68 39 69 42 70 40 71 66 72 67 73 75 74 68 75 69 76 73 77
REMARK SMILES IDX 76 78 70 79 71 80 74 81 72 82 51 83 52 84 60 85 53 86 54 87
REMARK SMILES IDX 58 88 61 89 55 90 56 91 59 92 57 93
REMARK H PARENT 17 5 22 27 81 46 49 57
REMARK Flexibility Score: inf
ROOT
ATOM      1  C   UNL A   1      36.286  21.833  25.239  1.00  0.00     0.116 C 
ENDROOT
BRANCH   1   2
ATOM      2  N   UNL A   1      35.688  22.204  26.506  1.00  0.00    -0.352 N 
ATOM      3  C   UNL A   1      34.519  22.837  26.869  1.00  0.00     0.254 C 
ATOM      4  O   UNL A   1      34.073  22.524  27.972  1.00  0.00    -0.269 OA
ATOM      5  H   UNL A   1      36.239  21.946  27.280  1.00  0.00     0.163 HD
BRANCH   3   6
ATOM      6  C   UNL A   1      33.819  23.868  26.048  1.00  0.00     0.072 A 
ATOM      7  C   UNL A   1      32.581  23.594  25.435  1.00  0.00     0.109 A 
ATOM      8  N   UNL A   1      31.919  24.507  24.664  1.00  0.00    -0.249 NA
ATOM      9  C   UNL A   1      32.492  25.704  24.452  1.00  0.00     0.112 A 
ATOM     10  C   UNL A   1      34.380  25.122  25.775  1.00  0.00     0.018 A 
ATOM     11  C   UNL A   1      33.711  26.057  24.985  1.00  0.00     0.021 A 
BRANCH   7  12
ATOM     12  S   UNL A   1      31.712  22.035  25.462  1.00  0.00    -0.101 SA
BRANCH  12  13
ATOM     13  C   UNL A   1      32.335  21.311  23.922  1.00  0.00     0.112 C 
BRANCH  13  14
ATOM     14  C   UNL A   1      32.586  19.823  23.996  1.00  0.00    -0.037 A 
ATOM     15  C   UNL A   1      33.120  17.055  24.108  1.00  0.00     0.118 A 
ATOM     16  C   UNL A   1      33.223  17.842  25.253  1.00  0.00     0.047 A 
ATOM     17  C   UNL A   1      32.742  17.652  22.905  1.00  0.00     0.047 A 
ATOM     18  C   UNL A   1      32.976  19.215  25.197  1.00  0.00     0.008 A 
ATOM     19  C   UNL A   1      32.474  19.026  22.850  1.00  0.00     0.008 A 
BRANCH  15  20
ATOM     20  O   UNL A   1      33.368  15.725  24.303  1.00  0.00    -0.497 OA
ATOM     21  C   UNL A   1      32.716  15.105  25.404  1.00  0.00     0.278 C 
ENDBRANCH  15  20
ENDBRANCH  13  14
ENDBRANCH  12  13
ENDBRANCH   7  12
ENDBRANCH   3   6
ENDBRANCH   1   2
BRANCH   1  22
ATOM     22  C   UNL A   1      36.622  20.355  25.099  1.00  0.00     0.023 C 
BRANCH  22  23
ATOM     23  C   UNL A   1      38.067  20.047  24.711  1.00  0.00     0.023 C 
BRANCH  23  24
ATOM     24  C   UNL A   1      39.121  20.217  25.799  1.00  0.00     0.116 C 
BRANCH  24  25
ATOM     25  N   UNL A   1      40.093  19.138  25.858  1.00  0.00    -0.352 N 
ATOM     26  C   UNL A   1      41.443  19.206  26.113  1.00  0.00     0.251 C 
ATOM     27  H   UNL A   1      39.736  18.235  25.692  1.00  0.00     0.163 HD
ATOM     28  O   UNL A   1      42.135  18.200  26.057  1.00  0.00    -0.269 OA
BRANCH  26  29
ATOM     29  C   UNL A   1      42.063  20.517  26.410  1.00  0.00     0.039 A 
ATOM     30  C   UNL A   1      42.419  21.345  25.343  1.00  0.00     0.014 A 
ATOM     31  C   UNL A   1      42.263  20.940  27.726  1.00  0.00     0.014 A 
ATOM     32  C   UNL A   1      42.914  22.626  25.596  1.00  0.00     0.010 A 
ATOM     33  C   UNL A   1      42.685  22.243  27.977  1.00  0.00     0.010 A 
ATOM     34  C   UNL A   1      43.016  23.098  26.916  1.00  0.00    -0.014 A 
BRANCH  34  35
ATOM     35  C   UNL A   1      43.470  24.483  27.200  1.00  0.00     0.031 A 
ATOM     36  C   UNL A   1      42.501  25.498  27.739  1.00  0.00     0.074 A 
ATOM     37  C   UNL A   1      44.738  24.842  26.919  1.00  0.00     0.049 A 
ATOM     38  N   UNL A   1      42.689  26.766  28.002  1.00  0.00    -0.248 NA
ATOM     39  C   UNL A   1      41.127  25.032  27.989  1.00  0.00     0.031 C 
ATOM     40  C   UNL A   1      45.757  23.963  26.344  1.00  0.00     0.029 A 
ATOM     41  N   UNL A   1      45.382  26.044  27.070  1.00  0.00    -0.354 N 
ATOM     42  C   UNL A   1      41.461  27.250  28.432  1.00  0.00     0.074 A 
ATOM     43  C   UNL A   1      40.520  26.154  28.343  1.00  0.00     0.031 C 
ATOM     44  C   UNL A   1      46.905  24.648  26.214  1.00  0.00     0.029 A 
ATOM     45  C   UNL A   1      46.694  26.022  26.662  1.00  0.00     0.049 A 
ATOM     46  H   UNL A   1      44.947  26.847  27.436  1.00  0.00     0.167 HD
ATOM     47  C   UNL A   1      41.152  28.488  28.887  1.00  0.00     0.037 A 
ATOM     48  C   UNL A   1      47.619  27.000  26.648  1.00  0.00     0.037 A 
ATOM     49  C   UNL A   1      42.097  29.567  28.999  1.00  0.00     0.049 A 
ATOM     50  C   UNL A   1      47.250  28.365  27.161  1.00  0.00     0.074 A 
ATOM     51  C   UNL A   1      41.897  30.840  29.503  1.00  0.00     0.029 A 
ATOM     52  N   UNL A   1      43.423  29.499  28.597  1.00  0.00    -0.354 N 
ATOM     53  N   UNL A   1      46.105  28.790  27.637  1.00  0.00    -0.248 NA
ATOM     54  C   UNL A   1      48.308  29.386  27.144  1.00  0.00     0.031 C 
ATOM     55  C   UNL A   1      43.090  31.557  29.366  1.00  0.00     0.029 A 
ATOM     56  C   UNL A   1      44.048  30.715  28.824  1.00  0.00     0.049 A 
ATOM     57  H   UNL A   1      43.856  28.705  28.208  1.00  0.00     0.167 HD
ATOM     58  C   UNL A   1      46.310  30.113  28.003  1.00  0.00     0.074 A 
ATOM     59  C   UNL A   1      47.695  30.417  27.708  1.00  0.00     0.031 C 
ATOM     60  C   UNL A   1      45.431  30.997  28.535  1.00  0.00     0.037 A 
BRANCH  47  61
ATOM     61  C   UNL A   1      39.732  28.738  29.304  1.00  0.00     0.064 A 
ATOM     62  C   UNL A   1      39.292  28.480  30.612  1.00  0.00     0.173 A 
ATOM     63  C   UNL A   1      38.805  29.273  28.395  1.00  0.00     0.173 A 
ATOM     64  F   UNL A   1      40.134  27.957  31.516  1.00  0.00    -0.203 F 
ATOM     65  C   UNL A   1      37.972  28.719  30.986  1.00  0.00     0.198 A 
ATOM     66  C   UNL A   1      37.495  29.540  28.782  1.00  0.00     0.198 A 
ATOM     67  F   UNL A   1      39.173  29.544  27.135  1.00  0.00    -0.203 F 
ATOM     68  F   UNL A   1      37.564  28.416  32.226  1.00  0.00    -0.200 F 
ATOM     69  C   UNL A   1      37.077  29.256  30.074  1.00  0.00     0.200 A 
ATOM     70  F   UNL A   1      36.634  30.073  27.903  1.00  0.00    -0.200 F 
ATOM     71  F   UNL A   1      35.809  29.492  30.437  1.00  0.00    -0.200 F 
ENDBRANCH  47  61
BRANCH  48  72
ATOM     72  C   UNL A   1      48.995  26.716  26.160  1.00  0.00     0.064 A 
ATOM     73  C   UNL A   1      49.365  27.010  24.840  1.00  0.00     0.173 A 
ATOM     74  C   UNL A   1      49.963  26.142  26.996  1.00  0.00     0.173 A 
ATOM     75  F   UNL A   1      48.468  27.542  23.996  1.00  0.00    -0.203 F 
ATOM     76  C   UNL A   1      50.642  26.717  24.367  1.00  0.00     0.198 A 
ATOM     77  C   UNL A   1      51.250  25.876  26.530  1.00  0.00     0.198 A 
ATOM     78  F   UNL A   1      49.663  25.848  28.269  1.00  0.00    -0.203 F 
ATOM     79  F   UNL A   1      50.953  26.964  23.088  1.00  0.00    -0.200 F 
ATOM     80  C   UNL A   1      51.586  26.156  25.214  1.00  0.00     0.200 A 
ATOM     81  F   UNL A   1      52.163  25.349  27.357  1.00  0.00    -0.200 F 
ATOM     82  F   UNL A   1      52.816  25.878  24.761  1.00  0.00    -0.200 F 
ENDBRANCH  48  72
BRANCH  60  83
ATOM     83  C   UNL A   1      45.949  32.365  28.873  1.00  0.00     0.064 A 
ATOM     84  C   UNL A   1      45.880  33.427  27.959  1.00  0.00     0.173 A 
ATOM     85  C   UNL A   1      46.488  32.625  30.142  1.00  0.00     0.173 A 
ATOM     86  F   UNL A   1      45.387  33.226  26.728  1.00  0.00    -0.203 F 
ATOM     87  C   UNL A   1      46.355  34.692  28.295  1.00  0.00     0.198 A 
ATOM     88  C   UNL A   1      46.934  33.899  30.486  1.00  0.00     0.198 A 
ATOM     89  F   UNL A   1      46.571  31.646  31.056  1.00  0.00    -0.203 F 
ATOM     90  F   UNL A   1      46.324  35.679  27.389  1.00  0.00    -0.200 F 
ATOM     91  C   UNL A   1      46.874  34.928  29.559  1.00  0.00     0.200 A 
ATOM     92  F   UNL A   1      47.421  34.128  31.712  1.00  0.00    -0.200 F 
ATOM     93  F   UNL A   1      47.325  36.147  29.882  1.00  0.00    -0.200 F 
ENDBRANCH  60  83
ENDBRANCH  34  35
ENDBRANCH  26  29
ENDBRANCH  24  25
ENDBRANCH  23  24
ENDBRANCH  22  23
ENDBRANCH   1  22
TORSDOF 15
ENDMDL
