MODEL 1
REMARK VINA RESULT:     -13.6      0.000      0.000
REMARK SMILES C[C@H](c1ccccc1)N1C(=O)c2ccc(C(=O)NCCCCNC(=O)c3ccc(-c4c5nc(c(-c6c(F)c(F)c(F)c(F)c6F)c6ccc([nH]6)c(-c6c(F)c(F)c(F)c(F)c6F)c6nc(c(-c7c(F)c(F)c(F)c(F)c7F)c7ccc4[nH]7)C=C6)C=C5)cc3)cc2C1=O
REMARK SMILES IDX 20 1 19 2 18 3 16 4 17 5 15 7 9 8 10 9 91 10 11 11 12 12
REMARK SMILES IDX 90 13 92 14 13 15 89 16 14 17 2 18 1 19 3 20 4 21 8 22 5 23
REMARK SMILES IDX 7 24 6 25 21 26 22 27 23 28 24 29 25 31 26 32 27 33 88 34
REMARK SMILES IDX 28 35 87 36 29 37 30 38 31 39 81 40 32 41 86 42 80 43 82 44
REMARK SMILES IDX 33 45 85 46 79 47 78 48 34 50 66 51 46 52 65 53 47 54 50 55
REMARK SMILES IDX 64 56 83 57 48 58 49 59 63 61 84 62 51 63 35 64 36 65 44 66
REMARK SMILES IDX 37 67 38 68 42 69 45 70 39 71 40 72 43 73 41 74 67 75 68 76
REMARK SMILES IDX 76 77 69 78 70 79 74 80 77 81 71 82 72 83 75 84 73 85 52 86
REMARK SMILES IDX 53 87 61 88 54 89 55 90 59 91 62 92 56 93 57 94 60 95 58 96
REMARK H PARENT 18 6 23 30 82 49 50 60
REMARK Flexibility Score: inf
ROOT
ATOM      1  C   UNL A   1      31.560  30.886  26.190  1.00  0.00     0.023 C 
ENDROOT
BRANCH   1   2
ATOM      2  C   UNL A   1      31.920  29.946  27.340  1.00  0.00     0.116 C 
BRANCH   2   3
ATOM      3  N   UNL A   1      33.346  29.887  27.609  1.00  0.00    -0.352 N 
ATOM      4  C   UNL A   1      34.340  29.125  27.057  1.00  0.00     0.251 C 
ATOM      5  O   UNL A   1      35.480  29.204  27.508  1.00  0.00    -0.269 OA
ATOM      6  H   UNL A   1      33.650  30.505  28.311  1.00  0.00     0.163 HD
BRANCH   4   7
ATOM      7  C   UNL A   1      34.068  28.160  25.968  1.00  0.00     0.040 A 
ATOM      8  N   UNL A   1      33.078  24.313  23.657  1.00  0.00    -0.267 N 
ATOM      9  C   UNL A   1      33.483  25.383  22.904  1.00  0.00     0.262 C 
ATOM     10  C   UNL A   1      33.153  24.602  24.994  1.00  0.00     0.262 C 
ATOM     11  O   UNL A   1      33.763  25.474  21.726  1.00  0.00    -0.269 OA
ATOM     12  C   UNL A   1      33.656  26.500  23.820  1.00  0.00     0.053 A 
ATOM     13  C   UNL A   1      33.506  26.019  25.106  1.00  0.00     0.054 A 
ATOM     14  O   UNL A   1      33.007  23.869  25.955  1.00  0.00    -0.269 OA
ATOM     15  C   UNL A   1      33.947  27.821  23.549  1.00  0.00     0.015 A 
ATOM     16  C   UNL A   1      33.699  26.829  26.212  1.00  0.00     0.028 A 
ATOM     17  C   UNL A   1      34.143  28.662  24.645  1.00  0.00     0.015 A 
BRANCH   8  18
ATOM     18  C   UNL A   1      32.748  22.984  23.132  1.00  0.00     0.121 C 
ATOM     19  C   UNL A   1      31.252  22.680  23.257  1.00  0.00     0.037 C 
BRANCH  18  20
ATOM     20  C   UNL A   1      33.649  21.905  23.725  1.00  0.00    -0.025 A 
ATOM     21  C   UNL A   1      33.146  20.662  24.143  1.00  0.00     0.006 A 
ATOM     22  C   UNL A   1      35.013  22.169  23.935  1.00  0.00     0.006 A 
ATOM     23  C   UNL A   1      33.958  19.737  24.800  1.00  0.00     0.000 A 
ATOM     24  C   UNL A   1      35.833  21.230  24.569  1.00  0.00     0.000 A 
ATOM     25  C   UNL A   1      35.302  20.023  25.016  1.00  0.00     0.000 A 
ENDBRANCH  18  20
ENDBRANCH   8  18
ENDBRANCH   4   7
ENDBRANCH   2   3
ENDBRANCH   1   2
BRANCH   1  26
ATOM     26  C   UNL A   1      31.401  32.366  26.544  1.00  0.00     0.023 C 
BRANCH  26  27
ATOM     27  C   UNL A   1      32.508  32.991  27.387  1.00  0.00     0.116 C 
BRANCH  27  28
ATOM     28  N   UNL A   1      32.262  34.377  27.748  1.00  0.00    -0.352 N 
ATOM     29  C   UNL A   1      32.945  35.188  28.624  1.00  0.00     0.251 C 
ATOM     30  H   UNL A   1      31.493  34.797  27.299  1.00  0.00     0.163 HD
ATOM     31  O   UNL A   1      32.547  36.330  28.833  1.00  0.00    -0.269 OA
BRANCH  29  32
ATOM     32  C   UNL A   1      34.127  34.680  29.354  1.00  0.00     0.039 A 
ATOM     33  C   UNL A   1      33.941  34.169  30.643  1.00  0.00     0.014 A 
ATOM     34  C   UNL A   1      35.405  34.699  28.789  1.00  0.00     0.014 A 
ATOM     35  C   UNL A   1      35.018  33.605  31.333  1.00  0.00     0.010 A 
ATOM     36  C   UNL A   1      36.466  34.084  29.453  1.00  0.00     0.010 A 
ATOM     37  C   UNL A   1      36.281  33.523  30.726  1.00  0.00    -0.014 A 
BRANCH  37  38
ATOM     38  C   UNL A   1      37.412  32.836  31.398  1.00  0.00     0.031 A 
ATOM     39  C   UNL A   1      38.097  31.675  30.736  1.00  0.00     0.074 A 
ATOM     40  C   UNL A   1      37.774  33.214  32.640  1.00  0.00     0.049 A 
ATOM     41  N   UNL A   1      39.044  30.898  31.200  1.00  0.00    -0.248 NA
ATOM     42  C   UNL A   1      37.638  31.324  29.385  1.00  0.00     0.031 C 
ATOM     43  C   UNL A   1      37.158  34.296  33.408  1.00  0.00     0.029 A 
ATOM     44  N   UNL A   1      38.740  32.718  33.480  1.00  0.00    -0.354 N 
ATOM     45  C   UNL A   1      39.278  29.956  30.209  1.00  0.00     0.074 A 
ATOM     46  C   UNL A   1      38.351  30.234  29.133  1.00  0.00     0.031 C 
ATOM     47  C   UNL A   1      37.770  34.394  34.599  1.00  0.00     0.029 A 
ATOM     48  C   UNL A   1      38.800  33.363  34.692  1.00  0.00     0.049 A 
ATOM     49  H   UNL A   1      39.335  31.972  33.237  1.00  0.00     0.167 HD
ATOM     50  C   UNL A   1      40.195  28.959  30.190  1.00  0.00     0.037 A 
ATOM     51  C   UNL A   1      39.591  33.144  35.758  1.00  0.00     0.037 A 
ATOM     52  C   UNL A   1      41.142  28.704  31.245  1.00  0.00     0.049 A 
ATOM     53  C   UNL A   1      40.613  32.042  35.705  1.00  0.00     0.074 A 
ATOM     54  C   UNL A   1      42.156  27.764  31.287  1.00  0.00     0.029 A 
ATOM     55  N   UNL A   1      41.190  29.399  32.444  1.00  0.00    -0.354 N 
ATOM     56  N   UNL A   1      40.868  31.198  34.735  1.00  0.00    -0.248 NA
ATOM     57  C   UNL A   1      41.461  31.868  36.892  1.00  0.00     0.031 C 
ATOM     58  C   UNL A   1      42.799  27.868  32.525  1.00  0.00     0.029 A 
ATOM     59  C   UNL A   1      42.208  28.897  33.241  1.00  0.00     0.049 A 
ATOM     60  H   UNL A   1      40.591  30.139  32.694  1.00  0.00     0.167 HD
ATOM     61  C   UNL A   1      41.919  30.409  35.183  1.00  0.00     0.074 A 
ATOM     62  C   UNL A   1      42.262  30.883  36.509  1.00  0.00     0.031 C 
ATOM     63  C   UNL A   1      42.542  29.385  34.552  1.00  0.00     0.037 A 
BRANCH  50  64
ATOM     64  C   UNL A   1      40.222  28.066  28.986  1.00  0.00     0.064 A 
ATOM     65  C   UNL A   1      40.953  28.406  27.838  1.00  0.00     0.173 A 
ATOM     66  C   UNL A   1      39.536  26.843  28.991  1.00  0.00     0.173 A 
ATOM     67  F   UNL A   1      41.616  29.571  27.780  1.00  0.00    -0.203 F 
ATOM     68  C   UNL A   1      40.975  27.564  26.728  1.00  0.00     0.198 A 
ATOM     69  C   UNL A   1      39.581  25.993  27.890  1.00  0.00     0.198 A 
ATOM     70  F   UNL A   1      38.826  26.470  30.067  1.00  0.00    -0.203 F 
ATOM     71  F   UNL A   1      41.644  27.929  25.626  1.00  0.00    -0.200 F 
ATOM     72  C   UNL A   1      40.294  26.356  26.757  1.00  0.00     0.200 A 
ATOM     73  F   UNL A   1      38.930  24.822  27.922  1.00  0.00    -0.200 F 
ATOM     74  F   UNL A   1      40.319  25.547  25.691  1.00  0.00    -0.200 F 
ENDBRANCH  50  64
BRANCH  51  75
ATOM     75  C   UNL A   1      39.469  34.007  36.959  1.00  0.00     0.064 A 
ATOM     76  C   UNL A   1      38.741  33.578  38.077  1.00  0.00     0.173 A 
ATOM     77  C   UNL A   1      40.076  35.269  37.018  1.00  0.00     0.173 A 
ATOM     78  F   UNL A   1      38.125  32.386  38.057  1.00  0.00    -0.203 F 
ATOM     79  C   UNL A   1      38.611  34.386  39.204  1.00  0.00     0.198 A 
ATOM     80  C   UNL A   1      39.964  36.067  38.154  1.00  0.00     0.198 A 
ATOM     81  F   UNL A   1      40.787  35.721  35.974  1.00  0.00    -0.203 F 
ATOM     82  F   UNL A   1      37.878  33.968  40.245  1.00  0.00    -0.200 F 
ATOM     83  C   UNL A   1      39.227  35.628  39.244  1.00  0.00     0.200 A 
ATOM     84  F   UNL A   1      40.570  37.262  38.194  1.00  0.00    -0.200 F 
ATOM     85  F   UNL A   1      39.105  36.403  40.329  1.00  0.00    -0.200 F 
ENDBRANCH  51  75
BRANCH  63  86
ATOM     86  C   UNL A   1      43.680  28.727  35.273  1.00  0.00     0.064 A 
ATOM     87  C   UNL A   1      43.471  27.644  36.137  1.00  0.00     0.173 A 
ATOM     88  C   UNL A   1      44.997  29.162  35.066  1.00  0.00     0.173 A 
ATOM     89  F   UNL A   1      42.227  27.203  36.379  1.00  0.00    -0.203 F 
ATOM     90  C   UNL A   1      44.540  27.029  36.783  1.00  0.00     0.198 A 
ATOM     91  C   UNL A   1      46.066  28.531  35.696  1.00  0.00     0.198 A 
ATOM     92  F   UNL A   1      45.248  30.194  34.246  1.00  0.00    -0.203 F 
ATOM     93  F   UNL A   1      44.316  26.019  37.634  1.00  0.00    -0.200 F 
ATOM     94  C   UNL A   1      45.837  27.469  36.557  1.00  0.00     0.200 A 
ATOM     95  F   UNL A   1      47.318  28.952  35.470  1.00  0.00    -0.200 F 
ATOM     96  F   UNL A   1      46.865  26.873  37.176  1.00  0.00    -0.200 F 
ENDBRANCH  63  86
ENDBRANCH  37  38
ENDBRANCH  29  32
ENDBRANCH  27  28
ENDBRANCH  26  27
ENDBRANCH   1  26
TORSDOF 13
ENDMDL
MODEL 2
REMARK VINA RESULT:     -13.5      5.575     11.255
REMARK SMILES C[C@H](c1ccccc1)N1C(=O)c2ccc(C(=O)NCCCCNC(=O)c3ccc(-c4c5nc(c(-c6c(F)c(F)c(F)c(F)c6F)c6ccc([nH]6)c(-c6c(F)c(F)c(F)c(F)c6F)c6nc(c(-c7c(F)c(F)c(F)c(F)c7F)c7ccc4[nH]7)C=C6)C=C5)cc3)cc2C1=O
REMARK SMILES IDX 20 1 19 2 18 3 16 4 17 5 15 7 9 8 10 9 91 10 11 11 12 12
REMARK SMILES IDX 90 13 92 14 13 15 89 16 14 17 2 18 1 19 3 20 4 21 8 22 5 23
REMARK SMILES IDX 7 24 6 25 21 26 22 27 23 28 24 29 25 31 26 32 27 33 88 34
REMARK SMILES IDX 28 35 87 36 29 37 30 38 31 39 81 40 32 41 86 42 80 43 82 44
REMARK SMILES IDX 33 45 85 46 79 47 78 48 34 50 66 51 46 52 65 53 47 54 50 55
REMARK SMILES IDX 64 56 83 57 48 58 49 59 63 61 84 62 51 63 35 64 36 65 44 66
REMARK SMILES IDX 37 67 38 68 42 69 45 70 39 71 40 72 43 73 41 74 67 75 68 76
REMARK SMILES IDX 76 77 69 78 70 79 74 80 77 81 71 82 72 83 75 84 73 85 52 86
REMARK SMILES IDX 53 87 61 88 54 89 55 90 59 91 62 92 56 93 57 94 60 95 58 96
REMARK H PARENT 18 6 23 30 82 49 50 60
REMARK Flexibility Score: inf
ROOT
ATOM      1  C   UNL A   1      36.807  19.268  25.025  1.00  0.00     0.023 C 
ENDROOT
BRANCH   1   2
ATOM      2  C   UNL A   1      35.488  20.040  25.046  1.00  0.00     0.116 C 
BRANCH   2   3
ATOM      3  N   UNL A   1      34.319  19.179  25.079  1.00  0.00    -0.352 N 
ATOM      4  C   UNL A   1      32.989  19.452  24.903  1.00  0.00     0.251 C 
ATOM      5  O   UNL A   1      32.165  18.553  25.050  1.00  0.00    -0.269 OA
ATOM      6  H   UNL A   1      34.519  18.233  25.258  1.00  0.00     0.163 HD
BRANCH   4   7
ATOM      7  C   UNL A   1      32.508  20.819  24.598  1.00  0.00     0.040 A 
ATOM      8  N   UNL A   1      30.560  24.967  24.946  1.00  0.00    -0.267 N 
ATOM      9  C   UNL A   1      30.983  24.601  23.696  1.00  0.00     0.262 C 
ATOM     10  C   UNL A   1      30.727  23.940  25.838  1.00  0.00     0.262 C 
ATOM     11  O   UNL A   1      30.819  25.120  22.611  1.00  0.00    -0.269 OA
ATOM     12  C   UNL A   1      31.636  23.308  23.836  1.00  0.00     0.053 A 
ATOM     13  C   UNL A   1      31.440  22.873  25.131  1.00  0.00     0.054 A 
ATOM     14  O   UNL A   1      30.351  23.845  26.991  1.00  0.00    -0.269 OA
ATOM     15  C   UNL A   1      32.322  22.565  22.897  1.00  0.00     0.015 A 
ATOM     16  C   UNL A   1      31.872  21.627  25.552  1.00  0.00     0.028 A 
ATOM     17  C   UNL A   1      32.773  21.306  23.295  1.00  0.00     0.015 A 
BRANCH   8  18
ATOM     18  C   UNL A   1      29.883  26.225  25.278  1.00  0.00     0.121 C 
ATOM     19  C   UNL A   1      28.842  26.604  24.221  1.00  0.00     0.037 C 
BRANCH  18  20
ATOM     20  C   UNL A   1      30.881  27.336  25.587  1.00  0.00    -0.025 A 
ATOM     21  C   UNL A   1      31.484  27.466  26.850  1.00  0.00     0.006 A 
ATOM     22  C   UNL A   1      31.165  28.314  24.618  1.00  0.00     0.006 A 
ATOM     23  C   UNL A   1      32.293  28.560  27.156  1.00  0.00     0.000 A 
ATOM     24  C   UNL A   1      31.998  29.395  24.917  1.00  0.00     0.000 A 
ATOM     25  C   UNL A   1      32.548  29.527  26.189  1.00  0.00     0.000 A 
ENDBRANCH  18  20
ENDBRANCH   8  18
ENDBRANCH   4   7
ENDBRANCH   2   3
ENDBRANCH   1   2
BRANCH   1  26
ATOM     26  C   UNL A   1      38.066  20.080  24.715  1.00  0.00     0.023 C 
BRANCH  26  27
ATOM     27  C   UNL A   1      39.093  20.205  25.836  1.00  0.00     0.116 C 
BRANCH  27  28
ATOM     28  N   UNL A   1      40.102  19.159  25.832  1.00  0.00    -0.352 N 
ATOM     29  C   UNL A   1      41.450  19.242  26.083  1.00  0.00     0.251 C 
ATOM     30  H   UNL A   1      39.769  18.257  25.617  1.00  0.00     0.163 HD
ATOM     31  O   UNL A   1      42.152  18.240  25.980  1.00  0.00    -0.269 OA
BRANCH  29  32
ATOM     32  C   UNL A   1      42.074  20.539  26.429  1.00  0.00     0.039 A 
ATOM     33  C   UNL A   1      42.519  21.359  25.387  1.00  0.00     0.014 A 
ATOM     34  C   UNL A   1      42.220  20.953  27.755  1.00  0.00     0.014 A 
ATOM     35  C   UNL A   1      43.038  22.626  25.669  1.00  0.00     0.010 A 
ATOM     36  C   UNL A   1      42.684  22.239  28.033  1.00  0.00     0.010 A 
ATOM     37  C   UNL A   1      43.087  23.091  26.992  1.00  0.00    -0.014 A 
BRANCH  37  38
ATOM     38  C   UNL A   1      43.536  24.470  27.305  1.00  0.00     0.031 A 
ATOM     39  C   UNL A   1      42.566  25.482  27.846  1.00  0.00     0.074 A 
ATOM     40  C   UNL A   1      44.804  24.833  27.030  1.00  0.00     0.049 A 
ATOM     41  N   UNL A   1      42.751  26.752  28.100  1.00  0.00    -0.248 NA
ATOM     42  C   UNL A   1      41.201  25.006  28.113  1.00  0.00     0.031 C 
ATOM     43  C   UNL A   1      45.830  23.958  26.461  1.00  0.00     0.029 A 
ATOM     44  N   UNL A   1      45.443  26.039  27.181  1.00  0.00    -0.354 N 
ATOM     45  C   UNL A   1      41.523  27.233  28.534  1.00  0.00     0.074 A 
ATOM     46  C   UNL A   1      40.592  26.126  28.476  1.00  0.00     0.031 C 
ATOM     47  C   UNL A   1      46.972  24.650  26.324  1.00  0.00     0.029 A 
ATOM     48  C   UNL A   1      46.753  26.024  26.767  1.00  0.00     0.049 A 
ATOM     49  H   UNL A   1      45.004  26.839  27.551  1.00  0.00     0.167 HD
ATOM     50  C   UNL A   1      41.206  28.479  28.959  1.00  0.00     0.037 A 
ATOM     51  C   UNL A   1      47.671  27.008  26.741  1.00  0.00     0.037 A 
ATOM     52  C   UNL A   1      42.140  29.570  29.051  1.00  0.00     0.049 A 
ATOM     53  C   UNL A   1      47.297  28.379  27.236  1.00  0.00     0.074 A 
ATOM     54  C   UNL A   1      41.930  30.849  29.536  1.00  0.00     0.029 A 
ATOM     55  N   UNL A   1      43.467  29.507  28.650  1.00  0.00    -0.354 N 
ATOM     56  N   UNL A   1      46.149  28.804  27.704  1.00  0.00    -0.248 NA
ATOM     57  C   UNL A   1      48.350  29.403  27.203  1.00  0.00     0.031 C 
ATOM     58  C   UNL A   1      43.121  31.570  29.401  1.00  0.00     0.029 A 
ATOM     59  C   UNL A   1      44.083  30.730  28.863  1.00  0.00     0.049 A 
ATOM     60  H   UNL A   1      43.905  28.712  28.271  1.00  0.00     0.167 HD
ATOM     61  C   UNL A   1      46.346  30.135  28.044  1.00  0.00     0.074 A 
ATOM     62  C   UNL A   1      47.728  30.445  27.738  1.00  0.00     0.031 C 
ATOM     63  C   UNL A   1      45.460  31.019  28.563  1.00  0.00     0.037 A 
BRANCH  50  64
ATOM     64  C   UNL A   1      39.783  28.731  29.360  1.00  0.00     0.064 A 
ATOM     65  C   UNL A   1      39.335  28.480  30.666  1.00  0.00     0.173 A 
ATOM     66  C   UNL A   1      38.866  29.260  28.440  1.00  0.00     0.173 A 
ATOM     67  F   UNL A   1      40.171  27.963  31.579  1.00  0.00    -0.203 F 
ATOM     68  C   UNL A   1      38.012  28.725  31.028  1.00  0.00     0.198 A 
ATOM     69  C   UNL A   1      37.552  29.527  28.813  1.00  0.00     0.198 A 
ATOM     70  F   UNL A   1      39.247  29.522  27.181  1.00  0.00    -0.203 F 
ATOM     71  F   UNL A   1      37.595  28.437  32.268  1.00  0.00    -0.200 F 
ATOM     72  C   UNL A   1      37.124  29.254  30.103  1.00  0.00     0.200 A 
ATOM     73  F   UNL A   1      36.697  30.046  27.921  1.00  0.00    -0.200 F 
ATOM     74  F   UNL A   1      35.854  29.492  30.454  1.00  0.00    -0.200 F 
ENDBRANCH  50  64
BRANCH  51  75
ATOM     75  C   UNL A   1      49.045  26.725  26.258  1.00  0.00     0.064 A 
ATOM     76  C   UNL A   1      49.401  26.980  24.927  1.00  0.00     0.173 A 
ATOM     77  C   UNL A   1      50.027  26.201  27.109  1.00  0.00     0.173 A 
ATOM     78  F   UNL A   1      48.488  27.462  24.071  1.00  0.00    -0.203 F 
ATOM     79  C   UNL A   1      50.685  26.707  24.461  1.00  0.00     0.198 A 
ATOM     80  C   UNL A   1      51.317  25.949  26.648  1.00  0.00     0.198 A 
ATOM     81  F   UNL A   1      49.735  25.944  28.393  1.00  0.00    -0.203 F 
ATOM     82  F   UNL A   1      50.989  26.925  23.174  1.00  0.00    -0.200 F 
ATOM     83  C   UNL A   1      51.644  26.197  25.323  1.00  0.00     0.200 A 
ATOM     84  F   UNL A   1      52.244  25.465  27.487  1.00  0.00    -0.200 F 
ATOM     85  F   UNL A   1      52.879  25.937  24.876  1.00  0.00    -0.200 F 
ENDBRANCH  51  75
BRANCH  63  86
ATOM     86  C   UNL A   1      45.966  32.399  28.863  1.00  0.00     0.064 A 
ATOM     87  C   UNL A   1      46.555  32.711  30.096  1.00  0.00     0.173 A 
ATOM     88  C   UNL A   1      45.895  33.407  27.891  1.00  0.00     0.173 A 
ATOM     89  F   UNL A   1      46.630  31.783  31.062  1.00  0.00    -0.203 F 
ATOM     90  C   UNL A   1      47.039  33.991  30.352  1.00  0.00     0.198 A 
ATOM     91  C   UNL A   1      46.401  34.679  28.142  1.00  0.00     0.198 A 
ATOM     92  F   UNL A   1      45.343  33.156  26.694  1.00  0.00    -0.203 F 
ATOM     93  F   UNL A   1      47.565  34.279  31.550  1.00  0.00    -0.200 F 
ATOM     94  C   UNL A   1      46.968  34.972  29.373  1.00  0.00     0.200 A 
ATOM     95  F   UNL A   1      46.339  35.622  27.192  1.00  0.00    -0.200 F 
ATOM     96  F   UNL A   1      47.440  36.201  29.619  1.00  0.00    -0.200 F 
ENDBRANCH  63  86
ENDBRANCH  37  38
ENDBRANCH  29  32
ENDBRANCH  27  28
ENDBRANCH  26  27
ENDBRANCH   1  26
TORSDOF 13
ENDMDL
MODEL 3
REMARK VINA RESULT:     -13.5      1.236      2.164
REMARK SMILES C[C@H](c1ccccc1)N1C(=O)c2ccc(C(=O)NCCCCNC(=O)c3ccc(-c4c5nc(c(-c6c(F)c(F)c(F)c(F)c6F)c6ccc([nH]6)c(-c6c(F)c(F)c(F)c(F)c6F)c6nc(c(-c7c(F)c(F)c(F)c(F)c7F)c7ccc4[nH]7)C=C6)C=C5)cc3)cc2C1=O
REMARK SMILES IDX 20 1 19 2 18 3 16 4 17 5 15 7 9 8 10 9 91 10 11 11 12 12
REMARK SMILES IDX 90 13 92 14 13 15 89 16 14 17 2 18 1 19 3 20 4 21 8 22 5 23
REMARK SMILES IDX 7 24 6 25 21 26 22 27 23 28 24 29 25 31 26 32 27 33 88 34
REMARK SMILES IDX 28 35 87 36 29 37 30 38 31 39 81 40 32 41 86 42 80 43 82 44
REMARK SMILES IDX 33 45 85 46 79 47 78 48 34 50 66 51 46 52 65 53 47 54 50 55
REMARK SMILES IDX 64 56 83 57 48 58 49 59 63 61 84 62 51 63 35 64 36 65 44 66
REMARK SMILES IDX 37 67 38 68 42 69 45 70 39 71 40 72 43 73 41 74 67 75 68 76
REMARK SMILES IDX 76 77 69 78 70 79 74 80 77 81 71 82 72 83 75 84 73 85 52 86
REMARK SMILES IDX 53 87 61 88 54 89 55 90 59 91 62 92 56 93 57 94 60 95 58 96
REMARK H PARENT 18 6 23 30 82 49 50 60
REMARK Flexibility Score: inf
ROOT
ATOM      1  C   UNL A   1      31.646  30.550  26.558  1.00  0.00     0.023 C 
ENDROOT
BRANCH   1   2
ATOM      2  C   UNL A   1      32.062  30.070  25.168  1.00  0.00     0.116 C 
BRANCH   2   3
ATOM      3  N   UNL A   1      30.934  29.777  24.300  1.00  0.00    -0.352 N 
ATOM      4  C   UNL A   1      30.426  28.590  23.847  1.00  0.00     0.251 C 
ATOM      5  O   UNL A   1      29.491  28.600  23.050  1.00  0.00    -0.269 OA
ATOM      6  H   UNL A   1      30.450  30.573  23.984  1.00  0.00     0.163 HD
BRANCH   4   7
ATOM      7  C   UNL A   1      31.012  27.290  24.244  1.00  0.00     0.040 A 
ATOM      8  N   UNL A   1      33.357  23.337  24.208  1.00  0.00    -0.267 N 
ATOM      9  C   UNL A   1      32.522  23.535  25.276  1.00  0.00     0.262 C 
ATOM     10  C   UNL A   1      33.234  24.355  23.298  1.00  0.00     0.262 C 
ATOM     11  O   UNL A   1      32.175  22.790  26.170  1.00  0.00    -0.269 OA
ATOM     12  C   UNL A   1      31.957  24.867  25.126  1.00  0.00     0.053 A 
ATOM     13  C   UNL A   1      32.347  25.356  23.895  1.00  0.00     0.054 A 
ATOM     14  O   UNL A   1      33.706  24.457  22.181  1.00  0.00    -0.269 OA
ATOM     15  C   UNL A   1      31.147  25.580  25.987  1.00  0.00     0.015 A 
ATOM     16  C   UNL A   1      31.896  26.576  23.421  1.00  0.00     0.028 A 
ATOM     17  C   UNL A   1      30.681  26.815  25.537  1.00  0.00     0.015 A 
BRANCH   8  18
ATOM     18  C   UNL A   1      34.169  22.138  23.978  1.00  0.00     0.121 C 
ATOM     19  C   UNL A   1      33.406  20.859  24.338  1.00  0.00     0.037 C 
BRANCH  18  20
ATOM     20  C   UNL A   1      35.537  22.248  24.641  1.00  0.00    -0.025 A 
ATOM     21  C   UNL A   1      36.048  23.476  25.095  1.00  0.00     0.006 A 
ATOM     22  C   UNL A   1      36.359  21.113  24.746  1.00  0.00     0.006 A 
ATOM     23  C   UNL A   1      37.352  23.581  25.581  1.00  0.00     0.000 A 
ATOM     24  C   UNL A   1      37.655  21.214  25.259  1.00  0.00     0.000 A 
ATOM     25  C   UNL A   1      38.157  22.449  25.660  1.00  0.00     0.000 A 
ENDBRANCH  18  20
ENDBRANCH   8  18
ENDBRANCH   4   7
ENDBRANCH   2   3
ENDBRANCH   1   2
BRANCH   1  26
ATOM     26  C   UNL A   1      31.470  32.059  26.734  1.00  0.00     0.023 C 
BRANCH  26  27
ATOM     27  C   UNL A   1      32.662  32.826  27.297  1.00  0.00     0.116 C 
BRANCH  27  28
ATOM     28  N   UNL A   1      32.350  34.187  27.702  1.00  0.00    -0.352 N 
ATOM     29  C   UNL A   1      32.978  34.993  28.622  1.00  0.00     0.251 C 
ATOM     30  H   UNL A   1      31.572  34.590  27.252  1.00  0.00     0.163 HD
ATOM     31  O   UNL A   1      32.527  36.108  28.863  1.00  0.00    -0.269 OA
BRANCH  29  32
ATOM     32  C   UNL A   1      34.166  34.508  29.360  1.00  0.00     0.039 A 
ATOM     33  C   UNL A   1      33.977  33.962  30.634  1.00  0.00     0.014 A 
ATOM     34  C   UNL A   1      35.450  34.583  28.817  1.00  0.00     0.014 A 
ATOM     35  C   UNL A   1      35.062  33.420  31.329  1.00  0.00     0.010 A 
ATOM     36  C   UNL A   1      36.522  33.991  29.484  1.00  0.00     0.010 A 
ATOM     37  C   UNL A   1      36.336  33.394  30.741  1.00  0.00    -0.014 A 
BRANCH  37  38
ATOM     38  C   UNL A   1      37.480  32.731  31.415  1.00  0.00     0.031 A 
ATOM     39  C   UNL A   1      38.161  31.555  30.776  1.00  0.00     0.074 A 
ATOM     40  C   UNL A   1      37.856  33.144  32.642  1.00  0.00     0.049 A 
ATOM     41  N   UNL A   1      39.118  30.796  31.248  1.00  0.00    -0.248 NA
ATOM     42  C   UNL A   1      37.686  31.165  29.441  1.00  0.00     0.031 C 
ATOM     43  C   UNL A   1      37.245  34.244  33.388  1.00  0.00     0.029 A 
ATOM     44  N   UNL A   1      38.836  32.676  33.482  1.00  0.00    -0.354 N 
ATOM     45  C   UNL A   1      39.344  29.828  30.280  1.00  0.00     0.074 A 
ATOM     46  C   UNL A   1      38.401  30.073  29.209  1.00  0.00     0.031 C 
ATOM     47  C   UNL A   1      37.873  34.377  34.568  1.00  0.00     0.029 A 
ATOM     48  C   UNL A   1      38.909  33.353  34.674  1.00  0.00     0.049 A 
ATOM     49  H   UNL A   1      39.431  31.926  33.251  1.00  0.00     0.167 HD
ATOM     50  C   UNL A   1      40.265  28.835  30.276  1.00  0.00     0.037 A 
ATOM     51  C   UNL A   1      39.715  33.167  35.736  1.00  0.00     0.037 A 
ATOM     52  C   UNL A   1      41.227  28.614  31.324  1.00  0.00     0.049 A 
ATOM     53  C   UNL A   1      40.743  32.069  35.698  1.00  0.00     0.074 A 
ATOM     54  C   UNL A   1      42.246  27.680  31.377  1.00  0.00     0.029 A 
ATOM     55  N   UNL A   1      41.288  29.341  32.503  1.00  0.00    -0.354 N 
ATOM     56  N   UNL A   1      40.989  31.200  34.748  1.00  0.00    -0.248 NA
ATOM     57  C   UNL A   1      41.608  31.931  36.878  1.00  0.00     0.031 C 
ATOM     58  C   UNL A   1      42.906  27.820  32.603  1.00  0.00     0.029 A 
ATOM     59  C   UNL A   1      42.319  28.865  33.299  1.00  0.00     0.049 A 
ATOM     60  H   UNL A   1      40.689  30.084  32.740  1.00  0.00     0.167 HD
ATOM     61  C   UNL A   1      42.049  30.429  35.203  1.00  0.00     0.074 A 
ATOM     62  C   UNL A   1      42.407  30.939  36.510  1.00  0.00     0.031 C 
ATOM     63  C   UNL A   1      42.669  29.391  34.591  1.00  0.00     0.037 A 
BRANCH  50  64
ATOM     64  C   UNL A   1      40.279  27.910  29.095  1.00  0.00     0.064 A 
ATOM     65  C   UNL A   1      41.015  28.210  27.939  1.00  0.00     0.173 A 
ATOM     66  C   UNL A   1      39.578  26.696  29.134  1.00  0.00     0.173 A 
ATOM     67  F   UNL A   1      41.692  29.364  27.850  1.00  0.00    -0.203 F 
ATOM     68  C   UNL A   1      41.025  27.338  26.852  1.00  0.00     0.198 A 
ATOM     69  C   UNL A   1      39.612  25.816  28.056  1.00  0.00     0.198 A 
ATOM     70  F   UNL A   1      38.865  26.361  30.219  1.00  0.00    -0.203 F 
ATOM     71  F   UNL A   1      41.698  27.665  25.740  1.00  0.00    -0.200 F 
ATOM     72  C   UNL A   1      40.329  26.140  26.914  1.00  0.00     0.200 A 
ATOM     73  F   UNL A   1      38.946  24.655  28.120  1.00  0.00    -0.200 F 
ATOM     74  F   UNL A   1      40.343  25.302  25.869  1.00  0.00    -0.200 F 
ENDBRANCH  50  64
BRANCH  51  75
ATOM     75  C   UNL A   1      39.606  34.062  36.914  1.00  0.00     0.064 A 
ATOM     76  C   UNL A   1      38.847  33.685  38.030  1.00  0.00     0.173 A 
ATOM     77  C   UNL A   1      40.255  35.304  36.953  1.00  0.00     0.173 A 
ATOM     78  F   UNL A   1      38.191  32.514  38.029  1.00  0.00    -0.203 F 
ATOM     79  C   UNL A   1      38.729  34.523  39.137  1.00  0.00     0.198 A 
ATOM     80  C   UNL A   1      40.154  36.132  38.069  1.00  0.00     0.198 A 
ATOM     81  F   UNL A   1      40.996  35.707  35.911  1.00  0.00    -0.203 F 
ATOM     82  F   UNL A   1      37.967  34.155  40.175  1.00  0.00    -0.200 F 
ATOM     83  C   UNL A   1      39.387  35.744  39.157  1.00  0.00     0.200 A 
ATOM     84  F   UNL A   1      40.800  37.306  38.090  1.00  0.00    -0.200 F 
ATOM     85  F   UNL A   1      39.275  36.548  40.222  1.00  0.00    -0.200 F 
ENDBRANCH  51  75
BRANCH  63  86
ATOM     86  C   UNL A   1      43.820  28.758  35.315  1.00  0.00     0.064 A 
ATOM     87  C   UNL A   1      45.137  29.199  35.124  1.00  0.00     0.173 A 
ATOM     88  C   UNL A   1      43.596  27.725  36.237  1.00  0.00     0.173 A 
ATOM     89  F   UNL A   1      45.401  30.173  34.240  1.00  0.00    -0.203 F 
ATOM     90  C   UNL A   1      46.193  28.616  35.819  1.00  0.00     0.198 A 
ATOM     91  C   UNL A   1      44.652  27.160  36.947  1.00  0.00     0.198 A 
ATOM     92  F   UNL A   1      42.353  27.270  36.455  1.00  0.00    -0.203 F 
ATOM     93  F   UNL A   1      47.448  29.026  35.595  1.00  0.00    -0.200 F 
ATOM     94  C   UNL A   1      45.949  27.602  36.734  1.00  0.00     0.200 A 
ATOM     95  F   UNL A   1      44.413  26.186  37.836  1.00  0.00    -0.200 F 
ATOM     96  F   UNL A   1      46.965  27.045  37.406  1.00  0.00    -0.200 F 
ENDBRANCH  63  86
ENDBRANCH  37  38
ENDBRANCH  29  32
ENDBRANCH  27  28
ENDBRANCH  26  27
ENDBRANCH   1  26
TORSDOF 13
ENDMDL
