MODEL 1
REMARK VINA RESULT:     -11.2      0.000      0.000
REMARK SMILES O=C(C[N@H+]1CCC[C@H](CBr)C1)NCCCCNC(=O)c1ccc(-c2c3nc(c(-c4c(F)c(F)c(F)c(F)c4F)c4ccc([nH]4)c(-c4c(F)c(F)c(F)c(F)c4F)c4nc(c(-c5c(F)c(F)c(F)c(F)c5F)c5ccc2[nH]5)C=C4)C=C3)cc1
REMARK SMILES IDX 14 1 13 2 12 3 1 4 2 5 3 7 4 8 5 9 11 10 6 12 8 13 7 14 9 15
REMARK SMILES IDX 10 16 15 17 16 18 17 19 18 20 19 22 20 23 21 24 82 25 22 26
REMARK SMILES IDX 81 27 23 28 24 29 25 30 75 31 26 32 80 33 74 34 76 35 27 36
REMARK SMILES IDX 79 37 73 38 72 39 28 41 60 42 40 43 59 44 41 45 44 46 58 47
REMARK SMILES IDX 77 48 42 49 43 50 57 52 78 53 45 54 29 55 30 56 38 57 31 58
REMARK SMILES IDX 32 59 36 60 39 61 33 62 34 63 37 64 35 65 61 66 62 67 70 68
REMARK SMILES IDX 63 69 64 70 68 71 71 72 65 73 66 74 69 75 67 76 46 77 47 78
REMARK SMILES IDX 55 79 48 80 49 81 53 82 56 83 50 84 51 85 54 86 52 87
REMARK H PARENT 12 6 4 11 17 21 76 40 44 51
REMARK Flexibility Score: inf
ROOT
ATOM      1  C   UNL A   1      31.592  30.716  26.203  1.00  0.00     0.023 C 
ENDROOT
BRANCH   1   2
ATOM      2  C   UNL A   1      32.853  30.059  26.768  1.00  0.00     0.116 C 
BRANCH   2   3
ATOM      3  N   UNL A   1      33.014  28.695  26.315  1.00  0.00    -0.351 N 
ATOM      4  O   UNL A   1      31.535  27.743  27.803  1.00  0.00    -0.269 OA
ATOM      5  C   UNL A   1      32.340  27.632  26.883  1.00  0.00     0.275 C 
ATOM      6  H   UNL A   1      33.630  28.516  25.568  1.00  0.00     0.163 HD
BRANCH   5   7
ATOM      7  C   UNL A   1      32.747  26.271  26.310  1.00  0.00     0.363 C 
BRANCH   7   8
ATOM      8  N   UNL A   1      32.675  26.262  24.823  1.00  0.00    -0.327 N 
ATOM      9  C   UNL A   1      33.757  25.406  24.301  1.00  0.00     0.262 C 
ATOM     10  C   UNL A   1      31.362  25.735  24.388  1.00  0.00     0.266 C 
ATOM     11  H   UNL A   1      32.782  27.211  24.466  1.00  0.00     0.348 HD
ATOM     12  C   UNL A   1      33.734  25.332  22.774  1.00  0.00     0.062 C 
ATOM     13  C   UNL A   1      31.227  25.706  22.852  1.00  0.00     0.055 C 
ATOM     14  C   UNL A   1      32.375  24.869  22.261  1.00  0.00     0.016 C 
BRANCH  13  15
ATOM     15  C   UNL A   1      31.161  27.136  22.307  1.00  0.00     0.090 C 
ATOM     16  Br  UNL A   1      29.912  28.232  23.327  1.00  0.00    -0.092 Br
ENDBRANCH  13  15
ENDBRANCH   7   8
ENDBRANCH   5   7
ENDBRANCH   2   3
ENDBRANCH   1   2
BRANCH   1  17
ATOM     17  C   UNL A   1      31.417  32.196  26.554  1.00  0.00     0.023 C 
BRANCH  17  18
ATOM     18  C   UNL A   1      32.571  32.830  27.326  1.00  0.00     0.116 C 
BRANCH  18  19
ATOM     19  N   UNL A   1      32.337  34.227  27.662  1.00  0.00    -0.352 N 
ATOM     20  C   UNL A   1      32.978  35.027  28.576  1.00  0.00     0.251 C 
ATOM     21  H   UNL A   1      31.611  34.662  27.160  1.00  0.00     0.163 HD
ATOM     22  O   UNL A   1      32.550  36.156  28.809  1.00  0.00    -0.269 OA
BRANCH  20  23
ATOM     23  C   UNL A   1      34.163  34.532  29.313  1.00  0.00     0.039 A 
ATOM     24  C   UNL A   1      33.982  33.977  30.583  1.00  0.00     0.014 A 
ATOM     25  C   UNL A   1      35.447  34.613  28.768  1.00  0.00     0.014 A 
ATOM     26  C   UNL A   1      35.071  33.435  31.270  1.00  0.00     0.010 A 
ATOM     27  C   UNL A   1      36.518  34.002  29.418  1.00  0.00     0.010 A 
ATOM     28  C   UNL A   1      36.343  33.403  30.675  1.00  0.00    -0.014 A 
BRANCH  28  29
ATOM     29  C   UNL A   1      37.491  32.737  31.345  1.00  0.00     0.031 A 
ATOM     30  C   UNL A   1      38.196  31.585  30.683  1.00  0.00     0.074 A 
ATOM     31  C   UNL A   1      37.860  33.126  32.581  1.00  0.00     0.049 A 
ATOM     32  N   UNL A   1      39.167  30.833  31.140  1.00  0.00    -0.248 NA
ATOM     33  C   UNL A   1      37.731  31.211  29.339  1.00  0.00     0.031 C 
ATOM     34  C   UNL A   1      37.230  34.199  33.352  1.00  0.00     0.029 A 
ATOM     35  N   UNL A   1      38.846  32.656  33.414  1.00  0.00    -0.354 N 
ATOM     36  C   UNL A   1      39.421  29.897  30.146  1.00  0.00     0.074 A 
ATOM     37  C   UNL A   1      38.463  30.135  29.088  1.00  0.00     0.031 C 
ATOM     38  C   UNL A   1      37.857  34.318  34.533  1.00  0.00     0.029 A 
ATOM     39  C   UNL A   1      38.902  33.304  34.623  1.00  0.00     0.049 A 
ATOM     40  H   UNL A   1      39.455  31.923  33.166  1.00  0.00     0.167 HD
ATOM     41  C   UNL A   1      40.380  28.941  30.109  1.00  0.00     0.037 A 
ATOM     42  C   UNL A   1      39.696  33.096  35.692  1.00  0.00     0.037 A 
ATOM     43  C   UNL A   1      41.340  28.712  31.157  1.00  0.00     0.049 A 
ATOM     44  C   UNL A   1      40.739  32.012  35.634  1.00  0.00     0.074 A 
ATOM     45  C   UNL A   1      42.381  27.801  31.191  1.00  0.00     0.029 A 
ATOM     46  N   UNL A   1      41.372  29.397  32.364  1.00  0.00    -0.354 N 
ATOM     47  N   UNL A   1      41.013  31.177  34.662  1.00  0.00    -0.248 NA
ATOM     48  C   UNL A   1      41.587  31.846  36.823  1.00  0.00     0.031 C 
ATOM     49  C   UNL A   1      43.007  27.895  32.438  1.00  0.00     0.029 A 
ATOM     50  C   UNL A   1      42.398  28.910  33.159  1.00  0.00     0.049 A 
ATOM     51  H   UNL A   1      40.756  30.123  32.618  1.00  0.00     0.167 HD
ATOM     52  C   UNL A   1      42.082  30.410  35.107  1.00  0.00     0.074 A 
ATOM     53  C   UNL A   1      42.417  30.889  36.431  1.00  0.00     0.031 C 
ATOM     54  C   UNL A   1      42.727  29.399  34.474  1.00  0.00     0.037 A 
BRANCH  41  55
ATOM     55  C   UNL A   1      40.441  28.065  28.888  1.00  0.00     0.064 A 
ATOM     56  C   UNL A   1      39.736  26.852  28.815  1.00  0.00     0.173 A 
ATOM     57  C   UNL A   1      41.183  28.458  27.764  1.00  0.00     0.173 A 
ATOM     58  F   UNL A   1      39.018  26.425  29.865  1.00  0.00    -0.203 F 
ATOM     59  C   UNL A   1      39.798  26.053  27.677  1.00  0.00     0.198 A 
ATOM     60  C   UNL A   1      41.214  27.672  26.614  1.00  0.00     0.198 A 
ATOM     61  F   UNL A   1      41.868  29.610  27.774  1.00  0.00    -0.203 F 
ATOM     62  F   UNL A   1      39.161  24.874  27.653  1.00  0.00    -0.200 F 
ATOM     63  C   UNL A   1      40.531  26.466  26.576  1.00  0.00     0.200 A 
ATOM     64  F   UNL A   1      41.909  28.082  25.544  1.00  0.00    -0.200 F 
ATOM     65  F   UNL A   1      40.584  25.700  25.478  1.00  0.00    -0.200 F 
ENDBRANCH  41  55
BRANCH  42  66
ATOM     66  C   UNL A   1      39.546  33.944  36.905  1.00  0.00     0.064 A 
ATOM     67  C   UNL A   1      38.776  33.517  37.995  1.00  0.00     0.173 A 
ATOM     68  C   UNL A   1      40.161  35.201  36.996  1.00  0.00     0.173 A 
ATOM     69  F   UNL A   1      38.149  32.331  37.948  1.00  0.00    -0.203 F 
ATOM     70  C   UNL A   1      38.607  34.323  39.119  1.00  0.00     0.198 A 
ATOM     71  C   UNL A   1      40.018  35.994  38.133  1.00  0.00     0.198 A 
ATOM     72  F   UNL A   1      40.914  35.657  35.983  1.00  0.00    -0.203 F 
ATOM     73  F   UNL A   1      37.822  33.911  40.124  1.00  0.00    -0.200 F 
ATOM     74  C   UNL A   1      39.233  35.557  39.190  1.00  0.00     0.200 A 
ATOM     75  F   UNL A   1      40.640  37.178  38.204  1.00  0.00    -0.200 F 
ATOM     76  F   UNL A   1      39.074  36.332  40.272  1.00  0.00    -0.200 F 
ENDBRANCH  42  66
BRANCH  54  77
ATOM     77  C   UNL A   1      43.888  28.766  35.187  1.00  0.00     0.064 A 
ATOM     78  C   UNL A   1      43.723  27.662  36.037  1.00  0.00     0.173 A 
ATOM     79  C   UNL A   1      45.191  29.250  34.987  1.00  0.00     0.173 A 
ATOM     80  F   UNL A   1      42.498  27.169  36.274  1.00  0.00    -0.203 F 
ATOM     81  C   UNL A   1      44.815  27.084  36.680  1.00  0.00     0.198 A 
ATOM     82  C   UNL A   1      46.283  28.648  35.605  1.00  0.00     0.198 A 
ATOM     83  F   UNL A   1      45.407  30.300  34.180  1.00  0.00    -0.203 F 
ATOM     84  F   UNL A   1      44.627  26.063  37.527  1.00  0.00    -0.200 F 
ATOM     85  C   UNL A   1      46.094  27.572  36.457  1.00  0.00     0.200 A 
ATOM     86  F   UNL A   1      47.520  29.111  35.375  1.00  0.00    -0.200 F 
ATOM     87  F   UNL A   1      47.144  27.008  37.071  1.00  0.00    -0.200 F 
ENDBRANCH  54  77
ENDBRANCH  28  29
ENDBRANCH  20  23
ENDBRANCH  18  19
ENDBRANCH  17  18
ENDBRANCH   1  17
TORSDOF 13
ENDMDL
MODEL 2
REMARK VINA RESULT:     -11.0      1.549      2.344
REMARK SMILES O=C(C[N@H+]1CCC[C@H](CBr)C1)NCCCCNC(=O)c1ccc(-c2c3nc(c(-c4c(F)c(F)c(F)c(F)c4F)c4ccc([nH]4)c(-c4c(F)c(F)c(F)c(F)c4F)c4nc(c(-c5c(F)c(F)c(F)c(F)c5F)c5ccc2[nH]5)C=C4)C=C3)cc1
REMARK SMILES IDX 14 1 13 2 12 3 1 4 2 5 3 7 4 8 5 9 11 10 6 12 8 13 7 14 9 15
REMARK SMILES IDX 10 16 15 17 16 18 17 19 18 20 19 22 20 23 21 24 82 25 22 26
REMARK SMILES IDX 81 27 23 28 24 29 25 30 75 31 26 32 80 33 74 34 76 35 27 36
REMARK SMILES IDX 79 37 73 38 72 39 28 41 60 42 40 43 59 44 41 45 44 46 58 47
REMARK SMILES IDX 77 48 42 49 43 50 57 52 78 53 45 54 29 55 30 56 38 57 31 58
REMARK SMILES IDX 32 59 36 60 39 61 33 62 34 63 37 64 35 65 61 66 62 67 70 68
REMARK SMILES IDX 63 69 64 70 68 71 71 72 65 73 66 74 69 75 67 76 46 77 47 78
REMARK SMILES IDX 55 79 48 80 49 81 53 82 56 83 50 84 51 85 54 86 52 87
REMARK H PARENT 12 6 4 11 17 21 76 40 44 51
REMARK Flexibility Score: inf
ROOT
ATOM      1  C   UNL A   1      31.578  30.563  26.725  1.00  0.00     0.023 C 
ENDROOT
BRANCH   1   2
ATOM      2  C   UNL A   1      32.408  29.890  25.631  1.00  0.00     0.116 C 
BRANCH   2   3
ATOM      3  N   UNL A   1      31.627  28.967  24.836  1.00  0.00    -0.351 N 
ATOM      4  O   UNL A   1      32.835  29.203  22.889  1.00  0.00    -0.269 OA
ATOM      5  C   UNL A   1      31.902  28.702  23.509  1.00  0.00     0.275 C 
ATOM      6  H   UNL A   1      30.867  28.507  25.260  1.00  0.00     0.163 HD
BRANCH   5   7
ATOM      7  C   UNL A   1      30.879  27.775  22.845  1.00  0.00     0.363 C 
BRANCH   7   8
ATOM      8  N   UNL A   1      29.610  28.492  22.542  1.00  0.00    -0.327 N 
ATOM      9  C   UNL A   1      28.532  27.917  23.369  1.00  0.00     0.262 C 
ATOM     10  C   UNL A   1      29.763  29.932  22.844  1.00  0.00     0.266 C 
ATOM     11  H   UNL A   1      29.380  28.386  21.554  1.00  0.00     0.348 HD
ATOM     12  C   UNL A   1      27.196  28.619  23.127  1.00  0.00     0.062 C 
ATOM     13  C   UNL A   1      28.477  30.729  22.545  1.00  0.00     0.055 C 
ATOM     14  C   UNL A   1      27.311  30.123  23.346  1.00  0.00     0.016 C 
BRANCH  13  15
ATOM     15  C   UNL A   1      28.230  30.773  21.034  1.00  0.00     0.090 C 
ATOM     16  Br  UNL A   1      27.832  32.583  20.427  1.00  0.00    -0.092 Br
ENDBRANCH  13  15
ENDBRANCH   7   8
ENDBRANCH   5   7
ENDBRANCH   2   3
ENDBRANCH   1   2
BRANCH   1  17
ATOM     17  C   UNL A   1      31.508  32.091  26.640  1.00  0.00     0.023 C 
BRANCH  17  18
ATOM     18  C   UNL A   1      32.714  32.837  27.205  1.00  0.00     0.116 C 
BRANCH  18  19
ATOM     19  N   UNL A   1      32.406  34.197  27.618  1.00  0.00    -0.352 N 
ATOM     20  C   UNL A   1      32.981  34.968  28.598  1.00  0.00     0.251 C 
ATOM     21  H   UNL A   1      31.675  34.630  27.119  1.00  0.00     0.163 HD
ATOM     22  O   UNL A   1      32.493  36.060  28.885  1.00  0.00    -0.269 OA
BRANCH  20  23
ATOM     23  C   UNL A   1      34.165  34.482  29.342  1.00  0.00     0.039 A 
ATOM     24  C   UNL A   1      33.976  33.882  30.591  1.00  0.00     0.014 A 
ATOM     25  C   UNL A   1      35.456  34.615  28.825  1.00  0.00     0.014 A 
ATOM     26  C   UNL A   1      35.067  33.348  31.281  1.00  0.00     0.010 A 
ATOM     27  C   UNL A   1      36.532  34.013  29.476  1.00  0.00     0.010 A 
ATOM     28  C   UNL A   1      36.350  33.370  30.710  1.00  0.00    -0.014 A 
BRANCH  28  29
ATOM     29  C   UNL A   1      37.504  32.714  31.381  1.00  0.00     0.031 A 
ATOM     30  C   UNL A   1      38.213  31.561  30.724  1.00  0.00     0.074 A 
ATOM     31  C   UNL A   1      37.875  33.113  32.614  1.00  0.00     0.049 A 
ATOM     32  N   UNL A   1      39.189  30.818  31.183  1.00  0.00    -0.248 NA
ATOM     33  C   UNL A   1      37.746  31.176  29.384  1.00  0.00     0.031 C 
ATOM     34  C   UNL A   1      37.241  34.187  33.380  1.00  0.00     0.029 A 
ATOM     35  N   UNL A   1      38.866  32.654  33.446  1.00  0.00    -0.354 N 
ATOM     36  C   UNL A   1      39.446  29.877  30.194  1.00  0.00     0.074 A 
ATOM     37  C   UNL A   1      38.484  30.104  29.137  1.00  0.00     0.031 C 
ATOM     38  C   UNL A   1      37.871  34.317  34.558  1.00  0.00     0.029 A 
ATOM     39  C   UNL A   1      38.922  33.310  34.652  1.00  0.00     0.049 A 
ATOM     40  H   UNL A   1      39.478  31.922  33.202  1.00  0.00     0.167 HD
ATOM     41  C   UNL A   1      40.410  28.926  30.160  1.00  0.00     0.037 A 
ATOM     42  C   UNL A   1      39.720  33.113  35.719  1.00  0.00     0.037 A 
ATOM     43  C   UNL A   1      41.374  28.708  31.207  1.00  0.00     0.049 A 
ATOM     44  C   UNL A   1      40.768  32.034  35.665  1.00  0.00     0.074 A 
ATOM     45  C   UNL A   1      42.420  27.804  31.244  1.00  0.00     0.029 A 
ATOM     46  N   UNL A   1      41.406  29.402  32.409  1.00  0.00    -0.354 N 
ATOM     47  N   UNL A   1      41.044  31.194  34.697  1.00  0.00    -0.248 NA
ATOM     48  C   UNL A   1      41.621  31.880  36.852  1.00  0.00     0.031 C 
ATOM     49  C   UNL A   1      43.049  27.909  32.488  1.00  0.00     0.029 A 
ATOM     50  C   UNL A   1      42.437  28.925  33.204  1.00  0.00     0.049 A 
ATOM     51  H   UNL A   1      40.786  30.126  32.661  1.00  0.00     0.167 HD
ATOM     52  C   UNL A   1      42.118  30.436  35.144  1.00  0.00     0.074 A 
ATOM     53  C   UNL A   1      42.455  30.925  36.464  1.00  0.00     0.031 C 
ATOM     54  C   UNL A   1      42.767  29.424  34.515  1.00  0.00     0.037 A 
BRANCH  41  55
ATOM     55  C   UNL A   1      40.471  28.042  28.945  1.00  0.00     0.064 A 
ATOM     56  C   UNL A   1      39.752  26.838  28.872  1.00  0.00     0.173 A 
ATOM     57  C   UNL A   1      41.230  28.420  27.826  1.00  0.00     0.173 A 
ATOM     58  F   UNL A   1      39.018  26.426  29.916  1.00  0.00    -0.203 F 
ATOM     59  C   UNL A   1      39.816  26.032  27.738  1.00  0.00     0.198 A 
ATOM     60  C   UNL A   1      41.263  27.628  26.681  1.00  0.00     0.198 A 
ATOM     61  F   UNL A   1      41.929  29.563  27.837  1.00  0.00    -0.203 F 
ATOM     62  F   UNL A   1      39.164  24.861  27.714  1.00  0.00    -0.200 F 
ATOM     63  C   UNL A   1      40.565  26.430  26.642  1.00  0.00     0.200 A 
ATOM     64  F   UNL A   1      41.973  28.023  25.615  1.00  0.00    -0.200 F 
ATOM     65  F   UNL A   1      40.619  25.657  25.549  1.00  0.00    -0.200 F 
ENDBRANCH  41  55
BRANCH  42  66
ATOM     66  C   UNL A   1      39.569  33.967  36.927  1.00  0.00     0.064 A 
ATOM     67  C   UNL A   1      38.795  33.548  38.018  1.00  0.00     0.173 A 
ATOM     68  C   UNL A   1      40.186  35.224  37.012  1.00  0.00     0.173 A 
ATOM     69  F   UNL A   1      38.167  32.363  37.976  1.00  0.00    -0.203 F 
ATOM     70  C   UNL A   1      38.626  34.360  39.137  1.00  0.00     0.198 A 
ATOM     71  C   UNL A   1      40.042  36.023  38.145  1.00  0.00     0.198 A 
ATOM     72  F   UNL A   1      40.941  35.673  35.999  1.00  0.00    -0.203 F 
ATOM     73  F   UNL A   1      37.838  33.955  40.143  1.00  0.00    -0.200 F 
ATOM     74  C   UNL A   1      39.254  35.594  39.202  1.00  0.00     0.200 A 
ATOM     75  F   UNL A   1      40.666  37.207  38.211  1.00  0.00    -0.200 F 
ATOM     76  F   UNL A   1      39.094  36.374  40.280  1.00  0.00    -0.200 F 
ENDBRANCH  42  66
BRANCH  54  77
ATOM     77  C   UNL A   1      43.934  28.802  35.229  1.00  0.00     0.064 A 
ATOM     78  C   UNL A   1      45.248  29.254  35.033  1.00  0.00     0.173 A 
ATOM     79  C   UNL A   1      43.728  27.765  36.152  1.00  0.00     0.173 A 
ATOM     80  F   UNL A   1      45.501  30.233  34.152  1.00  0.00    -0.203 F 
ATOM     81  C   UNL A   1      46.314  28.670  35.713  1.00  0.00     0.198 A 
ATOM     82  C   UNL A   1      44.793  27.208  36.855  1.00  0.00     0.198 A 
ATOM     83  F   UNL A   1      42.491  27.299  36.383  1.00  0.00    -0.203 F 
ATOM     84  F   UNL A   1      47.566  29.083  35.470  1.00  0.00    -0.200 F 
ATOM     85  C   UNL A   1      46.085  27.655  36.629  1.00  0.00     0.200 A 
ATOM     86  F   UNL A   1      44.567  26.238  37.752  1.00  0.00    -0.200 F 
ATOM     87  F   UNL A   1      47.112  27.102  37.288  1.00  0.00    -0.200 F 
ENDBRANCH  54  77
ENDBRANCH  28  29
ENDBRANCH  20  23
ENDBRANCH  18  19
ENDBRANCH  17  18
ENDBRANCH   1  17
TORSDOF 13
ENDMDL
MODEL 3
REMARK VINA RESULT:     -11.0      1.076      2.125
REMARK SMILES O=C(C[N@H+]1CCC[C@H](CBr)C1)NCCCCNC(=O)c1ccc(-c2c3nc(c(-c4c(F)c(F)c(F)c(F)c4F)c4ccc([nH]4)c(-c4c(F)c(F)c(F)c(F)c4F)c4nc(c(-c5c(F)c(F)c(F)c(F)c5F)c5ccc2[nH]5)C=C4)C=C3)cc1
REMARK SMILES IDX 14 1 13 2 12 3 1 4 2 5 3 7 4 8 5 9 11 10 6 12 8 13 7 14 9 15
REMARK SMILES IDX 10 16 15 17 16 18 17 19 18 20 19 22 20 23 21 24 82 25 22 26
REMARK SMILES IDX 81 27 23 28 24 29 25 30 75 31 26 32 80 33 74 34 76 35 27 36
REMARK SMILES IDX 79 37 73 38 72 39 28 41 60 42 40 43 59 44 41 45 44 46 58 47
REMARK SMILES IDX 77 48 42 49 43 50 57 52 78 53 45 54 29 55 30 56 38 57 31 58
REMARK SMILES IDX 32 59 36 60 39 61 33 62 34 63 37 64 35 65 61 66 62 67 70 68
REMARK SMILES IDX 63 69 64 70 68 71 71 72 65 73 66 74 69 75 67 76 46 77 47 78
REMARK SMILES IDX 55 79 48 80 49 81 53 82 56 83 50 84 51 85 54 86 52 87
REMARK H PARENT 12 6 4 11 17 21 76 40 44 51
REMARK Flexibility Score: inf
ROOT
ATOM      1  C   UNL A   1      31.525  30.629  26.337  1.00  0.00     0.023 C 
ENDROOT
BRANCH   1   2
ATOM      2  C   UNL A   1      32.952  30.130  26.102  1.00  0.00     0.116 C 
BRANCH   2   3
ATOM      3  N   UNL A   1      33.033  29.194  25.001  1.00  0.00    -0.351 N 
ATOM      4  O   UNL A   1      34.000  27.471  26.186  1.00  0.00    -0.269 OA
ATOM      5  C   UNL A   1      33.567  27.927  25.132  1.00  0.00     0.275 C 
ATOM      6  H   UNL A   1      32.692  29.472  24.120  1.00  0.00     0.163 HD
BRANCH   5   7
ATOM      7  C   UNL A   1      33.643  27.155  23.811  1.00  0.00     0.363 C 
BRANCH   7   8
ATOM      8  N   UNL A   1      33.089  25.780  23.950  1.00  0.00    -0.327 N 
ATOM      9  C   UNL A   1      31.643  25.878  24.225  1.00  0.00     0.262 C 
ATOM     10  C   UNL A   1      33.314  25.021  22.700  1.00  0.00     0.266 C 
ATOM     11  H   UNL A   1      33.555  25.296  24.717  1.00  0.00     0.348 HD
ATOM     12  C   UNL A   1      30.998  24.498  24.361  1.00  0.00     0.062 C 
ATOM     13  C   UNL A   1      32.762  23.582  22.786  1.00  0.00     0.055 C 
ATOM     14  C   UNL A   1      31.264  23.637  23.131  1.00  0.00     0.016 C 
BRANCH  13  15
ATOM     15  C   UNL A   1      33.594  22.764  23.778  1.00  0.00     0.090 C 
ATOM     16  Br  UNL A   1      35.506  23.028  23.495  1.00  0.00    -0.092 Br
ENDBRANCH  13  15
ENDBRANCH   7   8
ENDBRANCH   5   7
ENDBRANCH   2   3
ENDBRANCH   1   2
BRANCH   1  17
ATOM     17  C   UNL A   1      31.395  32.136  26.571  1.00  0.00     0.023 C 
BRANCH  17  18
ATOM     18  C   UNL A   1      32.587  32.802  27.253  1.00  0.00     0.116 C 
BRANCH  18  19
ATOM     19  N   UNL A   1      32.340  34.190  27.613  1.00  0.00    -0.352 N 
ATOM     20  C   UNL A   1      32.964  34.977  28.550  1.00  0.00     0.251 C 
ATOM     21  H   UNL A   1      31.619  34.631  27.109  1.00  0.00     0.163 HD
ATOM     22  O   UNL A   1      32.526  36.099  28.798  1.00  0.00    -0.269 OA
BRANCH  20  23
ATOM     23  C   UNL A   1      34.142  34.475  29.293  1.00  0.00     0.039 A 
ATOM     24  C   UNL A   1      33.950  33.915  30.560  1.00  0.00     0.014 A 
ATOM     25  C   UNL A   1      35.430  34.553  28.757  1.00  0.00     0.014 A 
ATOM     26  C   UNL A   1      35.033  33.367  31.252  1.00  0.00     0.010 A 
ATOM     27  C   UNL A   1      36.495  33.936  29.413  1.00  0.00     0.010 A 
ATOM     28  C   UNL A   1      36.308  33.333  30.666  1.00  0.00    -0.014 A 
BRANCH  28  29
ATOM     29  C   UNL A   1      37.450  32.660  31.341  1.00  0.00     0.031 A 
ATOM     30  C   UNL A   1      38.151  31.503  30.683  1.00  0.00     0.074 A 
ATOM     31  C   UNL A   1      37.816  33.047  32.579  1.00  0.00     0.049 A 
ATOM     32  N   UNL A   1      39.115  30.746  31.144  1.00  0.00    -0.248 NA
ATOM     33  C   UNL A   1      37.689  31.131  29.336  1.00  0.00     0.031 C 
ATOM     34  C   UNL A   1      37.189  34.124  33.347  1.00  0.00     0.029 A 
ATOM     35  N   UNL A   1      38.796  32.571  33.416  1.00  0.00    -0.354 N 
ATOM     36  C   UNL A   1      39.368  29.807  30.152  1.00  0.00     0.074 A 
ATOM     37  C   UNL A   1      38.416  30.052  29.089  1.00  0.00     0.031 C 
ATOM     38  C   UNL A   1      37.811  34.240  34.530  1.00  0.00     0.029 A 
ATOM     39  C   UNL A   1      38.850  33.220  34.625  1.00  0.00     0.049 A 
ATOM     40  H   UNL A   1      39.401  31.835  33.171  1.00  0.00     0.167 HD
ATOM     41  C   UNL A   1      40.321  28.846  30.119  1.00  0.00     0.037 A 
ATOM     42  C   UNL A   1      39.638  33.007  35.697  1.00  0.00     0.037 A 
ATOM     43  C   UNL A   1      41.275  28.611  31.172  1.00  0.00     0.049 A 
ATOM     44  C   UNL A   1      40.675  31.917  35.645  1.00  0.00     0.074 A 
ATOM     45  C   UNL A   1      42.311  27.694  31.210  1.00  0.00     0.029 A 
ATOM     46  N   UNL A   1      41.306  29.297  32.378  1.00  0.00    -0.354 N 
ATOM     47  N   UNL A   1      40.948  31.080  34.674  1.00  0.00    -0.248 NA
ATOM     48  C   UNL A   1      41.517  31.746  36.837  1.00  0.00     0.031 C 
ATOM     49  C   UNL A   1      42.932  27.785  32.460  1.00  0.00     0.029 A 
ATOM     50  C   UNL A   1      42.326  28.804  33.177  1.00  0.00     0.049 A 
ATOM     51  H   UNL A   1      40.693  30.026  32.629  1.00  0.00     0.167 HD
ATOM     52  C   UNL A   1      42.010  30.306  35.123  1.00  0.00     0.074 A 
ATOM     53  C   UNL A   1      42.342  30.784  36.449  1.00  0.00     0.031 C 
ATOM     54  C   UNL A   1      42.651  29.291  34.494  1.00  0.00     0.037 A 
BRANCH  41  55
ATOM     55  C   UNL A   1      40.382  27.969  28.899  1.00  0.00     0.064 A 
ATOM     56  C   UNL A   1      39.682  26.753  28.829  1.00  0.00     0.173 A 
ATOM     57  C   UNL A   1      41.118  28.364  27.772  1.00  0.00     0.173 A 
ATOM     58  F   UNL A   1      38.970  26.324  29.881  1.00  0.00    -0.203 F 
ATOM     59  C   UNL A   1      39.745  25.953  27.691  1.00  0.00     0.198 A 
ATOM     60  C   UNL A   1      41.150  27.578  26.622  1.00  0.00     0.198 A 
ATOM     61  F   UNL A   1      41.799  29.520  27.778  1.00  0.00    -0.203 F 
ATOM     62  F   UNL A   1      39.113  24.772  27.670  1.00  0.00    -0.200 F 
ATOM     63  C   UNL A   1      40.472  26.369  26.587  1.00  0.00     0.200 A 
ATOM     64  F   UNL A   1      41.839  27.990  25.549  1.00  0.00    -0.200 F 
ATOM     65  F   UNL A   1      40.524  25.602  25.490  1.00  0.00    -0.200 F 
ENDBRANCH  41  55
BRANCH  42  66
ATOM     66  C   UNL A   1      39.488  33.856  36.909  1.00  0.00     0.064 A 
ATOM     67  C   UNL A   1      40.138  35.094  37.011  1.00  0.00     0.173 A 
ATOM     68  C   UNL A   1      38.700  33.445  37.995  1.00  0.00     0.173 A 
ATOM     69  F   UNL A   1      40.920  35.523  36.008  1.00  0.00    -0.203 F 
ATOM     70  C   UNL A   1      40.026  35.876  38.158  1.00  0.00     0.198 A 
ATOM     71  C   UNL A   1      38.562  34.242  39.129  1.00  0.00     0.198 A 
ATOM     72  F   UNL A   1      38.052  32.272  37.949  1.00  0.00    -0.203 F 
ATOM     73  F   UNL A   1      40.701  37.030  38.248  1.00  0.00    -0.200 F 
ATOM     74  C   UNL A   1      39.233  35.453  39.214  1.00  0.00     0.200 A 
ATOM     75  F   UNL A   1      37.781  33.837  40.140  1.00  0.00    -0.200 F 
ATOM     76  F   UNL A   1      39.122  36.206  40.316  1.00  0.00    -0.200 F 
ENDBRANCH  42  66
BRANCH  54  77
ATOM     77  C   UNL A   1      43.806  28.652  35.212  1.00  0.00     0.064 A 
ATOM     78  C   UNL A   1      45.114  29.148  35.101  1.00  0.00     0.173 A 
ATOM     79  C   UNL A   1      43.593  27.549  36.055  1.00  0.00     0.173 A 
ATOM     80  F   UNL A   1      45.375  30.190  34.298  1.00  0.00    -0.203 F 
ATOM     81  C   UNL A   1      46.168  28.547  35.785  1.00  0.00     0.198 A 
ATOM     82  C   UNL A   1      44.644  26.973  36.763  1.00  0.00     0.198 A 
ATOM     83  F   UNL A   1      42.361  27.038  36.203  1.00  0.00    -0.203 F 
ATOM     84  F   UNL A   1      47.417  29.006  35.622  1.00  0.00    -0.200 F 
ATOM     85  C   UNL A   1      45.931  27.466  36.621  1.00  0.00     0.200 A 
ATOM     86  F   UNL A   1      44.410  25.939  37.583  1.00  0.00    -0.200 F 
ATOM     87  F   UNL A   1      46.946  26.895  37.284  1.00  0.00    -0.200 F 
ENDBRANCH  54  77
ENDBRANCH  28  29
ENDBRANCH  20  23
ENDBRANCH  18  19
ENDBRANCH  17  18
ENDBRANCH   1  17
TORSDOF 13
ENDMDL
