MODEL 1
REMARK VINA RESULT:     -10.2      0.000      0.000
REMARK SMILES CC(=O)N1CCC[C@H]1COCC(=O)NCCCCNC(=O)c1ccc(-c2c3nc(c(-c4c(F)c(F)c(F)c(F)c4F)c4ccc([nH]4)c(-c4c(F)c(F)c(F)c(F)c4F)c4nc(c(-c5c(F)c(F)c(F)c(F)c5F)c5ccc2[nH]5)C=C4)C=C3)cc1
REMARK SMILES IDX 15 1 14 2 12 3 13 4 11 6 10 7 9 8 8 9 4 10 5 11 6 12 7 13
REMARK SMILES IDX 2 14 1 15 3 16 16 17 17 18 18 19 19 20 20 21 21 23 22 24
REMARK SMILES IDX 23 25 84 26 24 27 83 28 25 29 26 30 27 31 77 32 28 33 82 34
REMARK SMILES IDX 76 35 78 36 29 37 81 38 75 39 74 40 30 42 62 43 42 44 61 45
REMARK SMILES IDX 43 46 46 47 60 48 79 49 44 50 45 51 59 53 80 54 47 55 31 56
REMARK SMILES IDX 32 57 40 58 33 59 34 60 38 61 41 62 35 63 36 64 39 65 37 66
REMARK SMILES IDX 63 67 64 68 72 69 65 70 66 71 70 72 73 73 67 74 68 75 71 76
REMARK SMILES IDX 69 77 48 78 49 79 57 80 50 81 51 82 55 83 58 84 52 85 53 86
REMARK SMILES IDX 56 87 54 88
REMARK H PARENT 14 5 19 22 78 41 46 52
REMARK Flexibility Score: inf
ROOT
ATOM      1  C   UNL A   1      33.218  35.422  29.386  1.00  0.00     0.116 C 
ENDROOT
BRANCH   1   2
ATOM      2  N   UNL A   1      33.126  36.697  30.066  1.00  0.00    -0.354 N 
ATOM      3  C   UNL A   1      32.966  36.922  31.406  1.00  0.00     0.245 C 
ATOM      4  O   UNL A   1      33.031  38.076  31.826  1.00  0.00    -0.272 OA
ATOM      5  H   UNL A   1      33.185  37.498  29.497  1.00  0.00     0.163 HD
BRANCH   3   6
ATOM      6  C   UNL A   1      32.763  35.724  32.343  1.00  0.00     0.260 C 
BRANCH   6   7
ATOM      7  O   UNL A   1      33.775  35.492  33.317  1.00  0.00    -0.370 OA
BRANCH   7   8
ATOM      8  C   UNL A   1      35.101  35.485  32.772  1.00  0.00     0.185 C 
BRANCH   8   9
ATOM      9  C   UNL A   1      35.908  34.255  33.221  1.00  0.00     0.111 C 
ATOM     10  N   UNL A   1      37.351  34.353  33.001  1.00  0.00    -0.338 N 
ATOM     11  C   UNL A   1      38.079  34.248  34.252  1.00  0.00     0.120 C 
ATOM     12  C   UNL A   1      37.129  33.477  35.150  1.00  0.00     0.024 C 
ATOM     13  C   UNL A   1      35.759  33.999  34.729  1.00  0.00     0.029 C 
BRANCH  10  14
ATOM     14  C   UNL A   1      37.869  34.308  31.725  1.00  0.00     0.219 C 
ATOM     15  C   UNL A   1      37.034  33.632  30.672  1.00  0.00     0.114 C 
ATOM     16  O   UNL A   1      38.935  34.846  31.430  1.00  0.00    -0.275 OA
ENDBRANCH  10  14
ENDBRANCH   8   9
ENDBRANCH   7   8
ENDBRANCH   6   7
ENDBRANCH   3   6
ENDBRANCH   1   2
BRANCH   1  17
ATOM     17  C   UNL A   1      34.354  35.379  28.367  1.00  0.00     0.023 C 
BRANCH  17  18
ATOM     18  C   UNL A   1      34.750  33.980  27.892  1.00  0.00     0.023 C 
BRANCH  18  19
ATOM     19  C   UNL A   1      34.093  32.817  28.629  1.00  0.00     0.116 C 
BRANCH  19  20
ATOM     20  N   UNL A   1      33.685  31.735  27.748  1.00  0.00    -0.352 N 
ATOM     21  C   UNL A   1      34.351  30.583  27.415  1.00  0.00     0.251 C 
ATOM     22  H   UNL A   1      32.801  31.844  27.330  1.00  0.00     0.163 HD
ATOM     23  O   UNL A   1      33.878  29.830  26.562  1.00  0.00    -0.269 OA
BRANCH  21  24
ATOM     24  C   UNL A   1      35.649  30.248  28.043  1.00  0.00     0.039 A 
ATOM     25  C   UNL A   1      35.645  29.701  29.330  1.00  0.00     0.014 A 
ATOM     26  C   UNL A   1      36.863  30.486  27.392  1.00  0.00     0.014 A 
ATOM     27  C   UNL A   1      36.851  29.345  29.940  1.00  0.00     0.010 A 
ATOM     28  C   UNL A   1      38.058  30.060  27.970  1.00  0.00     0.010 A 
ATOM     29  C   UNL A   1      38.066  29.495  29.254  1.00  0.00    -0.014 A 
BRANCH  29  30
ATOM     30  C   UNL A   1      39.348  29.071  29.875  1.00  0.00     0.031 A 
ATOM     31  C   UNL A   1      39.851  29.743  31.122  1.00  0.00     0.074 A 
ATOM     32  C   UNL A   1      40.080  28.103  29.292  1.00  0.00     0.049 A 
ATOM     33  N   UNL A   1      40.937  29.500  31.814  1.00  0.00    -0.248 NA
ATOM     34  C   UNL A   1      39.043  30.855  31.645  1.00  0.00     0.031 C 
ATOM     35  C   UNL A   1      39.730  27.409  28.053  1.00  0.00     0.029 A 
ATOM     36  N   UNL A   1      41.271  27.532  29.668  1.00  0.00    -0.354 N 
ATOM     37  C   UNL A   1      40.948  30.435  32.841  1.00  0.00     0.074 A 
ATOM     38  C   UNL A   1      39.794  31.286  32.648  1.00  0.00     0.031 C 
ATOM     39  C   UNL A   1      40.659  26.475  27.795  1.00  0.00     0.029 A 
ATOM     40  C   UNL A   1      41.686  26.526  28.831  1.00  0.00     0.049 A 
ATOM     41  H   UNL A   1      41.778  27.815  30.463  1.00  0.00     0.167 HD
ATOM     42  C   UNL A   1      41.825  30.557  33.866  1.00  0.00     0.037 A 
ATOM     43  C   UNL A   1      42.767  25.726  28.899  1.00  0.00     0.037 A 
ATOM     44  C   UNL A   1      42.957  29.692  34.070  1.00  0.00     0.049 A 
ATOM     45  C   UNL A   1      43.728  25.882  30.045  1.00  0.00     0.074 A 
ATOM     46  C   UNL A   1      43.859  29.681  35.120  1.00  0.00     0.029 A 
ATOM     47  N   UNL A   1      43.350  28.688  33.197  1.00  0.00    -0.354 N 
ATOM     48  N   UNL A   1      43.679  26.706  31.062  1.00  0.00    -0.248 NA
ATOM     49  C   UNL A   1      44.895  24.987  30.053  1.00  0.00     0.031 C 
ATOM     50  C   UNL A   1      44.827  28.706  34.856  1.00  0.00     0.029 A 
ATOM     51  C   UNL A   1      44.498  28.071  33.668  1.00  0.00     0.049 A 
ATOM     52  H   UNL A   1      42.881  28.448  32.365  1.00  0.00     0.167 HD
ATOM     53  C   UNL A   1      44.784  26.410  31.849  1.00  0.00     0.074 A 
ATOM     54  C   UNL A   1      45.482  25.323  31.193  1.00  0.00     0.031 C 
ATOM     55  C   UNL A   1      45.180  26.984  33.011  1.00  0.00     0.037 A 
BRANCH  42  56
ATOM     56  C   UNL A   1      41.592  31.675  34.844  1.00  0.00     0.064 A 
ATOM     57  C   UNL A   1      42.298  32.886  34.767  1.00  0.00     0.173 A 
ATOM     58  C   UNL A   1      40.643  31.535  35.870  1.00  0.00     0.173 A 
ATOM     59  F   UNL A   1      43.222  33.068  33.812  1.00  0.00    -0.203 F 
ATOM     60  C   UNL A   1      42.096  33.895  35.704  1.00  0.00     0.198 A 
ATOM     61  C   UNL A   1      40.420  32.561  36.785  1.00  0.00     0.198 A 
ATOM     62  F   UNL A   1      39.933  30.404  35.986  1.00  0.00    -0.203 F 
ATOM     63  F   UNL A   1      42.830  35.015  35.647  1.00  0.00    -0.200 F 
ATOM     64  C   UNL A   1      41.155  33.735  36.709  1.00  0.00     0.200 A 
ATOM     65  F   UNL A   1      39.499  32.410  37.746  1.00  0.00    -0.200 F 
ATOM     66  F   UNL A   1      40.963  34.707  37.611  1.00  0.00    -0.200 F 
ENDBRANCH  42  56
BRANCH  43  67
ATOM     67  C   UNL A   1      42.959  24.660  27.881  1.00  0.00     0.064 A 
ATOM     68  C   UNL A   1      43.610  24.940  26.672  1.00  0.00     0.173 A 
ATOM     69  C   UNL A   1      42.517  23.348  28.096  1.00  0.00     0.173 A 
ATOM     70  F   UNL A   1      44.034  26.186  26.412  1.00  0.00    -0.203 F 
ATOM     71  C   UNL A   1      43.803  23.950  25.711  1.00  0.00     0.198 A 
ATOM     72  C   UNL A   1      42.732  22.352  27.146  1.00  0.00     0.198 A 
ATOM     73  F   UNL A   1      41.892  23.029  29.239  1.00  0.00    -0.203 F 
ATOM     74  F   UNL A   1      44.398  24.252  24.549  1.00  0.00    -0.200 F 
ATOM     75  C   UNL A   1      43.369  22.655  25.952  1.00  0.00     0.200 A 
ATOM     76  F   UNL A   1      42.323  21.099  27.387  1.00  0.00    -0.200 F 
ATOM     77  F   UNL A   1      43.563  21.701  25.032  1.00  0.00    -0.200 F 
ENDBRANCH  43  67
BRANCH  55  78
ATOM     78  C   UNL A   1      46.405  26.424  33.674  1.00  0.00     0.064 A 
ATOM     79  C   UNL A   1      47.682  26.953  33.434  1.00  0.00     0.173 A 
ATOM     80  C   UNL A   1      46.294  25.367  34.590  1.00  0.00     0.173 A 
ATOM     81  F   UNL A   1      47.844  27.953  32.554  1.00  0.00    -0.203 F 
ATOM     82  C   UNL A   1      48.805  26.428  34.068  1.00  0.00     0.198 A 
ATOM     83  C   UNL A   1      47.414  24.865  35.246  1.00  0.00     0.198 A 
ATOM     84  F   UNL A   1      45.095  24.829  34.860  1.00  0.00    -0.203 F 
ATOM     85  F   UNL A   1      50.020  26.917  33.788  1.00  0.00    -0.200 F 
ATOM     86  C   UNL A   1      48.670  25.391  34.980  1.00  0.00     0.200 A 
ATOM     87  F   UNL A   1      47.279  23.872  36.135  1.00  0.00    -0.200 F 
ATOM     88  F   UNL A   1      49.751  24.892  35.595  1.00  0.00    -0.200 F 
ENDBRANCH  55  78
ENDBRANCH  29  30
ENDBRANCH  21  24
ENDBRANCH  19  20
ENDBRANCH  18  19
ENDBRANCH  17  18
ENDBRANCH   1  17
TORSDOF 15
ENDMDL
MODEL 2
REMARK VINA RESULT:     -10.1      1.370      2.089
REMARK SMILES CC(=O)N1CCC[C@H]1COCC(=O)NCCCCNC(=O)c1ccc(-c2c3nc(c(-c4c(F)c(F)c(F)c(F)c4F)c4ccc([nH]4)c(-c4c(F)c(F)c(F)c(F)c4F)c4nc(c(-c5c(F)c(F)c(F)c(F)c5F)c5ccc2[nH]5)C=C4)C=C3)cc1
REMARK SMILES IDX 15 1 14 2 12 3 13 4 11 6 10 7 9 8 8 9 4 10 5 11 6 12 7 13
REMARK SMILES IDX 2 14 1 15 3 16 16 17 17 18 18 19 19 20 20 21 21 23 22 24
REMARK SMILES IDX 23 25 84 26 24 27 83 28 25 29 26 30 27 31 77 32 28 33 82 34
REMARK SMILES IDX 76 35 78 36 29 37 81 38 75 39 74 40 30 42 62 43 42 44 61 45
REMARK SMILES IDX 43 46 46 47 60 48 79 49 44 50 45 51 59 53 80 54 47 55 31 56
REMARK SMILES IDX 32 57 40 58 33 59 34 60 38 61 41 62 35 63 36 64 39 65 37 66
REMARK SMILES IDX 63 67 64 68 72 69 65 70 66 71 70 72 73 73 67 74 68 75 71 76
REMARK SMILES IDX 69 77 48 78 49 79 57 80 50 81 51 82 55 83 58 84 52 85 53 86
REMARK SMILES IDX 56 87 54 88
REMARK H PARENT 14 5 19 22 78 41 46 52
REMARK Flexibility Score: inf
ROOT
ATOM      1  C   UNL A   1      33.653  36.180  29.309  1.00  0.00     0.116 C 
ENDROOT
BRANCH   1   2
ATOM      2  N   UNL A   1      32.903  36.784  30.390  1.00  0.00    -0.354 N 
ATOM      3  C   UNL A   1      33.227  36.817  31.719  1.00  0.00     0.245 C 
ATOM      4  O   UNL A   1      32.532  37.484  32.484  1.00  0.00    -0.272 OA
ATOM      5  H   UNL A   1      32.059  37.225  30.140  1.00  0.00     0.163 HD
BRANCH   3   6
ATOM      6  C   UNL A   1      34.475  36.064  32.200  1.00  0.00     0.260 C 
BRANCH   6   7
ATOM      7  O   UNL A   1      34.702  36.027  33.604  1.00  0.00    -0.370 OA
BRANCH   7   8
ATOM      8  C   UNL A   1      35.501  34.914  34.026  1.00  0.00     0.185 C 
BRANCH   8   9
ATOM      9  C   UNL A   1      35.842  33.969  32.861  1.00  0.00     0.111 C 
ATOM     10  N   UNL A   1      37.213  33.461  32.864  1.00  0.00    -0.338 N 
ATOM     11  C   UNL A   1      37.234  32.012  32.948  1.00  0.00     0.120 C 
ATOM     12  C   UNL A   1      35.886  31.606  32.381  1.00  0.00     0.024 C 
ATOM     13  C   UNL A   1      34.959  32.711  32.875  1.00  0.00     0.029 C 
BRANCH  10  14
ATOM     14  C   UNL A   1      38.271  34.298  32.579  1.00  0.00     0.219 C 
ATOM     15  C   UNL A   1      39.245  34.569  33.693  1.00  0.00     0.114 C 
ATOM     16  O   UNL A   1      38.459  34.759  31.455  1.00  0.00    -0.275 OA
ENDBRANCH  10  14
ENDBRANCH   8   9
ENDBRANCH   7   8
ENDBRANCH   6   7
ENDBRANCH   3   6
ENDBRANCH   1   2
BRANCH   1  17
ATOM     17  C   UNL A   1      33.257  34.726  29.060  1.00  0.00     0.023 C 
BRANCH  17  18
ATOM     18  C   UNL A   1      34.361  33.697  29.318  1.00  0.00     0.023 C 
BRANCH  18  19
ATOM     19  C   UNL A   1      34.865  32.942  28.092  1.00  0.00     0.116 C 
BRANCH  19  20
ATOM     20  N   UNL A   1      34.044  31.793  27.748  1.00  0.00    -0.352 N 
ATOM     21  C   UNL A   1      34.378  30.462  27.714  1.00  0.00     0.251 C 
ATOM     22  H   UNL A   1      33.113  31.999  27.503  1.00  0.00     0.163 HD
ATOM     23  O   UNL A   1      33.562  29.641  27.292  1.00  0.00    -0.269 OA
BRANCH  21  24
ATOM     24  C   UNL A   1      35.717  30.004  28.146  1.00  0.00     0.039 A 
ATOM     25  C   UNL A   1      36.781  30.116  27.246  1.00  0.00     0.014 A 
ATOM     26  C   UNL A   1      35.932  29.450  29.411  1.00  0.00     0.014 A 
ATOM     27  C   UNL A   1      38.065  29.722  27.631  1.00  0.00     0.010 A 
ATOM     28  C   UNL A   1      37.225  29.130  29.821  1.00  0.00     0.010 A 
ATOM     29  C   UNL A   1      38.304  29.252  28.932  1.00  0.00    -0.014 A 
BRANCH  29  30
ATOM     30  C   UNL A   1      39.675  28.879  29.367  1.00  0.00     0.031 A 
ATOM     31  C   UNL A   1      40.428  29.742  30.340  1.00  0.00     0.074 A 
ATOM     32  C   UNL A   1      40.259  27.780  28.854  1.00  0.00     0.049 A 
ATOM     33  N   UNL A   1      41.625  29.571  30.845  1.00  0.00    -0.248 NA
ATOM     34  C   UNL A   1      39.762  30.976  30.783  1.00  0.00     0.031 C 
ATOM     35  C   UNL A   1      39.657  26.889  27.862  1.00  0.00     0.029 A 
ATOM     36  N   UNL A   1      41.490  27.222  29.098  1.00  0.00    -0.354 N 
ATOM     37  C   UNL A   1      41.858  30.679  31.651  1.00  0.00     0.074 A 
ATOM     38  C   UNL A   1      40.704  31.543  31.521  1.00  0.00     0.031 C 
ATOM     39  C   UNL A   1      40.498  25.872  27.617  1.00  0.00     0.029 A 
ATOM     40  C   UNL A   1      41.711  26.056  28.407  1.00  0.00     0.049 A 
ATOM     41  H   UNL A   1      42.149  27.620  29.710  1.00  0.00     0.167 HD
ATOM     42  C   UNL A   1      42.923  30.940  32.446  1.00  0.00     0.037 A 
ATOM     43  C   UNL A   1      42.769  25.223  28.421  1.00  0.00     0.037 A 
ATOM     44  C   UNL A   1      44.057  30.065  32.592  1.00  0.00     0.049 A 
ATOM     45  C   UNL A   1      43.941  25.535  29.309  1.00  0.00     0.074 A 
ATOM     46  C   UNL A   1      45.149  30.199  33.433  1.00  0.00     0.029 A 
ATOM     47  N   UNL A   1      44.249  28.895  31.872  1.00  0.00    -0.354 N 
ATOM     48  N   UNL A   1      44.110  26.535  30.138  1.00  0.00    -0.248 NA
ATOM     49  C   UNL A   1      45.069  24.593  29.267  1.00  0.00     0.031 C 
ATOM     50  C   UNL A   1      46.026  29.138  33.182  1.00  0.00     0.029 A 
ATOM     51  C   UNL A   1      45.456  28.313  32.225  1.00  0.00     0.049 A 
ATOM     52  H   UNL A   1      43.620  28.531  31.207  1.00  0.00     0.167 HD
ATOM     53  C   UNL A   1      45.344  26.329  30.742  1.00  0.00     0.074 A 
ATOM     54  C   UNL A   1      45.877  25.101  30.187  1.00  0.00     0.031 C 
ATOM     55  C   UNL A   1      45.974  27.086  31.672  1.00  0.00     0.037 A 
BRANCH  42  56
ATOM     56  C   UNL A   1      42.910  32.231  33.215  1.00  0.00     0.064 A 
ATOM     57  C   UNL A   1      43.435  33.418  32.679  1.00  0.00     0.173 A 
ATOM     58  C   UNL A   1      42.359  32.284  34.505  1.00  0.00     0.173 A 
ATOM     59  F   UNL A   1      43.982  33.420  31.454  1.00  0.00    -0.203 F 
ATOM     60  C   UNL A   1      43.448  34.596  33.420  1.00  0.00     0.198 A 
ATOM     61  C   UNL A   1      42.343  33.473  35.230  1.00  0.00     0.198 A 
ATOM     62  F   UNL A   1      41.835  31.183  35.064  1.00  0.00    -0.203 F 
ATOM     63  F   UNL A   1      44.014  35.699  32.911  1.00  0.00    -0.200 F 
ATOM     64  C   UNL A   1      42.899  34.624  34.693  1.00  0.00     0.200 A 
ATOM     65  F   UNL A   1      41.798  33.502  36.454  1.00  0.00    -0.200 F 
ATOM     66  F   UNL A   1      42.914  35.759  35.406  1.00  0.00    -0.200 F 
ENDBRANCH  42  56
BRANCH  43  67
ATOM     67  C   UNL A   1      42.735  23.978  27.611  1.00  0.00     0.064 A 
ATOM     68  C   UNL A   1      42.297  22.772  28.177  1.00  0.00     0.173 A 
ATOM     69  C   UNL A   1      43.120  23.965  26.264  1.00  0.00     0.173 A 
ATOM     70  F   UNL A   1      41.937  22.731  29.468  1.00  0.00    -0.203 F 
ATOM     71  C   UNL A   1      42.254  21.599  27.427  1.00  0.00     0.198 A 
ATOM     72  C   UNL A   1      43.054  22.796  25.508  1.00  0.00     0.198 A 
ATOM     73  F   UNL A   1      43.543  25.094  25.675  1.00  0.00    -0.203 F 
ATOM     74  F   UNL A   1      41.864  20.453  28.002  1.00  0.00    -0.200 F 
ATOM     75  C   UNL A   1      42.627  21.613  26.092  1.00  0.00     0.200 A 
ATOM     76  F   UNL A   1      43.401  22.817  24.214  1.00  0.00    -0.200 F 
ATOM     77  F   UNL A   1      42.577  20.486  25.369  1.00  0.00    -0.200 F 
ENDBRANCH  43  67
BRANCH  55  78
ATOM     78  C   UNL A   1      47.295  26.591  32.184  1.00  0.00     0.064 A 
ATOM     79  C   UNL A   1      48.511  27.042  31.650  1.00  0.00     0.173 A 
ATOM     80  C   UNL A   1      47.345  25.679  33.250  1.00  0.00     0.173 A 
ATOM     81  F   UNL A   1      48.517  27.901  30.619  1.00  0.00    -0.203 F 
ATOM     82  C   UNL A   1      49.727  26.581  32.146  1.00  0.00     0.198 A 
ATOM     83  C   UNL A   1      48.563  25.243  33.765  1.00  0.00     0.198 A 
ATOM     84  F   UNL A   1      46.212  25.220  33.801  1.00  0.00    -0.203 F 
ATOM     85  F   UNL A   1      50.875  26.989  31.589  1.00  0.00    -0.200 F 
ATOM     86  C   UNL A   1      49.752  25.689  33.208  1.00  0.00     0.200 A 
ATOM     87  F   UNL A   1      48.585  24.391  34.799  1.00  0.00    -0.200 F 
ATOM     88  F   UNL A   1      50.924  25.251  33.690  1.00  0.00    -0.200 F 
ENDBRANCH  55  78
ENDBRANCH  29  30
ENDBRANCH  21  24
ENDBRANCH  19  20
ENDBRANCH  18  19
ENDBRANCH  17  18
ENDBRANCH   1  17
TORSDOF 15
ENDMDL
MODEL 3
REMARK VINA RESULT:     -10.1      4.643     11.617
REMARK SMILES CC(=O)N1CCC[C@H]1COCC(=O)NCCCCNC(=O)c1ccc(-c2c3nc(c(-c4c(F)c(F)c(F)c(F)c4F)c4ccc([nH]4)c(-c4c(F)c(F)c(F)c(F)c4F)c4nc(c(-c5c(F)c(F)c(F)c(F)c5F)c5ccc2[nH]5)C=C4)C=C3)cc1
REMARK SMILES IDX 15 1 14 2 12 3 13 4 11 6 10 7 9 8 8 9 4 10 5 11 6 12 7 13
REMARK SMILES IDX 2 14 1 15 3 16 16 17 17 18 18 19 19 20 20 21 21 23 22 24
REMARK SMILES IDX 23 25 84 26 24 27 83 28 25 29 26 30 27 31 77 32 28 33 82 34
REMARK SMILES IDX 76 35 78 36 29 37 81 38 75 39 74 40 30 42 62 43 42 44 61 45
REMARK SMILES IDX 43 46 46 47 60 48 79 49 44 50 45 51 59 53 80 54 47 55 31 56
REMARK SMILES IDX 32 57 40 58 33 59 34 60 38 61 41 62 35 63 36 64 39 65 37 66
REMARK SMILES IDX 63 67 64 68 72 69 65 70 66 71 70 72 73 73 67 74 68 75 71 76
REMARK SMILES IDX 69 77 48 78 49 79 57 80 50 81 51 82 55 83 58 84 52 85 53 86
REMARK SMILES IDX 56 87 54 88
REMARK H PARENT 14 5 19 22 78 41 46 52
REMARK Flexibility Score: inf
ROOT
ATOM      1  C   UNL A   1      43.084  20.343  25.740  1.00  0.00     0.116 C 
ENDROOT
BRANCH   1   2
ATOM      2  N   UNL A   1      43.855  19.556  24.801  1.00  0.00    -0.354 N 
ATOM      3  C   UNL A   1      45.199  19.621  24.559  1.00  0.00     0.245 C 
ATOM      4  O   UNL A   1      45.709  18.788  23.812  1.00  0.00    -0.272 OA
ATOM      5  H   UNL A   1      43.352  18.894  24.274  1.00  0.00     0.163 HD
BRANCH   3   6
ATOM      6  C   UNL A   1      46.033  20.697  25.268  1.00  0.00     0.260 C 
BRANCH   6   7
ATOM      7  O   UNL A   1      46.602  21.712  24.448  1.00  0.00    -0.370 OA
BRANCH   7   8
ATOM      8  C   UNL A   1      45.654  22.697  24.016  1.00  0.00     0.185 C 
BRANCH   8   9
ATOM      9  C   UNL A   1      45.149  23.567  25.180  1.00  0.00     0.111 C 
ATOM     10  N   UNL A   1      45.914  24.792  25.408  1.00  0.00    -0.338 N 
ATOM     11  C   UNL A   1      45.075  25.967  25.264  1.00  0.00     0.120 C 
ATOM     12  C   UNL A   1      43.680  25.444  25.553  1.00  0.00     0.024 C 
ATOM     13  C   UNL A   1      43.706  24.045  24.945  1.00  0.00     0.029 C 
BRANCH  10  14
ATOM     14  C   UNL A   1      47.192  24.734  25.921  1.00  0.00     0.219 C 
ATOM     15  C   UNL A   1      48.223  25.627  25.287  1.00  0.00     0.114 C 
ATOM     16  O   UNL A   1      47.478  24.038  26.894  1.00  0.00    -0.275 OA
ENDBRANCH  10  14
ENDBRANCH   8   9
ENDBRANCH   7   8
ENDBRANCH   6   7
ENDBRANCH   3   6
ENDBRANCH   1   2
BRANCH   1  17
ATOM     17  C   UNL A   1      41.926  19.560  26.355  1.00  0.00     0.023 C 
BRANCH  17  18
ATOM     18  C   UNL A   1      41.062  20.344  27.344  1.00  0.00     0.023 C 
BRANCH  18  19
ATOM     19  C   UNL A   1      40.858  21.821  27.023  1.00  0.00     0.116 C 
BRANCH  19  20
ATOM     20  N   UNL A   1      39.679  22.076  26.212  1.00  0.00    -0.352 N 
ATOM     21  C   UNL A   1      38.923  23.216  26.105  1.00  0.00     0.251 C 
ATOM     22  H   UNL A   1      39.378  21.320  25.658  1.00  0.00     0.163 HD
ATOM     23  O   UNL A   1      37.889  23.201  25.435  1.00  0.00    -0.269 OA
BRANCH  21  24
ATOM     24  C   UNL A   1      39.315  24.455  26.813  1.00  0.00     0.039 A 
ATOM     25  C   UNL A   1      38.936  24.606  28.150  1.00  0.00     0.014 A 
ATOM     26  C   UNL A   1      40.028  25.473  26.174  1.00  0.00     0.014 A 
ATOM     27  C   UNL A   1      39.315  25.749  28.858  1.00  0.00     0.010 A 
ATOM     28  C   UNL A   1      40.472  26.576  26.901  1.00  0.00     0.010 A 
ATOM     29  C   UNL A   1      40.111  26.732  28.248  1.00  0.00    -0.014 A 
BRANCH  29  30
ATOM     30  C   UNL A   1      40.562  27.926  29.008  1.00  0.00     0.031 A 
ATOM     31  C   UNL A   1      41.991  28.049  29.459  1.00  0.00     0.074 A 
ATOM     32  C   UNL A   1      39.673  28.885  29.328  1.00  0.00     0.049 A 
ATOM     33  N   UNL A   1      42.571  29.022  30.118  1.00  0.00    -0.248 NA
ATOM     34  C   UNL A   1      42.880  26.918  29.154  1.00  0.00     0.031 C 
ATOM     35  C   UNL A   1      38.248  28.859  28.997  1.00  0.00     0.029 A 
ATOM     36  N   UNL A   1      39.837  30.071  30.000  1.00  0.00    -0.354 N 
ATOM     37  C   UNL A   1      43.884  28.613  30.318  1.00  0.00     0.074 A 
ATOM     38  C   UNL A   1      43.999  27.282  29.763  1.00  0.00     0.031 C 
ATOM     39  C   UNL A   1      37.678  29.996  29.425  1.00  0.00     0.029 A 
ATOM     40  C   UNL A   1      38.688  30.816  30.089  1.00  0.00     0.049 A 
ATOM     41  H   UNL A   1      40.698  30.360  30.380  1.00  0.00     0.167 HD
ATOM     42  C   UNL A   1      44.906  29.295  30.888  1.00  0.00     0.037 A 
ATOM     43  C   UNL A   1      38.475  32.029  30.633  1.00  0.00     0.037 A 
ATOM     44  C   UNL A   1      44.794  30.630  31.415  1.00  0.00     0.049 A 
ATOM     45  C   UNL A   1      39.624  32.766  31.263  1.00  0.00     0.074 A 
ATOM     46  C   UNL A   1      45.788  31.438  31.939  1.00  0.00     0.029 A 
ATOM     47  N   UNL A   1      43.612  31.351  31.493  1.00  0.00    -0.354 N 
ATOM     48  N   UNL A   1      40.881  32.411  31.363  1.00  0.00    -0.248 NA
ATOM     49  C   UNL A   1      39.323  34.079  31.851  1.00  0.00     0.031 C 
ATOM     50  C   UNL A   1      45.197  32.626  32.383  1.00  0.00     0.029 A 
ATOM     51  C   UNL A   1      43.844  32.581  32.086  1.00  0.00     0.049 A 
ATOM     52  H   UNL A   1      42.735  31.034  31.175  1.00  0.00     0.167 HD
ATOM     53  C   UNL A   1      41.529  33.466  31.991  1.00  0.00     0.074 A 
ATOM     54  C   UNL A   1      40.524  34.479  32.244  1.00  0.00     0.031 C 
ATOM     55  C   UNL A   1      42.837  33.585  32.325  1.00  0.00     0.037 A 
BRANCH  42  56
ATOM     56  C   UNL A   1      46.236  28.600  30.973  1.00  0.00     0.064 A 
ATOM     57  C   UNL A   1      47.164  28.645  29.921  1.00  0.00     0.173 A 
ATOM     58  C   UNL A   1      46.590  27.883  32.127  1.00  0.00     0.173 A 
ATOM     59  F   UNL A   1      46.872  29.308  28.792  1.00  0.00    -0.203 F 
ATOM     60  C   UNL A   1      48.375  27.962  30.002  1.00  0.00     0.198 A 
ATOM     61  C   UNL A   1      47.818  27.230  32.218  1.00  0.00     0.198 A 
ATOM     62  F   UNL A   1      45.746  27.814  33.168  1.00  0.00    -0.203 F 
ATOM     63  F   UNL A   1      49.215  27.967  28.958  1.00  0.00    -0.200 F 
ATOM     64  C   UNL A   1      48.703  27.260  31.151  1.00  0.00     0.200 A 
ATOM     65  F   UNL A   1      48.139  26.564  33.335  1.00  0.00    -0.200 F 
ATOM     66  F   UNL A   1      49.869  26.603  31.227  1.00  0.00    -0.200 F 
ENDBRANCH  42  56
BRANCH  43  67
ATOM     67  C   UNL A   1      37.127  32.649  30.546  1.00  0.00     0.064 A 
ATOM     68  C   UNL A   1      36.776  33.437  29.441  1.00  0.00     0.173 A 
ATOM     69  C   UNL A   1      36.163  32.458  31.544  1.00  0.00     0.173 A 
ATOM     70  F   UNL A   1      37.673  33.665  28.469  1.00  0.00    -0.203 F 
ATOM     71  C   UNL A   1      35.515  34.019  29.343  1.00  0.00     0.198 A 
ATOM     72  C   UNL A   1      34.893  33.021  31.434  1.00  0.00     0.198 A 
ATOM     73  F   UNL A   1      36.448  31.709  32.620  1.00  0.00    -0.203 F 
ATOM     74  F   UNL A   1      35.217  34.796  28.292  1.00  0.00    -0.200 F 
ATOM     75  C   UNL A   1      34.572  33.805  30.336  1.00  0.00     0.200 A 
ATOM     76  F   UNL A   1      33.979  32.800  32.389  1.00  0.00    -0.200 F 
ATOM     77  F   UNL A   1      33.355  34.357  30.237  1.00  0.00    -0.200 F 
ENDBRANCH  43  67
BRANCH  55  78
ATOM     78  C   UNL A   1      43.271  34.873  32.965  1.00  0.00     0.064 A 
ATOM     79  C   UNL A   1      43.323  35.024  34.358  1.00  0.00     0.173 A 
ATOM     80  C   UNL A   1      43.674  35.957  32.170  1.00  0.00     0.173 A 
ATOM     81  F   UNL A   1      42.932  34.022  35.161  1.00  0.00    -0.203 F 
ATOM     82  C   UNL A   1      43.740  36.221  34.933  1.00  0.00     0.198 A 
ATOM     83  C   UNL A   1      44.120  37.143  32.749  1.00  0.00     0.198 A 
ATOM     84  F   UNL A   1      43.648  35.863  30.833  1.00  0.00    -0.203 F 
ATOM     85  F   UNL A   1      43.737  36.360  36.265  1.00  0.00    -0.200 F 
ATOM     86  C   UNL A   1      44.146  37.276  34.129  1.00  0.00     0.200 A 
ATOM     87  F   UNL A   1      44.524  38.156  31.970  1.00  0.00    -0.200 F 
ATOM     88  F   UNL A   1      44.554  38.426  34.684  1.00  0.00    -0.200 F 
ENDBRANCH  55  78
ENDBRANCH  29  30
ENDBRANCH  21  24
ENDBRANCH  19  20
ENDBRANCH  18  19
ENDBRANCH  17  18
ENDBRANCH   1  17
TORSDOF 15
ENDMDL
