MODEL 1
REMARK VINA RESULT:     -11.7      0.000      0.000
REMARK SMILES O=C(C[C@H]1C[C@H]2CC[C@@H](C1)[N@H+]2C[C@@H]1CCCOC1)NCCCCNC(=O)c1ccc(-c2c3nc(c(-c4c(F)c(F)c(F)c(F)c4F)c4ccc([nH]4)c(-c4c(F)c(F)c(F)c(F)c4F)c4nc(c(-c5c(F)c(F)c(F)c(F)c5F)c5ccc2[nH]5)C=C4)C=C3)cc1
REMARK SMILES IDX 21 1 20 2 19 3 1 4 2 5 3 7 4 8 5 9 10 10 6 11 9 12 7 13
REMARK SMILES IDX 11 14 8 15 12 17 13 18 14 19 18 20 15 21 17 22 16 23 22 24
REMARK SMILES IDX 23 25 24 26 25 27 26 29 27 30 28 31 89 32 29 33 88 34 30 35
REMARK SMILES IDX 31 36 32 37 82 38 33 39 87 40 81 41 83 42 34 43 86 44 80 45
REMARK SMILES IDX 79 46 35 48 67 49 47 50 66 51 48 52 51 53 65 54 84 55 49 56
REMARK SMILES IDX 50 57 64 59 85 60 52 61 36 62 37 63 45 64 38 65 39 66 43 67
REMARK SMILES IDX 46 68 40 69 41 70 44 71 42 72 68 73 69 74 77 75 70 76 71 77
REMARK SMILES IDX 75 78 78 79 72 80 73 81 76 82 74 83 53 84 54 85 62 86 55 87
REMARK SMILES IDX 56 88 60 89 63 90 57 91 58 92 61 93 59 94
REMARK H PARENT 19 6 11 16 24 28 83 47 51 58
REMARK Flexibility Score: inf
ROOT
ATOM      1  C   UNL A   1      33.861  35.032  28.556  1.00  0.00     0.023 C 
ENDROOT
BRANCH   1   2
ATOM      2  C   UNL A   1      33.069  35.606  29.725  1.00  0.00     0.116 C 
BRANCH   2   3
ATOM      3  N   UNL A   1      33.922  35.817  30.874  1.00  0.00    -0.356 N 
ATOM      4  O   UNL A   1      32.338  35.206  32.420  1.00  0.00    -0.275 OA
ATOM      5  C   UNL A   1      33.465  35.609  32.152  1.00  0.00     0.220 C 
ATOM      6  H   UNL A   1      34.850  36.114  30.736  1.00  0.00     0.163 HD
BRANCH   5   7
ATOM      7  C   UNL A   1      34.475  35.918  33.231  1.00  0.00     0.104 C 
BRANCH   7   8
ATOM      8  C   UNL A   1      35.491  34.794  33.462  1.00  0.00     0.010 C 
ATOM      9  C   UNL A   1      34.754  33.433  33.403  1.00  0.00     0.069 C 
ATOM     10  C   UNL A   1      36.748  34.942  32.565  1.00  0.00     0.069 C 
ATOM     11  C   UNL A   1      35.549  32.298  32.752  1.00  0.00     0.184 C 
ATOM     12  C   UNL A   1      37.275  33.636  31.981  1.00  0.00     0.184 C 
ATOM     13  C   UNL A   1      35.337  32.381  31.227  1.00  0.00     0.071 C 
ATOM     14  N   UNL A   1      36.977  32.516  32.849  1.00  0.00    -0.330 N 
ATOM     15  C   UNL A   1      36.437  33.311  30.729  1.00  0.00     0.071 C 
ATOM     16  H   UNL A   1      37.508  31.679  32.613  1.00  0.00     0.348 HD
BRANCH  14  17
ATOM     17  C   UNL A   1      37.819  32.069  33.945  1.00  0.00     0.268 C 
BRANCH  17  18
ATOM     18  C   UNL A   1      37.708  32.422  35.468  1.00  0.00     0.070 C 
ATOM     19  C   UNL A   1      38.184  33.831  35.849  1.00  0.00     0.014 C 
ATOM     20  C   UNL A   1      38.156  31.315  36.424  1.00  0.00     0.169 C 
ATOM     21  C   UNL A   1      38.572  34.047  37.313  1.00  0.00     0.029 C 
ATOM     22  O   UNL A   1      38.128  31.736  37.790  1.00  0.00    -0.381 OA
ATOM     23  C   UNL A   1      39.053  32.793  38.014  1.00  0.00     0.160 C 
ENDBRANCH  17  18
ENDBRANCH  14  17
ENDBRANCH   7   8
ENDBRANCH   5   7
ENDBRANCH   2   3
ENDBRANCH   1   2
BRANCH   1  24
ATOM     24  C   UNL A   1      33.303  33.717  28.007  1.00  0.00     0.023 C 
BRANCH  24  25
ATOM     25  C   UNL A   1      34.314  32.579  27.908  1.00  0.00     0.116 C 
BRANCH  25  26
ATOM     26  N   UNL A   1      33.692  31.303  27.589  1.00  0.00    -0.352 N 
ATOM     27  C   UNL A   1      34.239  30.045  27.563  1.00  0.00     0.251 C 
ATOM     28  H   UNL A   1      32.737  31.349  27.355  1.00  0.00     0.163 HD
ATOM     29  O   UNL A   1      33.593  29.104  27.101  1.00  0.00    -0.269 OA
BRANCH  27  30
ATOM     30  C   UNL A   1      35.612  29.816  28.060  1.00  0.00     0.039 A 
ATOM     31  C   UNL A   1      35.786  29.350  29.366  1.00  0.00     0.014 A 
ATOM     32  C   UNL A   1      36.724  30.062  27.251  1.00  0.00     0.014 A 
ATOM     33  C   UNL A   1      37.069  29.067  29.837  1.00  0.00     0.010 A 
ATOM     34  C   UNL A   1      37.996  29.705  27.694  1.00  0.00     0.010 A 
ATOM     35  C   UNL A   1      38.182  29.203  28.992  1.00  0.00    -0.014 A 
BRANCH  35  36
ATOM     36  C   UNL A   1      39.544  28.816  29.445  1.00  0.00     0.031 A 
ATOM     37  C   UNL A   1      40.317  29.708  30.377  1.00  0.00     0.074 A 
ATOM     38  C   UNL A   1      40.110  27.690  28.968  1.00  0.00     0.049 A 
ATOM     39  N   UNL A   1      41.538  29.570  30.833  1.00  0.00    -0.248 NA
ATOM     40  C   UNL A   1      39.640  30.928  30.840  1.00  0.00     0.031 C 
ATOM     41  C   UNL A   1      39.480  26.761  28.028  1.00  0.00     0.029 A 
ATOM     42  N   UNL A   1      41.345  27.138  29.203  1.00  0.00    -0.354 N 
ATOM     43  C   UNL A   1      41.776  30.690  31.620  1.00  0.00     0.074 A 
ATOM     44  C   UNL A   1      40.596  31.522  31.538  1.00  0.00     0.031 C 
ATOM     45  C   UNL A   1      40.322  25.742  27.787  1.00  0.00     0.029 A 
ATOM     46  C   UNL A   1      41.565  25.968  28.517  1.00  0.00     0.049 A 
ATOM     47  H   UNL A   1      42.010  27.543  29.805  1.00  0.00     0.167 HD
ATOM     48  C   UNL A   1      42.871  30.985  32.361  1.00  0.00     0.037 A 
ATOM     49  C   UNL A   1      42.650  25.172  28.473  1.00  0.00     0.037 A 
ATOM     50  C   UNL A   1      44.037  30.145  32.455  1.00  0.00     0.049 A 
ATOM     51  C   UNL A   1      43.863  25.537  29.287  1.00  0.00     0.074 A 
ATOM     52  C   UNL A   1      45.171  30.326  33.228  1.00  0.00     0.029 A 
ATOM     53  N   UNL A   1      44.222  28.966  31.747  1.00  0.00    -0.354 N 
ATOM     54  N   UNL A   1      44.049  26.560  30.085  1.00  0.00    -0.248 NA
ATOM     55  C   UNL A   1      45.019  24.632  29.195  1.00  0.00     0.031 C 
ATOM     56  C   UNL A   1      46.067  29.291  32.941  1.00  0.00     0.029 A 
ATOM     57  C   UNL A   1      45.465  28.428  32.041  1.00  0.00     0.049 A 
ATOM     58  H   UNL A   1      43.567  28.571  31.128  1.00  0.00     0.167 HD
ATOM     59  C   UNL A   1      45.323  26.404  30.616  1.00  0.00     0.074 A 
ATOM     60  C   UNL A   1      45.860  25.180  30.060  1.00  0.00     0.031 C 
ATOM     61  C   UNL A   1      45.987  27.203  31.487  1.00  0.00     0.037 A 
BRANCH  48  62
ATOM     62  C   UNL A   1      42.868  32.279  33.126  1.00  0.00     0.064 A 
ATOM     63  C   UNL A   1      43.346  33.473  32.561  1.00  0.00     0.173 A 
ATOM     64  C   UNL A   1      42.341  32.335  34.425  1.00  0.00     0.173 A 
ATOM     65  F   UNL A   1      43.868  33.474  31.326  1.00  0.00    -0.203 F 
ATOM     66  C   UNL A   1      43.325  34.665  33.279  1.00  0.00     0.198 A 
ATOM     67  C   UNL A   1      42.290  33.537  35.127  1.00  0.00     0.198 A 
ATOM     68  F   UNL A   1      41.863  31.227  35.010  1.00  0.00    -0.203 F 
ATOM     69  F   UNL A   1      43.835  35.780  32.739  1.00  0.00    -0.200 F 
ATOM     70  C   UNL A   1      42.790  34.698  34.559  1.00  0.00     0.200 A 
ATOM     71  F   UNL A   1      41.757  33.570  36.357  1.00  0.00    -0.200 F 
ATOM     72  F   UNL A   1      42.761  35.849  35.246  1.00  0.00    -0.200 F 
ENDBRANCH  48  62
BRANCH  49  73
ATOM     73  C   UNL A   1      42.636  23.937  27.643  1.00  0.00     0.064 A 
ATOM     74  C   UNL A   1      42.256  22.705  28.194  1.00  0.00     0.173 A 
ATOM     75  C   UNL A   1      43.014  23.957  26.293  1.00  0.00     0.173 A 
ATOM     76  F   UNL A   1      41.907  22.629  29.487  1.00  0.00    -0.203 F 
ATOM     77  C   UNL A   1      42.280  21.538  27.434  1.00  0.00     0.198 A 
ATOM     78  C   UNL A   1      43.006  22.796  25.525  1.00  0.00     0.198 A 
ATOM     79  F   UNL A   1      43.382  25.111  25.716  1.00  0.00    -0.203 F 
ATOM     80  F   UNL A   1      41.964  20.366  28.001  1.00  0.00    -0.200 F 
ATOM     81  C   UNL A   1      42.649  21.585  26.099  1.00  0.00     0.200 A 
ATOM     82  F   UNL A   1      43.348  22.848  24.231  1.00  0.00    -0.200 F 
ATOM     83  F   UNL A   1      42.669  20.462  25.367  1.00  0.00    -0.200 F 
ENDBRANCH  49  73
BRANCH  61  84
ATOM     84  C   UNL A   1      47.353  26.759  31.930  1.00  0.00     0.064 A 
ATOM     85  C   UNL A   1      47.536  25.906  33.028  1.00  0.00     0.173 A 
ATOM     86  C   UNL A   1      48.493  27.166  31.217  1.00  0.00     0.173 A 
ATOM     87  F   UNL A   1      46.481  25.502  33.752  1.00  0.00    -0.203 F 
ATOM     88  C   UNL A   1      48.811  25.502  33.414  1.00  0.00     0.198 A 
ATOM     89  C   UNL A   1      49.762  26.729  31.586  1.00  0.00     0.198 A 
ATOM     90  F   UNL A   1      48.374  27.975  30.155  1.00  0.00    -0.203 F 
ATOM     91  F   UNL A   1      48.965  24.730  34.500  1.00  0.00    -0.200 F 
ATOM     92  C   UNL A   1      49.921  25.905  32.689  1.00  0.00     0.200 A 
ATOM     93  F   UNL A   1      50.832  27.107  30.873  1.00  0.00    -0.200 F 
ATOM     94  F   UNL A   1      51.146  25.506  33.058  1.00  0.00    -0.200 F 
ENDBRANCH  61  84
ENDBRANCH  35  36
ENDBRANCH  27  30
ENDBRANCH  25  26
ENDBRANCH  24  25
ENDBRANCH   1  24
TORSDOF 14
ENDMDL
MODEL 2
REMARK VINA RESULT:     -11.4      3.490      7.839
REMARK SMILES O=C(C[C@H]1C[C@H]2CC[C@@H](C1)[N@H+]2C[C@@H]1CCCOC1)NCCCCNC(=O)c1ccc(-c2c3nc(c(-c4c(F)c(F)c(F)c(F)c4F)c4ccc([nH]4)c(-c4c(F)c(F)c(F)c(F)c4F)c4nc(c(-c5c(F)c(F)c(F)c(F)c5F)c5ccc2[nH]5)C=C4)C=C3)cc1
REMARK SMILES IDX 21 1 20 2 19 3 1 4 2 5 3 7 4 8 5 9 10 10 6 11 9 12 7 13
REMARK SMILES IDX 11 14 8 15 12 17 13 18 14 19 18 20 15 21 17 22 16 23 22 24
REMARK SMILES IDX 23 25 24 26 25 27 26 29 27 30 28 31 89 32 29 33 88 34 30 35
REMARK SMILES IDX 31 36 32 37 82 38 33 39 87 40 81 41 83 42 34 43 86 44 80 45
REMARK SMILES IDX 79 46 35 48 67 49 47 50 66 51 48 52 51 53 65 54 84 55 49 56
REMARK SMILES IDX 50 57 64 59 85 60 52 61 36 62 37 63 45 64 38 65 39 66 43 67
REMARK SMILES IDX 46 68 40 69 41 70 44 71 42 72 68 73 69 74 77 75 70 76 71 77
REMARK SMILES IDX 75 78 78 79 72 80 73 81 76 82 74 83 53 84 54 85 62 86 55 87
REMARK SMILES IDX 56 88 60 89 63 90 57 91 58 92 61 93 59 94
REMARK H PARENT 19 6 11 16 24 28 83 47 51 58
REMARK Flexibility Score: inf
ROOT
ATOM      1  C   UNL A   1      34.455  33.613  29.248  1.00  0.00     0.023 C 
ENDROOT
BRANCH   1   2
ATOM      2  C   UNL A   1      35.085  32.912  28.049  1.00  0.00     0.116 C 
BRANCH   2   3
ATOM      3  N   UNL A   1      34.553  31.577  27.893  1.00  0.00    -0.356 N 
ATOM      4  O   UNL A   1      36.599  30.571  27.622  1.00  0.00    -0.275 OA
ATOM      5  C   UNL A   1      35.376  30.500  27.671  1.00  0.00     0.220 C 
ATOM      6  H   UNL A   1      33.580  31.436  27.948  1.00  0.00     0.163 HD
BRANCH   5   7
ATOM      7  C   UNL A   1      34.648  29.189  27.490  1.00  0.00     0.104 C 
BRANCH   7   8
ATOM      8  C   UNL A   1      33.614  29.211  26.359  1.00  0.00     0.010 C 
ATOM      9  C   UNL A   1      34.055  28.214  25.259  1.00  0.00     0.069 C 
ATOM     10  C   UNL A   1      32.163  29.065  26.886  1.00  0.00     0.069 C 
ATOM     11  C   UNL A   1      32.912  27.453  24.582  1.00  0.00     0.184 C 
ATOM     12  C   UNL A   1      31.262  28.170  26.041  1.00  0.00     0.184 C 
ATOM     13  C   UNL A   1      32.582  26.220  25.446  1.00  0.00     0.071 C 
ATOM     14  N   UNL A   1      31.665  28.185  24.650  1.00  0.00    -0.330 N 
ATOM     15  C   UNL A   1      31.540  26.709  26.446  1.00  0.00     0.071 C 
ATOM     16  H   UNL A   1      30.958  27.796  24.028  1.00  0.00     0.348 HD
BRANCH  14  17
ATOM     17  C   UNL A   1      31.204  29.148  23.664  1.00  0.00     0.268 C 
BRANCH  17  18
ATOM     18  C   UNL A   1      29.759  29.719  23.458  1.00  0.00     0.070 C 
ATOM     19  C   UNL A   1      29.169  29.511  22.055  1.00  0.00     0.014 C 
ATOM     20  C   UNL A   1      29.519  31.107  24.054  1.00  0.00     0.169 C 
ATOM     21  C   UNL A   1      28.032  30.451  21.648  1.00  0.00     0.029 C 
ATOM     22  O   UNL A   1      28.219  31.612  23.741  1.00  0.00    -0.381 OA
ATOM     23  C   UNL A   1      28.070  31.798  22.339  1.00  0.00     0.160 C 
ENDBRANCH  17  18
ENDBRANCH  14  17
ENDBRANCH   7   8
ENDBRANCH   5   7
ENDBRANCH   2   3
ENDBRANCH   1   2
BRANCH   1  24
ATOM     24  C   UNL A   1      33.309  34.561  28.887  1.00  0.00     0.023 C 
BRANCH  24  25
ATOM     25  C   UNL A   1      33.426  35.966  29.471  1.00  0.00     0.116 C 
BRANCH  25  26
ATOM     26  N   UNL A   1      32.505  36.194  30.573  1.00  0.00    -0.352 N 
ATOM     27  C   UNL A   1      32.567  35.753  31.871  1.00  0.00     0.251 C 
ATOM     28  H   UNL A   1      31.720  36.746  30.356  1.00  0.00     0.163 HD
ATOM     29  O   UNL A   1      31.601  35.908  32.619  1.00  0.00    -0.269 OA
BRANCH  27  30
ATOM     30  C   UNL A   1      33.776  35.064  32.370  1.00  0.00     0.039 A 
ATOM     31  C   UNL A   1      33.652  33.766  32.870  1.00  0.00     0.014 A 
ATOM     32  C   UNL A   1      35.024  35.692  32.354  1.00  0.00     0.014 A 
ATOM     33  C   UNL A   1      34.788  33.072  33.290  1.00  0.00     0.010 A 
ATOM     34  C   UNL A   1      36.166  34.972  32.698  1.00  0.00     0.010 A 
ATOM     35  C   UNL A   1      36.061  33.654  33.170  1.00  0.00    -0.014 A 
BRANCH  35  36
ATOM     36  C   UNL A   1      37.290  32.895  33.522  1.00  0.00     0.031 A 
ATOM     37  C   UNL A   1      38.015  33.179  34.808  1.00  0.00     0.074 A 
ATOM     38  C   UNL A   1      37.788  31.993  32.654  1.00  0.00     0.049 A 
ATOM     39  N   UNL A   1      39.133  32.665  35.259  1.00  0.00    -0.248 NA
ATOM     40  C   UNL A   1      37.420  34.189  35.696  1.00  0.00     0.031 C 
ATOM     41  C   UNL A   1      37.200  31.656  31.356  1.00  0.00     0.029 A 
ATOM     42  N   UNL A   1      38.905  31.199  32.727  1.00  0.00    -0.354 N 
ATOM     43  C   UNL A   1      39.380  33.300  36.469  1.00  0.00     0.074 A 
ATOM     44  C   UNL A   1      38.326  34.273  36.659  1.00  0.00     0.031 C 
ATOM     45  C   UNL A   1      37.947  30.708  30.768  1.00  0.00     0.029 A 
ATOM     46  C   UNL A   1      39.089  30.402  31.624  1.00  0.00     0.049 A 
ATOM     47  H   UNL A   1      39.518  31.202  33.498  1.00  0.00     0.167 HD
ATOM     48  C   UNL A   1      40.382  33.077  37.353  1.00  0.00     0.037 A 
ATOM     49  C   UNL A   1      40.072  29.529  31.330  1.00  0.00     0.037 A 
ATOM     50  C   UNL A   1      41.420  32.094  37.171  1.00  0.00     0.049 A 
ATOM     51  C   UNL A   1      41.187  29.319  32.319  1.00  0.00     0.074 A 
ATOM     52  C   UNL A   1      42.442  31.749  38.037  1.00  0.00     0.029 A 
ATOM     53  N   UNL A   1      41.571  31.304  36.040  1.00  0.00    -0.354 N 
ATOM     54  N   UNL A   1      41.370  29.872  33.493  1.00  0.00    -0.248 NA
ATOM     55  C   UNL A   1      42.234  28.358  31.940  1.00  0.00     0.031 C 
ATOM     56  C   UNL A   1      43.248  30.795  37.406  1.00  0.00     0.029 A 
ATOM     57  C   UNL A   1      42.690  30.496  36.174  1.00  0.00     0.049 A 
ATOM     58  H   UNL A   1      40.972  31.315  35.259  1.00  0.00     0.167 HD
ATOM     59  C   UNL A   1      42.527  29.302  34.008  1.00  0.00     0.074 A 
ATOM     60  C   UNL A   1      42.998  28.350  33.023  1.00  0.00     0.031 C 
ATOM     61  C   UNL A   1      43.144  29.545  35.191  1.00  0.00     0.037 A 
BRANCH  48  62
ATOM     62  C   UNL A   1      40.415  33.917  38.599  1.00  0.00     0.064 A 
ATOM     63  C   UNL A   1      39.738  33.531  39.768  1.00  0.00     0.173 A 
ATOM     64  C   UNL A   1      41.166  35.101  38.639  1.00  0.00     0.173 A 
ATOM     65  F   UNL A   1      38.998  32.413  39.783  1.00  0.00    -0.203 F 
ATOM     66  C   UNL A   1      39.788  34.316  40.917  1.00  0.00     0.198 A 
ATOM     67  C   UNL A   1      41.242  35.864  39.801  1.00  0.00     0.198 A 
ATOM     68  F   UNL A   1      41.840  35.512  37.553  1.00  0.00    -0.203 F 
ATOM     69  F   UNL A   1      39.092  33.955  42.004  1.00  0.00    -0.200 F 
ATOM     70  C   UNL A   1      40.546  35.477  40.935  1.00  0.00     0.200 A 
ATOM     71  F   UNL A   1      41.989  36.978  39.821  1.00  0.00    -0.200 F 
ATOM     72  F   UNL A   1      40.601  36.226  42.046  1.00  0.00    -0.200 F 
ENDBRANCH  48  62
BRANCH  49  73
ATOM     73  C   UNL A   1      40.039  28.772  30.050  1.00  0.00     0.064 A 
ATOM     74  C   UNL A   1      39.436  27.508  29.977  1.00  0.00     0.173 A 
ATOM     75  C   UNL A   1      40.619  29.285  28.880  1.00  0.00     0.173 A 
ATOM     76  F   UNL A   1      38.887  26.965  31.074  1.00  0.00    -0.203 F 
ATOM     77  C   UNL A   1      39.437  26.776  28.792  1.00  0.00     0.198 A 
ATOM     78  C   UNL A   1      40.590  28.567  27.687  1.00  0.00     0.198 A 
ATOM     79  F   UNL A   1      41.204  30.492  28.894  1.00  0.00    -0.203 F 
ATOM     80  F   UNL A   1      38.902  25.549  28.765  1.00  0.00    -0.200 F 
ATOM     81  C   UNL A   1      40.009  27.308  27.646  1.00  0.00     0.200 A 
ATOM     82  F   UNL A   1      41.130  29.091  26.578  1.00  0.00    -0.200 F 
ATOM     83  F   UNL A   1      40.008  26.605  26.505  1.00  0.00    -0.200 F 
ENDBRANCH  49  73
BRANCH  61  84
ATOM     84  C   UNL A   1      44.372  28.740  35.509  1.00  0.00     0.064 A 
ATOM     85  C   UNL A   1      44.301  27.514  36.186  1.00  0.00     0.173 A 
ATOM     86  C   UNL A   1      45.637  29.187  35.094  1.00  0.00     0.173 A 
ATOM     87  F   UNL A   1      43.118  27.049  36.617  1.00  0.00    -0.203 F 
ATOM     88  C   UNL A   1      45.451  26.781  36.462  1.00  0.00     0.198 A 
ATOM     89  C   UNL A   1      46.782  28.434  35.341  1.00  0.00     0.198 A 
ATOM     90  F   UNL A   1      45.763  30.349  34.437  1.00  0.00    -0.203 F 
ATOM     91  F   UNL A   1      45.363  25.638  37.158  1.00  0.00    -0.200 F 
ATOM     92  C   UNL A   1      46.689  27.235  36.033  1.00  0.00     0.200 A 
ATOM     93  F   UNL A   1      47.974  28.868  34.910  1.00  0.00    -0.200 F 
ATOM     94  F   UNL A   1      47.794  26.523  36.292  1.00  0.00    -0.200 F 
ENDBRANCH  61  84
ENDBRANCH  35  36
ENDBRANCH  27  30
ENDBRANCH  25  26
ENDBRANCH  24  25
ENDBRANCH   1  24
TORSDOF 14
ENDMDL
MODEL 3
REMARK VINA RESULT:     -11.3      4.367     10.936
REMARK SMILES O=C(C[C@H]1C[C@H]2CC[C@@H](C1)[N@H+]2C[C@@H]1CCCOC1)NCCCCNC(=O)c1ccc(-c2c3nc(c(-c4c(F)c(F)c(F)c(F)c4F)c4ccc([nH]4)c(-c4c(F)c(F)c(F)c(F)c4F)c4nc(c(-c5c(F)c(F)c(F)c(F)c5F)c5ccc2[nH]5)C=C4)C=C3)cc1
REMARK SMILES IDX 21 1 20 2 19 3 1 4 2 5 3 7 4 8 5 9 10 10 6 11 9 12 7 13
REMARK SMILES IDX 11 14 8 15 12 17 13 18 14 19 18 20 15 21 17 22 16 23 22 24
REMARK SMILES IDX 23 25 24 26 25 27 26 29 27 30 28 31 89 32 29 33 88 34 30 35
REMARK SMILES IDX 31 36 32 37 82 38 33 39 87 40 81 41 83 42 34 43 86 44 80 45
REMARK SMILES IDX 79 46 35 48 67 49 47 50 66 51 48 52 51 53 65 54 84 55 49 56
REMARK SMILES IDX 50 57 64 59 85 60 52 61 36 62 37 63 45 64 38 65 39 66 43 67
REMARK SMILES IDX 46 68 40 69 41 70 44 71 42 72 68 73 69 74 77 75 70 76 71 77
REMARK SMILES IDX 75 78 78 79 72 80 73 81 76 82 74 83 53 84 54 85 62 86 55 87
REMARK SMILES IDX 56 88 60 89 63 90 57 91 58 92 61 93 59 94
REMARK H PARENT 19 6 11 16 24 28 83 47 51 58
REMARK Flexibility Score: inf
ROOT
ATOM      1  C   UNL A   1      31.727  30.490  25.887  1.00  0.00     0.023 C 
ENDROOT
BRANCH   1   2
ATOM      2  C   UNL A   1      32.146  29.365  26.827  1.00  0.00     0.116 C 
BRANCH   2   3
ATOM      3  N   UNL A   1      33.076  28.468  26.178  1.00  0.00    -0.356 N 
ATOM      4  O   UNL A   1      31.775  26.595  26.446  1.00  0.00    -0.275 OA
ATOM      5  C   UNL A   1      32.809  27.126  26.056  1.00  0.00     0.220 C 
ATOM      6  H   UNL A   1      33.917  28.827  25.814  1.00  0.00     0.163 HD
BRANCH   5   7
ATOM      7  C   UNL A   1      33.907  26.333  25.390  1.00  0.00     0.104 C 
BRANCH   7   8
ATOM      8  C   UNL A   1      33.529  24.875  25.106  1.00  0.00     0.010 C 
ATOM      9  C   UNL A   1      33.776  24.576  23.607  1.00  0.00     0.069 C 
ATOM     10  C   UNL A   1      34.166  23.893  26.124  1.00  0.00     0.069 C 
ATOM     11  C   UNL A   1      34.306  23.170  23.309  1.00  0.00     0.184 C 
ATOM     12  C   UNL A   1      34.687  22.593  25.520  1.00  0.00     0.184 C 
ATOM     13  C   UNL A   1      35.840  23.195  23.468  1.00  0.00     0.071 C 
ATOM     14  N   UNL A   1      33.933  22.225  24.340  1.00  0.00    -0.330 N 
ATOM     15  C   UNL A   1      36.086  22.875  24.939  1.00  0.00     0.071 C 
ATOM     16  H   UNL A   1      34.094  21.261  24.051  1.00  0.00     0.348 HD
BRANCH  14  17
ATOM     17  C   UNL A   1      32.714  21.434  24.348  1.00  0.00     0.268 C 
BRANCH  17  18
ATOM     18  C   UNL A   1      32.557  19.880  24.219  1.00  0.00     0.070 C 
ATOM     19  C   UNL A   1      33.580  19.053  25.011  1.00  0.00     0.014 C 
ATOM     20  C   UNL A   1      32.282  19.372  22.803  1.00  0.00     0.169 C 
ATOM     21  C   UNL A   1      33.801  17.613  24.543  1.00  0.00     0.029 C 
ATOM     22  O   UNL A   1      32.254  17.944  22.737  1.00  0.00    -0.381 OA
ATOM     23  C   UNL A   1      33.523  17.395  23.070  1.00  0.00     0.160 C 
ENDBRANCH  17  18
ENDBRANCH  14  17
ENDBRANCH   7   8
ENDBRANCH   5   7
ENDBRANCH   2   3
ENDBRANCH   1   2
BRANCH   1  24
ATOM     24  C   UNL A   1      31.440  31.819  26.590  1.00  0.00     0.023 C 
BRANCH  24  25
ATOM     25  C   UNL A   1      32.661  32.504  27.197  1.00  0.00     0.116 C 
BRANCH  25  26
ATOM     26  N   UNL A   1      32.409  33.894  27.543  1.00  0.00    -0.352 N 
ATOM     27  C   UNL A   1      33.012  34.683  28.489  1.00  0.00     0.251 C 
ATOM     28  H   UNL A   1      31.700  34.334  27.021  1.00  0.00     0.163 HD
ATOM     29  O   UNL A   1      32.545  35.791  28.753  1.00  0.00    -0.269 OA
BRANCH  27  30
ATOM     30  C   UNL A   1      34.204  34.200  29.218  1.00  0.00     0.039 A 
ATOM     31  C   UNL A   1      34.022  33.445  30.379  1.00  0.00     0.014 A 
ATOM     32  C   UNL A   1      35.494  34.490  28.767  1.00  0.00     0.014 A 
ATOM     33  C   UNL A   1      35.130  32.924  31.050  1.00  0.00     0.010 A 
ATOM     34  C   UNL A   1      36.594  33.906  29.391  1.00  0.00     0.010 A 
ATOM     35  C   UNL A   1      36.424  33.116  30.539  1.00  0.00    -0.014 A 
BRANCH  35  36
ATOM     36  C   UNL A   1      37.607  32.490  31.187  1.00  0.00     0.031 A 
ATOM     37  C   UNL A   1      38.334  31.360  30.511  1.00  0.00     0.074 A 
ATOM     38  C   UNL A   1      37.989  32.898  32.413  1.00  0.00     0.049 A 
ATOM     39  N   UNL A   1      39.345  30.649  30.945  1.00  0.00    -0.248 NA
ATOM     40  C   UNL A   1      37.846  30.959  29.183  1.00  0.00     0.031 C 
ATOM     41  C   UNL A   1      37.342  33.956  33.191  1.00  0.00     0.029 A 
ATOM     42  N   UNL A   1      39.009  32.467  33.224  1.00  0.00    -0.354 N 
ATOM     43  C   UNL A   1      39.602  29.712  29.953  1.00  0.00     0.074 A 
ATOM     44  C   UNL A   1      38.609  29.909  28.918  1.00  0.00     0.031 C 
ATOM     45  C   UNL A   1      37.997  34.109  34.353  1.00  0.00     0.029 A 
ATOM     46  C   UNL A   1      39.078  33.132  34.424  1.00  0.00     0.049 A 
ATOM     47  H   UNL A   1      39.633  31.748  32.970  1.00  0.00     0.167 HD
ATOM     48  C   UNL A   1      40.590  28.786  29.898  1.00  0.00     0.037 A 
ATOM     49  C   UNL A   1      39.914  32.967  35.468  1.00  0.00     0.037 A 
ATOM     50  C   UNL A   1      41.588  28.606  30.920  1.00  0.00     0.049 A 
ATOM     51  C   UNL A   1      40.986  31.914  35.391  1.00  0.00     0.074 A 
ATOM     52  C   UNL A   1      42.666  27.738  30.929  1.00  0.00     0.029 A 
ATOM     53  N   UNL A   1      41.626  29.300  32.121  1.00  0.00    -0.354 N 
ATOM     54  N   UNL A   1      41.265  31.083  34.416  1.00  0.00    -0.248 NA
ATOM     55  C   UNL A   1      41.864  31.777  36.563  1.00  0.00     0.031 C 
ATOM     56  C   UNL A   1      43.320  27.863  32.159  1.00  0.00     0.029 A 
ATOM     57  C   UNL A   1      42.690  28.857  32.890  1.00  0.00     0.049 A 
ATOM     58  H   UNL A   1      40.991  30.004  32.386  1.00  0.00     0.167 HD
ATOM     59  C   UNL A   1      42.368  30.354  34.840  1.00  0.00     0.074 A 
ATOM     60  C   UNL A   1      42.716  30.848  36.155  1.00  0.00     0.031 C 
ATOM     61  C   UNL A   1      43.033  29.363  34.196  1.00  0.00     0.037 A 
BRANCH  48  62
ATOM     62  C   UNL A   1      40.637  27.886  28.695  1.00  0.00     0.064 A 
ATOM     63  C   UNL A   1      39.910  26.687  28.640  1.00  0.00     0.173 A 
ATOM     64  C   UNL A   1      41.387  28.248  27.566  1.00  0.00     0.173 A 
ATOM     65  F   UNL A   1      39.184  26.288  29.695  1.00  0.00    -0.203 F 
ATOM     66  C   UNL A   1      39.956  25.870  27.514  1.00  0.00     0.198 A 
ATOM     67  C   UNL A   1      41.403  27.447  26.428  1.00  0.00     0.198 A 
ATOM     68  F   UNL A   1      42.095  29.389  27.560  1.00  0.00    -0.203 F 
ATOM     69  F   UNL A   1      39.295  24.705  27.504  1.00  0.00    -0.200 F 
ATOM     70  C   UNL A   1      40.697  26.255  26.405  1.00  0.00     0.200 A 
ATOM     71  F   UNL A   1      42.106  27.828  25.351  1.00  0.00    -0.200 F 
ATOM     72  F   UNL A   1      40.732  25.472  25.317  1.00  0.00    -0.200 F 
ENDBRANCH  48  62
BRANCH  49  73
ATOM     73  C   UNL A   1      39.783  33.833  36.671  1.00  0.00     0.064 A 
ATOM     74  C   UNL A   1      38.965  33.452  37.745  1.00  0.00     0.173 A 
ATOM     75  C   UNL A   1      40.456  35.059  36.768  1.00  0.00     0.173 A 
ATOM     76  F   UNL A   1      38.283  32.299  37.690  1.00  0.00    -0.203 F 
ATOM     77  C   UNL A   1      38.806  34.276  38.856  1.00  0.00     0.198 A 
ATOM     78  C   UNL A   1      40.322  35.867  37.895  1.00  0.00     0.198 A 
ATOM     79  F   UNL A   1      41.255  35.468  35.771  1.00  0.00    -0.203 F 
ATOM     80  F   UNL A   1      37.977  33.913  39.844  1.00  0.00    -0.200 F 
ATOM     81  C   UNL A   1      39.489  35.480  38.934  1.00  0.00     0.200 A 
ATOM     82  F   UNL A   1      40.996  37.022  37.973  1.00  0.00    -0.200 F 
ATOM     83  F   UNL A   1      39.338  36.272  40.004  1.00  0.00    -0.200 F 
ENDBRANCH  49  73
BRANCH  61  84
ATOM     84  C   UNL A   1      44.233  28.774  34.884  1.00  0.00     0.064 A 
ATOM     85  C   UNL A   1      45.523  29.293  34.698  1.00  0.00     0.173 A 
ATOM     86  C   UNL A   1      44.080  27.698  35.772  1.00  0.00     0.173 A 
ATOM     87  F   UNL A   1      45.725  30.311  33.848  1.00  0.00    -0.203 F 
ATOM     88  C   UNL A   1      46.618  28.737  35.352  1.00  0.00     0.198 A 
ATOM     89  C   UNL A   1      45.174  27.168  36.452  1.00  0.00     0.198 A 
ATOM     90  F   UNL A   1      42.868  27.168  35.992  1.00  0.00    -0.203 F 
ATOM     91  F   UNL A   1      47.849  29.214  35.118  1.00  0.00    -0.200 F 
ATOM     92  C   UNL A   1      46.443  27.682  36.235  1.00  0.00     0.200 A 
ATOM     93  F   UNL A   1      44.998  26.160  37.317  1.00  0.00    -0.200 F 
ATOM     94  F   UNL A   1      47.498  27.155  36.871  1.00  0.00    -0.200 F 
ENDBRANCH  61  84
ENDBRANCH  35  36
ENDBRANCH  27  30
ENDBRANCH  25  26
ENDBRANCH  24  25
ENDBRANCH   1  24
TORSDOF 14
ENDMDL
