MODEL 1
REMARK VINA RESULT:     -13.3      0.000      0.000
REMARK SMILES C[NH+](C)CCc1nc(Nc2ccc(O)c(C(=O)NCCCCNC(=O)c3ccc(-c4c5nc(c(-c6c(F)c(F)c(F)c(F)c6F)c6ccc([nH]6)c(-c6c(F)c(F)c(F)c(F)c6F)c6nc(c(-c7c(F)c(F)c(F)c(F)c7F)c7ccc4[nH]7)C=C6)C=C5)cc3)c2)c2ccccc2n1
REMARK SMILES IDX 19 1 18 2 16 3 17 4 15 6 10 7 11 8 89 9 12 10 13 11 9 12
REMARK SMILES IDX 8 14 6 15 7 16 96 17 95 18 90 19 94 20 91 21 93 22 92 23
REMARK SMILES IDX 5 24 4 25 2 26 1 27 3 28 14 30 20 32 21 33 22 34 23 35 24 36
REMARK SMILES IDX 25 38 26 39 27 40 88 41 28 42 87 43 29 44 30 45 31 46 81 47
REMARK SMILES IDX 32 48 86 49 80 50 82 51 33 52 85 53 79 54 78 55 34 57 66 58
REMARK SMILES IDX 46 59 65 60 47 61 50 62 64 63 83 64 48 65 49 66 63 68 84 69
REMARK SMILES IDX 51 70 35 71 36 72 44 73 37 74 38 75 42 76 45 77 39 78 40 79
REMARK SMILES IDX 43 80 41 81 67 82 68 83 76 84 69 85 70 86 74 87 77 88 71 89
REMARK SMILES IDX 72 90 75 91 73 92 52 93 53 94 61 95 54 96 55 97 59 98 62 99
REMARK SMILES IDX 56 100 57 101 60 102 58 103
REMARK H PARENT 18 5 9 13 2 29 14 31 23 37 82 56 50 67
REMARK Flexibility Score: inf
ROOT
ATOM      1  C   UNL A   1      31.846  29.626  25.253  1.00  0.00     0.116 C 
ENDROOT
BRANCH   1   2
ATOM      2  N   UNL A   1      32.925  29.504  24.301  1.00  0.00    -0.352 N 
ATOM      3  C   UNL A   1      33.412  28.432  23.604  1.00  0.00     0.255 C 
ATOM      4  O   UNL A   1      34.445  28.637  22.956  1.00  0.00    -0.269 OA
ATOM      5  H   UNL A   1      33.398  30.349  24.121  1.00  0.00     0.163 HD
BRANCH   3   6
ATOM      6  C   UNL A   1      32.753  27.093  23.483  1.00  0.00     0.083 A 
ATOM      7  C   UNL A   1      32.607  24.895  24.582  1.00  0.00     0.041 A 
ATOM      8  C   UNL A   1      31.757  24.457  23.570  1.00  0.00     0.030 A 
ATOM      9  C   UNL A   1      33.108  26.200  24.516  1.00  0.00     0.043 A 
ATOM     10  C   UNL A   1      31.356  25.325  22.560  1.00  0.00     0.049 A 
ATOM     11  C   UNL A   1      31.830  26.643  22.532  1.00  0.00     0.128 A 
BRANCH   7  12
ATOM     12  N   UNL A   1      33.025  24.043  25.616  1.00  0.00    -0.340 N 
ATOM     13  H   UNL A   1      32.854  24.349  26.535  1.00  0.00     0.168 HD
BRANCH  12  14
ATOM     14  C   UNL A   1      33.665  22.796  25.474  1.00  0.00     0.142 A 
ATOM     15  C   UNL A   1      33.494  20.517  25.256  1.00  0.00     0.137 A 
ATOM     16  N   UNL A   1      32.894  21.695  25.454  1.00  0.00    -0.215 NA
ATOM     17  N   UNL A   1      34.809  20.363  25.037  1.00  0.00    -0.233 NA
ATOM     18  C   UNL A   1      35.578  21.452  25.124  1.00  0.00     0.076 A 
ATOM     19  C   UNL A   1      35.062  22.730  25.367  1.00  0.00     0.043 A 
ATOM     20  C   UNL A   1      36.953  21.304  24.998  1.00  0.00     0.029 A 
ATOM     21  C   UNL A   1      35.947  23.829  25.508  1.00  0.00     0.014 A 
ATOM     22  C   UNL A   1      37.828  22.384  25.134  1.00  0.00     0.002 A 
ATOM     23  C   UNL A   1      37.324  23.651  25.398  1.00  0.00     0.001 A 
BRANCH  15  24
ATOM     24  C   UNL A   1      32.631  19.293  25.337  1.00  0.00     0.138 C 
BRANCH  24  25
ATOM     25  C   UNL A   1      32.504  18.523  24.010  1.00  0.00     0.269 C 
BRANCH  25  26
ATOM     26  N   UNL A   1      32.722  17.064  23.969  1.00  0.00    -0.339 N 
ATOM     27  C   UNL A   1      33.981  16.685  23.332  1.00  0.00     0.332 C 
ATOM     28  C   UNL A   1      32.581  16.421  25.269  1.00  0.00     0.332 C 
ATOM     29  H   UNL A   1      31.969  16.713  23.378  1.00  0.00     0.347 HD
ENDBRANCH  25  26
ENDBRANCH  24  25
ENDBRANCH  15  24
ENDBRANCH  12  14
ENDBRANCH   7  12
BRANCH  11  30
ATOM     30  O   UNL A   1      31.301  27.454  21.573  1.00  0.00    -0.507 OA
ATOM     31  H   UNL A   1      31.647  27.436  20.702  1.00  0.00     0.293 HD
ENDBRANCH  11  30
ENDBRANCH   3   6
ENDBRANCH   1   2
BRANCH   1  32
ATOM     32  C   UNL A   1      32.381  30.188  26.575  1.00  0.00     0.023 C 
BRANCH  32  33
ATOM     33  C   UNL A   1      31.889  31.593  26.914  1.00  0.00     0.023 C 
BRANCH  33  34
ATOM     34  C   UNL A   1      32.963  32.521  27.464  1.00  0.00     0.116 C 
BRANCH  34  35
ATOM     35  N   UNL A   1      32.492  33.880  27.689  1.00  0.00    -0.352 N 
ATOM     36  C   UNL A   1      32.990  34.823  28.559  1.00  0.00     0.251 C 
ATOM     37  H   UNL A   1      31.717  34.160  27.149  1.00  0.00     0.163 HD
ATOM     38  O   UNL A   1      32.442  35.902  28.705  1.00  0.00    -0.269 OA
BRANCH  36  39
ATOM     39  C   UNL A   1      34.184  34.473  29.355  1.00  0.00     0.039 A 
ATOM     40  C   UNL A   1      34.002  33.924  30.626  1.00  0.00     0.014 A 
ATOM     41  C   UNL A   1      35.461  34.607  28.806  1.00  0.00     0.014 A 
ATOM     42  C   UNL A   1      35.105  33.422  31.316  1.00  0.00     0.010 A 
ATOM     43  C   UNL A   1      36.547  34.049  29.467  1.00  0.00     0.010 A 
ATOM     44  C   UNL A   1      36.376  33.439  30.720  1.00  0.00    -0.014 A 
BRANCH  44  45
ATOM     45  C   UNL A   1      37.542  32.796  31.368  1.00  0.00     0.031 A 
ATOM     46  C   UNL A   1      38.199  31.614  30.719  1.00  0.00     0.074 A 
ATOM     47  C   UNL A   1      37.939  33.214  32.585  1.00  0.00     0.049 A 
ATOM     48  N   UNL A   1      39.141  30.833  31.182  1.00  0.00    -0.248 NA
ATOM     49  C   UNL A   1      37.710  31.242  29.382  1.00  0.00     0.031 C 
ATOM     50  C   UNL A   1      37.345  34.323  33.334  1.00  0.00     0.029 A 
ATOM     51  N   UNL A   1      38.921  32.740  33.417  1.00  0.00    -0.354 N 
ATOM     52  C   UNL A   1      39.343  29.868  30.206  1.00  0.00     0.074 A 
ATOM     53  C   UNL A   1      38.398  30.134  29.142  1.00  0.00     0.031 C 
ATOM     54  C   UNL A   1      37.981  34.450  34.509  1.00  0.00     0.029 A 
ATOM     55  C   UNL A   1      38.998  33.409  34.614  1.00  0.00     0.049 A 
ATOM     56  H   UNL A   1      39.515  31.992  33.179  1.00  0.00     0.167 HD
ATOM     57  C   UNL A   1      40.248  28.863  30.193  1.00  0.00     0.037 A 
ATOM     58  C   UNL A   1      39.790  33.193  35.682  1.00  0.00     0.037 A 
ATOM     59  C   UNL A   1      41.206  28.624  31.239  1.00  0.00     0.049 A 
ATOM     60  C   UNL A   1      40.780  32.062  35.644  1.00  0.00     0.074 A 
ATOM     61  C   UNL A   1      42.222  27.684  31.280  1.00  0.00     0.029 A 
ATOM     62  N   UNL A   1      41.265  29.331  32.431  1.00  0.00    -0.354 N 
ATOM     63  N   UNL A   1      41.012  31.198  34.687  1.00  0.00    -0.248 NA
ATOM     64  C   UNL A   1      41.616  31.874  36.838  1.00  0.00     0.031 C 
ATOM     65  C   UNL A   1      42.870  27.797  32.514  1.00  0.00     0.029 A 
ATOM     66  C   UNL A   1      42.282  28.832  33.226  1.00  0.00     0.049 A 
ATOM     67  H   UNL A   1      40.672  30.078  32.674  1.00  0.00     0.167 HD
ATOM     68  C   UNL A   1      42.029  30.377  35.151  1.00  0.00     0.074 A 
ATOM     69  C   UNL A   1      42.381  30.855  36.472  1.00  0.00     0.031 C 
ATOM     70  C   UNL A   1      42.618  29.322  34.538  1.00  0.00     0.037 A 
BRANCH  57  71
ATOM     71  C   UNL A   1      40.247  27.945  29.007  1.00  0.00     0.064 A 
ATOM     72  C   UNL A   1      40.967  28.251  27.842  1.00  0.00     0.173 A 
ATOM     73  C   UNL A   1      39.548  26.731  29.048  1.00  0.00     0.173 A 
ATOM     74  F   UNL A   1      41.641  29.407  27.750  1.00  0.00    -0.203 F 
ATOM     75  C   UNL A   1      40.965  27.386  26.752  1.00  0.00     0.198 A 
ATOM     76  C   UNL A   1      39.570  25.855  27.966  1.00  0.00     0.198 A 
ATOM     77  F   UNL A   1      38.846  26.391  30.140  1.00  0.00    -0.203 F 
ATOM     78  F   UNL A   1      41.624  27.718  25.634  1.00  0.00    -0.200 F 
ATOM     79  C   UNL A   1      40.272  26.186  26.818  1.00  0.00     0.200 A 
ATOM     80  F   UNL A   1      38.908  24.691  28.035  1.00  0.00    -0.200 F 
ATOM     81  F   UNL A   1      40.277  25.350  25.770  1.00  0.00    -0.200 F 
ENDBRANCH  57  71
BRANCH  58  82
ATOM     82  C   UNL A   1      39.685  34.074  36.872  1.00  0.00     0.064 A 
ATOM     83  C   UNL A   1      40.388  35.285  36.933  1.00  0.00     0.173 A 
ATOM     84  C   UNL A   1      38.884  33.729  37.970  1.00  0.00     0.173 A 
ATOM     85  F   UNL A   1      41.184  35.646  35.915  1.00  0.00    -0.203 F 
ATOM     86  C   UNL A   1      40.306  36.111  38.052  1.00  0.00     0.198 A 
ATOM     87  C   UNL A   1      38.783  34.567  39.079  1.00  0.00     0.198 A 
ATOM     88  F   UNL A   1      38.189  32.582  37.960  1.00  0.00    -0.203 F 
ATOM     89  F   UNL A   1      41.019  37.243  38.099  1.00  0.00    -0.200 F 
ATOM     90  C   UNL A   1      39.500  35.753  39.122  1.00  0.00     0.200 A 
ATOM     91  F   UNL A   1      37.994  34.224  40.107  1.00  0.00    -0.200 F 
ATOM     92  F   UNL A   1      39.418  36.549  40.197  1.00  0.00    -0.200 F 
ENDBRANCH  58  82
BRANCH  70  93
ATOM     93  C   UNL A   1      43.714  28.621  35.281  1.00  0.00     0.064 A 
ATOM     94  C   UNL A   1      43.441  27.564  36.162  1.00  0.00     0.173 A 
ATOM     95  C   UNL A   1      45.056  28.972  35.069  1.00  0.00     0.173 A 
ATOM     96  F   UNL A   1      42.172  27.205  36.410  1.00  0.00    -0.203 F 
ATOM     97  C   UNL A   1      44.470  26.894  36.814  1.00  0.00     0.198 A 
ATOM     98  C   UNL A   1      46.084  28.283  35.703  1.00  0.00     0.198 A 
ATOM     99  F   UNL A   1      45.368  29.974  34.233  1.00  0.00    -0.203 F 
ATOM    100  F   UNL A   1      44.186  25.909  37.678  1.00  0.00    -0.200 F 
ATOM    101  C   UNL A   1      45.792  27.247  36.578  1.00  0.00     0.200 A 
ATOM    102  F   UNL A   1      47.360  28.619  35.467  1.00  0.00    -0.200 F 
ATOM    103  F   UNL A   1      46.782  26.593  37.198  1.00  0.00    -0.200 F 
ENDBRANCH  70  93
ENDBRANCH  44  45
ENDBRANCH  36  39
ENDBRANCH  34  35
ENDBRANCH  33  34
ENDBRANCH  32  33
ENDBRANCH   1  32
TORSDOF 17
ENDMDL
MODEL 2
REMARK VINA RESULT:     -13.2      5.579     11.126
REMARK SMILES C[NH+](C)CCc1nc(Nc2ccc(O)c(C(=O)NCCCCNC(=O)c3ccc(-c4c5nc(c(-c6c(F)c(F)c(F)c(F)c6F)c6ccc([nH]6)c(-c6c(F)c(F)c(F)c(F)c6F)c6nc(c(-c7c(F)c(F)c(F)c(F)c7F)c7ccc4[nH]7)C=C6)C=C5)cc3)c2)c2ccccc2n1
REMARK SMILES IDX 19 1 18 2 16 3 17 4 15 6 10 7 11 8 89 9 12 10 13 11 9 12
REMARK SMILES IDX 8 14 6 15 7 16 96 17 95 18 90 19 94 20 91 21 93 22 92 23
REMARK SMILES IDX 5 24 4 25 2 26 1 27 3 28 14 30 20 32 21 33 22 34 23 35 24 36
REMARK SMILES IDX 25 38 26 39 27 40 88 41 28 42 87 43 29 44 30 45 31 46 81 47
REMARK SMILES IDX 32 48 86 49 80 50 82 51 33 52 85 53 79 54 78 55 34 57 66 58
REMARK SMILES IDX 46 59 65 60 47 61 50 62 64 63 83 64 48 65 49 66 63 68 84 69
REMARK SMILES IDX 51 70 35 71 36 72 44 73 37 74 38 75 42 76 45 77 39 78 40 79
REMARK SMILES IDX 43 80 41 81 67 82 68 83 76 84 69 85 70 86 74 87 77 88 71 89
REMARK SMILES IDX 72 90 75 91 73 92 52 93 53 94 61 95 54 96 55 97 59 98 62 99
REMARK SMILES IDX 56 100 57 101 60 102 58 103
REMARK H PARENT 18 5 9 13 2 29 14 31 23 37 82 56 50 67
REMARK Flexibility Score: inf
ROOT
ATOM      1  C   UNL A   1      37.295  22.974  25.680  1.00  0.00     0.116 C 
ENDROOT
BRANCH   1   2
ATOM      2  N   UNL A   1      36.113  22.779  26.486  1.00  0.00    -0.352 N 
ATOM      3  C   UNL A   1      34.794  23.069  26.261  1.00  0.00     0.255 C 
ATOM      4  O   UNL A   1      34.034  22.892  27.220  1.00  0.00    -0.269 OA
ATOM      5  H   UNL A   1      36.288  22.360  27.360  1.00  0.00     0.163 HD
BRANCH   3   6
ATOM      6  C   UNL A   1      34.198  23.473  24.949  1.00  0.00     0.083 A 
ATOM      7  C   UNL A   1      33.776  25.443  23.533  1.00  0.00     0.041 A 
ATOM      8  C   UNL A   1      33.138  24.625  22.604  1.00  0.00     0.030 A 
ATOM      9  C   UNL A   1      34.281  24.859  24.700  1.00  0.00     0.043 A 
ATOM     10  C   UNL A   1      33.075  23.250  22.799  1.00  0.00     0.049 A 
ATOM     11  C   UNL A   1      33.626  22.674  23.951  1.00  0.00     0.128 A 
BRANCH   7  12
ATOM     12  N   UNL A   1      33.858  26.833  23.361  1.00  0.00    -0.340 N 
ATOM     13  H   UNL A   1      34.688  27.179  22.962  1.00  0.00     0.168 HD
BRANCH  12  14
ATOM     14  C   UNL A   1      32.876  27.784  23.699  1.00  0.00     0.142 A 
ATOM     15  C   UNL A   1      30.979  28.938  23.114  1.00  0.00     0.137 A 
ATOM     16  N   UNL A   1      31.948  28.083  22.772  1.00  0.00    -0.215 NA
ATOM     17  N   UNL A   1      30.846  29.488  24.331  1.00  0.00    -0.233 NA
ATOM     18  C   UNL A   1      31.807  29.239  25.226  1.00  0.00     0.076 A 
ATOM     19  C   UNL A   1      32.889  28.392  24.963  1.00  0.00     0.043 A 
ATOM     20  C   UNL A   1      31.745  29.873  26.460  1.00  0.00     0.029 A 
ATOM     21  C   UNL A   1      33.904  28.225  25.940  1.00  0.00     0.014 A 
ATOM     22  C   UNL A   1      32.741  29.710  27.426  1.00  0.00     0.002 A 
ATOM     23  C   UNL A   1      33.829  28.889  27.162  1.00  0.00     0.001 A 
BRANCH  15  24
ATOM     24  C   UNL A   1      30.012  29.336  22.038  1.00  0.00     0.138 C 
BRANCH  24  25
ATOM     25  C   UNL A   1      29.034  30.451  22.449  1.00  0.00     0.269 C 
BRANCH  25  26
ATOM     26  N   UNL A   1      29.143  31.796  21.853  1.00  0.00    -0.339 N 
ATOM     27  C   UNL A   1      28.233  32.007  20.730  1.00  0.00     0.332 C 
ATOM     28  C   UNL A   1      29.025  32.873  22.829  1.00  0.00     0.332 C 
ATOM     29  H   UNL A   1      30.091  31.831  21.482  1.00  0.00     0.347 HD
ENDBRANCH  25  26
ENDBRANCH  24  25
ENDBRANCH  15  24
ENDBRANCH  12  14
ENDBRANCH   7  12
BRANCH  11  30
ATOM     30  O   UNL A   1      33.617  21.312  24.009  1.00  0.00    -0.507 OA
ATOM     31  H   UNL A   1      32.806  20.846  23.950  1.00  0.00     0.293 HD
ENDBRANCH  11  30
ENDBRANCH   3   6
ENDBRANCH   1   2
BRANCH   1  32
ATOM     32  C   UNL A   1      37.364  21.897  24.592  1.00  0.00     0.023 C 
BRANCH  32  33
ATOM     33  C   UNL A   1      37.968  20.570  25.049  1.00  0.00     0.023 C 
BRANCH  33  34
ATOM     34  C   UNL A   1      39.230  20.709  25.889  1.00  0.00     0.116 C 
BRANCH  34  35
ATOM     35  N   UNL A   1      40.054  19.509  25.895  1.00  0.00    -0.352 N 
ATOM     36  C   UNL A   1      41.402  19.400  26.154  1.00  0.00     0.251 C 
ATOM     37  H   UNL A   1      39.588  18.667  25.686  1.00  0.00     0.163 HD
ATOM     38  O   UNL A   1      41.984  18.335  26.042  1.00  0.00    -0.269 OA
BRANCH  36  39
ATOM     39  C   UNL A   1      42.140  20.624  26.524  1.00  0.00     0.039 A 
ATOM     40  C   UNL A   1      42.603  21.459  25.504  1.00  0.00     0.014 A 
ATOM     41  C   UNL A   1      42.289  20.979  27.866  1.00  0.00     0.014 A 
ATOM     42  C   UNL A   1      43.141  22.703  25.833  1.00  0.00     0.010 A 
ATOM     43  C   UNL A   1      42.765  22.243  28.187  1.00  0.00     0.010 A 
ATOM     44  C   UNL A   1      43.180  23.121  27.173  1.00  0.00    -0.014 A 
BRANCH  44  45
ATOM     45  C   UNL A   1      43.620  24.486  27.544  1.00  0.00     0.031 A 
ATOM     46  C   UNL A   1      42.604  25.520  27.926  1.00  0.00     0.074 A 
ATOM     47  C   UNL A   1      44.922  24.815  27.435  1.00  0.00     0.049 A 
ATOM     48  N   UNL A   1      42.770  26.797  28.155  1.00  0.00    -0.248 NA
ATOM     49  C   UNL A   1      41.210  25.063  28.036  1.00  0.00     0.031 C 
ATOM     50  C   UNL A   1      45.994  23.905  27.028  1.00  0.00     0.029 A 
ATOM     51  N   UNL A   1      45.561  26.012  27.637  1.00  0.00    -0.354 N 
ATOM     52  C   UNL A   1      41.502  27.300  28.415  1.00  0.00     0.074 A 
ATOM     53  C   UNL A   1      40.572  26.200  28.275  1.00  0.00     0.031 C 
ATOM     54  C   UNL A   1      47.158  24.574  27.020  1.00  0.00     0.029 A 
ATOM     55  C   UNL A   1      46.910  25.966  27.381  1.00  0.00     0.049 A 
ATOM     56  H   UNL A   1      45.098  26.827  27.937  1.00  0.00     0.167 HD
ATOM     57  C   UNL A   1      41.152  28.561  28.757  1.00  0.00     0.037 A 
ATOM     58  C   UNL A   1      47.836  26.942  27.416  1.00  0.00     0.037 A 
ATOM     59  C   UNL A   1      42.086  29.641  28.927  1.00  0.00     0.049 A 
ATOM     60  C   UNL A   1      47.417  28.337  27.790  1.00  0.00     0.074 A 
ATOM     61  C   UNL A   1      41.841  30.934  29.356  1.00  0.00     0.029 A 
ATOM     62  N   UNL A   1      43.447  29.554  28.673  1.00  0.00    -0.354 N 
ATOM     63  N   UNL A   1      46.227  28.787  28.104  1.00  0.00    -0.248 NA
ATOM     64  C   UNL A   1      48.471  29.362  27.811  1.00  0.00     0.031 C 
ATOM     65  C   UNL A   1      43.048  31.640  29.323  1.00  0.00     0.029 A 
ATOM     66  C   UNL A   1      44.050  30.777  28.910  1.00  0.00     0.049 A 
ATOM     67  H   UNL A   1      43.914  28.742  28.369  1.00  0.00     0.167 HD
ATOM     68  C   UNL A   1      46.388  30.138  28.376  1.00  0.00     0.074 A 
ATOM     69  C   UNL A   1      47.795  30.433  28.206  1.00  0.00     0.031 C 
ATOM     70  C   UNL A   1      45.454  31.050  28.735  1.00  0.00     0.037 A 
BRANCH  57  71
ATOM     71  C   UNL A   1      39.695  28.840  28.975  1.00  0.00     0.064 A 
ATOM     72  C   UNL A   1      39.096  28.673  30.232  1.00  0.00     0.173 A 
ATOM     73  C   UNL A   1      38.897  29.313  27.923  1.00  0.00     0.173 A 
ATOM     74  F   UNL A   1      39.814  28.211  31.266  1.00  0.00    -0.203 F 
ATOM     75  C   UNL A   1      37.744  28.946  30.422  1.00  0.00     0.198 A 
ATOM     76  C   UNL A   1      37.552  29.610  28.123  1.00  0.00     0.198 A 
ATOM     77  F   UNL A   1      39.424  29.492  26.702  1.00  0.00    -0.203 F 
ATOM     78  F   UNL A   1      37.183  28.738  31.621  1.00  0.00    -0.200 F 
ATOM     79  C   UNL A   1      36.975  29.420  29.370  1.00  0.00     0.200 A 
ATOM     80  F   UNL A   1      36.812  30.078  27.108  1.00  0.00    -0.200 F 
ATOM     81  F   UNL A   1      35.675  29.689  29.556  1.00  0.00    -0.200 F 
ENDBRANCH  57  71
BRANCH  58  82
ATOM     82  C   UNL A   1      49.253  26.631  27.099  1.00  0.00     0.064 A 
ATOM     83  C   UNL A   1      49.718  26.680  25.778  1.00  0.00     0.173 A 
ATOM     84  C   UNL A   1      50.168  26.282  28.102  1.00  0.00     0.173 A 
ATOM     85  F   UNL A   1      48.873  26.988  24.783  1.00  0.00    -0.203 F 
ATOM     86  C   UNL A   1      51.042  26.376  25.469  1.00  0.00     0.198 A 
ATOM     87  C   UNL A   1      51.498  26.001  27.795  1.00  0.00     0.198 A 
ATOM     88  F   UNL A   1      49.772  26.224  29.381  1.00  0.00    -0.203 F 
ATOM     89  F   UNL A   1      51.451  26.392  24.194  1.00  0.00    -0.200 F 
ATOM     90  C   UNL A   1      51.932  26.042  26.479  1.00  0.00     0.200 A 
ATOM     91  F   UNL A   1      52.359  25.690  28.774  1.00  0.00    -0.200 F 
ATOM     92  F   UNL A   1      53.207  25.753  26.182  1.00  0.00    -0.200 F 
ENDBRANCH  58  82
BRANCH  70  93
ATOM     93  C   UNL A   1      45.924  32.452  28.983  1.00  0.00     0.064 A 
ATOM     94  C   UNL A   1      46.387  32.855  30.244  1.00  0.00     0.173 A 
ATOM     95  C   UNL A   1      45.962  33.386  27.937  1.00  0.00     0.173 A 
ATOM     96  F   UNL A   1      46.354  32.001  31.279  1.00  0.00    -0.203 F 
ATOM     97  C   UNL A   1      46.860  34.146  30.452  1.00  0.00     0.198 A 
ATOM     98  C   UNL A   1      46.458  34.669  28.142  1.00  0.00     0.198 A 
ATOM     99  F   UNL A   1      45.532  33.046  26.713  1.00  0.00    -0.203 F 
ATOM    100  F   UNL A   1      47.267  34.522  31.673  1.00  0.00    -0.200 F 
ATOM    101  C   UNL A   1      46.903  35.051  29.400  1.00  0.00     0.200 A 
ATOM    102  F   UNL A   1      46.509  35.538  27.123  1.00  0.00    -0.200 F 
ATOM    103  F   UNL A   1      47.369  36.290  29.599  1.00  0.00    -0.200 F 
ENDBRANCH  70  93
ENDBRANCH  44  45
ENDBRANCH  36  39
ENDBRANCH  34  35
ENDBRANCH  33  34
ENDBRANCH  32  33
ENDBRANCH   1  32
TORSDOF 17
ENDMDL
MODEL 3
REMARK VINA RESULT:     -13.2      5.523     11.082
REMARK SMILES C[NH+](C)CCc1nc(Nc2ccc(O)c(C(=O)NCCCCNC(=O)c3ccc(-c4c5nc(c(-c6c(F)c(F)c(F)c(F)c6F)c6ccc([nH]6)c(-c6c(F)c(F)c(F)c(F)c6F)c6nc(c(-c7c(F)c(F)c(F)c(F)c7F)c7ccc4[nH]7)C=C6)C=C5)cc3)c2)c2ccccc2n1
REMARK SMILES IDX 19 1 18 2 16 3 17 4 15 6 10 7 11 8 89 9 12 10 13 11 9 12
REMARK SMILES IDX 8 14 6 15 7 16 96 17 95 18 90 19 94 20 91 21 93 22 92 23
REMARK SMILES IDX 5 24 4 25 2 26 1 27 3 28 14 30 20 32 21 33 22 34 23 35 24 36
REMARK SMILES IDX 25 38 26 39 27 40 88 41 28 42 87 43 29 44 30 45 31 46 81 47
REMARK SMILES IDX 32 48 86 49 80 50 82 51 33 52 85 53 79 54 78 55 34 57 66 58
REMARK SMILES IDX 46 59 65 60 47 61 50 62 64 63 83 64 48 65 49 66 63 68 84 69
REMARK SMILES IDX 51 70 35 71 36 72 44 73 37 74 38 75 42 76 45 77 39 78 40 79
REMARK SMILES IDX 43 80 41 81 67 82 68 83 76 84 69 85 70 86 74 87 77 88 71 89
REMARK SMILES IDX 72 90 75 91 73 92 52 93 53 94 61 95 54 96 55 97 59 98 62 99
REMARK SMILES IDX 56 100 57 101 60 102 58 103
REMARK H PARENT 18 5 9 13 2 29 14 31 23 37 82 56 50 67
REMARK Flexibility Score: inf
ROOT
ATOM      1  C   UNL A   1      37.244  23.007  25.725  1.00  0.00     0.116 C 
ENDROOT
BRANCH   1   2
ATOM      2  N   UNL A   1      36.069  22.859  26.552  1.00  0.00    -0.352 N 
ATOM      3  C   UNL A   1      34.750  23.145  26.324  1.00  0.00     0.255 C 
ATOM      4  O   UNL A   1      33.998  23.021  27.298  1.00  0.00    -0.269 OA
ATOM      5  H   UNL A   1      36.250  22.483  27.444  1.00  0.00     0.163 HD
BRANCH   3   6
ATOM      6  C   UNL A   1      34.143  23.487  24.999  1.00  0.00     0.083 A 
ATOM      7  C   UNL A   1      33.653  25.396  23.523  1.00  0.00     0.041 A 
ATOM      8  C   UNL A   1      33.048  24.527  22.618  1.00  0.00     0.030 A 
ATOM      9  C   UNL A   1      34.176  24.867  24.708  1.00  0.00     0.043 A 
ATOM     10  C   UNL A   1      33.036  23.156  22.856  1.00  0.00     0.049 A 
ATOM     11  C   UNL A   1      33.604  22.637  24.026  1.00  0.00     0.128 A 
BRANCH   7  12
ATOM     12  N   UNL A   1      33.684  26.782  23.308  1.00  0.00    -0.340 N 
ATOM     13  H   UNL A   1      34.475  27.138  22.844  1.00  0.00     0.168 HD
BRANCH  12  14
ATOM     14  C   UNL A   1      32.700  27.716  23.688  1.00  0.00     0.142 A 
ATOM     15  C   UNL A   1      30.704  28.757  23.235  1.00  0.00     0.137 A 
ATOM     16  N   UNL A   1      31.670  27.918  22.848  1.00  0.00    -0.215 NA
ATOM     17  N   UNL A   1      30.674  29.382  24.423  1.00  0.00    -0.233 NA
ATOM     18  C   UNL A   1      31.732  29.230  25.224  1.00  0.00     0.076 A 
ATOM     19  C   UNL A   1      32.818  28.408  24.902  1.00  0.00     0.043 A 
ATOM     20  C   UNL A   1      31.769  29.942  26.416  1.00  0.00     0.029 A 
ATOM     21  C   UNL A   1      33.934  28.345  25.776  1.00  0.00     0.014 A 
ATOM     22  C   UNL A   1      32.866  29.882  27.279  1.00  0.00     0.002 A 
ATOM     23  C   UNL A   1      33.956  29.086  26.954  1.00  0.00     0.001 A 
BRANCH  15  24
ATOM     24  C   UNL A   1      29.615  29.045  22.244  1.00  0.00     0.138 C 
BRANCH  24  25
ATOM     25  C   UNL A   1      29.469  30.534  21.884  1.00  0.00     0.269 C 
BRANCH  25  26
ATOM     26  N   UNL A   1      28.912  31.487  22.864  1.00  0.00    -0.339 N 
ATOM     27  C   UNL A   1      28.822  32.854  22.356  1.00  0.00     0.332 C 
ATOM     28  C   UNL A   1      27.639  31.057  23.430  1.00  0.00     0.332 C 
ATOM     29  H   UNL A   1      29.591  31.493  23.624  1.00  0.00     0.347 HD
ENDBRANCH  25  26
ENDBRANCH  24  25
ENDBRANCH  15  24
ENDBRANCH  12  14
ENDBRANCH   7  12
BRANCH  11  30
ATOM     30  O   UNL A   1      33.646  21.279  24.125  1.00  0.00    -0.507 OA
ATOM     31  H   UNL A   1      34.396  20.810  23.816  1.00  0.00     0.293 HD
ENDBRANCH  11  30
ENDBRANCH   3   6
ENDBRANCH   1   2
BRANCH   1  32
ATOM     32  C   UNL A   1      37.273  21.902  24.663  1.00  0.00     0.023 C 
BRANCH  32  33
ATOM     33  C   UNL A   1      37.869  20.579  25.139  1.00  0.00     0.023 C 
BRANCH  33  34
ATOM     34  C   UNL A   1      39.178  20.717  25.904  1.00  0.00     0.116 C 
BRANCH  34  35
ATOM     35  N   UNL A   1      40.008  19.522  25.848  1.00  0.00    -0.352 N 
ATOM     36  C   UNL A   1      41.360  19.410  26.081  1.00  0.00     0.251 C 
ATOM     37  H   UNL A   1      39.542  18.687  25.614  1.00  0.00     0.163 HD
ATOM     38  O   UNL A   1      41.946  18.354  25.917  1.00  0.00    -0.269 OA
BRANCH  36  39
ATOM     39  C   UNL A   1      42.099  20.622  26.487  1.00  0.00     0.039 A 
ATOM     40  C   UNL A   1      42.607  21.460  25.492  1.00  0.00     0.014 A 
ATOM     41  C   UNL A   1      42.203  20.965  27.836  1.00  0.00     0.014 A 
ATOM     42  C   UNL A   1      43.147  22.695  25.849  1.00  0.00     0.010 A 
ATOM     43  C   UNL A   1      42.682  22.221  28.184  1.00  0.00     0.010 A 
ATOM     44  C   UNL A   1      43.143  23.103  27.193  1.00  0.00    -0.014 A 
BRANCH  44  45
ATOM     45  C   UNL A   1      43.585  24.459  27.591  1.00  0.00     0.031 A 
ATOM     46  C   UNL A   1      42.568  25.498  27.957  1.00  0.00     0.074 A 
ATOM     47  C   UNL A   1      44.892  24.778  27.521  1.00  0.00     0.049 A 
ATOM     48  N   UNL A   1      42.738  26.771  28.205  1.00  0.00    -0.248 NA
ATOM     49  C   UNL A   1      41.167  25.053  28.024  1.00  0.00     0.031 C 
ATOM     50  C   UNL A   1      45.967  23.863  27.132  1.00  0.00     0.029 A 
ATOM     51  N   UNL A   1      45.536  25.966  27.753  1.00  0.00    -0.354 N 
ATOM     52  C   UNL A   1      41.469  27.282  28.436  1.00  0.00     0.074 A 
ATOM     53  C   UNL A   1      40.533  26.193  28.259  1.00  0.00     0.031 C 
ATOM     54  C   UNL A   1      47.136  24.520  27.163  1.00  0.00     0.029 A 
ATOM     55  C   UNL A   1      46.890  25.910  27.533  1.00  0.00     0.049 A 
ATOM     56  H   UNL A   1      45.071  26.782  28.050  1.00  0.00     0.167 HD
ATOM     57  C   UNL A   1      41.121  28.543  28.782  1.00  0.00     0.037 A 
ATOM     58  C   UNL A   1      47.824  26.878  27.604  1.00  0.00     0.037 A 
ATOM     59  C   UNL A   1      42.060  29.613  28.990  1.00  0.00     0.049 A 
ATOM     60  C   UNL A   1      47.407  28.273  27.982  1.00  0.00     0.074 A 
ATOM     61  C   UNL A   1      41.814  30.903  29.426  1.00  0.00     0.029 A 
ATOM     62  N   UNL A   1      43.426  29.516  28.771  1.00  0.00    -0.354 N 
ATOM     63  N   UNL A   1      46.213  28.730  28.268  1.00  0.00    -0.248 NA
ATOM     64  C   UNL A   1      48.469  29.288  28.042  1.00  0.00     0.031 C 
ATOM     65  C   UNL A   1      43.028  31.599  29.433  1.00  0.00     0.029 A 
ATOM     66  C   UNL A   1      44.033  30.731  29.038  1.00  0.00     0.049 A 
ATOM     67  H   UNL A   1      43.894  28.703  28.471  1.00  0.00     0.167 HD
ATOM     68  C   UNL A   1      46.378  30.076  28.560  1.00  0.00     0.074 A 
ATOM     69  C   UNL A   1      47.793  30.360  28.430  1.00  0.00     0.031 C 
ATOM     70  C   UNL A   1      45.444  30.993  28.904  1.00  0.00     0.037 A 
BRANCH  57  71
ATOM     71  C   UNL A   1      39.661  28.833  28.964  1.00  0.00     0.064 A 
ATOM     72  C   UNL A   1      39.026  28.655  30.202  1.00  0.00     0.173 A 
ATOM     73  C   UNL A   1      38.897  29.328  27.898  1.00  0.00     0.173 A 
ATOM     74  F   UNL A   1      39.711  28.171  31.248  1.00  0.00    -0.203 F 
ATOM     75  C   UNL A   1      37.672  28.937  30.358  1.00  0.00     0.198 A 
ATOM     76  C   UNL A   1      37.549  29.635  28.065  1.00  0.00     0.198 A 
ATOM     77  F   UNL A   1      39.458  29.519  26.694  1.00  0.00    -0.203 F 
ATOM     78  F   UNL A   1      37.076  28.718  31.538  1.00  0.00    -0.200 F 
ATOM     79  C   UNL A   1      36.937  29.434  29.292  1.00  0.00     0.200 A 
ATOM     80  F   UNL A   1      36.842  30.124  27.036  1.00  0.00    -0.200 F 
ATOM     81  F   UNL A   1      35.635  29.712  29.447  1.00  0.00    -0.200 F 
ENDBRANCH  57  71
BRANCH  58  82
ATOM     82  C   UNL A   1      49.246  26.558  27.321  1.00  0.00     0.064 A 
ATOM     83  C   UNL A   1      50.128  26.233  28.360  1.00  0.00     0.173 A 
ATOM     84  C   UNL A   1      49.752  26.569  26.014  1.00  0.00     0.173 A 
ATOM     85  F   UNL A   1      49.693  26.232  29.629  1.00  0.00    -0.203 F 
ATOM     86  C   UNL A   1      51.467  25.946  28.105  1.00  0.00     0.198 A 
ATOM     87  C   UNL A   1      51.086  26.257  25.757  1.00  0.00     0.198 A 
ATOM     88  F   UNL A   1      48.948  26.870  24.984  1.00  0.00    -0.203 F 
ATOM     89  F   UNL A   1      52.297  25.677  29.121  1.00  0.00    -0.200 F 
ATOM     90  C   UNL A   1      51.944  25.953  26.803  1.00  0.00     0.200 A 
ATOM     91  F   UNL A   1      51.541  26.254  24.496  1.00  0.00    -0.200 F 
ATOM     92  F   UNL A   1      53.231  25.673  26.557  1.00  0.00    -0.200 F 
ENDBRANCH  58  82
BRANCH  70  93
ATOM     93  C   UNL A   1      45.919  32.388  29.180  1.00  0.00     0.064 A 
ATOM     94  C   UNL A   1      45.952  33.362  28.172  1.00  0.00     0.173 A 
ATOM     95  C   UNL A   1      46.293  32.768  30.478  1.00  0.00     0.173 A 
ATOM     96  F   UNL A   1      45.619  33.040  26.912  1.00  0.00    -0.203 F 
ATOM     97  C   UNL A   1      46.355  34.664  28.450  1.00  0.00     0.198 A 
ATOM     98  C   UNL A   1      46.672  34.077  30.757  1.00  0.00     0.198 A 
ATOM     99  F   UNL A   1      46.275  31.872  31.476  1.00  0.00    -0.203 F 
ATOM    100  F   UNL A   1      46.412  35.572  27.465  1.00  0.00    -0.200 F 
ATOM    101  C   UNL A   1      46.707  35.023  29.743  1.00  0.00     0.200 A 
ATOM    102  F   UNL A   1      47.002  34.425  32.009  1.00  0.00    -0.200 F 
ATOM    103  F   UNL A   1      47.084  36.280  30.011  1.00  0.00    -0.200 F 
ENDBRANCH  70  93
ENDBRANCH  44  45
ENDBRANCH  36  39
ENDBRANCH  34  35
ENDBRANCH  33  34
ENDBRANCH  32  33
ENDBRANCH   1  32
TORSDOF 17
ENDMDL
