MODEL 1
REMARK VINA RESULT:     -12.6      0.000      0.000
REMARK SMILES C[C@@H](C(=O)NCCCCNC(=O)c1ccc(-c2c3nc(c(-c4c(F)c(F)c(F)c(F)c4F)c4ccc([nH]4)c(-c4c(F)c(F)c(F)c(F)c4F)c4nc(c(-c5c(F)c(F)c(F)c(F)c5F)c5ccc2[nH]5)C=C4)C=C3)cc1)c1ccc(Cc2ccco2)cc1F
REMARK SMILES IDX 7 1 6 2 5 3 3 4 4 5 2 7 1 8 76 9 77 10 87 11 78 12 86 13
REMARK SMILES IDX 88 14 79 15 80 16 81 17 82 18 85 19 83 20 84 21 8 22 9 23
REMARK SMILES IDX 10 24 11 25 12 27 13 28 14 29 75 30 15 31 74 32 16 33 17 34
REMARK SMILES IDX 18 35 68 36 19 37 73 38 67 39 69 40 20 41 72 42 66 43 65 44
REMARK SMILES IDX 21 46 53 47 33 48 52 49 34 50 37 51 51 52 70 53 35 54 36 55
REMARK SMILES IDX 50 57 71 58 38 59 22 60 23 61 31 62 24 63 25 64 29 65 32 66
REMARK SMILES IDX 26 67 27 68 30 69 28 70 54 71 55 72 63 73 56 74 57 75 61 76
REMARK SMILES IDX 64 77 58 78 59 79 62 80 60 81 39 82 40 83 48 84 41 85 42 86
REMARK SMILES IDX 46 87 49 88 43 89 44 90 47 91 45 92
REMARK H PARENT 5 6 10 26 69 45 37 56
REMARK Flexibility Score: inf
ROOT
ATOM      1  C   UNL A   1      31.903  30.081  26.520  1.00  0.00     0.023 C 
ENDROOT
BRANCH   1   2
ATOM      2  C   UNL A   1      33.287  29.592  26.088  1.00  0.00     0.116 C 
BRANCH   2   3
ATOM      3  N   UNL A   1      33.479  28.186  26.377  1.00  0.00    -0.356 N 
ATOM      4  C   UNL A   1      33.536  27.106  25.542  1.00  0.00     0.227 C 
ATOM      5  O   UNL A   1      33.781  26.021  26.070  1.00  0.00    -0.274 OA
ATOM      6  H   UNL A   1      33.586  27.973  27.333  1.00  0.00     0.163 HD
BRANCH   4   7
ATOM      7  C   UNL A   1      33.373  27.294  24.024  1.00  0.00     0.108 C 
ATOM      8  C   UNL A   1      34.389  28.270  23.422  1.00  0.00     0.023 C 
BRANCH   7   9
ATOM      9  C   UNL A   1      31.968  27.732  23.628  1.00  0.00    -0.000 A 
ATOM     10  C   UNL A   1      31.777  28.899  22.875  1.00  0.00     0.008 A 
ATOM     11  C   UNL A   1      30.835  27.022  24.046  1.00  0.00     0.127 A 
ATOM     12  C   UNL A   1      30.487  29.347  22.577  1.00  0.00     0.005 A 
ATOM     13  C   UNL A   1      29.547  27.471  23.760  1.00  0.00     0.043 A 
ATOM     14  F   UNL A   1      30.970  25.902  24.770  1.00  0.00    -0.207 F 
ATOM     15  C   UNL A   1      29.357  28.650  23.031  1.00  0.00    -0.038 A 
BRANCH  15  16
ATOM     16  C   UNL A   1      27.963  29.168  22.756  1.00  0.00     0.111 C 
BRANCH  16  17
ATOM     17  C   UNL A   1      27.943  30.551  22.197  1.00  0.00     0.108 A 
ATOM     18  C   UNL A   1      27.961  31.811  22.762  1.00  0.00     0.046 A 
ATOM     19  O   UNL A   1      27.940  30.659  20.835  1.00  0.00    -0.469 OA
ATOM     20  C   UNL A   1      27.960  32.735  21.691  1.00  0.00     0.042 A 
ATOM     21  C   UNL A   1      27.949  31.985  20.540  1.00  0.00     0.195 A 
ENDBRANCH  16  17
ENDBRANCH  15  16
ENDBRANCH   7   9
ENDBRANCH   4   7
ENDBRANCH   2   3
ENDBRANCH   1   2
BRANCH   1  22
ATOM     22  C   UNL A   1      31.722  31.600  26.516  1.00  0.00     0.023 C 
BRANCH  22  23
ATOM     23  C   UNL A   1      32.756  32.389  27.313  1.00  0.00     0.116 C 
BRANCH  23  24
ATOM     24  N   UNL A   1      32.366  33.772  27.544  1.00  0.00    -0.352 N 
ATOM     25  C   UNL A   1      32.925  34.702  28.388  1.00  0.00     0.251 C 
ATOM     26  H   UNL A   1      31.593  34.086  27.023  1.00  0.00     0.163 HD
ATOM     27  O   UNL A   1      32.393  35.798  28.542  1.00  0.00    -0.269 OA
BRANCH  25  28
ATOM     28  C   UNL A   1      34.148  34.364  29.145  1.00  0.00     0.039 A 
ATOM     29  C   UNL A   1      34.017  33.850  30.438  1.00  0.00     0.014 A 
ATOM     30  C   UNL A   1      35.411  34.511  28.568  1.00  0.00     0.014 A 
ATOM     31  C   UNL A   1      35.148  33.388  31.115  1.00  0.00     0.010 A 
ATOM     32  C   UNL A   1      36.530  34.000  29.221  1.00  0.00     0.010 A 
ATOM     33  C   UNL A   1      36.404  33.410  30.488  1.00  0.00    -0.014 A 
BRANCH  33  34
ATOM     34  C   UNL A   1      37.585  32.753  31.103  1.00  0.00     0.031 A 
ATOM     35  C   UNL A   1      38.237  31.578  30.435  1.00  0.00     0.074 A 
ATOM     36  C   UNL A   1      37.998  33.153  32.323  1.00  0.00     0.049 A 
ATOM     37  N   UNL A   1      39.189  30.797  30.881  1.00  0.00    -0.248 NA
ATOM     38  C   UNL A   1      37.741  31.216  29.098  1.00  0.00     0.031 C 
ATOM     39  C   UNL A   1      37.411  34.249  33.096  1.00  0.00     0.029 A 
ATOM     40  N   UNL A   1      38.987  32.665  33.141  1.00  0.00    -0.354 N 
ATOM     41  C   UNL A   1      39.391  29.844  29.894  1.00  0.00     0.074 A 
ATOM     42  C   UNL A   1      38.444  30.123  28.834  1.00  0.00     0.031 C 
ATOM     43  C   UNL A   1      38.047  34.348  34.274  1.00  0.00     0.029 A 
ATOM     44  C   UNL A   1      39.056  33.297  34.358  1.00  0.00     0.049 A 
ATOM     45  H   UNL A   1      39.590  31.932  32.879  1.00  0.00     0.167 HD
ATOM     46  C   UNL A   1      40.294  28.835  29.872  1.00  0.00     0.037 A 
ATOM     47  C   UNL A   1      39.824  33.043  35.435  1.00  0.00     0.037 A 
ATOM     48  C   UNL A   1      41.258  28.585  30.910  1.00  0.00     0.049 A 
ATOM     49  C   UNL A   1      40.811  31.908  35.382  1.00  0.00     0.074 A 
ATOM     50  C   UNL A   1      42.286  27.656  30.924  1.00  0.00     0.029 A 
ATOM     51  N   UNL A   1      41.310  29.258  32.120  1.00  0.00    -0.354 N 
ATOM     52  N   UNL A   1      41.056  31.071  34.403  1.00  0.00    -0.248 NA
ATOM     53  C   UNL A   1      41.624  31.677  36.585  1.00  0.00     0.031 C 
ATOM     54  C   UNL A   1      42.926  27.732  32.164  1.00  0.00     0.029 A 
ATOM     55  C   UNL A   1      42.327  28.737  32.905  1.00  0.00     0.049 A 
ATOM     56  H   UNL A   1      40.713  29.996  32.383  1.00  0.00     0.167 HD
ATOM     57  C   UNL A   1      42.059  30.230  34.863  1.00  0.00     0.074 A 
ATOM     58  C   UNL A   1      42.393  30.668  36.201  1.00  0.00     0.031 C 
ATOM     59  C   UNL A   1      42.646  29.183  34.235  1.00  0.00     0.037 A 
BRANCH  46  60
ATOM     60  C   UNL A   1      40.298  27.919  28.686  1.00  0.00     0.064 A 
ATOM     61  C   UNL A   1      41.023  28.222  27.525  1.00  0.00     0.173 A 
ATOM     62  C   UNL A   1      39.642  26.679  28.748  1.00  0.00     0.173 A 
ATOM     63  F   UNL A   1      41.661  29.398  27.416  1.00  0.00    -0.203 F 
ATOM     64  C   UNL A   1      41.086  27.322  26.466  1.00  0.00     0.198 A 
ATOM     65  C   UNL A   1      39.725  25.772  27.696  1.00  0.00     0.198 A 
ATOM     66  F   UNL A   1      38.940  26.340  29.839  1.00  0.00    -0.203 F 
ATOM     67  F   UNL A   1      41.767  27.640  25.357  1.00  0.00    -0.200 F 
ATOM     68  C   UNL A   1      40.445  26.094  26.555  1.00  0.00     0.200 A 
ATOM     69  F   UNL A   1      39.116  24.582  27.789  1.00  0.00    -0.200 F 
ATOM     70  F   UNL A   1      40.523  25.221  25.542  1.00  0.00    -0.200 F 
ENDBRANCH  46  60
BRANCH  47  71
ATOM     71  C   UNL A   1      39.682  33.862  36.666  1.00  0.00     0.064 A 
ATOM     72  C   UNL A   1      38.859  33.443  37.721  1.00  0.00     0.173 A 
ATOM     73  C   UNL A   1      40.339  35.094  36.801  1.00  0.00     0.173 A 
ATOM     74  F   UNL A   1      38.190  32.284  37.628  1.00  0.00    -0.203 F 
ATOM     75  C   UNL A   1      38.679  34.237  38.852  1.00  0.00     0.198 A 
ATOM     76  C   UNL A   1      40.180  35.873  37.945  1.00  0.00     0.198 A 
ATOM     77  F   UNL A   1      41.138  35.540  35.821  1.00  0.00    -0.203 F 
ATOM     78  F   UNL A   1      37.843  33.837  39.821  1.00  0.00    -0.200 F 
ATOM     79  C   UNL A   1      39.342  35.449  38.964  1.00  0.00     0.200 A 
ATOM     80  F   UNL A   1      40.833  37.038  38.055  1.00  0.00    -0.200 F 
ATOM     81  F   UNL A   1      39.165  36.214  40.051  1.00  0.00    -0.200 F 
ENDBRANCH  47  71
BRANCH  59  82
ATOM     82  C   UNL A   1      43.717  28.447  34.983  1.00  0.00     0.064 A 
ATOM     83  C   UNL A   1      45.052  28.876  34.958  1.00  0.00     0.173 A 
ATOM     84  C   UNL A   1      43.399  27.330  35.770  1.00  0.00     0.173 A 
ATOM     85  F   UNL A   1      45.408  29.929  34.207  1.00  0.00    -0.203 F 
ATOM     86  C   UNL A   1      46.033  28.202  35.680  1.00  0.00     0.198 A 
ATOM     87  C   UNL A   1      44.378  26.675  36.512  1.00  0.00     0.198 A 
ATOM     88  F   UNL A   1      42.136  26.882  35.831  1.00  0.00    -0.203 F 
ATOM     89  F   UNL A   1      47.309  28.606  35.610  1.00  0.00    -0.200 F 
ATOM     90  C   UNL A   1      45.694  27.109  36.462  1.00  0.00     0.200 A 
ATOM     91  F   UNL A   1      44.047  25.626  37.277  1.00  0.00    -0.200 F 
ATOM     92  F   UNL A   1      46.639  26.468  37.165  1.00  0.00    -0.200 F 
ENDBRANCH  59  82
ENDBRANCH  33  34
ENDBRANCH  25  28
ENDBRANCH  23  24
ENDBRANCH  22  23
ENDBRANCH   1  22
TORSDOF 14
ENDMDL
MODEL 2
REMARK VINA RESULT:     -12.6      4.260     10.992
REMARK SMILES C[C@@H](C(=O)NCCCCNC(=O)c1ccc(-c2c3nc(c(-c4c(F)c(F)c(F)c(F)c4F)c4ccc([nH]4)c(-c4c(F)c(F)c(F)c(F)c4F)c4nc(c(-c5c(F)c(F)c(F)c(F)c5F)c5ccc2[nH]5)C=C4)C=C3)cc1)c1ccc(Cc2ccco2)cc1F
REMARK SMILES IDX 7 1 6 2 5 3 3 4 4 5 2 7 1 8 76 9 77 10 87 11 78 12 86 13
REMARK SMILES IDX 88 14 79 15 80 16 81 17 82 18 85 19 83 20 84 21 8 22 9 23
REMARK SMILES IDX 10 24 11 25 12 27 13 28 14 29 75 30 15 31 74 32 16 33 17 34
REMARK SMILES IDX 18 35 68 36 19 37 73 38 67 39 69 40 20 41 72 42 66 43 65 44
REMARK SMILES IDX 21 46 53 47 33 48 52 49 34 50 37 51 51 52 70 53 35 54 36 55
REMARK SMILES IDX 50 57 71 58 38 59 22 60 23 61 31 62 24 63 25 64 29 65 32 66
REMARK SMILES IDX 26 67 27 68 30 69 28 70 54 71 55 72 63 73 56 74 57 75 61 76
REMARK SMILES IDX 64 77 58 78 59 79 62 80 60 81 39 82 40 83 48 84 41 85 42 86
REMARK SMILES IDX 46 87 49 88 43 89 44 90 47 91 45 92
REMARK H PARENT 5 6 10 26 69 45 37 56
REMARK Flexibility Score: inf
ROOT
ATOM      1  C   UNL A   1      37.037  33.771  30.135  1.00  0.00     0.023 C 
ENDROOT
BRANCH   1   2
ATOM      2  C   UNL A   1      36.489  34.104  31.525  1.00  0.00     0.116 C 
BRANCH   2   3
ATOM      3  N   UNL A   1      37.487  34.740  32.361  1.00  0.00    -0.356 N 
ATOM      4  C   UNL A   1      37.908  34.440  33.626  1.00  0.00     0.227 C 
ATOM      5  O   UNL A   1      38.834  35.122  34.067  1.00  0.00    -0.274 OA
ATOM      6  H   UNL A   1      37.935  35.515  31.950  1.00  0.00     0.163 HD
BRANCH   4   7
ATOM      7  C   UNL A   1      37.283  33.261  34.390  1.00  0.00     0.108 C 
ATOM      8  C   UNL A   1      37.274  33.460  35.909  1.00  0.00     0.023 C 
BRANCH   7   9
ATOM      9  C   UNL A   1      37.947  31.927  34.067  1.00  0.00    -0.000 A 
ATOM     10  C   UNL A   1      39.267  31.680  34.469  1.00  0.00     0.008 A 
ATOM     11  C   UNL A   1      37.287  30.942  33.322  1.00  0.00     0.127 A 
ATOM     12  C   UNL A   1      39.907  30.490  34.108  1.00  0.00     0.005 A 
ATOM     13  C   UNL A   1      37.924  29.759  32.951  1.00  0.00     0.043 A 
ATOM     14  F   UNL A   1      36.024  31.138  32.915  1.00  0.00    -0.207 F 
ATOM     15  C   UNL A   1      39.250  29.524  33.329  1.00  0.00    -0.038 A 
BRANCH  15  16
ATOM     16  C   UNL A   1      39.963  28.264  32.892  1.00  0.00     0.111 C 
BRANCH  16  17
ATOM     17  C   UNL A   1      41.241  28.021  33.623  1.00  0.00     0.108 A 
ATOM     18  C   UNL A   1      42.565  28.308  33.354  1.00  0.00     0.046 A 
ATOM     19  O   UNL A   1      41.140  27.416  34.843  1.00  0.00    -0.469 OA
ATOM     20  C   UNL A   1      43.311  27.847  34.464  1.00  0.00     0.042 A 
ATOM     21  C   UNL A   1      42.399  27.315  35.343  1.00  0.00     0.195 A 
ENDBRANCH  16  17
ENDBRANCH  15  16
ENDBRANCH   7   9
ENDBRANCH   4   7
ENDBRANCH   2   3
ENDBRANCH   1   2
BRANCH   1  22
ATOM     22  C   UNL A   1      35.983  33.363  29.104  1.00  0.00     0.023 C 
BRANCH  22  23
ATOM     23  C   UNL A   1      34.761  32.638  29.661  1.00  0.00     0.116 C 
BRANCH  23  24
ATOM     24  N   UNL A   1      34.025  31.897  28.648  1.00  0.00    -0.352 N 
ATOM     25  C   UNL A   1      34.420  30.803  27.914  1.00  0.00     0.251 C 
ATOM     26  H   UNL A   1      33.117  32.224  28.461  1.00  0.00     0.163 HD
ATOM     27  O   UNL A   1      33.706  30.370  27.014  1.00  0.00    -0.269 OA
BRANCH  25  28
ATOM     28  C   UNL A   1      35.729  30.173  28.184  1.00  0.00     0.039 A 
ATOM     29  C   UNL A   1      36.725  30.248  27.206  1.00  0.00     0.014 A 
ATOM     30  C   UNL A   1      35.987  29.553  29.409  1.00  0.00     0.014 A 
ATOM     31  C   UNL A   1      38.012  29.790  27.495  1.00  0.00     0.010 A 
ATOM     32  C   UNL A   1      37.283  29.147  29.715  1.00  0.00     0.010 A 
ATOM     33  C   UNL A   1      38.312  29.287  28.771  1.00  0.00    -0.014 A 
BRANCH  33  34
ATOM     34  C   UNL A   1      39.708  28.973  29.168  1.00  0.00     0.031 A 
ATOM     35  C   UNL A   1      40.542  29.990  29.891  1.00  0.00     0.074 A 
ATOM     36  C   UNL A   1      40.256  27.805  28.774  1.00  0.00     0.049 A 
ATOM     37  N   UNL A   1      41.813  29.946  30.200  1.00  0.00    -0.248 NA
ATOM     38  C   UNL A   1      39.866  31.230  30.302  1.00  0.00     0.031 C 
ATOM     39  C   UNL A   1      39.562  26.758  28.021  1.00  0.00     0.029 A 
ATOM     40  N   UNL A   1      41.529  27.314  28.925  1.00  0.00    -0.354 N 
ATOM     41  C   UNL A   1      42.093  31.155  30.821  1.00  0.00     0.074 A 
ATOM     42  C   UNL A   1      40.868  31.926  30.821  1.00  0.00     0.031 C 
ATOM     43  C   UNL A   1      40.417  25.753  27.772  1.00  0.00     0.029 A 
ATOM     44  C   UNL A   1      41.728  26.102  28.310  1.00  0.00     0.049 A 
ATOM     45  H   UNL A   1      42.233  27.786  29.426  1.00  0.00     0.167 HD
ATOM     46  C   UNL A   1      43.266  31.575  31.353  1.00  0.00     0.037 A 
ATOM     47  C   UNL A   1      42.847  25.365  28.169  1.00  0.00     0.037 A 
ATOM     48  C   UNL A   1      44.471  30.790  31.384  1.00  0.00     0.049 A 
ATOM     49  C   UNL A   1      44.136  25.865  28.762  1.00  0.00     0.074 A 
ATOM     50  C   UNL A   1      45.675  31.087  32.000  1.00  0.00     0.029 A 
ATOM     51  N   UNL A   1      44.629  29.559  30.769  1.00  0.00    -0.354 N 
ATOM     52  N   UNL A   1      44.365  26.970  29.430  1.00  0.00    -0.248 NA
ATOM     53  C   UNL A   1      45.324  25.019  28.579  1.00  0.00     0.031 C 
ATOM     54  C   UNL A   1      46.579  30.059  31.713  1.00  0.00     0.029 A 
ATOM     55  C   UNL A   1      45.925  29.101  30.956  1.00  0.00     0.049 A 
ATOM     56  H   UNL A   1      43.927  29.080  30.272  1.00  0.00     0.167 HD
ATOM     57  C   UNL A   1      45.712  26.943  29.759  1.00  0.00     0.074 A 
ATOM     58  C   UNL A   1      46.248  25.704  29.238  1.00  0.00     0.031 C 
ATOM     59  C   UNL A   1      46.443  27.867  30.429  1.00  0.00     0.037 A 
BRANCH  46  60
ATOM     60  C   UNL A   1      43.315  32.946  31.955  1.00  0.00     0.064 A 
ATOM     61  C   UNL A   1      43.564  34.083  31.174  1.00  0.00     0.173 A 
ATOM     62  C   UNL A   1      43.019  33.133  33.314  1.00  0.00     0.173 A 
ATOM     63  F   UNL A   1      43.859  33.955  29.871  1.00  0.00    -0.203 F 
ATOM     64  C   UNL A   1      43.523  35.357  31.731  1.00  0.00     0.198 A 
ATOM     65  C   UNL A   1      42.956  34.410  33.864  1.00  0.00     0.198 A 
ATOM     66  F   UNL A   1      42.767  32.077  34.103  1.00  0.00    -0.203 F 
ATOM     67  F   UNL A   1      43.784  36.429  30.971  1.00  0.00    -0.200 F 
ATOM     68  C   UNL A   1      43.209  35.521  33.073  1.00  0.00     0.200 A 
ATOM     69  F   UNL A   1      42.641  34.567  35.158  1.00  0.00    -0.200 F 
ATOM     70  F   UNL A   1      43.151  36.750  33.604  1.00  0.00    -0.200 F 
ENDBRANCH  46  60
BRANCH  47  71
ATOM     71  C   UNL A   1      42.809  24.084  27.417  1.00  0.00     0.064 A 
ATOM     72  C   UNL A   1      42.471  22.882  28.054  1.00  0.00     0.173 A 
ATOM     73  C   UNL A   1      43.141  24.030  26.055  1.00  0.00     0.173 A 
ATOM     74  F   UNL A   1      42.170  22.880  29.361  1.00  0.00    -0.203 F 
ATOM     75  C   UNL A   1      42.490  21.672  27.364  1.00  0.00     0.198 A 
ATOM     76  C   UNL A   1      43.133  22.823  25.359  1.00  0.00     0.198 A 
ATOM     77  F   UNL A   1      43.472  25.152  25.398  1.00  0.00    -0.203 F 
ATOM     78  F   UNL A   1      42.215  20.531  28.011  1.00  0.00    -0.200 F 
ATOM     79  C   UNL A   1      42.817  21.644  26.017  1.00  0.00     0.200 A 
ATOM     80  F   UNL A   1      43.438  22.802  24.055  1.00  0.00    -0.200 F 
ATOM     81  F   UNL A   1      42.840  20.478  25.355  1.00  0.00    -0.200 F 
ENDBRANCH  47  71
BRANCH  59  82
ATOM     82  C   UNL A   1      47.896  27.568  30.645  1.00  0.00     0.064 A 
ATOM     83  C   UNL A   1      48.334  26.842  31.763  1.00  0.00     0.173 A 
ATOM     84  C   UNL A   1      48.855  27.969  29.703  1.00  0.00     0.173 A 
ATOM     85  F   UNL A   1      47.457  26.453  32.700  1.00  0.00    -0.203 F 
ATOM     86  C   UNL A   1      49.682  26.545  31.938  1.00  0.00     0.198 A 
ATOM     87  C   UNL A   1      50.199  27.646  29.869  1.00  0.00     0.198 A 
ATOM     88  F   UNL A   1      48.487  28.661  28.614  1.00  0.00    -0.203 F 
ATOM     89  F   UNL A   1      50.083  25.886  33.034  1.00  0.00    -0.200 F 
ATOM     90  C   UNL A   1      50.612  26.939  30.988  1.00  0.00     0.200 A 
ATOM     91  F   UNL A   1      51.095  28.017  28.943  1.00  0.00    -0.200 F 
ATOM     92  F   UNL A   1      51.908  26.642  31.154  1.00  0.00    -0.200 F 
ENDBRANCH  59  82
ENDBRANCH  33  34
ENDBRANCH  25  28
ENDBRANCH  23  24
ENDBRANCH  22  23
ENDBRANCH   1  22
TORSDOF 14
ENDMDL
MODEL 3
REMARK VINA RESULT:     -12.4      2.070      3.939
REMARK SMILES C[C@@H](C(=O)NCCCCNC(=O)c1ccc(-c2c3nc(c(-c4c(F)c(F)c(F)c(F)c4F)c4ccc([nH]4)c(-c4c(F)c(F)c(F)c(F)c4F)c4nc(c(-c5c(F)c(F)c(F)c(F)c5F)c5ccc2[nH]5)C=C4)C=C3)cc1)c1ccc(Cc2ccco2)cc1F
REMARK SMILES IDX 7 1 6 2 5 3 3 4 4 5 2 7 1 8 76 9 77 10 87 11 78 12 86 13
REMARK SMILES IDX 88 14 79 15 80 16 81 17 82 18 85 19 83 20 84 21 8 22 9 23
REMARK SMILES IDX 10 24 11 25 12 27 13 28 14 29 75 30 15 31 74 32 16 33 17 34
REMARK SMILES IDX 18 35 68 36 19 37 73 38 67 39 69 40 20 41 72 42 66 43 65 44
REMARK SMILES IDX 21 46 53 47 33 48 52 49 34 50 37 51 51 52 70 53 35 54 36 55
REMARK SMILES IDX 50 57 71 58 38 59 22 60 23 61 31 62 24 63 25 64 29 65 32 66
REMARK SMILES IDX 26 67 27 68 30 69 28 70 54 71 55 72 63 73 56 74 57 75 61 76
REMARK SMILES IDX 64 77 58 78 59 79 62 80 60 81 39 82 40 83 48 84 41 85 42 86
REMARK SMILES IDX 46 87 49 88 43 89 44 90 47 91 45 92
REMARK H PARENT 5 6 10 26 69 45 37 56
REMARK Flexibility Score: inf
ROOT
ATOM      1  C   UNL A   1      32.064  30.155  26.738  1.00  0.00     0.023 C 
ENDROOT
BRANCH   1   2
ATOM      2  C   UNL A   1      32.420  29.647  25.339  1.00  0.00     0.116 C 
BRANCH   2   3
ATOM      3  N   UNL A   1      31.560  28.558  24.925  1.00  0.00    -0.356 N 
ATOM      4  C   UNL A   1      31.838  27.431  24.203  1.00  0.00     0.227 C 
ATOM      5  O   UNL A   1      30.910  26.634  24.059  1.00  0.00    -0.274 OA
ATOM      6  H   UNL A   1      30.621  28.644  25.210  1.00  0.00     0.163 HD
BRANCH   4   7
ATOM      7  C   UNL A   1      33.264  27.177  23.686  1.00  0.00     0.108 C 
ATOM      8  C   UNL A   1      33.380  27.273  22.161  1.00  0.00     0.023 C 
BRANCH   7   9
ATOM      9  C   UNL A   1      33.831  25.839  24.144  1.00  0.00    -0.000 A 
ATOM     10  C   UNL A   1      34.092  24.825  23.212  1.00  0.00     0.008 A 
ATOM     11  C   UNL A   1      34.056  25.564  25.499  1.00  0.00     0.127 A 
ATOM     12  C   UNL A   1      34.538  23.569  23.636  1.00  0.00     0.005 A 
ATOM     13  C   UNL A   1      34.490  24.311  25.927  1.00  0.00     0.043 A 
ATOM     14  F   UNL A   1      33.818  26.504  26.425  1.00  0.00    -0.207 F 
ATOM     15  C   UNL A   1      34.725  23.292  24.999  1.00  0.00    -0.038 A 
BRANCH  15  16
ATOM     16  C   UNL A   1      35.152  21.916  25.458  1.00  0.00     0.111 C 
BRANCH  16  17
ATOM     17  C   UNL A   1      34.192  20.838  25.081  1.00  0.00     0.108 A 
ATOM     18  C   UNL A   1      32.818  20.788  24.942  1.00  0.00     0.046 A 
ATOM     19  O   UNL A   1      34.731  19.625  24.762  1.00  0.00    -0.469 OA
ATOM     20  C   UNL A   1      32.503  19.474  24.523  1.00  0.00     0.042 A 
ATOM     21  C   UNL A   1      33.700  18.806  24.427  1.00  0.00     0.195 A 
ENDBRANCH  16  17
ENDBRANCH  15  16
ENDBRANCH   7   9
ENDBRANCH   4   7
ENDBRANCH   2   3
ENDBRANCH   1   2
BRANCH   1  22
ATOM     22  C   UNL A   1      31.741  31.649  26.822  1.00  0.00     0.023 C 
BRANCH  22  23
ATOM     23  C   UNL A   1      32.869  32.539  27.336  1.00  0.00     0.116 C 
BRANCH  23  24
ATOM     24  N   UNL A   1      32.438  33.898  27.623  1.00  0.00    -0.352 N 
ATOM     25  C   UNL A   1      32.960  34.805  28.516  1.00  0.00     0.251 C 
ATOM     26  H   UNL A   1      31.663  34.215  27.106  1.00  0.00     0.163 HD
ATOM     27  O   UNL A   1      32.396  35.877  28.712  1.00  0.00    -0.269 OA
BRANCH  25  28
ATOM     28  C   UNL A   1      34.182  34.465  29.274  1.00  0.00     0.039 A 
ATOM     29  C   UNL A   1      34.049  33.922  30.555  1.00  0.00     0.014 A 
ATOM     30  C   UNL A   1      35.447  34.640  28.709  1.00  0.00     0.014 A 
ATOM     31  C   UNL A   1      35.180  33.460  31.230  1.00  0.00     0.010 A 
ATOM     32  C   UNL A   1      36.568  34.129  29.359  1.00  0.00     0.010 A 
ATOM     33  C   UNL A   1      36.440  33.510  30.613  1.00  0.00    -0.014 A 
BRANCH  33  34
ATOM     34  C   UNL A   1      37.626  32.856  31.221  1.00  0.00     0.031 A 
ATOM     35  C   UNL A   1      38.244  31.648  30.578  1.00  0.00     0.074 A 
ATOM     36  C   UNL A   1      38.073  33.289  32.417  1.00  0.00     0.049 A 
ATOM     37  N   UNL A   1      39.194  30.868  31.028  1.00  0.00    -0.248 NA
ATOM     38  C   UNL A   1      37.711  31.251  29.266  1.00  0.00     0.031 C 
ATOM     39  C   UNL A   1      37.521  34.419  33.167  1.00  0.00     0.029 A 
ATOM     40  N   UNL A   1      39.074  32.812  33.228  1.00  0.00    -0.354 N 
ATOM     41  C   UNL A   1      39.357  29.879  30.069  1.00  0.00     0.074 A 
ATOM     42  C   UNL A   1      38.391  30.139  29.023  1.00  0.00     0.031 C 
ATOM     43  C   UNL A   1      38.186  34.547  34.327  1.00  0.00     0.029 A 
ATOM     44  C   UNL A   1      39.181  33.483  34.423  1.00  0.00     0.049 A 
ATOM     45  H   UNL A   1      39.659  32.062  32.977  1.00  0.00     0.167 HD
ATOM     46  C   UNL A   1      40.245  28.856  30.060  1.00  0.00     0.037 A 
ATOM     47  C   UNL A   1      39.970  33.252  35.489  1.00  0.00     0.037 A 
ATOM     48  C   UNL A   1      41.229  28.624  31.083  1.00  0.00     0.049 A 
ATOM     49  C   UNL A   1      40.938  32.100  35.451  1.00  0.00     0.074 A 
ATOM     50  C   UNL A   1      42.242  27.681  31.105  1.00  0.00     0.029 A 
ATOM     51  N   UNL A   1      41.320  29.336  32.268  1.00  0.00    -0.354 N 
ATOM     52  N   UNL A   1      41.147  31.228  34.495  1.00  0.00    -0.248 NA
ATOM     53  C   UNL A   1      41.776  31.896  36.642  1.00  0.00     0.031 C 
ATOM     54  C   UNL A   1      42.913  27.787  32.326  1.00  0.00     0.029 A 
ATOM     55  C   UNL A   1      42.347  28.826  33.047  1.00  0.00     0.049 A 
ATOM     56  H   UNL A   1      40.741  30.092  32.520  1.00  0.00     0.167 HD
ATOM     57  C   UNL A   1      42.148  30.386  34.960  1.00  0.00     0.074 A 
ATOM     58  C   UNL A   1      42.520  30.863  36.275  1.00  0.00     0.031 C 
ATOM     59  C   UNL A   1      42.704  29.310  34.354  1.00  0.00     0.037 A 
BRANCH  46  60
ATOM     60  C   UNL A   1      40.207  27.901  28.905  1.00  0.00     0.064 A 
ATOM     61  C   UNL A   1      40.929  28.142  27.729  1.00  0.00     0.173 A 
ATOM     62  C   UNL A   1      39.512  26.687  29.015  1.00  0.00     0.173 A 
ATOM     63  F   UNL A   1      41.604  29.292  27.574  1.00  0.00    -0.203 F 
ATOM     64  C   UNL A   1      40.952  27.205  26.699  1.00  0.00     0.198 A 
ATOM     65  C   UNL A   1      39.554  25.743  27.993  1.00  0.00     0.198 A 
ATOM     66  F   UNL A   1      38.810  26.407  30.123  1.00  0.00    -0.203 F 
ATOM     67  F   UNL A   1      41.632  27.465  25.574  1.00  0.00    -0.200 F 
ATOM     68  C   UNL A   1      40.273  26.003  26.835  1.00  0.00     0.200 A 
ATOM     69  F   UNL A   1      38.908  24.576  28.131  1.00  0.00    -0.200 F 
ATOM     70  F   UNL A   1      40.312  25.095  25.851  1.00  0.00    -0.200 F 
ENDBRANCH  46  60
BRANCH  47  71
ATOM     71  C   UNL A   1      39.869  34.113  36.695  1.00  0.00     0.064 A 
ATOM     72  C   UNL A   1      40.646  35.274  36.821  1.00  0.00     0.173 A 
ATOM     73  C   UNL A   1      39.021  33.777  37.760  1.00  0.00     0.173 A 
ATOM     74  F   UNL A   1      41.490  35.622  35.839  1.00  0.00    -0.203 F 
ATOM     75  C   UNL A   1      40.595  36.052  37.975  1.00  0.00     0.198 A 
ATOM     76  C   UNL A   1      38.950  34.572  38.903  1.00  0.00     0.198 A 
ATOM     77  F   UNL A   1      38.256  32.678  37.690  1.00  0.00    -0.203 F 
ATOM     78  F   UNL A   1      41.388  37.126  38.090  1.00  0.00    -0.200 F 
ATOM     79  C   UNL A   1      39.745  35.703  39.013  1.00  0.00     0.200 A 
ATOM     80  F   UNL A   1      38.118  34.238  39.898  1.00  0.00    -0.200 F 
ATOM     81  F   UNL A   1      39.700  36.450  40.125  1.00  0.00    -0.200 F 
ENDBRANCH  47  71
BRANCH  59  82
ATOM     82  C   UNL A   1      43.780  28.581  35.101  1.00  0.00     0.064 A 
ATOM     83  C   UNL A   1      45.124  28.972  35.010  1.00  0.00     0.173 A 
ATOM     84  C   UNL A   1      43.461  27.514  35.953  1.00  0.00     0.173 A 
ATOM     85  F   UNL A   1      45.481  29.976  34.195  1.00  0.00    -0.203 F 
ATOM     86  C   UNL A   1      46.112  28.307  35.731  1.00  0.00     0.198 A 
ATOM     87  C   UNL A   1      44.448  26.869  36.693  1.00  0.00     0.198 A 
ATOM     88  F   UNL A   1      42.189  27.105  36.079  1.00  0.00    -0.203 F 
ATOM     89  F   UNL A   1      47.395  28.672  35.598  1.00  0.00    -0.200 F 
ATOM     90  C   UNL A   1      45.772  27.263  36.578  1.00  0.00     0.200 A 
ATOM     91  F   UNL A   1      44.117  25.868  37.520  1.00  0.00    -0.200 F 
ATOM     92  F   UNL A   1      46.724  26.631  37.279  1.00  0.00    -0.200 F 
ENDBRANCH  59  82
ENDBRANCH  33  34
ENDBRANCH  25  28
ENDBRANCH  23  24
ENDBRANCH  22  23
ENDBRANCH   1  22
TORSDOF 14
ENDMDL
