MODEL 1
REMARK VINA RESULT:     -13.3      0.000      0.000
REMARK SMILES Cc1ccc(/C=C2/SC(=O)N(CC(=O)NCCCCNC(=O)c3ccc(-c4c5nc(c(-c6c(F)c(F)c(F)c(F)c6F)c6ccc([nH]6)c(-c6c(F)c(F)c(F)c(F)c6F)c6nc(c(-c7c(F)c(F)c(F)c(F)c7F)c7ccc4[nH]7)C=C6)C=C5)cc3)C2=O)cc1
REMARK SMILES IDX 17 1 16 2 15 3 13 4 14 5 12 7 11 8 6 9 7 10 8 11 86 12 9 13
REMARK SMILES IDX 87 14 10 15 5 16 1 17 2 18 3 19 89 20 4 21 88 22 18 23 19 24
REMARK SMILES IDX 20 25 21 26 22 28 23 29 24 30 85 31 25 32 84 33 26 34 27 35
REMARK SMILES IDX 28 36 78 37 29 38 83 39 77 40 79 41 30 42 82 43 76 44 75 45
REMARK SMILES IDX 31 47 63 48 43 49 62 50 44 51 47 52 61 53 80 54 45 55 46 56
REMARK SMILES IDX 60 58 81 59 48 60 32 61 33 62 41 63 34 64 35 65 39 66 42 67
REMARK SMILES IDX 36 68 37 69 40 70 38 71 64 72 65 73 73 74 66 75 67 76 71 77
REMARK SMILES IDX 74 78 68 79 69 80 72 81 70 82 49 83 50 84 58 85 51 86 52 87
REMARK SMILES IDX 56 88 59 89 53 90 54 91 57 92 55 93
REMARK H PARENT 15 6 20 27 79 46 47 57
REMARK Flexibility Score: inf
ROOT
ATOM      1  C   UNL A   1      37.468  20.855  24.646  1.00  0.00     0.023 C 
ENDROOT
BRANCH   1   2
ATOM      2  C   UNL A   1      36.011  20.628  25.060  1.00  0.00     0.116 C 
BRANCH   2   3
ATOM      3  N   UNL A   1      35.626  21.401  26.224  1.00  0.00    -0.355 N 
ATOM      4  C   UNL A   1      35.053  22.637  26.306  1.00  0.00     0.240 C 
ATOM      5  O   UNL A   1      34.564  22.954  27.394  1.00  0.00    -0.273 OA
ATOM      6  H   UNL A   1      35.806  20.968  27.090  1.00  0.00     0.163 HD
BRANCH   4   7
ATOM      7  C   UNL A   1      34.887  23.532  25.074  1.00  0.00     0.229 C 
BRANCH   7   8
ATOM      8  N   UNL A   1      33.502  23.889  24.828  1.00  0.00    -0.259 N 
ATOM      9  C   UNL A   1      30.860  26.386  24.913  1.00  0.00     0.029 C 
ATOM     10  C   UNL A   1      31.603  25.273  24.831  1.00  0.00     0.083 C 
ATOM     11  S   UNL A   1      31.030  23.797  24.140  1.00  0.00    -0.022 SA
ATOM     12  C   UNL A   1      33.020  25.097  25.271  1.00  0.00     0.268 C 
ATOM     13  C   UNL A   1      32.597  23.023  24.295  1.00  0.00     0.294 C 
ATOM     14  O   UNL A   1      33.667  25.898  25.925  1.00  0.00    -0.268 OA
ATOM     15  O   UNL A   1      32.797  21.865  23.946  1.00  0.00    -0.261 OA
BRANCH   9  16
ATOM     16  C   UNL A   1      31.344  27.634  25.507  1.00  0.00    -0.024 A 
ATOM     17  C   UNL A   1      33.305  30.971  27.389  1.00  0.00     0.044 C 
ATOM     18  C   UNL A   1      32.568  29.849  26.721  1.00  0.00    -0.051 A 
ATOM     19  C   UNL A   1      31.892  28.899  27.496  1.00  0.00     0.004 A 
ATOM     20  C   UNL A   1      32.576  29.712  25.328  1.00  0.00     0.004 A 
ATOM     21  C   UNL A   1      31.283  27.797  26.894  1.00  0.00     0.008 A 
ATOM     22  C   UNL A   1      31.959  28.616  24.722  1.00  0.00     0.008 A 
ENDBRANCH   9  16
ENDBRANCH   7   8
ENDBRANCH   4   7
ENDBRANCH   2   3
ENDBRANCH   1   2
BRANCH   1  23
ATOM     23  C   UNL A   1      38.434  21.156  25.790  1.00  0.00     0.023 C 
BRANCH  23  24
ATOM     24  C   UNL A   1      38.938  22.589  25.845  1.00  0.00     0.116 C 
BRANCH  24  25
ATOM     25  N   UNL A   1      40.257  22.761  26.445  1.00  0.00    -0.352 N 
ATOM     26  C   UNL A   1      40.915  23.926  26.814  1.00  0.00     0.251 C 
ATOM     27  H   UNL A   1      40.752  21.927  26.613  1.00  0.00     0.163 HD
ATOM     28  O   UNL A   1      42.078  23.884  27.198  1.00  0.00    -0.269 OA
BRANCH  26  29
ATOM     29  C   UNL A   1      40.150  25.195  26.933  1.00  0.00     0.039 A 
ATOM     30  C   UNL A   1      40.650  26.284  26.206  1.00  0.00     0.014 A 
ATOM     31  C   UNL A   1      39.326  25.400  28.028  1.00  0.00     0.014 A 
ATOM     32  C   UNL A   1      40.645  27.540  26.794  1.00  0.00     0.010 A 
ATOM     33  C   UNL A   1      39.467  26.590  28.694  1.00  0.00     0.010 A 
ATOM     34  C   UNL A   1      40.200  27.624  28.105  1.00  0.00    -0.014 A 
BRANCH  34  35
ATOM     35  C   UNL A   1      40.408  28.766  28.969  1.00  0.00     0.031 A 
ATOM     36  C   UNL A   1      39.345  29.775  29.002  1.00  0.00     0.074 A 
ATOM     37  C   UNL A   1      41.437  28.730  29.842  1.00  0.00     0.049 A 
ATOM     38  N   UNL A   1      39.464  30.944  29.516  1.00  0.00    -0.248 NA
ATOM     39  C   UNL A   1      38.039  29.544  28.389  1.00  0.00     0.031 C 
ATOM     40  C   UNL A   1      41.649  29.550  31.030  1.00  0.00     0.029 A 
ATOM     41  N   UNL A   1      42.641  28.019  29.701  1.00  0.00    -0.354 N 
ATOM     42  C   UNL A   1      38.201  31.489  29.590  1.00  0.00     0.074 A 
ATOM     43  C   UNL A   1      37.383  30.643  28.761  1.00  0.00     0.031 C 
ATOM     44  C   UNL A   1      42.963  29.559  31.318  1.00  0.00     0.029 A 
ATOM     45  C   UNL A   1      43.640  28.878  30.226  1.00  0.00     0.049 A 
ATOM     46  H   UNL A   1      42.764  27.119  29.321  1.00  0.00     0.167 HD
ATOM     47  C   UNL A   1      38.003  32.501  30.481  1.00  0.00     0.037 A 
ATOM     48  C   UNL A   1      44.540  29.458  29.373  1.00  0.00     0.037 A 
ATOM     49  C   UNL A   1      39.293  32.933  31.030  1.00  0.00     0.049 A 
ATOM     50  C   UNL A   1      44.388  30.965  29.266  1.00  0.00     0.074 A 
ATOM     51  C   UNL A   1      39.996  32.643  32.187  1.00  0.00     0.029 A 
ATOM     52  N   UNL A   1      40.211  33.495  30.160  1.00  0.00    -0.354 N 
ATOM     53  N   UNL A   1      43.391  31.637  29.774  1.00  0.00    -0.248 NA
ATOM     54  C   UNL A   1      45.305  31.819  28.513  1.00  0.00     0.031 C 
ATOM     55  C   UNL A   1      41.369  32.965  31.957  1.00  0.00     0.029 A 
ATOM     56  C   UNL A   1      41.492  33.476  30.676  1.00  0.00     0.049 A 
ATOM     57  H   UNL A   1      39.978  33.865  29.278  1.00  0.00     0.167 HD
ATOM     58  C   UNL A   1      43.500  32.955  29.433  1.00  0.00     0.074 A 
ATOM     59  C   UNL A   1      44.701  33.017  28.617  1.00  0.00     0.031 C 
ATOM     60  C   UNL A   1      42.597  33.901  29.829  1.00  0.00     0.037 A 
BRANCH  47  61
ATOM     61  C   UNL A   1      36.671  32.960  31.039  1.00  0.00     0.064 A 
ATOM     62  C   UNL A   1      35.834  33.778  30.246  1.00  0.00     0.173 A 
ATOM     63  C   UNL A   1      36.178  32.719  32.338  1.00  0.00     0.173 A 
ATOM     64  F   UNL A   1      36.129  34.047  28.967  1.00  0.00    -0.203 F 
ATOM     65  C   UNL A   1      34.660  34.360  30.734  1.00  0.00     0.198 A 
ATOM     66  C   UNL A   1      35.008  33.309  32.830  1.00  0.00     0.198 A 
ATOM     67  F   UNL A   1      36.772  31.887  33.191  1.00  0.00    -0.203 F 
ATOM     68  F   UNL A   1      33.929  35.148  29.935  1.00  0.00    -0.200 F 
ATOM     69  C   UNL A   1      34.255  34.140  32.033  1.00  0.00     0.200 A 
ATOM     70  F   UNL A   1      34.625  33.062  34.091  1.00  0.00    -0.200 F 
ATOM     71  F   UNL A   1      33.140  34.708  32.508  1.00  0.00    -0.200 F 
ENDBRANCH  47  61
BRANCH  48  72
ATOM     72  C   UNL A   1      44.890  28.540  28.245  1.00  0.00     0.064 A 
ATOM     73  C   UNL A   1      45.490  27.305  28.576  1.00  0.00     0.173 A 
ATOM     74  C   UNL A   1      44.246  28.632  27.007  1.00  0.00     0.173 A 
ATOM     75  F   UNL A   1      46.139  27.166  29.743  1.00  0.00    -0.203 F 
ATOM     76  C   UNL A   1      45.272  26.167  27.802  1.00  0.00     0.198 A 
ATOM     77  C   UNL A   1      44.074  27.497  26.210  1.00  0.00     0.198 A 
ATOM     78  F   UNL A   1      43.662  29.776  26.625  1.00  0.00    -0.203 F 
ATOM     79  F   UNL A   1      45.686  24.970  28.244  1.00  0.00    -0.200 F 
ATOM     80  C   UNL A   1      44.534  26.259  26.637  1.00  0.00     0.200 A 
ATOM     81  F   UNL A   1      43.356  27.582  25.081  1.00  0.00    -0.200 F 
ATOM     82  F   UNL A   1      44.221  25.151  25.951  1.00  0.00    -0.200 F 
ENDBRANCH  48  72
BRANCH  60  83
ATOM     83  C   UNL A   1      42.715  35.341  29.431  1.00  0.00     0.064 A 
ATOM     84  C   UNL A   1      42.117  35.838  28.264  1.00  0.00     0.173 A 
ATOM     85  C   UNL A   1      43.513  36.249  30.158  1.00  0.00     0.173 A 
ATOM     86  F   UNL A   1      41.400  35.033  27.465  1.00  0.00    -0.203 F 
ATOM     87  C   UNL A   1      42.252  37.175  27.888  1.00  0.00     0.198 A 
ATOM     88  C   UNL A   1      43.706  37.562  29.741  1.00  0.00     0.198 A 
ATOM     89  F   UNL A   1      44.103  35.901  31.311  1.00  0.00    -0.203 F 
ATOM     90  F   UNL A   1      41.596  37.629  26.812  1.00  0.00    -0.200 F 
ATOM     91  C   UNL A   1      43.055  38.033  28.619  1.00  0.00     0.200 A 
ATOM     92  F   UNL A   1      44.514  38.370  30.442  1.00  0.00    -0.200 F 
ATOM     93  F   UNL A   1      43.195  39.312  28.247  1.00  0.00    -0.200 F 
ENDBRANCH  60  83
ENDBRANCH  34  35
ENDBRANCH  26  29
ENDBRANCH  24  25
ENDBRANCH  23  24
ENDBRANCH   1  23
TORSDOF 13
ENDMDL
MODEL 2
REMARK VINA RESULT:     -13.2      3.536     10.106
REMARK SMILES Cc1ccc(/C=C2/SC(=O)N(CC(=O)NCCCCNC(=O)c3ccc(-c4c5nc(c(-c6c(F)c(F)c(F)c(F)c6F)c6ccc([nH]6)c(-c6c(F)c(F)c(F)c(F)c6F)c6nc(c(-c7c(F)c(F)c(F)c(F)c7F)c7ccc4[nH]7)C=C6)C=C5)cc3)C2=O)cc1
REMARK SMILES IDX 17 1 16 2 15 3 13 4 14 5 12 7 11 8 6 9 7 10 8 11 86 12 9 13
REMARK SMILES IDX 87 14 10 15 5 16 1 17 2 18 3 19 89 20 4 21 88 22 18 23 19 24
REMARK SMILES IDX 20 25 21 26 22 28 23 29 24 30 85 31 25 32 84 33 26 34 27 35
REMARK SMILES IDX 28 36 78 37 29 38 83 39 77 40 79 41 30 42 82 43 76 44 75 45
REMARK SMILES IDX 31 47 63 48 43 49 62 50 44 51 47 52 61 53 80 54 45 55 46 56
REMARK SMILES IDX 60 58 81 59 48 60 32 61 33 62 41 63 34 64 35 65 39 66 42 67
REMARK SMILES IDX 36 68 37 69 40 70 38 71 64 72 65 73 73 74 66 75 67 76 71 77
REMARK SMILES IDX 74 78 68 79 69 80 72 81 70 82 49 83 50 84 58 85 51 86 52 87
REMARK SMILES IDX 56 88 59 89 53 90 54 91 57 92 55 93
REMARK H PARENT 15 6 20 27 79 46 47 57
REMARK Flexibility Score: inf
ROOT
ATOM      1  C   UNL A   1      31.995  30.406  26.928  1.00  0.00     0.023 C 
ENDROOT
BRANCH   1   2
ATOM      2  C   UNL A   1      31.597  30.113  25.479  1.00  0.00     0.116 C 
BRANCH   2   3
ATOM      3  N   UNL A   1      32.718  29.703  24.656  1.00  0.00    -0.355 N 
ATOM      4  C   UNL A   1      33.291  28.473  24.503  1.00  0.00     0.240 C 
ATOM      5  O   UNL A   1      34.043  28.325  23.536  1.00  0.00    -0.273 OA
ATOM      6  H   UNL A   1      33.130  30.423  24.126  1.00  0.00     0.163 HD
BRANCH   4   7
ATOM      7  C   UNL A   1      32.907  27.288  25.395  1.00  0.00     0.229 C 
BRANCH   7   8
ATOM      8  N   UNL A   1      32.538  26.112  24.629  1.00  0.00    -0.259 N 
ATOM      9  C   UNL A   1      33.308  22.728  23.544  1.00  0.00     0.029 C 
ATOM     10  C   UNL A   1      32.811  23.959  23.727  1.00  0.00     0.083 C 
ATOM     11  S   UNL A   1      31.271  24.461  23.126  1.00  0.00    -0.022 SA
ATOM     12  C   UNL A   1      33.441  25.086  24.478  1.00  0.00     0.268 C 
ATOM     13  C   UNL A   1      31.379  26.022  23.922  1.00  0.00     0.294 C 
ATOM     14  O   UNL A   1      34.584  25.108  24.902  1.00  0.00    -0.268 OA
ATOM     15  O   UNL A   1      30.499  26.870  23.830  1.00  0.00    -0.261 OA
BRANCH   9  16
ATOM     16  C   UNL A   1      34.617  22.306  24.046  1.00  0.00    -0.024 A 
ATOM     17  C   UNL A   1      38.518  21.671  25.750  1.00  0.00     0.044 C 
ATOM     18  C   UNL A   1      37.159  21.826  25.135  1.00  0.00    -0.051 A 
ATOM     19  C   UNL A   1      37.028  22.408  23.869  1.00  0.00     0.004 A 
ATOM     20  C   UNL A   1      36.008  21.433  25.827  1.00  0.00     0.004 A 
ATOM     21  C   UNL A   1      35.765  22.648  23.326  1.00  0.00     0.008 A 
ATOM     22  C   UNL A   1      34.743  21.662  25.282  1.00  0.00     0.008 A 
ENDBRANCH   9  16
ENDBRANCH   7   8
ENDBRANCH   4   7
ENDBRANCH   2   3
ENDBRANCH   1   2
BRANCH   1  23
ATOM     23  C   UNL A   1      33.275  31.220  27.104  1.00  0.00     0.023 C 
BRANCH  23  24
ATOM     24  C   UNL A   1      34.365  30.534  27.911  1.00  0.00     0.116 C 
BRANCH  24  25
ATOM     25  N   UNL A   1      35.382  31.424  28.463  1.00  0.00    -0.352 N 
ATOM     26  C   UNL A   1      36.623  31.120  29.005  1.00  0.00     0.251 C 
ATOM     27  H   UNL A   1      35.153  32.381  28.449  1.00  0.00     0.163 HD
ATOM     28  O   UNL A   1      37.299  31.996  29.533  1.00  0.00    -0.269 OA
BRANCH  26  29
ATOM     29  C   UNL A   1      37.219  29.779  28.768  1.00  0.00     0.039 A 
ATOM     30  C   UNL A   1      37.339  28.953  29.895  1.00  0.00     0.014 A 
ATOM     31  C   UNL A   1      38.015  29.567  27.654  1.00  0.00     0.014 A 
ATOM     32  C   UNL A   1      38.489  28.193  30.047  1.00  0.00     0.010 A 
ATOM     33  C   UNL A   1      39.227  28.963  27.865  1.00  0.00     0.010 A 
ATOM     34  C   UNL A   1      39.485  28.353  29.096  1.00  0.00    -0.014 A 
BRANCH  34  35
ATOM     35  C   UNL A   1      40.847  27.892  29.251  1.00  0.00     0.031 A 
ATOM     36  C   UNL A   1      41.154  26.548  28.754  1.00  0.00     0.074 A 
ATOM     37  C   UNL A   1      41.787  28.785  29.631  1.00  0.00     0.049 A 
ATOM     38  N   UNL A   1      42.227  25.898  29.019  1.00  0.00    -0.248 NA
ATOM     39  C   UNL A   1      40.211  25.793  27.931  1.00  0.00     0.031 C 
ATOM     40  C   UNL A   1      43.237  28.680  29.515  1.00  0.00     0.029 A 
ATOM     41  N   UNL A   1      41.590  29.944  30.400  1.00  0.00    -0.354 N 
ATOM     42  C   UNL A   1      42.267  24.811  28.175  1.00  0.00     0.074 A 
ATOM     43  C   UNL A   1      40.939  24.720  27.624  1.00  0.00     0.031 C 
ATOM     44  C   UNL A   1      43.801  29.498  30.422  1.00  0.00     0.029 A 
ATOM     45  C   UNL A   1      42.725  30.021  31.248  1.00  0.00     0.049 A 
ATOM     46  H   UNL A   1      40.829  30.568  30.359  1.00  0.00     0.167 HD
ATOM     47  C   UNL A   1      43.480  24.232  27.948  1.00  0.00     0.037 A 
ATOM     48  C   UNL A   1      42.575  29.788  32.588  1.00  0.00     0.037 A 
ATOM     49  C   UNL A   1      44.475  24.803  28.862  1.00  0.00     0.049 A 
ATOM     50  C   UNL A   1      43.264  28.521  33.063  1.00  0.00     0.074 A 
ATOM     51  C   UNL A   1      45.425  25.805  28.750  1.00  0.00     0.029 A 
ATOM     52  N   UNL A   1      44.308  24.589  30.218  1.00  0.00    -0.354 N 
ATOM     53  N   UNL A   1      43.787  27.630  32.264  1.00  0.00    -0.248 NA
ATOM     54  C   UNL A   1      43.348  28.123  34.467  1.00  0.00     0.031 C 
ATOM     55  C   UNL A   1      45.756  26.242  30.071  1.00  0.00     0.029 A 
ATOM     56  C   UNL A   1      45.031  25.486  30.978  1.00  0.00     0.049 A 
ATOM     57  H   UNL A   1      43.740  23.879  30.597  1.00  0.00     0.167 HD
ATOM     58  C   UNL A   1      44.251  26.572  32.993  1.00  0.00     0.074 A 
ATOM     59  C   UNL A   1      43.927  26.913  34.368  1.00  0.00     0.031 C 
ATOM     60  C   UNL A   1      44.854  25.487  32.423  1.00  0.00     0.037 A 
BRANCH  47  61
ATOM     61  C   UNL A   1      43.844  23.336  26.782  1.00  0.00     0.064 A 
ATOM     62  C   UNL A   1      43.291  22.037  26.709  1.00  0.00     0.173 A 
ATOM     63  C   UNL A   1      44.767  23.626  25.756  1.00  0.00     0.173 A 
ATOM     64  F   UNL A   1      42.350  21.629  27.572  1.00  0.00    -0.203 F 
ATOM     65  C   UNL A   1      43.683  21.099  25.749  1.00  0.00     0.198 A 
ATOM     66  C   UNL A   1      45.167  22.685  24.801  1.00  0.00     0.198 A 
ATOM     67  F   UNL A   1      45.310  24.832  25.596  1.00  0.00    -0.203 F 
ATOM     68  F   UNL A   1      43.135  19.876  25.756  1.00  0.00    -0.200 F 
ATOM     69  C   UNL A   1      44.634  21.417  24.805  1.00  0.00     0.200 A 
ATOM     70  F   UNL A   1      46.080  23.026  23.880  1.00  0.00    -0.200 F 
ATOM     71  F   UNL A   1      45.024  20.515  23.894  1.00  0.00    -0.200 F 
ENDBRANCH  47  61
BRANCH  48  72
ATOM     72  C   UNL A   1      41.260  30.298  33.086  1.00  0.00     0.064 A 
ATOM     73  C   UNL A   1      41.010  31.682  32.960  1.00  0.00     0.173 A 
ATOM     74  C   UNL A   1      40.152  29.453  33.208  1.00  0.00     0.173 A 
ATOM     75  F   UNL A   1      42.038  32.542  32.859  1.00  0.00    -0.203 F 
ATOM     76  C   UNL A   1      39.721  32.168  32.754  1.00  0.00     0.198 A 
ATOM     77  C   UNL A   1      38.857  29.952  33.051  1.00  0.00     0.198 A 
ATOM     78  F   UNL A   1      40.316  28.129  33.339  1.00  0.00    -0.203 F 
ATOM     79  F   UNL A   1      39.535  33.458  32.440  1.00  0.00    -0.200 F 
ATOM     80  C   UNL A   1      38.649  31.295  32.765  1.00  0.00     0.200 A 
ATOM     81  F   UNL A   1      37.815  29.109  33.059  1.00  0.00    -0.200 F 
ATOM     82  F   UNL A   1      37.422  31.734  32.452  1.00  0.00    -0.200 F 
ENDBRANCH  48  72
BRANCH  60  83
ATOM     83  C   UNL A   1      45.341  24.321  33.230  1.00  0.00     0.064 A 
ATOM     84  C   UNL A   1      44.504  23.243  33.552  1.00  0.00     0.173 A 
ATOM     85  C   UNL A   1      46.636  24.294  33.789  1.00  0.00     0.173 A 
ATOM     86  F   UNL A   1      43.230  23.214  33.129  1.00  0.00    -0.203 F 
ATOM     87  C   UNL A   1      44.957  22.173  34.323  1.00  0.00     0.198 A 
ATOM     88  C   UNL A   1      47.060  23.262  34.619  1.00  0.00     0.198 A 
ATOM     89  F   UNL A   1      47.538  25.249  33.521  1.00  0.00    -0.203 F 
ATOM     90  F   UNL A   1      44.153  21.123  34.538  1.00  0.00    -0.200 F 
ATOM     91  C   UNL A   1      46.230  22.188  34.867  1.00  0.00     0.200 A 
ATOM     92  F   UNL A   1      48.285  23.309  35.165  1.00  0.00    -0.200 F 
ATOM     93  F   UNL A   1      46.658  21.166  35.620  1.00  0.00    -0.200 F 
ENDBRANCH  60  83
ENDBRANCH  34  35
ENDBRANCH  26  29
ENDBRANCH  24  25
ENDBRANCH  23  24
ENDBRANCH   1  23
TORSDOF 13
ENDMDL
MODEL 3
REMARK VINA RESULT:     -13.1      3.401      9.909
REMARK SMILES Cc1ccc(/C=C2/SC(=O)N(CC(=O)NCCCCNC(=O)c3ccc(-c4c5nc(c(-c6c(F)c(F)c(F)c(F)c6F)c6ccc([nH]6)c(-c6c(F)c(F)c(F)c(F)c6F)c6nc(c(-c7c(F)c(F)c(F)c(F)c7F)c7ccc4[nH]7)C=C6)C=C5)cc3)C2=O)cc1
REMARK SMILES IDX 17 1 16 2 15 3 13 4 14 5 12 7 11 8 6 9 7 10 8 11 86 12 9 13
REMARK SMILES IDX 87 14 10 15 5 16 1 17 2 18 3 19 89 20 4 21 88 22 18 23 19 24
REMARK SMILES IDX 20 25 21 26 22 28 23 29 24 30 85 31 25 32 84 33 26 34 27 35
REMARK SMILES IDX 28 36 78 37 29 38 83 39 77 40 79 41 30 42 82 43 76 44 75 45
REMARK SMILES IDX 31 47 63 48 43 49 62 50 44 51 47 52 61 53 80 54 45 55 46 56
REMARK SMILES IDX 60 58 81 59 48 60 32 61 33 62 41 63 34 64 35 65 39 66 42 67
REMARK SMILES IDX 36 68 37 69 40 70 38 71 64 72 65 73 73 74 66 75 67 76 71 77
REMARK SMILES IDX 74 78 68 79 69 80 72 81 70 82 49 83 50 84 58 85 51 86 52 87
REMARK SMILES IDX 56 88 59 89 53 90 54 91 57 92 55 93
REMARK H PARENT 15 6 20 27 79 46 47 57
REMARK Flexibility Score: inf
ROOT
ATOM      1  C   UNL A   1      31.674  30.571  26.719  1.00  0.00     0.023 C 
ENDROOT
BRANCH   1   2
ATOM      2  C   UNL A   1      31.442  30.098  25.281  1.00  0.00     0.116 C 
BRANCH   2   3
ATOM      3  N   UNL A   1      32.666  29.702  24.611  1.00  0.00    -0.355 N 
ATOM      4  C   UNL A   1      33.289  28.488  24.568  1.00  0.00     0.240 C 
ATOM      5  O   UNL A   1      34.157  28.338  23.702  1.00  0.00    -0.273 OA
ATOM      6  H   UNL A   1      33.117  30.420  24.111  1.00  0.00     0.163 HD
BRANCH   4   7
ATOM      7  C   UNL A   1      32.836  27.317  25.445  1.00  0.00     0.229 C 
BRANCH   7   8
ATOM      8  N   UNL A   1      32.486  26.143  24.668  1.00  0.00    -0.259 N 
ATOM      9  C   UNL A   1      33.305  22.779  23.556  1.00  0.00     0.029 C 
ATOM     10  C   UNL A   1      32.791  24.002  23.749  1.00  0.00     0.083 C 
ATOM     11  S   UNL A   1      31.245  24.487  23.148  1.00  0.00    -0.022 SA
ATOM     12  C   UNL A   1      33.403  25.131  24.511  1.00  0.00     0.268 C 
ATOM     13  C   UNL A   1      31.330  26.042  23.957  1.00  0.00     0.294 C 
ATOM     14  O   UNL A   1      34.545  25.165  24.937  1.00  0.00    -0.268 OA
ATOM     15  O   UNL A   1      30.439  26.880  23.871  1.00  0.00    -0.261 OA
BRANCH   9  16
ATOM     16  C   UNL A   1      34.619  22.372  24.058  1.00  0.00    -0.024 A 
ATOM     17  C   UNL A   1      38.531  21.780  25.751  1.00  0.00     0.044 C 
ATOM     18  C   UNL A   1      37.168  21.920  25.141  1.00  0.00    -0.051 A 
ATOM     19  C   UNL A   1      37.028  22.482  23.867  1.00  0.00     0.004 A 
ATOM     20  C   UNL A   1      36.023  21.531  25.844  1.00  0.00     0.004 A 
ATOM     21  C   UNL A   1      35.762  22.708  23.327  1.00  0.00     0.008 A 
ATOM     22  C   UNL A   1      34.754  21.746  25.302  1.00  0.00     0.008 A 
ENDBRANCH   9  16
ENDBRANCH   7   8
ENDBRANCH   4   7
ENDBRANCH   2   3
ENDBRANCH   1   2
BRANCH   1  23
ATOM     23  C   UNL A   1      32.886  31.477  26.923  1.00  0.00     0.023 C 
BRANCH  23  24
ATOM     24  C   UNL A   1      33.989  30.888  27.787  1.00  0.00     0.116 C 
BRANCH  24  25
ATOM     25  N   UNL A   1      35.108  31.784  28.061  1.00  0.00    -0.352 N 
ATOM     26  C   UNL A   1      36.399  31.485  28.474  1.00  0.00     0.251 C 
ATOM     27  H   UNL A   1      34.919  32.741  27.932  1.00  0.00     0.163 HD
ATOM     28  O   UNL A   1      37.177  32.385  28.770  1.00  0.00    -0.269 OA
BRANCH  26  29
ATOM     29  C   UNL A   1      36.900  30.091  28.365  1.00  0.00     0.039 A 
ATOM     30  C   UNL A   1      37.043  29.394  29.573  1.00  0.00     0.014 A 
ATOM     31  C   UNL A   1      37.611  29.701  27.241  1.00  0.00     0.014 A 
ATOM     32  C   UNL A   1      38.155  28.584  29.750  1.00  0.00     0.010 A 
ATOM     33  C   UNL A   1      38.797  29.048  27.454  1.00  0.00     0.010 A 
ATOM     34  C   UNL A   1      39.097  28.568  28.733  1.00  0.00    -0.014 A 
BRANCH  34  35
ATOM     35  C   UNL A   1      40.437  28.041  28.865  1.00  0.00     0.031 A 
ATOM     36  C   UNL A   1      40.606  26.599  28.660  1.00  0.00     0.074 A 
ATOM     37  C   UNL A   1      41.464  28.914  28.946  1.00  0.00     0.049 A 
ATOM     38  N   UNL A   1      41.660  25.937  28.968  1.00  0.00    -0.248 NA
ATOM     39  C   UNL A   1      39.538  25.764  28.118  1.00  0.00     0.031 C 
ATOM     40  C   UNL A   1      42.885  28.667  28.728  1.00  0.00     0.029 A 
ATOM     41  N   UNL A   1      41.421  30.226  29.447  1.00  0.00    -0.354 N 
ATOM     42  C   UNL A   1      41.544  24.691  28.393  1.00  0.00     0.074 A 
ATOM     43  C   UNL A   1      40.162  24.593  27.998  1.00  0.00     0.031 C 
ATOM     44  C   UNL A   1      43.591  29.614  29.371  1.00  0.00     0.029 A 
ATOM     45  C   UNL A   1      42.642  30.392  30.150  1.00  0.00     0.049 A 
ATOM     46  H   UNL A   1      40.700  30.887  29.335  1.00  0.00     0.167 HD
ATOM     47  C   UNL A   1      42.688  23.978  28.194  1.00  0.00     0.037 A 
ATOM     48  C   UNL A   1      42.622  30.473  31.517  1.00  0.00     0.037 A 
ATOM     49  C   UNL A   1      43.808  24.651  28.862  1.00  0.00     0.049 A 
ATOM     50  C   UNL A   1      43.279  29.288  32.202  1.00  0.00     0.074 A 
ATOM     51  C   UNL A   1      44.800  25.522  28.441  1.00  0.00     0.029 A 
ATOM     52  N   UNL A   1      43.773  24.755  30.241  1.00  0.00    -0.354 N 
ATOM     53  N   UNL A   1      43.659  28.204  31.583  1.00  0.00    -0.248 NA
ATOM     54  C   UNL A   1      43.487  29.202  33.647  1.00  0.00     0.031 C 
ATOM     55  C   UNL A   1      45.295  26.209  29.593  1.00  0.00     0.029 A 
ATOM     56  C   UNL A   1      44.626  25.734  30.709  1.00  0.00     0.049 A 
ATOM     57  H   UNL A   1      43.207  24.195  30.820  1.00  0.00     0.167 HD
ATOM     58  C   UNL A   1      44.132  27.296  32.487  1.00  0.00     0.074 A 
ATOM     59  C   UNL A   1      43.977  27.956  33.773  1.00  0.00     0.031 C 
ATOM     60  C   UNL A   1      44.605  26.066  32.126  1.00  0.00     0.037 A 
BRANCH  47  61
ATOM     61  C   UNL A   1      42.872  22.821  27.234  1.00  0.00     0.064 A 
ATOM     62  C   UNL A   1      42.145  21.627  27.444  1.00  0.00     0.173 A 
ATOM     63  C   UNL A   1      43.775  22.762  26.153  1.00  0.00     0.173 A 
ATOM     64  F   UNL A   1      41.200  21.541  28.391  1.00  0.00    -0.203 F 
ATOM     65  C   UNL A   1      42.360  20.466  26.694  1.00  0.00     0.198 A 
ATOM     66  C   UNL A   1      43.998  21.598  25.408  1.00  0.00     0.198 A 
ATOM     67  F   UNL A   1      44.468  23.820  25.735  1.00  0.00    -0.203 F 
ATOM     68  F   UNL A   1      41.653  19.361  26.965  1.00  0.00    -0.200 F 
ATOM     69  C   UNL A   1      43.299  20.447  25.686  1.00  0.00     0.200 A 
ATOM     70  F   UNL A   1      44.903  21.612  24.419  1.00  0.00    -0.200 F 
ATOM     71  F   UNL A   1      43.519  19.333  24.976  1.00  0.00    -0.200 F 
ENDBRANCH  47  61
BRANCH  48  72
ATOM     72  C   UNL A   1      41.401  31.187  32.002  1.00  0.00     0.064 A 
ATOM     73  C   UNL A   1      40.372  30.402  32.569  1.00  0.00     0.173 A 
ATOM     74  C   UNL A   1      41.440  32.542  32.346  1.00  0.00     0.173 A 
ATOM     75  F   UNL A   1      40.274  29.100  32.258  1.00  0.00    -0.203 F 
ATOM     76  C   UNL A   1      39.560  30.901  33.586  1.00  0.00     0.198 A 
ATOM     77  C   UNL A   1      40.589  33.050  33.331  1.00  0.00     0.198 A 
ATOM     78  F   UNL A   1      42.385  33.347  31.839  1.00  0.00    -0.203 F 
ATOM     79  F   UNL A   1      38.729  30.078  34.241  1.00  0.00    -0.200 F 
ATOM     80  C   UNL A   1      39.695  32.217  33.989  1.00  0.00     0.200 A 
ATOM     81  F   UNL A   1      40.719  34.325  33.727  1.00  0.00    -0.200 F 
ATOM     82  F   UNL A   1      39.002  32.670  35.043  1.00  0.00    -0.200 F 
ENDBRANCH  48  72
BRANCH  60  83
ATOM     83  C   UNL A   1      45.102  25.070  33.130  1.00  0.00     0.064 A 
ATOM     84  C   UNL A   1      46.466  24.776  33.269  1.00  0.00     0.173 A 
ATOM     85  C   UNL A   1      44.216  24.305  33.918  1.00  0.00     0.173 A 
ATOM     86  F   UNL A   1      47.381  25.397  32.508  1.00  0.00    -0.203 F 
ATOM     87  C   UNL A   1      46.918  23.830  34.188  1.00  0.00     0.198 A 
ATOM     88  C   UNL A   1      44.665  23.310  34.780  1.00  0.00     0.198 A 
ATOM     89  F   UNL A   1      42.893  24.522  33.901  1.00  0.00    -0.203 F 
ATOM     90  F   UNL A   1      48.234  23.639  34.349  1.00  0.00    -0.200 F 
ATOM     91  C   UNL A   1      46.018  23.089  34.934  1.00  0.00     0.200 A 
ATOM     92  F   UNL A   1      43.778  22.579  35.471  1.00  0.00    -0.200 F 
ATOM     93  F   UNL A   1      46.454  22.170  35.806  1.00  0.00    -0.200 F 
ENDBRANCH  60  83
ENDBRANCH  34  35
ENDBRANCH  26  29
ENDBRANCH  24  25
ENDBRANCH  23  24
ENDBRANCH   1  23
TORSDOF 13
ENDMDL
