MODEL 1
REMARK VINA RESULT:     -13.5      0.000      0.000
REMARK SMILES COc1cc(/C=C2/CCc3c2nc2ccccc2c3C(=O)NCCCCNC(=O)c2ccc(-c3c4nc(c(-c5c(F)c(F)c(F)c(F)c5F)c5ccc([nH]5)c(-c5c(F)c(F)c(F)c(F)c5F)c5nc(c(-c6c(F)c(F)c(F)c(F)c6F)c6ccc3[nH]6)C=C5)C=C4)cc2)cc(Br)c1O
REMARK SMILES IDX 24 1 23 2 22 3 20 4 21 5 19 7 6 8 7 9 8 10 11 11 9 12 10 13
REMARK SMILES IDX 12 14 13 15 18 16 14 17 17 18 15 19 16 20 5 21 3 22 4 23
REMARK SMILES IDX 96 24 94 25 93 26 95 27 2 28 1 29 97 30 25 32 26 33 27 34
REMARK SMILES IDX 28 35 29 37 30 38 31 39 92 40 32 41 91 42 33 43 34 44 35 45
REMARK SMILES IDX 85 46 36 47 90 48 84 49 86 50 37 51 89 52 83 53 82 54 38 56
REMARK SMILES IDX 70 57 50 58 69 59 51 60 54 61 68 62 87 63 52 64 53 65 67 67
REMARK SMILES IDX 88 68 55 69 39 70 40 71 48 72 41 73 42 74 46 75 49 76 43 77
REMARK SMILES IDX 44 78 47 79 45 80 71 81 72 82 80 83 73 84 74 85 78 86 81 87
REMARK SMILES IDX 75 88 76 89 79 90 77 91 56 92 57 93 65 94 58 95 59 96 63 97
REMARK SMILES IDX 66 98 60 99 61 100 64 101 62 102
REMARK H PARENT 22 6 97 31 27 36 86 55 54 66
REMARK Flexibility Score: inf
ROOT
ATOM      1  C   UNL A   1      37.141  20.486  24.999  1.00  0.00     0.023 C 
ENDROOT
BRANCH   1   2
ATOM      2  C   UNL A   1      37.495  21.957  25.201  1.00  0.00     0.116 C 
BRANCH   2   3
ATOM      3  N   UNL A   1      36.590  22.639  26.083  1.00  0.00    -0.352 N 
ATOM      4  C   UNL A   1      35.722  23.620  25.635  1.00  0.00     0.252 C 
ATOM      5  O   UNL A   1      36.051  24.796  25.751  1.00  0.00    -0.269 OA
ATOM      6  H   UNL A   1      36.586  22.401  27.038  1.00  0.00     0.163 HD
BRANCH   4   7
ATOM      7  C   UNL A   1      34.364  23.265  25.096  1.00  0.00     0.054 A 
ATOM      8  C   UNL A   1      32.253  24.724  26.409  1.00  0.00     0.014 C 
ATOM      9  C   UNL A   1      32.138  23.332  26.358  1.00  0.00    -0.021 C 
ATOM     10  C   UNL A   1      32.612  22.578  27.631  1.00  0.00     0.042 C 
ATOM     11  C   UNL A   1      32.513  22.198  25.245  1.00  0.00     0.071 A 
ATOM     12  C   UNL A   1      33.657  21.586  27.045  1.00  0.00     0.043 C 
ATOM     13  C   UNL A   1      33.775  22.124  25.648  1.00  0.00    -0.008 A 
ATOM     14  N   UNL A   1      32.399  21.999  23.921  1.00  0.00    -0.248 NA
ATOM     15  C   UNL A   1      33.110  22.763  23.063  1.00  0.00     0.072 A 
ATOM     16  C   UNL A   1      33.587  24.132  23.914  1.00  0.00     0.013 A 
ATOM     17  C   UNL A   1      32.903  22.892  21.285  1.00  0.00     0.029 A 
ATOM     18  C   UNL A   1      33.265  25.942  23.005  1.00  0.00     0.011 A 
ATOM     19  C   UNL A   1      32.781  24.465  20.413  1.00  0.00     0.002 A 
ATOM     20  C   UNL A   1      32.910  26.007  21.242  1.00  0.00     0.001 A 
BRANCH   8  21
ATOM     21  C   UNL A   1      32.660  25.662  25.232  1.00  0.00    -0.020 A 
ATOM     22  C   UNL A   1      33.491  28.376  26.096  1.00  0.00     0.162 A 
ATOM     23  C   UNL A   1      33.773  26.652  26.046  1.00  0.00     0.058 A 
ATOM     24  C   UNL A   1      31.914  29.184  25.094  1.00  0.00     0.172 A 
ATOM     25  C   UNL A   1      30.962  28.047  24.029  1.00  0.00     0.064 A 
ATOM     26  C   UNL A   1      31.385  26.303  24.133  1.00  0.00     0.028 A 
ATOM     27  Br  UNL A   1      29.732  28.693  22.751  1.00  0.00    -0.047 Br
BRANCH  22  28
ATOM     28  O   UNL A   1      34.313  28.690  27.250  1.00  0.00    -0.493 OA
ATOM     29  C   UNL A   1      35.389  29.626  27.258  1.00  0.00     0.278 C 
ENDBRANCH  22  28
BRANCH  24  30
ATOM     30  O   UNL A   1      31.163  30.370  25.145  1.00  0.00    -0.503 OA
ATOM     31  H   UNL A   1      30.349  30.389  25.608  1.00  0.00     0.293 HD
ENDBRANCH  24  30
ENDBRANCH   8  21
ENDBRANCH   4   7
ENDBRANCH   2   3
ENDBRANCH   1   2
BRANCH   1  32
ATOM     32  C   UNL A   1      38.369  19.600  24.998  1.00  0.00     0.023 C 
BRANCH  32  33
ATOM     33  C   UNL A   1      39.213  19.759  26.246  1.00  0.00     0.116 C 
BRANCH  33  34
ATOM     34  N   UNL A   1      40.563  19.206  26.125  1.00  0.00    -0.352 N 
ATOM     35  C   UNL A   1      41.746  19.878  26.346  1.00  0.00     0.251 C 
ATOM     36  H   UNL A   1      40.635  18.260  25.858  1.00  0.00     0.163 HD
ATOM     37  O   UNL A   1      42.842  19.382  26.132  1.00  0.00    -0.269 OA
BRANCH  35  38
ATOM     38  C   UNL A   1      41.598  21.260  26.825  1.00  0.00     0.039 A 
ATOM     39  C   UNL A   1      41.134  22.199  25.901  1.00  0.00     0.014 A 
ATOM     40  C   UNL A   1      42.295  21.637  27.973  1.00  0.00     0.014 A 
ATOM     41  C   UNL A   1      41.587  23.502  26.014  1.00  0.00     0.010 A 
ATOM     42  C   UNL A   1      42.611  22.982  28.155  1.00  0.00     0.010 A 
ATOM     43  C   UNL A   1      42.313  23.915  27.148  1.00  0.00    -0.014 A 
BRANCH  43  44
ATOM     44  C   UNL A   1      42.710  25.338  27.282  1.00  0.00     0.031 A 
ATOM     45  C   UNL A   1      44.001  25.865  26.715  1.00  0.00     0.074 A 
ATOM     46  C   UNL A   1      41.865  26.163  27.931  1.00  0.00     0.049 A 
ATOM     47  N   UNL A   1      44.524  27.060  26.839  1.00  0.00    -0.248 NA
ATOM     48  C   UNL A   1      44.817  24.940  25.911  1.00  0.00     0.031 C 
ATOM     49  C   UNL A   1      40.572  25.767  28.496  1.00  0.00     0.029 A 
ATOM     50  N   UNL A   1      41.955  27.498  28.216  1.00  0.00    -0.354 N 
ATOM     51  C   UNL A   1      45.731  27.027  26.153  1.00  0.00     0.074 A 
ATOM     52  C   UNL A   1      45.883  25.683  25.635  1.00  0.00     0.031 C 
ATOM     53  C   UNL A   1      39.967  26.843  29.010  1.00  0.00     0.029 A 
ATOM     54  C   UNL A   1      40.876  27.975  28.916  1.00  0.00     0.049 A 
ATOM     55  H   UNL A   1      42.717  28.060  27.946  1.00  0.00     0.167 HD
ATOM     56  C   UNL A   1      46.622  28.033  25.968  1.00  0.00     0.037 A 
ATOM     57  C   UNL A   1      40.653  29.179  29.470  1.00  0.00     0.037 A 
ATOM     58  C   UNL A   1      46.450  29.370  26.484  1.00  0.00     0.049 A 
ATOM     59  C   UNL A   1      41.699  30.241  29.326  1.00  0.00     0.074 A 
ATOM     60  C   UNL A   1      47.292  30.460  26.348  1.00  0.00     0.029 A 
ATOM     61  N   UNL A   1      45.363  29.798  27.236  1.00  0.00    -0.354 N 
ATOM     62  N   UNL A   1      42.839  30.196  28.682  1.00  0.00    -0.248 NA
ATOM     63  C   UNL A   1      41.424  31.523  29.982  1.00  0.00     0.031 C 
ATOM     64  C   UNL A   1      46.753  31.525  27.074  1.00  0.00     0.029 A 
ATOM     65  C   UNL A   1      45.530  31.130  27.590  1.00  0.00     0.049 A 
ATOM     66  H   UNL A   1      44.590  29.241  27.481  1.00  0.00     0.167 HD
ATOM     67  C   UNL A   1      43.403  31.456  28.824  1.00  0.00     0.074 A 
ATOM     68  C   UNL A   1      42.468  32.244  29.600  1.00  0.00     0.031 C 
ATOM     69  C   UNL A   1      44.588  31.913  28.350  1.00  0.00     0.037 A 
BRANCH  56  70
ATOM     70  C   UNL A   1      47.873  27.749  25.181  1.00  0.00     0.064 A 
ATOM     71  C   UNL A   1      49.053  27.315  25.802  1.00  0.00     0.173 A 
ATOM     72  C   UNL A   1      47.860  27.806  23.777  1.00  0.00     0.173 A 
ATOM     73  F   UNL A   1      49.125  27.245  27.140  1.00  0.00    -0.203 F 
ATOM     74  C   UNL A   1      50.172  26.958  25.051  1.00  0.00     0.198 A 
ATOM     75  C   UNL A   1      48.967  27.415  23.028  1.00  0.00     0.198 A 
ATOM     76  F   UNL A   1      46.755  28.204  23.126  1.00  0.00    -0.203 F 
ATOM     77  F   UNL A   1      51.296  26.572  25.670  1.00  0.00    -0.200 F 
ATOM     78  C   UNL A   1      50.124  26.995  23.666  1.00  0.00     0.200 A 
ATOM     79  F   UNL A   1      48.909  27.429  21.689  1.00  0.00    -0.200 F 
ATOM     80  F   UNL A   1      51.191  26.624  22.946  1.00  0.00    -0.200 F 
ENDBRANCH  56  70
BRANCH  57  81
ATOM     81  C   UNL A   1      39.385  29.422  30.203  1.00  0.00     0.064 A 
ATOM     82  C   UNL A   1      39.206  28.925  31.500  1.00  0.00     0.173 A 
ATOM     83  C   UNL A   1      38.347  30.186  29.645  1.00  0.00     0.173 A 
ATOM     84  F   UNL A   1      40.168  28.184  32.070  1.00  0.00    -0.203 F 
ATOM     85  C   UNL A   1      38.030  29.165  32.204  1.00  0.00     0.198 A 
ATOM     86  C   UNL A   1      37.189  30.460  30.367  1.00  0.00     0.198 A 
ATOM     87  F   UNL A   1      38.476  30.699  28.413  1.00  0.00    -0.203 F 
ATOM     88  F   UNL A   1      37.867  28.640  33.425  1.00  0.00    -0.200 F 
ATOM     89  C   UNL A   1      37.027  29.941  31.642  1.00  0.00     0.200 A 
ATOM     90  F   UNL A   1      36.237  31.236  29.831  1.00  0.00    -0.200 F 
ATOM     91  F   UNL A   1      35.903  30.186  32.328  1.00  0.00    -0.200 F 
ENDBRANCH  57  81
BRANCH  69  92
ATOM     92  C   UNL A   1      44.922  33.355  28.605  1.00  0.00     0.064 A 
ATOM     93  C   UNL A   1      45.680  33.760  29.714  1.00  0.00     0.173 A 
ATOM     94  C   UNL A   1      44.512  34.345  27.697  1.00  0.00     0.173 A 
ATOM     95  F   UNL A   1      46.085  32.858  30.620  1.00  0.00    -0.203 F 
ATOM     96  C   UNL A   1      45.988  35.102  29.921  1.00  0.00     0.198 A 
ATOM     97  C   UNL A   1      44.860  35.680  27.883  1.00  0.00     0.198 A 
ATOM     98  F   UNL A   1      43.790  34.015  26.615  1.00  0.00    -0.203 F 
ATOM     99  F   UNL A   1      46.660  35.471  31.019  1.00  0.00    -0.200 F 
ATOM    100  C   UNL A   1      45.588  36.058  29.000  1.00  0.00     0.200 A 
ATOM    101  F   UNL A   1      44.491  36.599  26.980  1.00  0.00    -0.200 F 
ATOM    102  F   UNL A   1      45.898  37.347  29.193  1.00  0.00    -0.200 F 
ENDBRANCH  69  92
ENDBRANCH  43  44
ENDBRANCH  35  38
ENDBRANCH  33  34
ENDBRANCH  32  33
ENDBRANCH   1  32
TORSDOF 14
ENDMDL
MODEL 2
REMARK VINA RESULT:     -13.4      4.672      8.735
REMARK SMILES COc1cc(/C=C2/CCc3c2nc2ccccc2c3C(=O)NCCCCNC(=O)c2ccc(-c3c4nc(c(-c5c(F)c(F)c(F)c(F)c5F)c5ccc([nH]5)c(-c5c(F)c(F)c(F)c(F)c5F)c5nc(c(-c6c(F)c(F)c(F)c(F)c6F)c6ccc3[nH]6)C=C5)C=C4)cc2)cc(Br)c1O
REMARK SMILES IDX 24 1 23 2 22 3 20 4 21 5 19 7 6 8 7 9 8 10 11 11 9 12 10 13
REMARK SMILES IDX 12 14 13 15 18 16 14 17 17 18 15 19 16 20 5 21 3 22 4 23
REMARK SMILES IDX 96 24 94 25 93 26 95 27 2 28 1 29 97 30 25 32 26 33 27 34
REMARK SMILES IDX 28 35 29 37 30 38 31 39 92 40 32 41 91 42 33 43 34 44 35 45
REMARK SMILES IDX 85 46 36 47 90 48 84 49 86 50 37 51 89 52 83 53 82 54 38 56
REMARK SMILES IDX 70 57 50 58 69 59 51 60 54 61 68 62 87 63 52 64 53 65 67 67
REMARK SMILES IDX 88 68 55 69 39 70 40 71 48 72 41 73 42 74 46 75 49 76 43 77
REMARK SMILES IDX 44 78 47 79 45 80 71 81 72 82 80 83 73 84 74 85 78 86 81 87
REMARK SMILES IDX 75 88 76 89 79 90 77 91 56 92 57 93 65 94 58 95 59 96 63 97
REMARK SMILES IDX 66 98 60 99 61 100 64 101 62 102
REMARK H PARENT 22 6 97 31 27 36 86 55 54 66
REMARK Flexibility Score: inf
ROOT
ATOM      1  C   UNL A   1      31.599  30.496  26.174  1.00  0.00     0.023 C 
ENDROOT
BRANCH   1   2
ATOM      2  C   UNL A   1      32.889  29.966  26.794  1.00  0.00     0.116 C 
BRANCH   2   3
ATOM      3  N   UNL A   1      33.686  29.203  25.873  1.00  0.00    -0.352 N 
ATOM      4  C   UNL A   1      33.648  27.820  25.835  1.00  0.00     0.252 C 
ATOM      5  O   UNL A   1      34.507  27.190  26.442  1.00  0.00    -0.269 OA
ATOM      6  H   UNL A   1      34.278  29.680  25.247  1.00  0.00     0.163 HD
BRANCH   4   7
ATOM      7  C   UNL A   1      32.629  27.096  24.998  1.00  0.00     0.054 A 
ATOM      8  C   UNL A   1      33.844  25.201  23.197  1.00  0.00     0.014 C 
ATOM      9  C   UNL A   1      32.964  26.137  22.648  1.00  0.00    -0.021 C 
ATOM     10  C   UNL A   1      33.633  27.391  22.019  1.00  0.00     0.042 C 
ATOM     11  C   UNL A   1      31.573  26.827  23.154  1.00  0.00     0.071 A 
ATOM     12  C   UNL A   1      32.923  28.548  22.780  1.00  0.00     0.043 C 
ATOM     13  C   UNL A   1      32.211  27.765  23.844  1.00  0.00    -0.008 A 
ATOM     14  N   UNL A   1      30.420  26.471  23.744  1.00  0.00    -0.248 NA
ATOM     15  C   UNL A   1      30.424  26.051  25.028  1.00  0.00     0.072 A 
ATOM     16  C   UNL A   1      32.005  25.610  25.390  1.00  0.00     0.013 A 
ATOM     17  C   UNL A   1      29.089  25.249  25.921  1.00  0.00     0.029 A 
ATOM     18  C   UNL A   1      32.270  23.791  26.300  1.00  0.00     0.011 A 
ATOM     19  C   UNL A   1      29.304  23.735  26.876  1.00  0.00     0.002 A 
ATOM     20  C   UNL A   1      30.865  22.953  27.050  1.00  0.00     0.001 A 
BRANCH   8  21
ATOM     21  C   UNL A   1      33.617  24.368  24.495  1.00  0.00    -0.020 A 
ATOM     22  C   UNL A   1      36.083  23.099  25.550  1.00  0.00     0.162 A 
ATOM     23  C   UNL A   1      35.153  24.536  25.199  1.00  0.00     0.058 A 
ATOM     24  C   UNL A   1      35.279  21.257  25.225  1.00  0.00     0.172 A 
ATOM     25  C   UNL A   1      33.521  21.213  24.735  1.00  0.00     0.064 A 
ATOM     26  C   UNL A   1      32.742  22.798  24.394  1.00  0.00     0.028 A 
ATOM     27  Br  UNL A   1      32.527  19.609  24.771  1.00  0.00    -0.047 Br
BRANCH  22  28
ATOM     28  O   UNL A   1      37.398  23.708  25.610  1.00  0.00    -0.493 OA
ATOM     29  C   UNL A   1      38.568  23.079  26.128  1.00  0.00     0.278 C 
ENDBRANCH  22  28
BRANCH  24  30
ATOM     30  O   UNL A   1      35.752  19.947  25.042  1.00  0.00    -0.503 OA
ATOM     31  H   UNL A   1      36.373  19.763  24.366  1.00  0.00     0.293 HD
ENDBRANCH  24  30
ENDBRANCH   8  21
ENDBRANCH   4   7
ENDBRANCH   2   3
ENDBRANCH   1   2
BRANCH   1  32
ATOM     32  C   UNL A   1      31.313  31.923  26.590  1.00  0.00     0.023 C 
BRANCH  32  33
ATOM     33  C   UNL A   1      32.563  32.774  26.685  1.00  0.00     0.116 C 
BRANCH  33  34
ATOM     34  N   UNL A   1      32.453  33.890  27.626  1.00  0.00    -0.352 N 
ATOM     35  C   UNL A   1      33.346  34.208  28.627  1.00  0.00     0.251 C 
ATOM     36  H   UNL A   1      31.663  34.471  27.536  1.00  0.00     0.163 HD
ATOM     37  O   UNL A   1      33.143  35.097  29.440  1.00  0.00    -0.269 OA
BRANCH  35  38
ATOM     38  C   UNL A   1      34.554  33.371  28.675  1.00  0.00     0.039 A 
ATOM     39  C   UNL A   1      34.415  32.099  29.235  1.00  0.00     0.014 A 
ATOM     40  C   UNL A   1      35.794  34.000  28.571  1.00  0.00     0.014 A 
ATOM     41  C   UNL A   1      35.498  31.564  29.911  1.00  0.00     0.010 A 
ATOM     42  C   UNL A   1      36.911  33.375  29.120  1.00  0.00     0.010 A 
ATOM     43  C   UNL A   1      36.762  32.183  29.847  1.00  0.00    -0.014 A 
BRANCH  43  44
ATOM     44  C   UNL A   1      37.922  31.538  30.510  1.00  0.00     0.031 A 
ATOM     45  C   UNL A   1      38.789  30.532  29.803  1.00  0.00     0.074 A 
ATOM     46  C   UNL A   1      38.187  31.889  31.784  1.00  0.00     0.049 A 
ATOM     47  N   UNL A   1      39.775  29.816  30.286  1.00  0.00    -0.248 NA
ATOM     48  C   UNL A   1      38.521  30.287  28.376  1.00  0.00     0.031 C 
ATOM     49  C   UNL A   1      37.430  32.877  32.559  1.00  0.00     0.029 A 
ATOM     50  N   UNL A   1      39.163  31.471  32.647  1.00  0.00    -0.354 N 
ATOM     51  C   UNL A   1      40.229  29.026  29.237  1.00  0.00     0.074 A 
ATOM     52  C   UNL A   1      39.393  29.326  28.094  1.00  0.00     0.031 C 
ATOM     53  C   UNL A   1      38.000  33.027  33.759  1.00  0.00     0.029 A 
ATOM     54  C   UNL A   1      39.086  32.067  33.880  1.00  0.00     0.049 A 
ATOM     55  H   UNL A   1      39.851  30.808  32.407  1.00  0.00     0.167 HD
ATOM     56  C   UNL A   1      41.257  28.141  29.235  1.00  0.00     0.037 A 
ATOM     57  C   UNL A   1      39.778  31.838  35.008  1.00  0.00     0.037 A 
ATOM     58  C   UNL A   1      42.085  27.860  30.382  1.00  0.00     0.049 A 
ATOM     59  C   UNL A   1      40.846  30.788  34.997  1.00  0.00     0.074 A 
ATOM     60  C   UNL A   1      43.152  26.984  30.480  1.00  0.00     0.029 A 
ATOM     61  N   UNL A   1      41.940  28.450  31.631  1.00  0.00    -0.354 N 
ATOM     62  N   UNL A   1      41.260  30.042  34.003  1.00  0.00    -0.248 NA
ATOM     63  C   UNL A   1      41.543  30.551  36.264  1.00  0.00     0.031 C 
ATOM     64  C   UNL A   1      43.606  26.990  31.802  1.00  0.00     0.029 A 
ATOM     65  C   UNL A   1      42.882  27.935  32.510  1.00  0.00     0.049 A 
ATOM     66  H   UNL A   1      41.267  29.132  31.860  1.00  0.00     0.167 HD
ATOM     67  C   UNL A   1      42.294  29.272  34.514  1.00  0.00     0.074 A 
ATOM     68  C   UNL A   1      42.452  29.656  35.902  1.00  0.00     0.031 C 
ATOM     69  C   UNL A   1      43.044  28.333  33.886  1.00  0.00     0.037 A 
BRANCH  56  70
ATOM     70  C   UNL A   1      41.558  27.394  27.962  1.00  0.00     0.064 A 
ATOM     71  C   UNL A   1      42.296  27.976  26.922  1.00  0.00     0.173 A 
ATOM     72  C   UNL A   1      41.196  26.043  27.827  1.00  0.00     0.173 A 
ATOM     73  F   UNL A   1      42.665  29.265  26.995  1.00  0.00    -0.203 F 
ATOM     74  C   UNL A   1      42.654  27.239  25.794  1.00  0.00     0.198 A 
ATOM     75  C   UNL A   1      41.585  25.300  26.715  1.00  0.00     0.198 A 
ATOM     76  F   UNL A   1      40.498  25.429  28.795  1.00  0.00    -0.203 F 
ATOM     77  F   UNL A   1      43.337  27.826  24.802  1.00  0.00    -0.200 F 
ATOM     78  C   UNL A   1      42.311  25.900  25.698  1.00  0.00     0.200 A 
ATOM     79  F   UNL A   1      41.272  23.999  26.636  1.00  0.00    -0.200 F 
ATOM     80  F   UNL A   1      42.680  25.186  24.626  1.00  0.00    -0.200 F 
ENDBRANCH  56  70
BRANCH  57  81
ATOM     81  C   UNL A   1      39.470  32.628  36.227  1.00  0.00     0.064 A 
ATOM     82  C   UNL A   1      40.148  33.824  36.491  1.00  0.00     0.173 A 
ATOM     83  C   UNL A   1      38.470  32.230  37.129  1.00  0.00     0.173 A 
ATOM     84  F   UNL A   1      41.118  34.240  35.662  1.00  0.00    -0.203 F 
ATOM     85  C   UNL A   1      39.853  34.582  37.620  1.00  0.00     0.198 A 
ATOM     86  C   UNL A   1      38.147  33.011  38.235  1.00  0.00     0.198 A 
ATOM     87  F   UNL A   1      37.778  31.102  36.912  1.00  0.00    -0.203 F 
ATOM     88  F   UNL A   1      40.549  35.699  37.872  1.00  0.00    -0.200 F 
ATOM     89  C   UNL A   1      38.846  34.182  38.485  1.00  0.00     0.200 A 
ATOM     90  F   UNL A   1      37.151  32.635  39.049  1.00  0.00    -0.200 F 
ATOM     91  F   UNL A   1      38.550  34.922  39.561  1.00  0.00    -0.200 F 
ENDBRANCH  57  81
BRANCH  69  92
ATOM     92  C   UNL A   1      44.149  27.691  34.676  1.00  0.00     0.064 A 
ATOM     93  C   UNL A   1      43.967  26.484  35.367  1.00  0.00     0.173 A 
ATOM     94  C   UNL A   1      45.426  28.274  34.703  1.00  0.00     0.173 A 
ATOM     95  F   UNL A   1      42.763  25.892  35.386  1.00  0.00    -0.203 F 
ATOM     96  C   UNL A   1      45.011  25.902  36.081  1.00  0.00     0.198 A 
ATOM     97  C   UNL A   1      46.479  27.666  35.380  1.00  0.00     0.198 A 
ATOM     98  F   UNL A   1      45.660  29.425  34.054  1.00  0.00    -0.203 F 
ATOM     99  F   UNL A   1      44.796  24.782  36.783  1.00  0.00    -0.200 F 
ATOM    100  C   UNL A   1      46.268  26.487  36.076  1.00  0.00     0.200 A 
ATOM    101  F   UNL A   1      47.699  28.221  35.356  1.00  0.00    -0.200 F 
ATOM    102  F   UNL A   1      47.276  25.917  36.752  1.00  0.00    -0.200 F 
ENDBRANCH  69  92
ENDBRANCH  43  44
ENDBRANCH  35  38
ENDBRANCH  33  34
ENDBRANCH  32  33
ENDBRANCH   1  32
TORSDOF 14
ENDMDL
MODEL 3
REMARK VINA RESULT:     -13.4      0.546      7.022
REMARK SMILES COc1cc(/C=C2/CCc3c2nc2ccccc2c3C(=O)NCCCCNC(=O)c2ccc(-c3c4nc(c(-c5c(F)c(F)c(F)c(F)c5F)c5ccc([nH]5)c(-c5c(F)c(F)c(F)c(F)c5F)c5nc(c(-c6c(F)c(F)c(F)c(F)c6F)c6ccc3[nH]6)C=C5)C=C4)cc2)cc(Br)c1O
REMARK SMILES IDX 24 1 23 2 22 3 20 4 21 5 19 7 6 8 7 9 8 10 11 11 9 12 10 13
REMARK SMILES IDX 12 14 13 15 18 16 14 17 17 18 15 19 16 20 5 21 3 22 4 23
REMARK SMILES IDX 96 24 94 25 93 26 95 27 2 28 1 29 97 30 25 32 26 33 27 34
REMARK SMILES IDX 28 35 29 37 30 38 31 39 92 40 32 41 91 42 33 43 34 44 35 45
REMARK SMILES IDX 85 46 36 47 90 48 84 49 86 50 37 51 89 52 83 53 82 54 38 56
REMARK SMILES IDX 70 57 50 58 69 59 51 60 54 61 68 62 87 63 52 64 53 65 67 67
REMARK SMILES IDX 88 68 55 69 39 70 40 71 48 72 41 73 42 74 46 75 49 76 43 77
REMARK SMILES IDX 44 78 47 79 45 80 71 81 72 82 80 83 73 84 74 85 78 86 81 87
REMARK SMILES IDX 75 88 76 89 79 90 77 91 56 92 57 93 65 94 58 95 59 96 63 97
REMARK SMILES IDX 66 98 60 99 61 100 64 101 62 102
REMARK H PARENT 22 6 97 31 27 36 86 55 54 66
REMARK Flexibility Score: inf
ROOT
ATOM      1  C   UNL A   1      37.013  20.545  24.913  1.00  0.00     0.023 C 
ENDROOT
BRANCH   1   2
ATOM      2  C   UNL A   1      37.481  21.954  25.270  1.00  0.00     0.116 C 
BRANCH   2   3
ATOM      3  N   UNL A   1      36.562  22.654  26.125  1.00  0.00    -0.352 N 
ATOM      4  C   UNL A   1      35.706  23.630  25.647  1.00  0.00     0.252 C 
ATOM      5  O   UNL A   1      36.037  24.806  25.749  1.00  0.00    -0.269 OA
ATOM      6  H   UNL A   1      36.541  22.431  27.084  1.00  0.00     0.163 HD
BRANCH   4   7
ATOM      7  C   UNL A   1      34.356  23.270  25.090  1.00  0.00     0.054 A 
ATOM      8  C   UNL A   1      32.224  24.733  26.364  1.00  0.00     0.014 C 
ATOM      9  C   UNL A   1      32.112  23.341  26.318  1.00  0.00    -0.021 C 
ATOM     10  C   UNL A   1      32.568  22.593  27.602  1.00  0.00     0.042 C 
ATOM     11  C   UNL A   1      32.505  22.202  25.216  1.00  0.00     0.071 A 
ATOM     12  C   UNL A   1      33.624  21.600  27.035  1.00  0.00     0.043 C 
ATOM     13  C   UNL A   1      33.761  22.131  25.638  1.00  0.00    -0.008 A 
ATOM     14  N   UNL A   1      32.410  21.996  23.892  1.00  0.00    -0.248 NA
ATOM     15  C   UNL A   1      33.133  22.758  23.041  1.00  0.00     0.072 A 
ATOM     16  C   UNL A   1      33.596  24.131  23.892  1.00  0.00     0.013 A 
ATOM     17  C   UNL A   1      32.952  22.878  21.259  1.00  0.00     0.029 A 
ATOM     18  C   UNL A   1      33.285  25.936  22.970  1.00  0.00     0.011 A 
ATOM     19  C   UNL A   1      32.840  24.447  20.378  1.00  0.00     0.002 A 
ATOM     20  C   UNL A   1      32.955  25.992  21.201  1.00  0.00     0.001 A 
BRANCH   8  21
ATOM     21  C   UNL A   1      32.648  25.666  25.189  1.00  0.00    -0.020 A 
ATOM     22  C   UNL A   1      33.526  28.364  26.059  1.00  0.00     0.162 A 
ATOM     23  C   UNL A   1      33.778  26.635  26.005  1.00  0.00     0.058 A 
ATOM     24  C   UNL A   1      31.962  29.200  25.058  1.00  0.00     0.172 A 
ATOM     25  C   UNL A   1      30.991  28.082  23.991  1.00  0.00     0.064 A 
ATOM     26  C   UNL A   1      31.384  26.331  24.092  1.00  0.00     0.028 A 
ATOM     27  Br  UNL A   1      29.772  28.751  22.714  1.00  0.00    -0.047 Br
BRANCH  22  28
ATOM     28  O   UNL A   1      34.353  28.662  27.213  1.00  0.00    -0.493 OA
ATOM     29  C   UNL A   1      35.353  29.677  27.263  1.00  0.00     0.278 C 
ENDBRANCH  22  28
BRANCH  24  30
ATOM     30  O   UNL A   1      31.231  30.399  25.112  1.00  0.00    -0.503 OA
ATOM     31  H   UNL A   1      30.296  30.379  25.077  1.00  0.00     0.293 HD
ENDBRANCH  24  30
ENDBRANCH   8  21
ENDBRANCH   4   7
ENDBRANCH   2   3
ENDBRANCH   1   2
BRANCH   1  32
ATOM     32  C   UNL A   1      38.148  19.544  24.948  1.00  0.00     0.023 C 
BRANCH  32  33
ATOM     33  C   UNL A   1      39.063  19.728  26.142  1.00  0.00     0.116 C 
BRANCH  33  34
ATOM     34  N   UNL A   1      40.408  19.183  25.950  1.00  0.00    -0.352 N 
ATOM     35  C   UNL A   1      41.598  19.841  26.176  1.00  0.00     0.251 C 
ATOM     36  H   UNL A   1      40.470  18.255  25.627  1.00  0.00     0.163 HD
ATOM     37  O   UNL A   1      42.686  19.359  25.902  1.00  0.00    -0.269 OA
BRANCH  35  38
ATOM     38  C   UNL A   1      41.466  21.194  26.738  1.00  0.00     0.039 A 
ATOM     39  C   UNL A   1      41.165  22.221  25.841  1.00  0.00     0.014 A 
ATOM     40  C   UNL A   1      42.040  21.447  27.984  1.00  0.00     0.014 A 
ATOM     41  C   UNL A   1      41.668  23.483  26.105  1.00  0.00     0.010 A 
ATOM     42  C   UNL A   1      42.401  22.753  28.303  1.00  0.00     0.010 A 
ATOM     43  C   UNL A   1      42.274  23.771  27.344  1.00  0.00    -0.014 A 
BRANCH  43  44
ATOM     44  C   UNL A   1      42.726  25.155  27.630  1.00  0.00     0.031 A 
ATOM     45  C   UNL A   1      41.841  26.157  28.322  1.00  0.00     0.074 A 
ATOM     46  C   UNL A   1      43.973  25.495  27.251  1.00  0.00     0.049 A 
ATOM     47  N   UNL A   1      42.064  27.428  28.550  1.00  0.00    -0.248 NA
ATOM     48  C   UNL A   1      40.539  25.684  28.819  1.00  0.00     0.031 C 
ATOM     49  C   UNL A   1      44.929  24.596  26.598  1.00  0.00     0.029 A 
ATOM     50  N   UNL A   1      44.657  26.675  27.367  1.00  0.00    -0.354 N 
ATOM     51  C   UNL A   1      40.932  27.910  29.194  1.00  0.00     0.074 A 
ATOM     52  C   UNL A   1      40.005  26.802  29.297  1.00  0.00     0.031 C 
ATOM     53  C   UNL A   1      46.088  25.237  26.421  1.00  0.00     0.029 A 
ATOM     54  C   UNL A   1      45.922  26.621  26.839  1.00  0.00     0.049 A 
ATOM     55  H   UNL A   1      44.279  27.482  27.786  1.00  0.00     0.167 HD
ATOM     56  C   UNL A   1      40.699  29.161  29.662  1.00  0.00     0.037 A 
ATOM     57  C   UNL A   1      46.838  27.586  26.660  1.00  0.00     0.037 A 
ATOM     58  C   UNL A   1      41.638  30.251  29.558  1.00  0.00     0.049 A 
ATOM     59  C   UNL A   1      46.513  28.978  27.105  1.00  0.00     0.074 A 
ATOM     60  C   UNL A   1      41.498  31.555  30.003  1.00  0.00     0.029 A 
ATOM     61  N   UNL A   1      42.892  30.167  28.966  1.00  0.00    -0.354 N 
ATOM     62  N   UNL A   1      45.437  29.423  27.704  1.00  0.00    -0.248 NA
ATOM     63  C   UNL A   1      47.532  30.001  26.851  1.00  0.00     0.031 C 
ATOM     64  C   UNL A   1      42.632  32.275  29.620  1.00  0.00     0.029 A 
ATOM     65  C   UNL A   1      43.522  31.403  29.014  1.00  0.00     0.049 A 
ATOM     66  H   UNL A   1      43.277  29.352  28.571  1.00  0.00     0.167 HD
ATOM     67  C   UNL A   1      45.663  30.772  27.934  1.00  0.00     0.074 A 
ATOM     68  C   UNL A   1      46.987  31.065  27.424  1.00  0.00     0.031 C 
ATOM     69  C   UNL A   1      44.846  31.683  28.518  1.00  0.00     0.037 A 
BRANCH  56  70
ATOM     70  C   UNL A   1      39.379  29.444  30.329  1.00  0.00     0.064 A 
ATOM     71  C   UNL A   1      39.141  29.104  31.668  1.00  0.00     0.173 A 
ATOM     72  C   UNL A   1      38.379  30.163  29.652  1.00  0.00     0.173 A 
ATOM     73  F   UNL A   1      40.058  28.413  32.363  1.00  0.00    -0.203 F 
ATOM     74  C   UNL A   1      37.951  29.462  32.302  1.00  0.00     0.198 A 
ATOM     75  C   UNL A   1      37.207  30.550  30.298  1.00  0.00     0.198 A 
ATOM     76  F   UNL A   1      38.555  30.525  28.372  1.00  0.00    -0.203 F 
ATOM     77  F   UNL A   1      37.737  29.101  33.574  1.00  0.00    -0.200 F 
ATOM     78  C   UNL A   1      36.993  30.197  31.621  1.00  0.00     0.200 A 
ATOM     79  F   UNL A   1      36.292  31.281  29.644  1.00  0.00    -0.200 F 
ATOM     80  F   UNL A   1      35.863  30.566  32.240  1.00  0.00    -0.200 F 
ENDBRANCH  56  70
BRANCH  57  81
ATOM     81  C   UNL A   1      48.141  27.249  26.032  1.00  0.00     0.064 A 
ATOM     82  C   UNL A   1      49.222  26.828  26.817  1.00  0.00     0.173 A 
ATOM     83  C   UNL A   1      48.323  27.300  24.641  1.00  0.00     0.173 A 
ATOM     84  F   UNL A   1      49.097  26.771  28.151  1.00  0.00    -0.203 F 
ATOM     85  C   UNL A   1      50.441  26.490  26.237  1.00  0.00     0.198 A 
ATOM     86  C   UNL A   1      49.530  26.921  24.059  1.00  0.00     0.198 A 
ATOM     87  F   UNL A   1      47.314  27.680  23.843  1.00  0.00    -0.203 F 
ATOM     88  F   UNL A   1      51.472  26.134  27.014  1.00  0.00    -0.200 F 
ATOM     89  C   UNL A   1      50.591  26.527  24.858  1.00  0.00     0.200 A 
ATOM     90  F   UNL A   1      49.658  26.929  22.725  1.00  0.00    -0.200 F 
ATOM     91  F   UNL A   1      51.759  26.184  24.300  1.00  0.00    -0.200 F 
ENDBRANCH  57  81
BRANCH  69  92
ATOM     92  C   UNL A   1      45.379  33.076  28.693  1.00  0.00     0.064 A 
ATOM     93  C   UNL A   1      45.173  34.079  27.734  1.00  0.00     0.173 A 
ATOM     94  C   UNL A   1      46.071  33.424  29.865  1.00  0.00     0.173 A 
ATOM     95  F   UNL A   1      44.531  33.798  26.590  1.00  0.00    -0.203 F 
ATOM     96  C   UNL A   1      45.665  35.367  27.926  1.00  0.00     0.198 A 
ATOM     97  C   UNL A   1      46.523  34.724  30.073  1.00  0.00     0.198 A 
ATOM     98  F   UNL A   1      46.291  32.508  30.819  1.00  0.00    -0.203 F 
ATOM     99  F   UNL A   1      45.510  36.291  26.969  1.00  0.00    -0.200 F 
ATOM    100  C   UNL A   1      46.329  35.691  29.100  1.00  0.00     0.200 A 
ATOM    101  F   UNL A   1      47.143  35.040  31.218  1.00  0.00    -0.200 F 
ATOM    102  F   UNL A   1      46.789  36.935  29.289  1.00  0.00    -0.200 F 
ENDBRANCH  69  92
ENDBRANCH  43  44
ENDBRANCH  35  38
ENDBRANCH  33  34
ENDBRANCH  32  33
ENDBRANCH   1  32
TORSDOF 14
ENDMDL
