MODEL 1
REMARK VINA RESULT:     -13.2      0.000      0.000
REMARK SMILES C[C@]12CCC[C@](C)(C(=O)NCCCCNC(=O)c3ccc(-c4c5nc(c(-c6c(F)c(F)c(F)c(F)c6F)c6ccc([nH]6)c(-c6c(F)c(F)c(F)c(F)c6F)c6nc(c(-c7c(F)c(F)c(F)c(F)c7F)c7ccc4[nH]7)C=C6)C=C5)cc3)[C@@H]1CC[C@]13C=C(CO)[C@H](CC[C@H]12)C3
REMARK SMILES IDX 12 1 11 2 10 3 8 4 9 5 6 7 1 8 2 9 3 10 81 11 92 12 4 13
REMARK SMILES IDX 82 14 84 15 91 16 5 17 7 18 83 19 85 20 93 21 90 22 86 23
REMARK SMILES IDX 89 24 87 25 88 26 13 28 14 29 15 30 16 31 17 33 18 34 19 35
REMARK SMILES IDX 80 36 20 37 79 38 21 39 22 40 23 41 73 42 24 43 78 44 72 45
REMARK SMILES IDX 74 46 25 47 77 48 71 49 70 50 26 52 58 53 38 54 57 55 39 56
REMARK SMILES IDX 42 57 56 58 75 59 40 60 41 61 55 63 76 64 43 65 27 66 28 67
REMARK SMILES IDX 36 68 29 69 30 70 34 71 37 72 31 73 32 74 35 75 33 76 59 77
REMARK SMILES IDX 60 78 68 79 61 80 62 81 66 82 69 83 63 84 64 85 67 86 65 87
REMARK SMILES IDX 44 88 45 89 53 90 46 91 47 92 51 93 54 94 48 95 49 96 52 97
REMARK SMILES IDX 50 98
REMARK H PARENT 10 6 88 27 15 32 74 51 42 62
REMARK Flexibility Score: inf
ROOT
ATOM      1  C   UNL A   1      39.040  22.084  26.241  1.00  0.00     0.023 C 
ENDROOT
BRANCH   1   2
ATOM      2  C   UNL A   1      37.897  22.904  25.668  1.00  0.00     0.116 C 
BRANCH   2   3
ATOM      3  N   UNL A   1      37.409  22.750  24.295  1.00  0.00    -0.356 N 
ATOM      4  C   UNL A   1      36.071  22.677  23.871  1.00  0.00     0.226 C 
ATOM      5  O   UNL A   1      35.811  23.092  22.743  1.00  0.00    -0.274 OA
ATOM      6  H   UNL A   1      38.096  22.691  23.592  1.00  0.00     0.163 HD
BRANCH   4   7
ATOM      7  C   UNL A   1      35.011  21.997  24.816  1.00  0.00     0.050 C 
ATOM      8  C   UNL A   1      34.641  24.868  25.493  1.00  0.00     0.012 C 
ATOM      9  C   UNL A   1      33.344  23.961  25.456  1.00  0.00    -0.025 C 
ATOM     10  C   UNL A   1      33.117  23.389  26.854  1.00  0.00     0.007 C 
ATOM     11  C   UNL A   1      33.568  22.745  24.460  1.00  0.00     0.010 C 
ATOM     12  C   UNL A   1      32.187  24.963  25.138  1.00  0.00     0.005 C 
ATOM     13  C   UNL A   1      34.396  22.819  27.402  1.00  0.00     0.002 C 
ATOM     14  C   UNL A   1      33.324  23.283  23.006  1.00  0.00     0.006 C 
ATOM     15  C   UNL A   1      32.016  25.400  23.643  1.00  0.00    -0.008 C 
ATOM     16  C   UNL A   1      30.826  25.063  25.829  1.00  0.00     0.006 C 
ATOM     17  C   UNL A   1      35.144  21.940  26.409  1.00  0.00     0.017 C 
ATOM     18  C   UNL A   1      35.398  20.474  24.611  1.00  0.00     0.022 C 
ATOM     19  C   UNL A   1      32.092  24.175  22.747  1.00  0.00     0.012 C 
ATOM     20  C   UNL A   1      32.957  26.565  23.490  1.00  0.00    -0.018 C 
ATOM     21  C   UNL A   1      30.730  26.252  23.407  1.00  0.00     0.019 C 
ATOM     22  C   UNL A   1      30.512  26.613  25.827  1.00  0.00     0.008 C 
ATOM     23  C   UNL A   1      32.423  27.606  24.171  1.00  0.00    -0.045 C 
ATOM     24  C   UNL A   1      30.934  27.327  24.486  1.00  0.00     0.018 C 
BRANCH  23  25
ATOM     25  C   UNL A   1      33.186  28.822  24.574  1.00  0.00     0.187 C 
BRANCH  25  26
ATOM     26  O   UNL A   1      33.602  29.541  23.415  1.00  0.00    -0.392 OA
ATOM     27  H   UNL A   1      34.542  29.766  23.493  1.00  0.00     0.211 HD
ENDBRANCH  25  26
ENDBRANCH  23  25
ENDBRANCH   4   7
ENDBRANCH   2   3
ENDBRANCH   1   2
BRANCH   1  28
ATOM     28  C   UNL A   1      39.419  20.791  25.568  1.00  0.00     0.023 C 
BRANCH  28  29
ATOM     29  C   UNL A   1      39.833  19.665  26.490  1.00  0.00     0.116 C 
BRANCH  29  30
ATOM     30  N   UNL A   1      40.934  18.854  25.999  1.00  0.00    -0.352 N 
ATOM     31  C   UNL A   1      42.277  19.157  25.911  1.00  0.00     0.251 C 
ATOM     32  H   UNL A   1      40.686  17.956  25.682  1.00  0.00     0.163 HD
ATOM     33  O   UNL A   1      43.060  18.363  25.432  1.00  0.00    -0.269 OA
BRANCH  31  34
ATOM     34  C   UNL A   1      42.740  20.491  26.357  1.00  0.00     0.039 A 
ATOM     35  C   UNL A   1      43.191  21.392  25.393  1.00  0.00     0.014 A 
ATOM     36  C   UNL A   1      42.677  20.864  27.701  1.00  0.00     0.014 A 
ATOM     37  C   UNL A   1      43.514  22.695  25.773  1.00  0.00     0.010 A 
ATOM     38  C   UNL A   1      42.882  22.190  28.056  1.00  0.00     0.010 A 
ATOM     39  C   UNL A   1      43.326  23.114  27.100  1.00  0.00    -0.014 A 
BRANCH  39  40
ATOM     40  C   UNL A   1      43.634  24.506  27.508  1.00  0.00     0.031 A 
ATOM     41  C   UNL A   1      45.062  24.978  27.538  1.00  0.00     0.074 A 
ATOM     42  C   UNL A   1      42.637  25.331  27.881  1.00  0.00     0.049 A 
ATOM     43  N   UNL A   1      45.539  26.154  27.860  1.00  0.00    -0.248 NA
ATOM     44  C   UNL A   1      46.097  23.989  27.190  1.00  0.00     0.031 C 
ATOM     45  C   UNL A   1      41.221  24.968  27.959  1.00  0.00     0.029 A 
ATOM     46  N   UNL A   1      42.663  26.649  28.262  1.00  0.00    -0.354 N 
ATOM     47  C   UNL A   1      46.921  26.038  27.763  1.00  0.00     0.074 A 
ATOM     48  C   UNL A   1      47.210  24.663  27.428  1.00  0.00     0.031 C 
ATOM     49  C   UNL A   1      40.510  26.048  28.322  1.00  0.00     0.029 A 
ATOM     50  C   UNL A   1      41.421  27.168  28.533  1.00  0.00     0.049 A 
ATOM     51  H   UNL A   1      43.494  27.172  28.334  1.00  0.00     0.167 HD
ATOM     52  C   UNL A   1      47.861  27.000  27.904  1.00  0.00     0.037 A 
ATOM     53  C   UNL A   1      41.062  28.412  28.903  1.00  0.00     0.037 A 
ATOM     54  C   UNL A   1      47.565  28.375  28.211  1.00  0.00     0.049 A 
ATOM     55  C   UNL A   1      42.127  29.468  29.041  1.00  0.00     0.074 A 
ATOM     56  C   UNL A   1      48.438  29.441  28.322  1.00  0.00     0.029 A 
ATOM     57  N   UNL A   1      46.293  28.868  28.458  1.00  0.00    -0.354 N 
ATOM     58  N   UNL A   1      43.422  29.368  28.865  1.00  0.00    -0.248 NA
ATOM     59  C   UNL A   1      41.674  30.814  29.412  1.00  0.00     0.031 C 
ATOM     60  C   UNL A   1      47.699  30.572  28.686  1.00  0.00     0.029 A 
ATOM     61  C   UNL A   1      46.359  30.223  28.741  1.00  0.00     0.049 A 
ATOM     62  H   UNL A   1      45.466  28.336  28.436  1.00  0.00     0.167 HD
ATOM     63  C   UNL A   1      43.935  30.641  29.072  1.00  0.00     0.074 A 
ATOM     64  C   UNL A   1      42.806  31.501  29.366  1.00  0.00     0.031 C 
ATOM     65  C   UNL A   1      45.223  31.063  29.024  1.00  0.00     0.037 A 
BRANCH  52  66
ATOM     66  C   UNL A   1      49.297  26.597  27.718  1.00  0.00     0.064 A 
ATOM     67  C   UNL A   1      49.862  26.453  26.442  1.00  0.00     0.173 A 
ATOM     68  C   UNL A   1      50.123  26.371  28.829  1.00  0.00     0.173 A 
ATOM     69  F   UNL A   1      49.113  26.642  25.345  1.00  0.00    -0.203 F 
ATOM     70  C   UNL A   1      51.191  26.066  26.284  1.00  0.00     0.198 A 
ATOM     71  C   UNL A   1      51.461  26.018  28.669  1.00  0.00     0.198 A 
ATOM     72  F   UNL A   1      49.635  26.497  30.073  1.00  0.00    -0.203 F 
ATOM     73  F   UNL A   1      51.691  25.879  25.055  1.00  0.00    -0.200 F 
ATOM     74  C   UNL A   1      51.991  25.856  27.397  1.00  0.00     0.200 A 
ATOM     75  F   UNL A   1      52.236  25.830  29.745  1.00  0.00    -0.200 F 
ATOM     76  F   UNL A   1      53.270  25.491  27.244  1.00  0.00    -0.200 F 
ENDBRANCH  52  66
BRANCH  53  77
ATOM     77  C   UNL A   1      39.629  28.740  29.126  1.00  0.00     0.064 A 
ATOM     78  C   UNL A   1      38.823  29.209  28.079  1.00  0.00     0.173 A 
ATOM     79  C   UNL A   1      39.037  28.604  30.391  1.00  0.00     0.173 A 
ATOM     80  F   UNL A   1      39.347  29.373  26.855  1.00  0.00    -0.203 F 
ATOM     81  C   UNL A   1      37.491  29.557  28.294  1.00  0.00     0.198 A 
ATOM     82  C   UNL A   1      37.697  28.921  30.597  1.00  0.00     0.198 A 
ATOM     83  F   UNL A   1      39.761  28.151  31.426  1.00  0.00    -0.203 F 
ATOM     84  F   UNL A   1      36.761  30.054  27.286  1.00  0.00    -0.200 F 
ATOM     85  C   UNL A   1      36.928  29.408  29.551  1.00  0.00     0.200 A 
ATOM     86  F   UNL A   1      37.151  28.761  31.811  1.00  0.00    -0.200 F 
ATOM     87  F   UNL A   1      35.646  29.742  29.757  1.00  0.00    -0.200 F 
ENDBRANCH  53  77
BRANCH  65  88
ATOM     88  C   UNL A   1      45.473  32.526  29.254  1.00  0.00     0.064 A 
ATOM     89  C   UNL A   1      45.757  33.038  30.530  1.00  0.00     0.173 A 
ATOM     90  C   UNL A   1      45.447  33.426  28.177  1.00  0.00     0.173 A 
ATOM     91  F   UNL A   1      45.781  32.223  31.595  1.00  0.00    -0.203 F 
ATOM     92  C   UNL A   1      45.962  34.401  30.724  1.00  0.00     0.198 A 
ATOM     93  C   UNL A   1      45.690  34.782  28.370  1.00  0.00     0.198 A 
ATOM     94  F   UNL A   1      45.191  32.988  26.935  1.00  0.00    -0.203 F 
ATOM     95  F   UNL A   1      46.166  34.875  31.960  1.00  0.00    -0.200 F 
ATOM     96  C   UNL A   1      45.935  35.271  29.644  1.00  0.00     0.200 A 
ATOM     97  F   UNL A   1      45.680  35.619  27.323  1.00  0.00    -0.200 F 
ATOM     98  F   UNL A   1      46.134  36.583  29.833  1.00  0.00    -0.200 F 
ENDBRANCH  65  88
ENDBRANCH  39  40
ENDBRANCH  31  34
ENDBRANCH  29  30
ENDBRANCH  28  29
ENDBRANCH   1  28
TORSDOF 13
ENDMDL
MODEL 2
REMARK VINA RESULT:     -13.2      0.101      1.106
REMARK SMILES C[C@]12CCC[C@](C)(C(=O)NCCCCNC(=O)c3ccc(-c4c5nc(c(-c6c(F)c(F)c(F)c(F)c6F)c6ccc([nH]6)c(-c6c(F)c(F)c(F)c(F)c6F)c6nc(c(-c7c(F)c(F)c(F)c(F)c7F)c7ccc4[nH]7)C=C6)C=C5)cc3)[C@@H]1CC[C@]13C=C(CO)[C@H](CC[C@H]12)C3
REMARK SMILES IDX 12 1 11 2 10 3 8 4 9 5 6 7 1 8 2 9 3 10 81 11 92 12 4 13
REMARK SMILES IDX 82 14 84 15 91 16 5 17 7 18 83 19 85 20 93 21 90 22 86 23
REMARK SMILES IDX 89 24 87 25 88 26 13 28 14 29 15 30 16 31 17 33 18 34 19 35
REMARK SMILES IDX 80 36 20 37 79 38 21 39 22 40 23 41 73 42 24 43 78 44 72 45
REMARK SMILES IDX 74 46 25 47 77 48 71 49 70 50 26 52 58 53 38 54 57 55 39 56
REMARK SMILES IDX 42 57 56 58 75 59 40 60 41 61 55 63 76 64 43 65 27 66 28 67
REMARK SMILES IDX 36 68 29 69 30 70 34 71 37 72 31 73 32 74 35 75 33 76 59 77
REMARK SMILES IDX 60 78 68 79 61 80 62 81 66 82 69 83 63 84 64 85 67 86 65 87
REMARK SMILES IDX 44 88 45 89 53 90 46 91 47 92 51 93 54 94 48 95 49 96 52 97
REMARK SMILES IDX 50 98
REMARK H PARENT 10 6 88 27 15 32 74 51 42 62
REMARK Flexibility Score: inf
ROOT
ATOM      1  C   UNL A   1      38.976  22.193  26.288  1.00  0.00     0.023 C 
ENDROOT
BRANCH   1   2
ATOM      2  C   UNL A   1      37.894  23.056  25.662  1.00  0.00     0.116 C 
BRANCH   2   3
ATOM      3  N   UNL A   1      37.420  22.876  24.287  1.00  0.00    -0.356 N 
ATOM      4  C   UNL A   1      36.088  22.755  23.855  1.00  0.00     0.226 C 
ATOM      5  O   UNL A   1      35.821  23.154  22.723  1.00  0.00    -0.274 OA
ATOM      6  H   UNL A   1      38.113  22.836  23.589  1.00  0.00     0.163 HD
BRANCH   4   7
ATOM      7  C   UNL A   1      35.045  22.046  24.799  1.00  0.00     0.050 C 
ATOM      8  C   UNL A   1      34.618  24.904  25.500  1.00  0.00     0.012 C 
ATOM      9  C   UNL A   1      33.341  23.971  25.460  1.00  0.00    -0.025 C 
ATOM     10  C   UNL A   1      33.131  23.384  26.855  1.00  0.00     0.007 C 
ATOM     11  C   UNL A   1      33.586  22.768  24.453  1.00  0.00     0.010 C 
ATOM     12  C   UNL A   1      32.162  24.951  25.154  1.00  0.00     0.005 C 
ATOM     13  C   UNL A   1      34.423  22.836  27.393  1.00  0.00     0.002 C 
ATOM     14  C   UNL A   1      33.326  23.311  23.005  1.00  0.00     0.006 C 
ATOM     15  C   UNL A   1      31.977  25.397  23.663  1.00  0.00    -0.008 C 
ATOM     16  C   UNL A   1      30.802  25.018  25.850  1.00  0.00     0.006 C 
ATOM     17  C   UNL A   1      35.185  21.980  26.391  1.00  0.00     0.017 C 
ATOM     18  C   UNL A   1      35.463  20.534  24.581  1.00  0.00     0.022 C 
ATOM     19  C   UNL A   1      32.075  24.181  22.757  1.00  0.00     0.012 C 
ATOM     20  C   UNL A   1      32.894  26.582  23.516  1.00  0.00    -0.018 C 
ATOM     21  C   UNL A   1      30.673  26.223  23.439  1.00  0.00     0.019 C 
ATOM     22  C   UNL A   1      30.456  26.561  25.862  1.00  0.00     0.008 C 
ATOM     23  C   UNL A   1      32.341  27.606  24.207  1.00  0.00    -0.045 C 
ATOM     24  C   UNL A   1      30.859  27.294  24.525  1.00  0.00     0.018 C 
BRANCH  23  25
ATOM     25  C   UNL A   1      33.080  28.835  24.616  1.00  0.00     0.187 C 
BRANCH  25  26
ATOM     26  O   UNL A   1      33.565  29.517  23.463  1.00  0.00    -0.392 OA
ATOM     27  H   UNL A   1      33.561  30.473  23.626  1.00  0.00     0.211 HD
ENDBRANCH  25  26
ENDBRANCH  23  25
ENDBRANCH   4   7
ENDBRANCH   2   3
ENDBRANCH   1   2
BRANCH   1  28
ATOM     28  C   UNL A   1      39.384  20.919  25.596  1.00  0.00     0.023 C 
BRANCH  28  29
ATOM     29  C   UNL A   1      39.815  19.787  26.502  1.00  0.00     0.116 C 
BRANCH  29  30
ATOM     30  N   UNL A   1      40.905  18.977  25.982  1.00  0.00    -0.352 N 
ATOM     31  C   UNL A   1      42.246  19.279  25.871  1.00  0.00     0.251 C 
ATOM     32  H   UNL A   1      40.649  18.083  25.662  1.00  0.00     0.163 HD
ATOM     33  O   UNL A   1      43.018  18.487  25.370  1.00  0.00    -0.269 OA
BRANCH  31  34
ATOM     34  C   UNL A   1      42.721  20.607  26.321  1.00  0.00     0.039 A 
ATOM     35  C   UNL A   1      43.104  21.535  25.353  1.00  0.00     0.014 A 
ATOM     36  C   UNL A   1      42.736  20.949  27.675  1.00  0.00     0.014 A 
ATOM     37  C   UNL A   1      43.436  22.833  25.744  1.00  0.00     0.010 A 
ATOM     38  C   UNL A   1      42.947  22.268  28.048  1.00  0.00     0.010 A 
ATOM     39  C   UNL A   1      43.323  23.220  27.089  1.00  0.00    -0.014 A 
BRANCH  39  40
ATOM     40  C   UNL A   1      43.640  24.605  27.511  1.00  0.00     0.031 A 
ATOM     41  C   UNL A   1      45.071  25.066  27.549  1.00  0.00     0.074 A 
ATOM     42  C   UNL A   1      42.648  25.434  27.889  1.00  0.00     0.049 A 
ATOM     43  N   UNL A   1      45.556  26.235  27.883  1.00  0.00    -0.248 NA
ATOM     44  C   UNL A   1      46.100  24.073  27.194  1.00  0.00     0.031 C 
ATOM     45  C   UNL A   1      41.229  25.080  27.960  1.00  0.00     0.029 A 
ATOM     46  N   UNL A   1      42.683  26.748  28.283  1.00  0.00    -0.354 N 
ATOM     47  C   UNL A   1      46.937  26.111  27.788  1.00  0.00     0.074 A 
ATOM     48  C   UNL A   1      47.217  24.737  27.441  1.00  0.00     0.031 C 
ATOM     49  C   UNL A   1      40.525  26.162  28.332  1.00  0.00     0.029 A 
ATOM     50  C   UNL A   1      41.444  27.273  28.556  1.00  0.00     0.049 A 
ATOM     51  H   UNL A   1      43.517  27.265  28.362  1.00  0.00     0.167 HD
ATOM     52  C   UNL A   1      47.884  27.065  27.940  1.00  0.00     0.037 A 
ATOM     53  C   UNL A   1      41.093  28.516  28.936  1.00  0.00     0.037 A 
ATOM     54  C   UNL A   1      47.597  28.438  28.260  1.00  0.00     0.049 A 
ATOM     55  C   UNL A   1      42.165  29.563  29.087  1.00  0.00     0.074 A 
ATOM     56  C   UNL A   1      48.478  29.497  28.383  1.00  0.00     0.029 A 
ATOM     57  N   UNL A   1      46.328  28.939  28.509  1.00  0.00    -0.354 N 
ATOM     58  N   UNL A   1      43.459  29.455  28.913  1.00  0.00    -0.248 NA
ATOM     59  C   UNL A   1      41.721  30.909  29.469  1.00  0.00     0.031 C 
ATOM     60  C   UNL A   1      47.746  30.630  28.756  1.00  0.00     0.029 A 
ATOM     61  C   UNL A   1      46.403  30.291  28.804  1.00  0.00     0.049 A 
ATOM     62  H   UNL A   1      45.497  28.413  28.480  1.00  0.00     0.167 HD
ATOM     63  C   UNL A   1      43.982  30.723  29.133  1.00  0.00     0.074 A 
ATOM     64  C   UNL A   1      42.858  31.588  29.432  1.00  0.00     0.031 C 
ATOM     65  C   UNL A   1      45.273  31.136  29.093  1.00  0.00     0.037 A 
BRANCH  52  66
ATOM     66  C   UNL A   1      49.317  26.653  27.755  1.00  0.00     0.064 A 
ATOM     67  C   UNL A   1      49.878  26.494  26.478  1.00  0.00     0.173 A 
ATOM     68  C   UNL A   1      50.146  26.434  28.865  1.00  0.00     0.173 A 
ATOM     69  F   UNL A   1      49.126  26.675  25.381  1.00  0.00    -0.203 F 
ATOM     70  C   UNL A   1      51.204  26.099  26.320  1.00  0.00     0.198 A 
ATOM     71  C   UNL A   1      51.481  26.074  28.704  1.00  0.00     0.198 A 
ATOM     72  F   UNL A   1      49.662  26.575  30.109  1.00  0.00    -0.203 F 
ATOM     73  F   UNL A   1      51.700  25.897  25.091  1.00  0.00    -0.200 F 
ATOM     74  C   UNL A   1      52.006  25.896  27.432  1.00  0.00     0.200 A 
ATOM     75  F   UNL A   1      52.258  25.892  29.780  1.00  0.00    -0.200 F 
ATOM     76  F   UNL A   1      53.284  25.524  27.279  1.00  0.00    -0.200 F 
ENDBRANCH  52  66
BRANCH  53  77
ATOM     77  C   UNL A   1      39.662  28.852  29.160  1.00  0.00     0.064 A 
ATOM     78  C   UNL A   1      39.080  28.729  30.430  1.00  0.00     0.173 A 
ATOM     79  C   UNL A   1      38.841  29.289  28.109  1.00  0.00     0.173 A 
ATOM     80  F   UNL A   1      39.819  28.298  31.464  1.00  0.00    -0.203 F 
ATOM     81  C   UNL A   1      37.730  29.003  30.635  1.00  0.00     0.198 A 
ATOM     82  C   UNL A   1      37.499  29.593  28.322  1.00  0.00     0.198 A 
ATOM     83  F   UNL A   1      39.348  29.432  26.875  1.00  0.00    -0.203 F 
ATOM     84  F   UNL A   1      37.190  28.824  31.849  1.00  0.00    -0.200 F 
ATOM     85  C   UNL A   1      36.941  29.438  29.582  1.00  0.00     0.200 A 
ATOM     86  F   UNL A   1      36.742  30.029  27.305  1.00  0.00    -0.200 F 
ATOM     87  F   UNL A   1      35.642  29.702  29.780  1.00  0.00    -0.200 F 
ENDBRANCH  53  77
BRANCH  65  88
ATOM     88  C   UNL A   1      45.533  32.595  29.337  1.00  0.00     0.064 A 
ATOM     89  C   UNL A   1      45.833  33.090  30.615  1.00  0.00     0.173 A 
ATOM     90  C   UNL A   1      45.499  33.507  28.271  1.00  0.00     0.173 A 
ATOM     91  F   UNL A   1      45.865  32.262  31.670  1.00  0.00    -0.203 F 
ATOM     92  C   UNL A   1      46.048  34.450  30.823  1.00  0.00     0.198 A 
ATOM     93  C   UNL A   1      45.751  34.860  28.477  1.00  0.00     0.198 A 
ATOM     94  F   UNL A   1      45.227  33.085  27.027  1.00  0.00    -0.203 F 
ATOM     95  F   UNL A   1      46.268  34.908  32.063  1.00  0.00    -0.200 F 
ATOM     96  C   UNL A   1      46.013  35.333  29.754  1.00  0.00     0.200 A 
ATOM     97  F   UNL A   1      45.733  35.709  27.440  1.00  0.00    -0.200 F 
ATOM     98  F   UNL A   1      46.221  36.641  29.956  1.00  0.00    -0.200 F 
ENDBRANCH  65  88
ENDBRANCH  39  40
ENDBRANCH  31  34
ENDBRANCH  29  30
ENDBRANCH  28  29
ENDBRANCH   1  28
TORSDOF 13
ENDMDL
MODEL 3
REMARK VINA RESULT:     -13.2      5.281     10.656
REMARK SMILES C[C@]12CCC[C@](C)(C(=O)NCCCCNC(=O)c3ccc(-c4c5nc(c(-c6c(F)c(F)c(F)c(F)c6F)c6ccc([nH]6)c(-c6c(F)c(F)c(F)c(F)c6F)c6nc(c(-c7c(F)c(F)c(F)c(F)c7F)c7ccc4[nH]7)C=C6)C=C5)cc3)[C@@H]1CC[C@]13C=C(CO)[C@H](CC[C@H]12)C3
REMARK SMILES IDX 12 1 11 2 10 3 8 4 9 5 6 7 1 8 2 9 3 10 81 11 92 12 4 13
REMARK SMILES IDX 82 14 84 15 91 16 5 17 7 18 83 19 85 20 93 21 90 22 86 23
REMARK SMILES IDX 89 24 87 25 88 26 13 28 14 29 15 30 16 31 17 33 18 34 19 35
REMARK SMILES IDX 80 36 20 37 79 38 21 39 22 40 23 41 73 42 24 43 78 44 72 45
REMARK SMILES IDX 74 46 25 47 77 48 71 49 70 50 26 52 58 53 38 54 57 55 39 56
REMARK SMILES IDX 42 57 56 58 75 59 40 60 41 61 55 63 76 64 43 65 27 66 28 67
REMARK SMILES IDX 36 68 29 69 30 70 34 71 37 72 31 73 32 74 35 75 33 76 59 77
REMARK SMILES IDX 60 78 68 79 61 80 62 81 66 82 69 83 63 84 64 85 67 86 65 87
REMARK SMILES IDX 44 88 45 89 53 90 46 91 47 92 51 93 54 94 48 95 49 96 52 97
REMARK SMILES IDX 50 98
REMARK H PARENT 10 6 88 27 15 32 74 51 42 62
REMARK Flexibility Score: inf
ROOT
ATOM      1  C   UNL A   1      34.233  31.205  27.580  1.00  0.00     0.023 C 
ENDROOT
BRANCH   1   2
ATOM      2  C   UNL A   1      33.889  29.751  27.305  1.00  0.00     0.116 C 
BRANCH   2   3
ATOM      3  N   UNL A   1      32.587  29.161  27.626  1.00  0.00    -0.356 N 
ATOM      4  C   UNL A   1      31.797  28.343  26.800  1.00  0.00     0.226 C 
ATOM      5  O   UNL A   1      31.068  27.518  27.349  1.00  0.00    -0.274 OA
ATOM      6  H   UNL A   1      32.225  29.361  28.520  1.00  0.00     0.163 HD
BRANCH   4   7
ATOM      7  C   UNL A   1      31.824  28.583  25.243  1.00  0.00     0.050 C 
ATOM      8  C   UNL A   1      33.904  26.480  25.546  1.00  0.00     0.012 C 
ATOM      9  C   UNL A   1      32.982  26.406  24.262  1.00  0.00    -0.025 C 
ATOM     10  C   UNL A   1      33.653  27.200  23.142  1.00  0.00     0.007 C 
ATOM     11  C   UNL A   1      31.579  27.082  24.568  1.00  0.00     0.010 C 
ATOM     12  C   UNL A   1      32.995  24.893  23.871  1.00  0.00     0.005 C 
ATOM     13  C   UNL A   1      34.102  28.543  23.647  1.00  0.00     0.002 C 
ATOM     14  C   UNL A   1      30.712  26.027  25.342  1.00  0.00     0.006 C 
ATOM     15  C   UNL A   1      32.059  23.939  24.690  1.00  0.00    -0.008 C 
ATOM     16  C   UNL A   1      33.196  24.292  22.478  1.00  0.00     0.006 C 
ATOM     17  C   UNL A   1      33.044  29.267  24.468  1.00  0.00     0.017 C 
ATOM     18  C   UNL A   1      30.892  29.861  25.148  1.00  0.00     0.022 C 
ATOM     19  C   UNL A   1      30.685  24.574  24.825  1.00  0.00     0.012 C 
ATOM     20  C   UNL A   1      32.886  23.553  25.888  1.00  0.00    -0.018 C 
ATOM     21  C   UNL A   1      32.011  22.494  24.105  1.00  0.00     0.019 C 
ATOM     22  C   UNL A   1      34.006  22.962  22.751  1.00  0.00     0.008 C 
ATOM     23  C   UNL A   1      33.859  22.719  25.453  1.00  0.00    -0.045 C 
ATOM     24  C   UNL A   1      33.517  22.194  24.038  1.00  0.00     0.018 C 
BRANCH  23  25
ATOM     25  C   UNL A   1      35.089  22.391  26.230  1.00  0.00     0.187 C 
BRANCH  25  26
ATOM     26  O   UNL A   1      34.778  21.453  27.258  1.00  0.00    -0.392 OA
ATOM     27  H   UNL A   1      34.600  21.927  28.086  1.00  0.00     0.211 HD
ENDBRANCH  25  26
ENDBRANCH  23  25
ENDBRANCH   4   7
ENDBRANCH   2   3
ENDBRANCH   1   2
BRANCH   1  28
ATOM     28  C   UNL A   1      33.136  32.147  28.001  1.00  0.00     0.023 C 
BRANCH  28  29
ATOM     29  C   UNL A   1      33.036  33.435  27.213  1.00  0.00     0.116 C 
BRANCH  29  30
ATOM     30  N   UNL A   1      32.565  34.577  27.979  1.00  0.00    -0.352 N 
ATOM     31  C   UNL A   1      33.080  35.137  29.129  1.00  0.00     0.251 C 
ATOM     32  H   UNL A   1      31.759  35.016  27.624  1.00  0.00     0.163 HD
ATOM     33  O   UNL A   1      32.528  36.077  29.661  1.00  0.00    -0.269 OA
BRANCH  31  34
ATOM     34  C   UNL A   1      34.288  34.535  29.738  1.00  0.00     0.039 A 
ATOM     35  C   UNL A   1      34.138  33.782  30.902  1.00  0.00     0.014 A 
ATOM     36  C   UNL A   1      35.542  34.667  29.137  1.00  0.00     0.014 A 
ATOM     37  C   UNL A   1      35.238  33.103  31.425  1.00  0.00     0.010 A 
ATOM     38  C   UNL A   1      36.604  33.895  29.588  1.00  0.00     0.010 A 
ATOM     39  C   UNL A   1      36.470  33.124  30.751  1.00  0.00    -0.014 A 
BRANCH  39  40
ATOM     40  C   UNL A   1      37.638  32.378  31.278  1.00  0.00     0.031 A 
ATOM     41  C   UNL A   1      38.169  32.693  32.650  1.00  0.00     0.074 A 
ATOM     42  C   UNL A   1      38.238  31.445  30.515  1.00  0.00     0.049 A 
ATOM     43  N   UNL A   1      39.174  32.154  33.293  1.00  0.00    -0.248 NA
ATOM     44  C   UNL A   1      37.503  33.780  33.387  1.00  0.00     0.031 C 
ATOM     45  C   UNL A   1      37.858  31.099  29.144  1.00  0.00     0.029 A 
ATOM     46  N   UNL A   1      39.295  30.613  30.785  1.00  0.00    -0.354 N 
ATOM     47  C   UNL A   1      39.262  32.842  34.497  1.00  0.00     0.074 A 
ATOM     48  C   UNL A   1      38.263  33.885  34.465  1.00  0.00     0.031 C 
ATOM     49  C   UNL A   1      38.642  30.099  28.709  1.00  0.00     0.029 A 
ATOM     50  C   UNL A   1      39.599  29.756  29.756  1.00  0.00     0.049 A 
ATOM     51  H   UNL A   1      39.789  30.629  31.637  1.00  0.00     0.167 HD
ATOM     52  C   UNL A   1      40.078  32.603  35.549  1.00  0.00     0.037 A 
ATOM     53  C   UNL A   1      40.540  28.797  29.674  1.00  0.00     0.037 A 
ATOM     54  C   UNL A   1      41.053  31.545  35.586  1.00  0.00     0.049 A 
ATOM     55  C   UNL A   1      41.427  28.542  30.864  1.00  0.00     0.074 A 
ATOM     56  C   UNL A   1      41.892  31.181  36.623  1.00  0.00     0.029 A 
ATOM     57  N   UNL A   1      41.318  30.683  34.532  1.00  0.00    -0.354 N 
ATOM     58  N   UNL A   1      41.446  29.144  32.028  1.00  0.00    -0.248 NA
ATOM     59  C   UNL A   1      42.411  27.461  30.731  1.00  0.00     0.031 C 
ATOM     60  C   UNL A   1      42.700  30.129  36.180  1.00  0.00     0.029 A 
ATOM     61  C   UNL A   1      42.323  29.798  34.888  1.00  0.00     0.049 A 
ATOM     62  H   UNL A   1      40.860  30.698  33.661  1.00  0.00     0.167 HD
ATOM     63  C   UNL A   1      42.419  28.496  32.778  1.00  0.00     0.074 A 
ATOM     64  C   UNL A   1      42.953  27.440  31.941  1.00  0.00     0.031 C 
ATOM     65  C   UNL A   1      42.835  28.750  34.043  1.00  0.00     0.037 A 
BRANCH  52  66
ATOM     66  C   UNL A   1      39.941  33.498  36.748  1.00  0.00     0.064 A 
ATOM     67  C   UNL A   1      39.034  33.213  37.781  1.00  0.00     0.173 A 
ATOM     68  C   UNL A   1      40.740  34.644  36.877  1.00  0.00     0.173 A 
ATOM     69  F   UNL A   1      38.235  32.139  37.702  1.00  0.00    -0.203 F 
ATOM     70  C   UNL A   1      38.909  34.059  38.880  1.00  0.00     0.198 A 
ATOM     71  C   UNL A   1      40.637  35.469  37.994  1.00  0.00     0.198 A 
ATOM     72  F   UNL A   1      41.626  34.963  35.921  1.00  0.00    -0.203 F 
ATOM     73  F   UNL A   1      37.994  33.797  39.825  1.00  0.00    -0.200 F 
ATOM     74  C   UNL A   1      39.715  35.182  38.990  1.00  0.00     0.200 A 
ATOM     75  F   UNL A   1      41.427  36.545  38.105  1.00  0.00    -0.200 F 
ATOM     76  F   UNL A   1      39.598  35.991  40.051  1.00  0.00    -0.200 F 
ENDBRANCH  52  66
BRANCH  53  77
ATOM     77  C   UNL A   1      40.665  27.977  28.440  1.00  0.00     0.064 A 
ATOM     78  C   UNL A   1      40.018  26.738  28.326  1.00  0.00     0.173 A 
ATOM     79  C   UNL A   1      41.442  28.406  27.354  1.00  0.00     0.173 A 
ATOM     80  F   UNL A   1      39.277  26.275  29.345  1.00  0.00    -0.203 F 
ATOM     81  C   UNL A   1      40.166  25.948  27.189  1.00  0.00     0.198 A 
ATOM     82  C   UNL A   1      41.564  27.630  26.203  1.00  0.00     0.198 A 
ATOM     83  F   UNL A   1      42.076  29.588  27.406  1.00  0.00    -0.203 F 
ATOM     84  F   UNL A   1      39.580  24.745  27.131  1.00  0.00    -0.200 F 
ATOM     85  C   UNL A   1      40.935  26.397  26.126  1.00  0.00     0.200 A 
ATOM     86  F   UNL A   1      42.295  28.074  25.171  1.00  0.00    -0.200 F 
ATOM     87  F   UNL A   1      41.077  25.637  25.031  1.00  0.00    -0.200 F 
ENDBRANCH  53  77
BRANCH  65  88
ATOM     88  C   UNL A   1      43.890  27.844  34.612  1.00  0.00     0.064 A 
ATOM     89  C   UNL A   1      45.255  28.165  34.551  1.00  0.00     0.173 A 
ATOM     90  C   UNL A   1      43.526  26.644  35.244  1.00  0.00     0.173 A 
ATOM     91  F   UNL A   1      45.656  29.294  33.946  1.00  0.00    -0.203 F 
ATOM     92  C   UNL A   1      46.217  27.300  35.064  1.00  0.00     0.198 A 
ATOM     93  C   UNL A   1      44.489  25.800  35.788  1.00  0.00     0.198 A 
ATOM     94  F   UNL A   1      42.235  26.294  35.338  1.00  0.00    -0.203 F 
ATOM     95  F   UNL A   1      47.517  27.597  34.935  1.00  0.00    -0.200 F 
ATOM     96  C   UNL A   1      45.834  26.122  35.687  1.00  0.00     0.200 A 
ATOM     97  F   UNL A   1      44.115  24.670  36.404  1.00  0.00    -0.200 F 
ATOM     98  F   UNL A   1      46.762  25.291  36.181  1.00  0.00    -0.200 F 
ENDBRANCH  65  88
ENDBRANCH  39  40
ENDBRANCH  31  34
ENDBRANCH  29  30
ENDBRANCH  28  29
ENDBRANCH   1  28
TORSDOF 13
ENDMDL
