MODEL 1
REMARK VINA RESULT:     -11.0      0.000      0.000
REMARK SMILES C[C@@H](C(=O)N(C)C)[N@H+](CC(=O)NCCCCNC(=O)c1ccc(-c2c3nc(c(-c4c(F)c(F)c(F)c(F)c4F)c4ccc([nH]4)c(-c4c(F)c(F)c(F)c(F)c4F)c4nc(c(-c5c(F)c(F)c(F)c(F)c5F)c5ccc2[nH]5)C=C4)C=C3)cc1)CC(F)(F)F
REMARK SMILES IDX 14 1 13 2 12 3 10 4 11 5 9 7 8 8 2 10 1 11 3 12 4 13 5 14
REMARK SMILES IDX 6 15 7 16 83 17 84 18 85 19 86 20 87 21 15 22 16 23 17 24
REMARK SMILES IDX 18 25 19 27 20 28 21 29 82 30 22 31 81 32 23 33 24 34 25 35
REMARK SMILES IDX 75 36 26 37 80 38 74 39 76 40 27 41 79 42 73 43 72 44 28 46
REMARK SMILES IDX 60 47 40 48 59 49 41 50 44 51 58 52 77 53 42 54 43 55 57 57
REMARK SMILES IDX 78 58 45 59 29 60 30 61 38 62 31 63 32 64 36 65 39 66 33 67
REMARK SMILES IDX 34 68 37 69 35 70 61 71 62 72 70 73 63 74 64 75 68 76 71 77
REMARK SMILES IDX 65 78 66 79 69 80 67 81 46 82 47 83 55 84 48 85 49 86 53 87
REMARK SMILES IDX 56 88 50 89 51 90 54 91 52 92
REMARK H PARENT 12 6 8 9 17 26 76 45 44 56
REMARK Flexibility Score: inf
ROOT
ATOM      1  C   UNL A   1      31.820  27.428  26.738  1.00  0.00     0.023 C 
ENDROOT
BRANCH   1   2
ATOM      2  C   UNL A   1      30.979  26.214  26.129  1.00  0.00     0.116 C 
BRANCH   2   3
ATOM      3  N   UNL A   1      30.946  24.785  26.494  1.00  0.00    -0.351 N 
ATOM      4  C   UNL A   1      31.798  23.762  26.820  1.00  0.00     0.275 C 
ATOM      5  O   UNL A   1      31.260  22.756  27.303  1.00  0.00    -0.269 OA
ATOM      6  H   UNL A   1      30.014  24.463  26.508  1.00  0.00     0.163 HD
BRANCH   4   7
ATOM      7  C   UNL A   1      33.312  23.754  26.547  1.00  0.00     0.364 C 
BRANCH   7   8
ATOM      8  N   UNL A   1      33.578  23.270  25.172  1.00  0.00    -0.310 N 
ATOM      9  H   UNL A   1      32.721  23.327  24.622  1.00  0.00     0.349 HD
BRANCH   8  10
ATOM     10  C   UNL A   1      34.534  24.167  24.484  1.00  0.00     0.271 C 
ATOM     11  C   UNL A   1      35.993  23.663  24.497  1.00  0.00     0.086 C 
BRANCH  10  12
ATOM     12  C   UNL A   1      33.969  24.566  23.081  1.00  0.00     0.280 C 
ATOM     13  O   UNL A   1      34.027  23.722  22.178  1.00  0.00    -0.268 OA
ATOM     14  N   UNL A   1      33.396  25.823  22.810  1.00  0.00    -0.344 N 
ATOM     15  C   UNL A   1      33.486  27.106  23.495  1.00  0.00     0.146 C 
ATOM     16  C   UNL A   1      32.662  25.943  21.572  1.00  0.00     0.146 C 
ENDBRANCH  10  12
ENDBRANCH   8  10
BRANCH   8  17
ATOM     17  C   UNL A   1      33.887  21.807  25.123  1.00  0.00     0.380 C 
BRANCH  17  18
ATOM     18  C   UNL A   1      32.938  20.822  24.383  1.00  0.00     0.438 C 
ATOM     19  F   UNL A   1      32.658  21.199  23.122  1.00  0.00    -0.165 F 
ATOM     20  F   UNL A   1      33.536  19.604  24.288  1.00  0.00    -0.165 F 
ATOM     21  F   UNL A   1      31.779  20.643  25.050  1.00  0.00    -0.165 F 
ENDBRANCH  17  18
ENDBRANCH   8  17
ENDBRANCH   7   8
ENDBRANCH   4   7
ENDBRANCH   2   3
ENDBRANCH   1   2
BRANCH   1  22
ATOM     22  C   UNL A   1      31.766  29.000  26.732  1.00  0.00     0.023 C 
BRANCH  22  23
ATOM     23  C   UNL A   1      32.689  30.008  26.009  1.00  0.00     0.116 C 
BRANCH  23  24
ATOM     24  N   UNL A   1      32.539  31.391  26.380  1.00  0.00    -0.352 N 
ATOM     25  C   UNL A   1      33.306  32.115  27.263  1.00  0.00     0.251 C 
ATOM     26  H   UNL A   1      31.799  31.877  25.950  1.00  0.00     0.163 HD
ATOM     27  O   UNL A   1      32.902  33.231  27.629  1.00  0.00    -0.269 OA
BRANCH  25  28
ATOM     28  C   UNL A   1      34.592  31.620  27.823  1.00  0.00     0.039 A 
ATOM     29  C   UNL A   1      34.638  30.323  28.353  1.00  0.00     0.014 A 
ATOM     30  C   UNL A   1      35.694  32.463  28.002  1.00  0.00     0.014 A 
ATOM     31  C   UNL A   1      35.774  29.869  29.041  1.00  0.00     0.010 A 
ATOM     32  C   UNL A   1      36.842  31.998  28.673  1.00  0.00     0.010 A 
ATOM     33  C   UNL A   1      36.893  30.700  29.213  1.00  0.00    -0.014 A 
BRANCH  33  34
ATOM     34  C   UNL A   1      38.092  30.212  29.964  1.00  0.00     0.031 A 
ATOM     35  C   UNL A   1      38.349  30.646  31.387  1.00  0.00     0.074 A 
ATOM     36  C   UNL A   1      38.961  29.368  29.372  1.00  0.00     0.049 A 
ATOM     37  N   UNL A   1      39.323  30.310  32.199  1.00  0.00    -0.248 NA
ATOM     38  C   UNL A   1      37.389  31.594  31.969  1.00  0.00     0.031 C 
ATOM     39  C   UNL A   1      38.850  28.883  27.997  1.00  0.00     0.029 A 
ATOM     40  N   UNL A   1      40.107  28.770  29.843  1.00  0.00    -0.354 N 
ATOM     41  C   UNL A   1      39.097  31.007  33.381  1.00  0.00     0.074 A 
ATOM     42  C   UNL A   1      37.918  31.820  33.164  1.00  0.00     0.031 C 
ATOM     43  C   UNL A   1      39.870  28.049  27.740  1.00  0.00     0.029 A 
ATOM     44  C   UNL A   1      40.729  27.960  28.920  1.00  0.00     0.049 A 
ATOM     45  H   UNL A   1      40.451  28.908  30.755  1.00  0.00     0.167 HD
ATOM     46  C   UNL A   1      39.793  30.962  34.546  1.00  0.00     0.037 A 
ATOM     47  C   UNL A   1      41.859  27.233  29.009  1.00  0.00     0.037 A 
ATOM     48  C   UNL A   1      40.963  30.149  34.765  1.00  0.00     0.049 A 
ATOM     49  C   UNL A   1      42.629  27.215  30.305  1.00  0.00     0.074 A 
ATOM     50  C   UNL A   1      41.712  30.002  35.921  1.00  0.00     0.029 A 
ATOM     51  N   UNL A   1      41.563  29.348  33.802  1.00  0.00    -0.354 N 
ATOM     52  N   UNL A   1      42.364  27.828  31.432  1.00  0.00    -0.248 NA
ATOM     53  C   UNL A   1      43.849  26.395  30.342  1.00  0.00     0.031 C 
ATOM     54  C   UNL A   1      42.794  29.160  35.643  1.00  0.00     0.029 A 
ATOM     55  C   UNL A   1      42.685  28.728  34.330  1.00  0.00     0.049 A 
ATOM     56  H   UNL A   1      41.238  29.236  32.880  1.00  0.00     0.167 HD
ATOM     57  C   UNL A   1      43.363  27.446  32.319  1.00  0.00     0.074 A 
ATOM     58  C   UNL A   1      44.232  26.537  31.603  1.00  0.00     0.031 C 
ATOM     59  C   UNL A   1      43.541  27.817  33.612  1.00  0.00     0.037 A 
BRANCH  46  60
ATOM     60  C   UNL A   1      39.314  31.831  35.679  1.00  0.00     0.064 A 
ATOM     61  C   UNL A   1      39.746  33.159  35.825  1.00  0.00     0.173 A 
ATOM     62  C   UNL A   1      38.387  31.341  36.613  1.00  0.00     0.173 A 
ATOM     63  F   UNL A   1      40.631  33.679  34.962  1.00  0.00    -0.203 F 
ATOM     64  C   UNL A   1      39.301  33.948  36.884  1.00  0.00     0.198 A 
ATOM     65  C   UNL A   1      37.919  32.144  37.652  1.00  0.00     0.198 A 
ATOM     66  F   UNL A   1      37.927  30.086  36.517  1.00  0.00    -0.203 F 
ATOM     67  F   UNL A   1      39.773  35.193  37.034  1.00  0.00    -0.200 F 
ATOM     68  C   UNL A   1      38.384  33.442  37.793  1.00  0.00     0.200 A 
ATOM     69  F   UNL A   1      37.019  31.659  38.520  1.00  0.00    -0.200 F 
ATOM     70  F   UNL A   1      37.958  34.203  38.811  1.00  0.00    -0.200 F 
ENDBRANCH  46  60
BRANCH  47  71
ATOM     71  C   UNL A   1      42.324  26.438  27.838  1.00  0.00     0.064 A 
ATOM     72  C   UNL A   1      43.289  26.944  26.955  1.00  0.00     0.173 A 
ATOM     73  C   UNL A   1      41.815  25.157  27.578  1.00  0.00     0.173 A 
ATOM     74  F   UNL A   1      43.790  28.173  27.144  1.00  0.00    -0.203 F 
ATOM     75  C   UNL A   1      43.715  26.207  25.851  1.00  0.00     0.198 A 
ATOM     76  C   UNL A   1      42.263  24.408  26.492  1.00  0.00     0.198 A 
ATOM     77  F   UNL A   1      40.889  24.625  28.390  1.00  0.00    -0.203 F 
ATOM     78  F   UNL A   1      44.605  26.732  24.999  1.00  0.00    -0.200 F 
ATOM     79  C   UNL A   1      43.207  24.936  25.625  1.00  0.00     0.200 A 
ATOM     80  F   UNL A   1      41.780  23.175  26.285  1.00  0.00    -0.200 F 
ATOM     81  F   UNL A   1      43.624  24.224  24.569  1.00  0.00    -0.200 F 
ENDBRANCH  47  71
BRANCH  59  82
ATOM     82  C   UNL A   1      44.699  27.211  34.353  1.00  0.00     0.064 A 
ATOM     83  C   UNL A   1      45.952  27.840  34.415  1.00  0.00     0.173 A 
ATOM     84  C   UNL A   1      44.539  26.002  35.049  1.00  0.00     0.173 A 
ATOM     85  F   UNL A   1      46.162  28.990  33.757  1.00  0.00    -0.203 F 
ATOM     86  C   UNL A   1      47.006  27.270  35.125  1.00  0.00     0.198 A 
ATOM     87  C   UNL A   1      45.586  25.452  35.784  1.00  0.00     0.198 A 
ATOM     88  F   UNL A   1      43.361  25.361  35.030  1.00  0.00    -0.203 F 
ATOM     89  F   UNL A   1      48.206  27.865  35.129  1.00  0.00    -0.200 F 
ATOM     90  C   UNL A   1      46.820  26.081  35.815  1.00  0.00     0.200 A 
ATOM     91  F   UNL A   1      45.399  24.311  36.463  1.00  0.00    -0.200 F 
ATOM     92  F   UNL A   1      47.833  25.540  36.504  1.00  0.00    -0.200 F 
ENDBRANCH  59  82
ENDBRANCH  33  34
ENDBRANCH  25  28
ENDBRANCH  23  24
ENDBRANCH  22  23
ENDBRANCH   1  22
TORSDOF 16
ENDMDL
MODEL 2
REMARK VINA RESULT:     -10.9      0.774      2.358
REMARK SMILES C[C@@H](C(=O)N(C)C)[N@H+](CC(=O)NCCCCNC(=O)c1ccc(-c2c3nc(c(-c4c(F)c(F)c(F)c(F)c4F)c4ccc([nH]4)c(-c4c(F)c(F)c(F)c(F)c4F)c4nc(c(-c5c(F)c(F)c(F)c(F)c5F)c5ccc2[nH]5)C=C4)C=C3)cc1)CC(F)(F)F
REMARK SMILES IDX 14 1 13 2 12 3 10 4 11 5 9 7 8 8 2 10 1 11 3 12 4 13 5 14
REMARK SMILES IDX 6 15 7 16 83 17 84 18 85 19 86 20 87 21 15 22 16 23 17 24
REMARK SMILES IDX 18 25 19 27 20 28 21 29 82 30 22 31 81 32 23 33 24 34 25 35
REMARK SMILES IDX 75 36 26 37 80 38 74 39 76 40 27 41 79 42 73 43 72 44 28 46
REMARK SMILES IDX 60 47 40 48 59 49 41 50 44 51 58 52 77 53 42 54 43 55 57 57
REMARK SMILES IDX 78 58 45 59 29 60 30 61 38 62 31 63 32 64 36 65 39 66 33 67
REMARK SMILES IDX 34 68 37 69 35 70 61 71 62 72 70 73 63 74 64 75 68 76 71 77
REMARK SMILES IDX 65 78 66 79 69 80 67 81 46 82 47 83 55 84 48 85 49 86 53 87
REMARK SMILES IDX 56 88 50 89 51 90 54 91 52 92
REMARK H PARENT 12 6 8 9 17 26 76 45 44 56
REMARK Flexibility Score: inf
ROOT
ATOM      1  C   UNL A   1      32.314  28.858  23.433  1.00  0.00     0.023 C 
ENDROOT
BRANCH   1   2
ATOM      2  C   UNL A   1      33.560  28.041  22.859  1.00  0.00     0.116 C 
BRANCH   2   3
ATOM      3  N   UNL A   1      33.636  26.700  22.249  1.00  0.00    -0.351 N 
ATOM      4  C   UNL A   1      32.875  25.570  22.096  1.00  0.00     0.275 C 
ATOM      5  O   UNL A   1      33.297  24.756  21.261  1.00  0.00    -0.269 OA
ATOM      6  H   UNL A   1      34.511  26.577  21.813  1.00  0.00     0.163 HD
BRANCH   4   7
ATOM      7  C   UNL A   1      31.631  25.222  22.931  1.00  0.00     0.364 C 
BRANCH   7   8
ATOM      8  N   UNL A   1      32.003  24.323  24.048  1.00  0.00    -0.310 N 
ATOM      9  H   UNL A   1      33.001  24.118  23.999  1.00  0.00     0.349 HD
BRANCH   8  10
ATOM     10  C   UNL A   1      31.817  25.009  25.348  1.00  0.00     0.271 C 
ATOM     11  C   UNL A   1      30.500  25.804  25.458  1.00  0.00     0.086 C 
BRANCH  10  12
ATOM     12  C   UNL A   1      32.105  24.011  26.517  1.00  0.00     0.280 C 
ATOM     13  O   UNL A   1      31.191  23.796  27.324  1.00  0.00    -0.268 OA
ATOM     14  N   UNL A   1      33.337  23.351  26.682  1.00  0.00    -0.344 N 
ATOM     15  C   UNL A   1      34.670  23.625  26.161  1.00  0.00     0.146 C 
ATOM     16  C   UNL A   1      33.359  22.253  27.621  1.00  0.00     0.146 C 
ENDBRANCH  10  12
ENDBRANCH   8  10
BRANCH   8  17
ATOM     17  C   UNL A   1      31.395  22.962  23.923  1.00  0.00     0.380 C 
BRANCH  17  18
ATOM     18  C   UNL A   1      32.284  21.723  23.615  1.00  0.00     0.438 C 
ATOM     19  F   UNL A   1      31.875  21.030  22.536  1.00  0.00    -0.165 F 
ATOM     20  F   UNL A   1      33.550  22.133  23.341  1.00  0.00    -0.165 F 
ATOM     21  F   UNL A   1      32.358  20.883  24.668  1.00  0.00    -0.165 F 
ENDBRANCH  17  18
ENDBRANCH   8  17
ENDBRANCH   7   8
ENDBRANCH   4   7
ENDBRANCH   2   3
ENDBRANCH   1   2
BRANCH   1  22
ATOM     22  C   UNL A   1      31.821  29.404  24.824  1.00  0.00     0.023 C 
BRANCH  22  23
ATOM     23  C   UNL A   1      32.650  29.908  26.027  1.00  0.00     0.116 C 
BRANCH  23  24
ATOM     24  N   UNL A   1      32.482  31.293  26.384  1.00  0.00    -0.352 N 
ATOM     25  C   UNL A   1      33.252  32.040  27.245  1.00  0.00     0.251 C 
ATOM     26  H   UNL A   1      31.726  31.761  25.962  1.00  0.00     0.163 HD
ATOM     27  O   UNL A   1      32.834  33.153  27.606  1.00  0.00    -0.269 OA
BRANCH  25  28
ATOM     28  C   UNL A   1      34.555  31.575  27.788  1.00  0.00     0.039 A 
ATOM     29  C   UNL A   1      34.639  30.277  28.314  1.00  0.00     0.014 A 
ATOM     30  C   UNL A   1      35.639  32.442  27.956  1.00  0.00     0.014 A 
ATOM     31  C   UNL A   1      35.794  29.848  28.987  1.00  0.00     0.010 A 
ATOM     32  C   UNL A   1      36.806  32.003  28.612  1.00  0.00     0.010 A 
ATOM     33  C   UNL A   1      36.895  30.705  29.147  1.00  0.00    -0.014 A 
BRANCH  33  34
ATOM     34  C   UNL A   1      38.114  30.244  29.883  1.00  0.00     0.031 A 
ATOM     35  C   UNL A   1      38.392  30.703  31.294  1.00  0.00     0.074 A 
ATOM     36  C   UNL A   1      38.983  29.403  29.286  1.00  0.00     0.049 A 
ATOM     37  N   UNL A   1      39.386  30.391  32.092  1.00  0.00    -0.248 NA
ATOM     38  C   UNL A   1      37.431  31.646  31.880  1.00  0.00     0.031 C 
ATOM     39  C   UNL A   1      38.852  28.896  27.921  1.00  0.00     0.029 A 
ATOM     40  N   UNL A   1      40.145  28.827  29.743  1.00  0.00    -0.354 N 
ATOM     41  C   UNL A   1      39.172  31.102  33.268  1.00  0.00     0.074 A 
ATOM     42  C   UNL A   1      37.980  31.896  33.061  1.00  0.00     0.031 C 
ATOM     43  C   UNL A   1      39.878  28.072  27.656  1.00  0.00     0.029 A 
ATOM     44  C   UNL A   1      40.760  28.012  28.821  1.00  0.00     0.049 A 
ATOM     45  H   UNL A   1      40.504  28.983  30.647  1.00  0.00     0.167 HD
ATOM     46  C   UNL A   1      39.891  31.083  34.420  1.00  0.00     0.037 A 
ATOM     47  C   UNL A   1      41.901  27.300  28.898  1.00  0.00     0.037 A 
ATOM     48  C   UNL A   1      41.076  30.288  34.628  1.00  0.00     0.049 A 
ATOM     49  C   UNL A   1      42.696  27.311  30.179  1.00  0.00     0.074 A 
ATOM     50  C   UNL A   1      41.849  30.169  35.772  1.00  0.00     0.029 A 
ATOM     51  N   UNL A   1      41.668  29.481  33.665  1.00  0.00    -0.354 N 
ATOM     52  N   UNL A   1      42.444  27.937  31.303  1.00  0.00    -0.248 NA
ATOM     53  C   UNL A   1      43.927  26.508  30.205  1.00  0.00     0.031 C 
ATOM     54  C   UNL A   1      42.936  29.336  35.485  1.00  0.00     0.029 A 
ATOM     55  C   UNL A   1      42.808  28.884  34.181  1.00  0.00     0.049 A 
ATOM     56  H   UNL A   1      41.327  29.352  32.752  1.00  0.00     0.167 HD
ATOM     57  C   UNL A   1      43.465  27.582  32.176  1.00  0.00     0.074 A 
ATOM     58  C   UNL A   1      44.332  26.673  31.456  1.00  0.00     0.031 C 
ATOM     59  C   UNL A   1      43.662  27.974  33.460  1.00  0.00     0.037 A 
BRANCH  46  60
ATOM     60  C   UNL A   1      39.423  31.962  35.549  1.00  0.00     0.064 A 
ATOM     61  C   UNL A   1      38.537  31.493  36.533  1.00  0.00     0.173 A 
ATOM     62  C   UNL A   1      39.891  33.281  35.671  1.00  0.00     0.173 A 
ATOM     63  F   UNL A   1      38.058  30.242  36.467  1.00  0.00    -0.203 F 
ATOM     64  C   UNL A   1      38.106  32.321  37.567  1.00  0.00     0.198 A 
ATOM     65  C   UNL A   1      39.483  34.095  36.725  1.00  0.00     0.198 A 
ATOM     66  F   UNL A   1      40.751  33.780  34.771  1.00  0.00    -0.203 F 
ATOM     67  F   UNL A   1      37.214  31.867  38.459  1.00  0.00    -0.200 F 
ATOM     68  C   UNL A   1      38.583  33.619  37.666  1.00  0.00     0.200 A 
ATOM     69  F   UNL A   1      39.959  35.344  36.830  1.00  0.00    -0.200 F 
ATOM     70  F   UNL A   1      38.167  34.414  38.661  1.00  0.00    -0.200 F 
ENDBRANCH  46  60
BRANCH  47  71
ATOM     71  C   UNL A   1      42.355  26.494  27.731  1.00  0.00     0.064 A 
ATOM     72  C   UNL A   1      43.300  26.998  26.825  1.00  0.00     0.173 A 
ATOM     73  C   UNL A   1      41.853  25.205  27.496  1.00  0.00     0.173 A 
ATOM     74  F   UNL A   1      43.792  28.234  26.989  1.00  0.00    -0.203 F 
ATOM     75  C   UNL A   1      43.714  26.249  25.724  1.00  0.00     0.198 A 
ATOM     76  C   UNL A   1      42.290  24.446  26.412  1.00  0.00     0.198 A 
ATOM     77  F   UNL A   1      40.946  24.675  28.331  1.00  0.00    -0.203 F 
ATOM     78  F   UNL A   1      44.585  26.772  24.850  1.00  0.00    -0.200 F 
ATOM     79  C   UNL A   1      43.215  24.971  25.523  1.00  0.00     0.200 A 
ATOM     80  F   UNL A   1      41.816  23.206  26.230  1.00  0.00    -0.200 F 
ATOM     81  F   UNL A   1      43.621  24.249  24.470  1.00  0.00    -0.200 F 
ENDBRANCH  47  71
BRANCH  59  82
ATOM     82  C   UNL A   1      44.842  27.393  34.187  1.00  0.00     0.064 A 
ATOM     83  C   UNL A   1      46.061  28.080  34.291  1.00  0.00     0.173 A 
ATOM     84  C   UNL A   1      44.735  26.149  34.829  1.00  0.00     0.173 A 
ATOM     85  F   UNL A   1      46.220  29.266  33.684  1.00  0.00    -0.203 F 
ATOM     86  C   UNL A   1      47.135  27.532  34.987  1.00  0.00     0.198 A 
ATOM     87  C   UNL A   1      45.801  25.619  35.551  1.00  0.00     0.198 A 
ATOM     88  F   UNL A   1      43.591  25.452  34.768  1.00  0.00    -0.203 F 
ATOM     89  F   UNL A   1      48.305  28.184  35.031  1.00  0.00    -0.200 F 
ATOM     90  C   UNL A   1      47.002  26.307  35.623  1.00  0.00     0.200 A 
ATOM     91  F   UNL A   1      45.665  24.442  36.178  1.00  0.00    -0.200 F 
ATOM     92  F   UNL A   1      48.035  25.787  36.300  1.00  0.00    -0.200 F 
ENDBRANCH  59  82
ENDBRANCH  33  34
ENDBRANCH  25  28
ENDBRANCH  23  24
ENDBRANCH  22  23
ENDBRANCH   1  22
TORSDOF 16
ENDMDL
MODEL 3
REMARK VINA RESULT:     -10.8      4.884      8.434
REMARK SMILES C[C@@H](C(=O)N(C)C)[N@H+](CC(=O)NCCCCNC(=O)c1ccc(-c2c3nc(c(-c4c(F)c(F)c(F)c(F)c4F)c4ccc([nH]4)c(-c4c(F)c(F)c(F)c(F)c4F)c4nc(c(-c5c(F)c(F)c(F)c(F)c5F)c5ccc2[nH]5)C=C4)C=C3)cc1)CC(F)(F)F
REMARK SMILES IDX 14 1 13 2 12 3 10 4 11 5 9 7 8 8 2 10 1 11 3 12 4 13 5 14
REMARK SMILES IDX 6 15 7 16 83 17 84 18 85 19 86 20 87 21 15 22 16 23 17 24
REMARK SMILES IDX 18 25 19 27 20 28 21 29 82 30 22 31 81 32 23 33 24 34 25 35
REMARK SMILES IDX 75 36 26 37 80 38 74 39 76 40 27 41 79 42 73 43 72 44 28 46
REMARK SMILES IDX 60 47 40 48 59 49 41 50 44 51 58 52 77 53 42 54 43 55 57 57
REMARK SMILES IDX 78 58 45 59 29 60 30 61 38 62 31 63 32 64 36 65 39 66 33 67
REMARK SMILES IDX 34 68 37 69 35 70 61 71 62 72 70 73 63 74 64 75 68 76 71 77
REMARK SMILES IDX 65 78 66 79 69 80 67 81 46 82 47 83 55 84 48 85 49 86 53 87
REMARK SMILES IDX 56 88 50 89 51 90 54 91 52 92
REMARK H PARENT 12 6 8 9 17 26 76 45 44 56
REMARK Flexibility Score: inf
ROOT
ATOM      1  C   UNL A   1      36.881  20.379  24.636  1.00  0.00     0.023 C 
ENDROOT
BRANCH   1   2
ATOM      2  C   UNL A   1      35.523  20.833  25.344  1.00  0.00     0.116 C 
BRANCH   2   3
ATOM      3  N   UNL A   1      34.223  20.147  25.466  1.00  0.00    -0.351 N 
ATOM      4  C   UNL A   1      33.024  20.040  24.810  1.00  0.00     0.275 C 
ATOM      5  O   UNL A   1      32.294  19.113  25.187  1.00  0.00    -0.269 OA
ATOM      6  H   UNL A   1      34.213  19.588  26.277  1.00  0.00     0.163 HD
BRANCH   4   7
ATOM      7  C   UNL A   1      32.512  21.020  23.740  1.00  0.00     0.364 C 
BRANCH   7   8
ATOM      8  N   UNL A   1      32.536  22.405  24.266  1.00  0.00    -0.310 N 
ATOM      9  H   UNL A   1      33.492  22.654  24.519  1.00  0.00     0.349 HD
BRANCH   8  10
ATOM     10  C   UNL A   1      32.158  23.367  23.206  1.00  0.00     0.271 C 
ATOM     11  C   UNL A   1      30.653  23.710  23.173  1.00  0.00     0.086 C 
BRANCH  10  12
ATOM     12  C   UNL A   1      33.129  24.592  23.233  1.00  0.00     0.280 C 
ATOM     13  O   UNL A   1      34.263  24.435  22.762  1.00  0.00    -0.268 OA
ATOM     14  N   UNL A   1      32.770  25.850  23.754  1.00  0.00    -0.344 N 
ATOM     15  C   UNL A   1      31.708  26.264  24.662  1.00  0.00     0.146 C 
ATOM     16  C   UNL A   1      33.655  26.950  23.449  1.00  0.00     0.146 C 
ENDBRANCH  10  12
ENDBRANCH   8  10
BRANCH   8  17
ATOM     17  C   UNL A   1      31.819  22.540  25.572  1.00  0.00     0.380 C 
BRANCH  17  18
ATOM     18  C   UNL A   1      32.493  23.263  26.774  1.00  0.00     0.438 C 
ATOM     19  F   UNL A   1      31.768  24.291  27.251  1.00  0.00    -0.165 F 
ATOM     20  F   UNL A   1      32.634  22.389  27.805  1.00  0.00    -0.165 F 
ATOM     21  F   UNL A   1      33.728  23.711  26.463  1.00  0.00    -0.165 F 
ENDBRANCH  17  18
ENDBRANCH   8  17
ENDBRANCH   7   8
ENDBRANCH   4   7
ENDBRANCH   2   3
ENDBRANCH   1   2
BRANCH   1  22
ATOM     22  C   UNL A   1      38.157  19.533  25.000  1.00  0.00     0.023 C 
BRANCH  22  23
ATOM     23  C   UNL A   1      39.378  19.926  25.863  1.00  0.00     0.116 C 
BRANCH  23  24
ATOM     24  N   UNL A   1      40.404  18.926  26.012  1.00  0.00    -0.352 N 
ATOM     25  C   UNL A   1      41.760  19.121  26.125  1.00  0.00     0.251 C 
ATOM     26  H   UNL A   1      40.098  17.991  26.034  1.00  0.00     0.163 HD
ATOM     27  O   UNL A   1      42.515  18.141  26.023  1.00  0.00    -0.269 OA
BRANCH  25  28
ATOM     28  C   UNL A   1      42.377  20.457  26.343  1.00  0.00     0.039 A 
ATOM     29  C   UNL A   1      42.301  21.032  27.620  1.00  0.00     0.014 A 
ATOM     30  C   UNL A   1      42.862  21.229  25.282  1.00  0.00     0.014 A 
ATOM     31  C   UNL A   1      42.717  22.355  27.838  1.00  0.00     0.010 A 
ATOM     32  C   UNL A   1      43.300  22.550  25.507  1.00  0.00     0.010 A 
ATOM     33  C   UNL A   1      43.221  23.134  26.784  1.00  0.00    -0.014 A 
BRANCH  33  34
ATOM     34  C   UNL A   1      43.644  24.550  27.023  1.00  0.00     0.031 A 
ATOM     35  C   UNL A   1      42.662  25.583  27.519  1.00  0.00     0.074 A 
ATOM     36  C   UNL A   1      44.922  24.919  26.799  1.00  0.00     0.049 A 
ATOM     37  N   UNL A   1      42.854  26.850  27.801  1.00  0.00    -0.248 NA
ATOM     38  C   UNL A   1      41.277  25.134  27.712  1.00  0.00     0.031 C 
ATOM     39  C   UNL A   1      45.972  24.032  26.299  1.00  0.00     0.029 A 
ATOM     40  N   UNL A   1      45.557  26.129  26.957  1.00  0.00    -0.354 N 
ATOM     41  C   UNL A   1      41.617  27.348  28.197  1.00  0.00     0.074 A 
ATOM     42  C   UNL A   1      40.673  26.258  28.075  1.00  0.00     0.031 C 
ATOM     43  C   UNL A   1      47.123  24.719  26.210  1.00  0.00     0.029 A 
ATOM     44  C   UNL A   1      46.890  26.103  26.616  1.00  0.00     0.049 A 
ATOM     45  H   UNL A   1      45.100  26.938  27.284  1.00  0.00     0.167 HD
ATOM     46  C   UNL A   1      41.300  28.592  28.639  1.00  0.00     0.037 A 
ATOM     47  C   UNL A   1      47.818  27.080  26.625  1.00  0.00     0.037 A 
ATOM     48  C   UNL A   1      42.241  29.677  28.766  1.00  0.00     0.049 A 
ATOM     49  C   UNL A   1      47.438  28.459  27.099  1.00  0.00     0.074 A 
ATOM     50  C   UNL A   1      42.025  30.960  29.243  1.00  0.00     0.029 A 
ATOM     51  N   UNL A   1      43.580  29.610  28.404  1.00  0.00    -0.354 N 
ATOM     52  N   UNL A   1      46.280  28.895  27.531  1.00  0.00    -0.248 NA
ATOM     53  C   UNL A   1      48.497  29.479  27.093  1.00  0.00     0.031 C 
ATOM     54  C   UNL A   1      43.215  31.683  29.118  1.00  0.00     0.029 A 
ATOM     55  C   UNL A   1      44.193  30.835  28.623  1.00  0.00     0.049 A 
ATOM     56  H   UNL A   1      44.028  28.811  28.047  1.00  0.00     0.167 HD
ATOM     57  C   UNL A   1      46.478  30.226  27.878  1.00  0.00     0.074 A 
ATOM     58  C   UNL A   1      47.871  30.523  27.618  1.00  0.00     0.031 C 
ATOM     59  C   UNL A   1      45.583  31.120  28.368  1.00  0.00     0.037 A 
BRANCH  46  60
ATOM     60  C   UNL A   1      39.864  28.856  29.009  1.00  0.00     0.064 A 
ATOM     61  C   UNL A   1      38.928  29.307  28.064  1.00  0.00     0.173 A 
ATOM     62  C   UNL A   1      39.408  28.623  30.317  1.00  0.00     0.173 A 
ATOM     63  F   UNL A   1      39.308  29.545  26.800  1.00  0.00    -0.203 F 
ATOM     64  C   UNL A   1      37.605  29.554  28.424  1.00  0.00     0.198 A 
ATOM     65  C   UNL A   1      38.076  28.840  30.664  1.00  0.00     0.198 A 
ATOM     66  F   UNL A   1      40.251  28.177  31.259  1.00  0.00    -0.203 F 
ATOM     67  F   UNL A   1      36.746  30.041  27.517  1.00  0.00    -0.200 F 
ATOM     68  C   UNL A   1      37.178  29.317  29.721  1.00  0.00     0.200 A 
ATOM     69  F   UNL A   1      37.661  28.593  31.915  1.00  0.00    -0.200 F 
ATOM     70  F   UNL A   1      35.906  29.555  30.065  1.00  0.00    -0.200 F 
ENDBRANCH  46  60
BRANCH  47  71
ATOM     71  C   UNL A   1      49.212  26.783  26.191  1.00  0.00     0.064 A 
ATOM     72  C   UNL A   1      50.166  26.297  27.096  1.00  0.00     0.173 A 
ATOM     73  C   UNL A   1      49.618  26.979  24.862  1.00  0.00     0.173 A 
ATOM     74  F   UNL A   1      49.837  26.116  28.383  1.00  0.00    -0.203 F 
ATOM     75  C   UNL A   1      51.474  26.033  26.693  1.00  0.00     0.198 A 
ATOM     76  C   UNL A   1      50.917  26.686  24.453  1.00  0.00     0.198 A 
ATOM     77  F   UNL A   1      48.745  27.443  23.954  1.00  0.00    -0.203 F 
ATOM     78  F   UNL A   1      52.377  25.611  27.588  1.00  0.00    -0.200 F 
ATOM     79  C   UNL A   1      51.847  26.220  25.370  1.00  0.00     0.200 A 
ATOM     80  F   UNL A   1      51.269  26.854  23.171  1.00  0.00    -0.200 F 
ATOM     81  F   UNL A   1      53.102  25.956  24.981  1.00  0.00    -0.200 F 
ENDBRANCH  47  71
BRANCH  59  82
ATOM     82  C   UNL A   1      46.088  32.497  28.695  1.00  0.00     0.064 A 
ATOM     83  C   UNL A   1      46.046  33.544  27.761  1.00  0.00     0.173 A 
ATOM     84  C   UNL A   1      46.581  32.784  29.978  1.00  0.00     0.173 A 
ATOM     85  F   UNL A   1      45.597  33.319  26.517  1.00  0.00    -0.203 F 
ATOM     86  C   UNL A   1      46.501  34.817  28.092  1.00  0.00     0.198 A 
ATOM     87  C   UNL A   1      47.004  34.067  30.315  1.00  0.00     0.198 A 
ATOM     88  F   UNL A   1      46.637  31.823  30.912  1.00  0.00    -0.203 F 
ATOM     89  F   UNL A   1      46.496  35.789  27.168  1.00  0.00    -0.200 F 
ATOM     90  C   UNL A   1      46.972  35.080  29.370  1.00  0.00     0.200 A 
ATOM     91  F   UNL A   1      47.444  34.322  31.555  1.00  0.00    -0.200 F 
ATOM     92  F   UNL A   1      47.400  36.310  29.688  1.00  0.00    -0.200 F 
ENDBRANCH  59  82
ENDBRANCH  33  34
ENDBRANCH  25  28
ENDBRANCH  23  24
ENDBRANCH  22  23
ENDBRANCH   1  22
TORSDOF 16
ENDMDL
