MODEL 1
REMARK VINA RESULT:     -11.8      0.000      0.000
REMARK SMILES CCC(CC)([NH2+]Cc1ccc(Cl)cc1[N+](=O)[O-])C(=O)NCCCCNC(=O)c1ccc(-c2c3nc(c(-c4c(F)c(F)c(F)c(F)c4F)c4ccc([nH]4)c(-c4c(F)c(F)c(F)c(F)c4F)c4nc(c(-c5c(F)c(F)c(F)c(F)c5F)c5ccc2[nH]5)C=C4)C=C3)cc1
REMARK SMILES IDX 21 1 20 2 18 3 19 4 3 6 2 7 1 8 4 9 5 10 6 11 7 14 8 15 9 16
REMARK SMILES IDX 14 17 10 18 13 19 11 20 12 21 15 22 16 23 17 24 22 25 23 26
REMARK SMILES IDX 24 27 25 28 26 29 27 31 28 32 29 33 90 34 30 35 89 36 31 37
REMARK SMILES IDX 32 38 33 39 83 40 34 41 88 42 82 43 84 44 35 45 87 46 81 47
REMARK SMILES IDX 80 48 36 50 68 51 48 52 67 53 49 54 52 55 66 56 85 57 50 58
REMARK SMILES IDX 51 59 65 61 86 62 53 63 37 64 38 65 46 66 39 67 40 68 44 69
REMARK SMILES IDX 47 70 41 71 42 72 45 73 43 74 69 75 70 76 78 77 71 78 72 79
REMARK SMILES IDX 76 80 79 81 73 82 74 83 77 84 75 85 54 86 55 87 63 88 56 89
REMARK SMILES IDX 57 90 61 91 64 92 58 93 59 94 62 95 60 96
REMARK H PARENT 20 5 6 12 6 13 25 30 84 49 52 60
REMARK Flexibility Score: inf
ROOT
ATOM      1  C   UNL A   1      33.511  29.334  26.041  1.00  0.00     0.116 C 
ENDROOT
BRANCH   1   2
ATOM      2  N   UNL A   1      32.986  29.628  24.730  1.00  0.00    -0.351 N 
ATOM      3  C   UNL A   1      32.834  28.768  23.681  1.00  0.00     0.281 C 
ATOM      4  O   UNL A   1      33.216  29.219  22.593  1.00  0.00    -0.268 OA
ATOM      5  H   UNL A   1      32.703  30.558  24.574  1.00  0.00     0.163 HD
BRANCH   3   6
ATOM      6  C   UNL A   1      32.133  27.357  23.811  1.00  0.00     0.175 C 
BRANCH   6   7
ATOM      7  C   UNL A   1      31.793  26.966  22.313  1.00  0.00     0.076 C 
ATOM      8  C   UNL A   1      32.710  25.923  21.664  1.00  0.00     0.011 C 
ENDBRANCH   6   7
BRANCH   6   9
ATOM      9  C   UNL A   1      30.813  27.418  24.627  1.00  0.00     0.076 C 
ATOM     10  C   UNL A   1      29.615  26.675  24.029  1.00  0.00     0.011 C 
ENDBRANCH   6   9
BRANCH   6  11
ATOM     11  N   UNL A   1      33.068  26.266  24.220  1.00  0.00    -0.330 N 
ATOM     12  H   UNL A   1      33.951  26.733  24.424  1.00  0.00     0.347 HD
ATOM     13  H   UNL A   1      32.949  25.631  23.430  1.00  0.00     0.347 HD
BRANCH  11  14
ATOM     14  C   UNL A   1      32.867  25.329  25.322  1.00  0.00     0.305 C 
BRANCH  14  15
ATOM     15  C   UNL A   1      32.906  23.838  25.013  1.00  0.00     0.084 A 
ATOM     16  C   UNL A   1      33.684  23.335  23.963  1.00  0.00     0.018 A 
ATOM     17  C   UNL A   1      32.173  22.879  25.749  1.00  0.00     0.279 A 
ATOM     18  C   UNL A   1      33.520  22.027  23.494  1.00  0.00     0.021 A 
ATOM     19  C   UNL A   1      31.983  21.567  25.283  1.00  0.00     0.106 A 
ATOM     20  C   UNL A   1      32.625  21.167  24.121  1.00  0.00     0.047 A 
ATOM     21  Cl  UNL A   1      32.347  19.598  23.481  1.00  0.00    -0.084 Cl
BRANCH  17  22
ATOM     22  N   UNL A   1      31.639  23.180  27.076  1.00  0.00     0.063 N 
ATOM     23  O   UNL A   1      32.269  22.745  28.049  1.00  0.00    -0.258 OA
ATOM     24  O   UNL A   1      30.595  23.841  27.140  1.00  0.00    -0.258 OA
ENDBRANCH  17  22
ENDBRANCH  14  15
ENDBRANCH  11  14
ENDBRANCH   6  11
ENDBRANCH   3   6
ENDBRANCH   1   2
BRANCH   1  25
ATOM     25  C   UNL A   1      32.568  29.919  27.097  1.00  0.00     0.023 C 
BRANCH  25  26
ATOM     26  C   UNL A   1      32.153  31.366  26.896  1.00  0.00     0.023 C 
BRANCH  26  27
ATOM     27  C   UNL A   1      33.116  32.405  27.456  1.00  0.00     0.116 C 
BRANCH  27  28
ATOM     28  N   UNL A   1      32.553  33.729  27.685  1.00  0.00    -0.352 N 
ATOM     29  C   UNL A   1      33.047  34.738  28.490  1.00  0.00     0.251 C 
ATOM     30  H   UNL A   1      31.716  33.931  27.207  1.00  0.00     0.163 HD
ATOM     31  O   UNL A   1      32.503  35.823  28.567  1.00  0.00    -0.269 OA
BRANCH  29  32
ATOM     32  C   UNL A   1      34.224  34.443  29.335  1.00  0.00     0.039 A 
ATOM     33  C   UNL A   1      34.004  33.907  30.606  1.00  0.00     0.014 A 
ATOM     34  C   UNL A   1      35.517  34.571  28.827  1.00  0.00     0.014 A 
ATOM     35  C   UNL A   1      35.083  33.400  31.331  1.00  0.00     0.010 A 
ATOM     36  C   UNL A   1      36.574  33.984  29.509  1.00  0.00     0.010 A 
ATOM     37  C   UNL A   1      36.365  33.384  30.762  1.00  0.00    -0.014 A 
BRANCH  37  38
ATOM     38  C   UNL A   1      37.510  32.739  31.449  1.00  0.00     0.031 A 
ATOM     39  C   UNL A   1      38.215  31.589  30.791  1.00  0.00     0.074 A 
ATOM     40  C   UNL A   1      37.848  33.123  32.695  1.00  0.00     0.049 A 
ATOM     41  N   UNL A   1      39.144  30.802  31.269  1.00  0.00    -0.248 NA
ATOM     42  C   UNL A   1      37.786  31.251  29.424  1.00  0.00     0.031 C 
ATOM     43  C   UNL A   1      37.197  34.187  33.463  1.00  0.00     0.029 A 
ATOM     44  N   UNL A   1      38.817  32.649  33.544  1.00  0.00    -0.354 N 
ATOM     45  C   UNL A   1      39.378  29.856  30.281  1.00  0.00     0.074 A 
ATOM     46  C   UNL A   1      38.465  30.138  29.195  1.00  0.00     0.031 C 
ATOM     47  C   UNL A   1      37.803  34.303  34.657  1.00  0.00     0.029 A 
ATOM     48  C   UNL A   1      38.859  33.300  34.753  1.00  0.00     0.049 A 
ATOM     49  H   UNL A   1      39.426  31.911  33.308  1.00  0.00     0.167 HD
ATOM     50  C   UNL A   1      40.290  28.855  30.272  1.00  0.00     0.037 A 
ATOM     51  C   UNL A   1      39.659  33.105  35.816  1.00  0.00     0.037 A 
ATOM     52  C   UNL A   1      41.236  28.619  31.328  1.00  0.00     0.049 A 
ATOM     53  C   UNL A   1      40.702  32.022  35.758  1.00  0.00     0.074 A 
ATOM     54  C   UNL A   1      42.256  27.687  31.381  1.00  0.00     0.029 A 
ATOM     55  N   UNL A   1      41.284  29.337  32.514  1.00  0.00    -0.354 N 
ATOM     56  N   UNL A   1      40.955  31.170  34.795  1.00  0.00    -0.248 NA
ATOM     57  C   UNL A   1      41.571  31.875  36.934  1.00  0.00     0.031 C 
ATOM     58  C   UNL A   1      42.907  27.823  32.612  1.00  0.00     0.029 A 
ATOM     59  C   UNL A   1      42.313  28.862  33.311  1.00  0.00     0.049 A 
ATOM     60  H   UNL A   1      40.678  30.074  32.754  1.00  0.00     0.167 HD
ATOM     61  C   UNL A   1      42.027  30.406  35.234  1.00  0.00     0.074 A 
ATOM     62  C   UNL A   1      42.383  30.901  36.548  1.00  0.00     0.031 C 
ATOM     63  C   UNL A   1      42.658  29.383  34.607  1.00  0.00     0.037 A 
BRANCH  50  64
ATOM     64  C   UNL A   1      40.309  27.951  29.076  1.00  0.00     0.064 A 
ATOM     65  C   UNL A   1      41.057  28.261  27.931  1.00  0.00     0.173 A 
ATOM     66  C   UNL A   1      39.577  26.754  29.079  1.00  0.00     0.173 A 
ATOM     67  F   UNL A   1      41.758  29.403  27.873  1.00  0.00    -0.203 F 
ATOM     68  C   UNL A   1      41.046  27.423  26.819  1.00  0.00     0.198 A 
ATOM     69  C   UNL A   1      39.592  25.903  27.977  1.00  0.00     0.198 A 
ATOM     70  F   UNL A   1      38.846  26.409  30.151  1.00  0.00    -0.203 F 
ATOM     71  F   UNL A   1      41.723  27.768  25.716  1.00  0.00    -0.200 F 
ATOM     72  C   UNL A   1      40.319  26.242  26.846  1.00  0.00     0.200 A 
ATOM     73  F   UNL A   1      38.896  24.759  28.006  1.00  0.00    -0.200 F 
ATOM     74  F   UNL A   1      40.310  25.437  25.775  1.00  0.00    -0.200 F 
ENDBRANCH  50  64
BRANCH  51  75
ATOM     75  C   UNL A   1      39.538  33.981  37.010  1.00  0.00     0.064 A 
ATOM     76  C   UNL A   1      38.799  33.567  38.127  1.00  0.00     0.173 A 
ATOM     77  C   UNL A   1      40.152  35.240  37.063  1.00  0.00     0.173 A 
ATOM     78  F   UNL A   1      38.177  32.379  38.113  1.00  0.00    -0.203 F 
ATOM     79  C   UNL A   1      38.663  34.387  39.245  1.00  0.00     0.198 A 
ATOM     80  C   UNL A   1      40.033  36.051  38.191  1.00  0.00     0.198 A 
ATOM     81  F   UNL A   1      40.874  35.680  36.022  1.00  0.00    -0.203 F 
ATOM     82  F   UNL A   1      37.917  33.983  40.282  1.00  0.00    -0.200 F 
ATOM     83  C   UNL A   1      39.284  35.625  39.278  1.00  0.00     0.200 A 
ATOM     84  F   UNL A   1      40.644  37.243  38.224  1.00  0.00    -0.200 F 
ATOM     85  F   UNL A   1      39.154  36.414  40.354  1.00  0.00    -0.200 F 
ENDBRANCH  51  75
BRANCH  63  86
ATOM     86  C   UNL A   1      43.820  28.759  35.318  1.00  0.00     0.064 A 
ATOM     87  C   UNL A   1      45.130  29.214  35.120  1.00  0.00     0.173 A 
ATOM     88  C   UNL A   1      43.611  27.727  36.245  1.00  0.00     0.173 A 
ATOM     89  F   UNL A   1      45.380  30.188  34.232  1.00  0.00    -0.203 F 
ATOM     90  C   UNL A   1      46.196  28.644  35.812  1.00  0.00     0.198 A 
ATOM     91  C   UNL A   1      44.675  27.176  36.952  1.00  0.00     0.198 A 
ATOM     92  F   UNL A   1      42.373  27.263  36.472  1.00  0.00    -0.203 F 
ATOM     93  F   UNL A   1      47.446  29.068  35.580  1.00  0.00    -0.200 F 
ATOM     94  C   UNL A   1      45.965  27.631  36.732  1.00  0.00     0.200 A 
ATOM     95  F   UNL A   1      44.451  26.205  37.848  1.00  0.00    -0.200 F 
ATOM     96  F   UNL A   1      46.992  27.090  37.403  1.00  0.00    -0.200 F 
ENDBRANCH  63  86
ENDBRANCH  37  38
ENDBRANCH  29  32
ENDBRANCH  27  28
ENDBRANCH  26  27
ENDBRANCH  25  26
ENDBRANCH   1  25
TORSDOF 17
ENDMDL
MODEL 2
REMARK VINA RESULT:     -11.8      0.923      7.329
REMARK SMILES CCC(CC)([NH2+]Cc1ccc(Cl)cc1[N+](=O)[O-])C(=O)NCCCCNC(=O)c1ccc(-c2c3nc(c(-c4c(F)c(F)c(F)c(F)c4F)c4ccc([nH]4)c(-c4c(F)c(F)c(F)c(F)c4F)c4nc(c(-c5c(F)c(F)c(F)c(F)c5F)c5ccc2[nH]5)C=C4)C=C3)cc1
REMARK SMILES IDX 21 1 20 2 18 3 19 4 3 6 2 7 1 8 4 9 5 10 6 11 7 14 8 15 9 16
REMARK SMILES IDX 14 17 10 18 13 19 11 20 12 21 15 22 16 23 17 24 22 25 23 26
REMARK SMILES IDX 24 27 25 28 26 29 27 31 28 32 29 33 90 34 30 35 89 36 31 37
REMARK SMILES IDX 32 38 33 39 83 40 34 41 88 42 82 43 84 44 35 45 87 46 81 47
REMARK SMILES IDX 80 48 36 50 68 51 48 52 67 53 49 54 52 55 66 56 85 57 50 58
REMARK SMILES IDX 51 59 65 61 86 62 53 63 37 64 38 65 46 66 39 67 40 68 44 69
REMARK SMILES IDX 47 70 41 71 42 72 45 73 43 74 69 75 70 76 78 77 71 78 72 79
REMARK SMILES IDX 76 80 79 81 73 82 74 83 77 84 75 85 54 86 55 87 63 88 56 89
REMARK SMILES IDX 57 90 61 91 64 92 58 93 59 94 62 95 60 96
REMARK H PARENT 20 5 6 12 6 13 25 30 84 49 52 60
REMARK Flexibility Score: inf
ROOT
ATOM      1  C   UNL A   1      33.232  29.784  26.135  1.00  0.00     0.116 C 
ENDROOT
BRANCH   1   2
ATOM      2  N   UNL A   1      32.930  29.774  24.725  1.00  0.00    -0.351 N 
ATOM      3  C   UNL A   1      33.074  28.736  23.850  1.00  0.00     0.281 C 
ATOM      4  O   UNL A   1      33.597  29.049  22.772  1.00  0.00    -0.268 OA
ATOM      5  H   UNL A   1      32.577  30.613  24.351  1.00  0.00     0.163 HD
BRANCH   3   6
ATOM      6  C   UNL A   1      32.526  27.280  24.133  1.00  0.00     0.175 C 
BRANCH   6   7
ATOM      7  C   UNL A   1      32.352  26.656  22.686  1.00  0.00     0.076 C 
ATOM      8  C   UNL A   1      33.308  25.513  22.326  1.00  0.00     0.011 C 
ENDBRANCH   6   7
BRANCH   6   9
ATOM      9  C   UNL A   1      31.147  27.289  24.846  1.00  0.00     0.076 C 
ATOM     10  C   UNL A   1      30.073  26.376  24.248  1.00  0.00     0.011 C 
ENDBRANCH   6   9
BRANCH   6  11
ATOM     11  N   UNL A   1      33.541  26.375  24.749  1.00  0.00    -0.330 N 
ATOM     12  H   UNL A   1      34.340  26.972  24.960  1.00  0.00     0.347 HD
ATOM     13  H   UNL A   1      33.572  25.641  24.041  1.00  0.00     0.347 HD
BRANCH  11  14
ATOM     14  C   UNL A   1      33.351  25.556  25.944  1.00  0.00     0.305 C 
BRANCH  14  15
ATOM     15  C   UNL A   1      33.843  24.116  25.914  1.00  0.00     0.084 A 
ATOM     16  C   UNL A   1      35.211  23.818  25.853  1.00  0.00     0.018 A 
ATOM     17  C   UNL A   1      32.973  23.002  25.944  1.00  0.00     0.279 A 
ATOM     18  C   UNL A   1      35.665  22.530  25.549  1.00  0.00     0.021 A 
ATOM     19  C   UNL A   1      33.409  21.706  25.622  1.00  0.00     0.106 A 
ATOM     20  C   UNL A   1      34.757  21.492  25.376  1.00  0.00     0.047 A 
ATOM     21  Cl  UNL A   1      35.309  19.937  24.899  1.00  0.00    -0.084 Cl
BRANCH  17  22
ATOM     22  N   UNL A   1      31.587  23.129  26.389  1.00  0.00     0.063 N 
ATOM     23  O   UNL A   1      31.398  23.319  27.597  1.00  0.00    -0.258 OA
ATOM     24  O   UNL A   1      30.697  23.032  25.535  1.00  0.00    -0.258 OA
ENDBRANCH  17  22
ENDBRANCH  14  15
ENDBRANCH  11  14
ENDBRANCH   6  11
ENDBRANCH   3   6
ENDBRANCH   1   2
BRANCH   1  25
ATOM     25  C   UNL A   1      32.028  30.342  26.899  1.00  0.00     0.023 C 
BRANCH  25  26
ATOM     26  C   UNL A   1      31.763  31.829  26.737  1.00  0.00     0.023 C 
BRANCH  26  27
ATOM     27  C   UNL A   1      32.828  32.749  27.318  1.00  0.00     0.116 C 
BRANCH  27  28
ATOM     28  N   UNL A   1      32.378  34.089  27.676  1.00  0.00    -0.352 N 
ATOM     29  C   UNL A   1      32.967  34.979  28.553  1.00  0.00     0.251 C 
ATOM     30  H   UNL A   1      31.551  34.398  27.239  1.00  0.00     0.163 HD
ATOM     31  O   UNL A   1      32.515  36.093  28.737  1.00  0.00    -0.269 OA
BRANCH  29  32
ATOM     32  C   UNL A   1      34.131  34.518  29.339  1.00  0.00     0.039 A 
ATOM     33  C   UNL A   1      33.891  33.867  30.551  1.00  0.00     0.014 A 
ATOM     34  C   UNL A   1      35.423  34.611  28.821  1.00  0.00     0.014 A 
ATOM     35  C   UNL A   1      34.942  33.216  31.198  1.00  0.00     0.010 A 
ATOM     36  C   UNL A   1      36.446  33.886  29.417  1.00  0.00     0.010 A 
ATOM     37  C   UNL A   1      36.212  33.173  30.605  1.00  0.00    -0.014 A 
BRANCH  37  38
ATOM     38  C   UNL A   1      37.318  32.384  31.197  1.00  0.00     0.031 A 
ATOM     39  C   UNL A   1      37.804  32.710  32.580  1.00  0.00     0.074 A 
ATOM     40  C   UNL A   1      37.944  31.446  30.459  1.00  0.00     0.049 A 
ATOM     41  N   UNL A   1      38.837  32.240  33.229  1.00  0.00    -0.248 NA
ATOM     42  C   UNL A   1      37.050  33.739  33.314  1.00  0.00     0.031 C 
ATOM     43  C   UNL A   1      37.603  31.081  29.082  1.00  0.00     0.029 A 
ATOM     44  N   UNL A   1      39.011  30.637  30.761  1.00  0.00    -0.354 N 
ATOM     45  C   UNL A   1      38.879  32.942  34.425  1.00  0.00     0.074 A 
ATOM     46  C   UNL A   1      37.797  33.902  34.395  1.00  0.00     0.031 C 
ATOM     47  C   UNL A   1      38.426  30.102  28.670  1.00  0.00     0.029 A 
ATOM     48  C   UNL A   1      39.373  29.796  29.736  1.00  0.00     0.049 A 
ATOM     49  H   UNL A   1      39.473  30.656  31.631  1.00  0.00     0.167 HD
ATOM     50  C   UNL A   1      39.731  32.785  35.466  1.00  0.00     0.037 A 
ATOM     51  C   UNL A   1      40.360  28.885  29.670  1.00  0.00     0.037 A 
ATOM     52  C   UNL A   1      40.765  31.787  35.515  1.00  0.00     0.049 A 
ATOM     53  C   UNL A   1      41.258  28.690  30.861  1.00  0.00     0.074 A 
ATOM     54  C   UNL A   1      41.627  31.488  36.554  1.00  0.00     0.029 A 
ATOM     55  N   UNL A   1      41.065  30.915  34.478  1.00  0.00    -0.354 N 
ATOM     56  N   UNL A   1      41.252  29.319  32.011  1.00  0.00    -0.248 NA
ATOM     57  C   UNL A   1      42.298  27.658  30.746  1.00  0.00     0.031 C 
ATOM     58  C   UNL A   1      42.468  30.450  36.137  1.00  0.00     0.029 A 
ATOM     59  C   UNL A   1      42.106  30.081  34.851  1.00  0.00     0.049 A 
ATOM     60  H   UNL A   1      40.607  30.893  33.608  1.00  0.00     0.167 HD
ATOM     61  C   UNL A   1      42.265  28.743  32.765  1.00  0.00     0.074 A 
ATOM     62  C   UNL A   1      42.859  27.706  31.946  1.00  0.00     0.031 C 
ATOM     63  C   UNL A   1      42.668  29.046  34.023  1.00  0.00     0.037 A 
BRANCH  50  64
ATOM     64  C   UNL A   1      39.568  33.708  36.636  1.00  0.00     0.064 A 
ATOM     65  C   UNL A   1      38.779  33.362  37.742  1.00  0.00     0.173 A 
ATOM     66  C   UNL A   1      40.218  34.951  36.656  1.00  0.00     0.173 A 
ATOM     67  F   UNL A   1      38.122  32.192  37.762  1.00  0.00    -0.203 F 
ATOM     68  C   UNL A   1      38.618  34.239  38.811  1.00  0.00     0.198 A 
ATOM     69  C   UNL A   1      40.080  35.814  37.739  1.00  0.00     0.198 A 
ATOM     70  F   UNL A   1      40.987  35.330  35.623  1.00  0.00    -0.203 F 
ATOM     71  F   UNL A   1      37.814  33.910  39.831  1.00  0.00    -0.200 F 
ATOM     72  C   UNL A   1      39.273  35.461  38.811  1.00  0.00     0.200 A 
ATOM     73  F   UNL A   1      40.720  36.991  37.743  1.00  0.00    -0.200 F 
ATOM     74  F   UNL A   1      39.119  36.304  39.841  1.00  0.00    -0.200 F 
ENDBRANCH  50  64
BRANCH  51  75
ATOM     75  C   UNL A   1      40.526  28.054  28.449  1.00  0.00     0.064 A 
ATOM     76  C   UNL A   1      39.922  26.793  28.357  1.00  0.00     0.173 A 
ATOM     77  C   UNL A   1      41.285  28.497  27.357  1.00  0.00     0.173 A 
ATOM     78  F   UNL A   1      39.204  26.319  29.386  1.00  0.00    -0.203 F 
ATOM     79  C   UNL A   1      40.084  25.997  27.225  1.00  0.00     0.198 A 
ATOM     80  C   UNL A   1      41.429  27.709  26.216  1.00  0.00     0.198 A 
ATOM     81  F   UNL A   1      41.879  29.698  27.394  1.00  0.00    -0.203 F 
ATOM     82  F   UNL A   1      39.529  24.778  27.181  1.00  0.00    -0.200 F 
ATOM     83  C   UNL A   1      40.833  26.457  26.154  1.00  0.00     0.200 A 
ATOM     84  F   UNL A   1      42.145  28.161  25.177  1.00  0.00    -0.200 F 
ATOM     85  F   UNL A   1      40.989  25.692  25.064  1.00  0.00    -0.200 F 
ENDBRANCH  51  75
BRANCH  63  86
ATOM     86  C   UNL A   1      43.779  28.224  34.602  1.00  0.00     0.064 A 
ATOM     87  C   UNL A   1      45.116  28.634  34.513  1.00  0.00     0.173 A 
ATOM     88  C   UNL A   1      43.495  27.038  35.294  1.00  0.00     0.173 A 
ATOM     89  F   UNL A   1      45.437  29.753  33.848  1.00  0.00    -0.203 F 
ATOM     90  C   UNL A   1      46.134  27.874  35.084  1.00  0.00     0.198 A 
ATOM     91  C   UNL A   1      44.512  26.294  35.883  1.00  0.00     0.198 A 
ATOM     92  F   UNL A   1      42.229  26.609  35.409  1.00  0.00    -0.203 F 
ATOM     93  F   UNL A   1      47.410  28.264  34.957  1.00  0.00    -0.200 F 
ATOM     94  C   UNL A   1      45.830  26.709  35.774  1.00  0.00     0.200 A 
ATOM     95  F   UNL A   1      44.217  25.174  36.558  1.00  0.00    -0.200 F 
ATOM     96  F   UNL A   1      46.811  25.984  36.329  1.00  0.00    -0.200 F 
ENDBRANCH  63  86
ENDBRANCH  37  38
ENDBRANCH  29  32
ENDBRANCH  27  28
ENDBRANCH  26  27
ENDBRANCH  25  26
ENDBRANCH   1  25
TORSDOF 17
ENDMDL
MODEL 3
REMARK VINA RESULT:     -11.6      0.843      1.440
REMARK SMILES CCC(CC)([NH2+]Cc1ccc(Cl)cc1[N+](=O)[O-])C(=O)NCCCCNC(=O)c1ccc(-c2c3nc(c(-c4c(F)c(F)c(F)c(F)c4F)c4ccc([nH]4)c(-c4c(F)c(F)c(F)c(F)c4F)c4nc(c(-c5c(F)c(F)c(F)c(F)c5F)c5ccc2[nH]5)C=C4)C=C3)cc1
REMARK SMILES IDX 21 1 20 2 18 3 19 4 3 6 2 7 1 8 4 9 5 10 6 11 7 14 8 15 9 16
REMARK SMILES IDX 14 17 10 18 13 19 11 20 12 21 15 22 16 23 17 24 22 25 23 26
REMARK SMILES IDX 24 27 25 28 26 29 27 31 28 32 29 33 90 34 30 35 89 36 31 37
REMARK SMILES IDX 32 38 33 39 83 40 34 41 88 42 82 43 84 44 35 45 87 46 81 47
REMARK SMILES IDX 80 48 36 50 68 51 48 52 67 53 49 54 52 55 66 56 85 57 50 58
REMARK SMILES IDX 51 59 65 61 86 62 53 63 37 64 38 65 46 66 39 67 40 68 44 69
REMARK SMILES IDX 47 70 41 71 42 72 45 73 43 74 69 75 70 76 78 77 71 78 72 79
REMARK SMILES IDX 76 80 79 81 73 82 74 83 77 84 75 85 54 86 55 87 63 88 56 89
REMARK SMILES IDX 57 90 61 91 64 92 58 93 59 94 62 95 60 96
REMARK H PARENT 20 5 6 12 6 13 25 30 84 49 52 60
REMARK Flexibility Score: inf
ROOT
ATOM      1  C   UNL A   1      33.660  29.157  26.286  1.00  0.00     0.116 C 
ENDROOT
BRANCH   1   2
ATOM      2  N   UNL A   1      33.316  29.507  24.930  1.00  0.00    -0.351 N 
ATOM      3  C   UNL A   1      33.214  28.673  23.854  1.00  0.00     0.281 C 
ATOM      4  O   UNL A   1      33.755  29.100  22.826  1.00  0.00    -0.268 OA
ATOM      5  H   UNL A   1      33.133  30.459  24.761  1.00  0.00     0.163 HD
BRANCH   3   6
ATOM      6  C   UNL A   1      32.387  27.326  23.876  1.00  0.00     0.175 C 
BRANCH   6   7
ATOM      7  C   UNL A   1      32.037  27.074  22.351  1.00  0.00     0.076 C 
ATOM      8  C   UNL A   1      32.590  25.782  21.738  1.00  0.00     0.011 C 
ENDBRANCH   6   7
BRANCH   6   9
ATOM      9  C   UNL A   1      31.064  27.450  24.682  1.00  0.00     0.076 C 
ATOM     10  C   UNL A   1      29.955  26.461  24.313  1.00  0.00     0.011 C 
ENDBRANCH   6   9
BRANCH   6  11
ATOM     11  N   UNL A   1      33.212  26.128  24.215  1.00  0.00    -0.330 N 
ATOM     12  H   UNL A   1      34.171  26.392  23.988  1.00  0.00     0.347 HD
ATOM     13  H   UNL A   1      32.699  25.413  23.700  1.00  0.00     0.347 HD
BRANCH  11  14
ATOM     14  C   UNL A   1      33.293  25.481  25.522  1.00  0.00     0.305 C 
BRANCH  14  15
ATOM     15  C   UNL A   1      34.108  24.200  25.640  1.00  0.00     0.084 A 
ATOM     16  C   UNL A   1      35.502  24.212  25.502  1.00  0.00     0.018 A 
ATOM     17  C   UNL A   1      33.527  22.936  25.889  1.00  0.00     0.279 A 
ATOM     18  C   UNL A   1      36.230  23.029  25.332  1.00  0.00     0.021 A 
ATOM     19  C   UNL A   1      34.237  21.738  25.704  1.00  0.00     0.106 A 
ATOM     20  C   UNL A   1      35.583  21.800  25.375  1.00  0.00     0.047 A 
ATOM     21  Cl  UNL A   1      36.459  20.356  25.061  1.00  0.00    -0.084 Cl
BRANCH  17  22
ATOM     22  N   UNL A   1      32.174  22.811  26.429  1.00  0.00     0.063 N 
ATOM     23  O   UNL A   1      31.300  22.380  25.666  1.00  0.00    -0.258 OA
ATOM     24  O   UNL A   1      31.991  23.150  27.605  1.00  0.00    -0.258 OA
ENDBRANCH  17  22
ENDBRANCH  14  15
ENDBRANCH  11  14
ENDBRANCH   6  11
ENDBRANCH   3   6
ENDBRANCH   1   2
BRANCH   1  25
ATOM     25  C   UNL A   1      32.621  29.761  27.235  1.00  0.00     0.023 C 
BRANCH  25  26
ATOM     26  C   UNL A   1      32.194  31.189  26.938  1.00  0.00     0.023 C 
BRANCH  26  27
ATOM     27  C   UNL A   1      33.170  32.269  27.385  1.00  0.00     0.116 C 
BRANCH  27  28
ATOM     28  N   UNL A   1      32.592  33.587  27.614  1.00  0.00    -0.352 N 
ATOM     29  C   UNL A   1      33.068  34.596  28.430  1.00  0.00     0.251 C 
ATOM     30  H   UNL A   1      31.758  33.783  27.128  1.00  0.00     0.163 HD
ATOM     31  O   UNL A   1      32.513  35.675  28.506  1.00  0.00    -0.269 OA
BRANCH  29  32
ATOM     32  C   UNL A   1      34.237  34.307  29.287  1.00  0.00     0.039 A 
ATOM     33  C   UNL A   1      34.019  33.650  30.500  1.00  0.00     0.014 A 
ATOM     34  C   UNL A   1      35.532  34.563  28.836  1.00  0.00     0.014 A 
ATOM     35  C   UNL A   1      35.109  33.155  31.216  1.00  0.00     0.010 A 
ATOM     36  C   UNL A   1      36.608  33.991  29.502  1.00  0.00     0.010 A 
ATOM     37  C   UNL A   1      36.405  33.273  30.692  1.00  0.00    -0.014 A 
BRANCH  37  38
ATOM     38  C   UNL A   1      37.571  32.648  31.360  1.00  0.00     0.031 A 
ATOM     39  C   UNL A   1      38.299  31.523  30.683  1.00  0.00     0.074 A 
ATOM     40  C   UNL A   1      37.911  33.024  32.609  1.00  0.00     0.049 A 
ATOM     41  N   UNL A   1      39.250  30.753  31.142  1.00  0.00    -0.248 NA
ATOM     42  C   UNL A   1      37.865  31.191  29.316  1.00  0.00     0.031 C 
ATOM     43  C   UNL A   1      37.242  34.063  33.395  1.00  0.00     0.029 A 
ATOM     44  N   UNL A   1      38.900  32.564  33.442  1.00  0.00    -0.354 N 
ATOM     45  C   UNL A   1      39.498  29.825  30.142  1.00  0.00     0.074 A 
ATOM     46  C   UNL A   1      38.569  30.097  29.067  1.00  0.00     0.031 C 
ATOM     47  C   UNL A   1      37.857  34.180  34.584  1.00  0.00     0.029 A 
ATOM     48  C   UNL A   1      38.937  33.202  34.659  1.00  0.00     0.049 A 
ATOM     49  H   UNL A   1      39.524  31.845  33.192  1.00  0.00     0.167 HD
ATOM     50  C   UNL A   1      40.434  28.846  30.112  1.00  0.00     0.037 A 
ATOM     51  C   UNL A   1      39.752  33.014  35.713  1.00  0.00     0.037 A 
ATOM     52  C   UNL A   1      41.395  28.621  31.156  1.00  0.00     0.049 A 
ATOM     53  C   UNL A   1      40.819  31.957  35.632  1.00  0.00     0.074 A 
ATOM     54  C   UNL A   1      42.438  27.714  31.190  1.00  0.00     0.029 A 
ATOM     55  N   UNL A   1      41.437  29.326  32.351  1.00  0.00    -0.354 N 
ATOM     56  N   UNL A   1      41.085  31.124  34.657  1.00  0.00    -0.248 NA
ATOM     57  C   UNL A   1      41.703  31.818  36.798  1.00  0.00     0.031 C 
ATOM     58  C   UNL A   1      43.097  27.851  32.416  1.00  0.00     0.029 A 
ATOM     59  C   UNL A   1      42.485  28.867  33.133  1.00  0.00     0.049 A 
ATOM     60  H   UNL A   1      40.815  30.045  32.605  1.00  0.00     0.167 HD
ATOM     61  C   UNL A   1      42.178  30.380  35.077  1.00  0.00     0.074 A 
ATOM     62  C   UNL A   1      42.535  30.869  36.394  1.00  0.00     0.031 C 
ATOM     63  C   UNL A   1      42.829  29.381  34.432  1.00  0.00     0.037 A 
BRANCH  50  64
ATOM     64  C   UNL A   1      40.464  27.957  28.905  1.00  0.00     0.064 A 
ATOM     65  C   UNL A   1      41.228  28.278  27.774  1.00  0.00     0.173 A 
ATOM     66  C   UNL A   1      39.726  26.765  28.883  1.00  0.00     0.173 A 
ATOM     67  F   UNL A   1      41.936  29.416  27.739  1.00  0.00    -0.203 F 
ATOM     68  C   UNL A   1      41.228  27.454  26.652  1.00  0.00     0.198 A 
ATOM     69  C   UNL A   1      39.751  25.927  27.771  1.00  0.00     0.198 A 
ATOM     70  F   UNL A   1      38.979  26.410  29.941  1.00  0.00    -0.203 F 
ATOM     71  F   UNL A   1      41.921  27.809  25.562  1.00  0.00    -0.200 F 
ATOM     72  C   UNL A   1      40.494  26.277  26.654  1.00  0.00     0.200 A 
ATOM     73  F   UNL A   1      39.049  24.786  27.777  1.00  0.00    -0.200 F 
ATOM     74  F   UNL A   1      40.495  25.485  25.573  1.00  0.00    -0.200 F 
ENDBRANCH  50  64
BRANCH  51  75
ATOM     75  C   UNL A   1      39.621  33.873  36.918  1.00  0.00     0.064 A 
ATOM     76  C   UNL A   1      38.847  33.456  38.010  1.00  0.00     0.173 A 
ATOM     77  C   UNL A   1      40.259  35.118  37.006  1.00  0.00     0.173 A 
ATOM     78  F   UNL A   1      38.201  32.281  37.962  1.00  0.00    -0.203 F 
ATOM     79  C   UNL A   1      38.702  34.260  39.138  1.00  0.00     0.198 A 
ATOM     80  C   UNL A   1      40.130  35.912  38.145  1.00  0.00     0.198 A 
ATOM     81  F   UNL A   1      41.013  35.559  35.990  1.00  0.00    -0.203 F 
ATOM     82  F   UNL A   1      37.923  33.854  40.151  1.00  0.00    -0.200 F 
ATOM     83  C   UNL A   1      39.347  35.484  39.207  1.00  0.00     0.200 A 
ATOM     84  F   UNL A   1      40.763  37.091  38.212  1.00  0.00    -0.200 F 
ATOM     85  F   UNL A   1      39.207  36.258  40.293  1.00  0.00    -0.200 F 
ENDBRANCH  51  75
BRANCH  63  86
ATOM     86  C   UNL A   1      44.012  28.777  35.125  1.00  0.00     0.064 A 
ATOM     87  C   UNL A   1      43.883  27.646  35.943  1.00  0.00     0.173 A 
ATOM     88  C   UNL A   1      45.295  29.308  34.927  1.00  0.00     0.173 A 
ATOM     89  F   UNL A   1      42.674  27.114  36.172  1.00  0.00    -0.203 F 
ATOM     90  C   UNL A   1      44.997  27.077  36.554  1.00  0.00     0.198 A 
ATOM     91  C   UNL A   1      46.409  28.722  35.520  1.00  0.00     0.198 A 
ATOM     92  F   UNL A   1      45.467  30.386  34.148  1.00  0.00    -0.203 F 
ATOM     93  F   UNL A   1      44.847  26.019  37.362  1.00  0.00    -0.200 F 
ATOM     94  C   UNL A   1      46.259  27.612  36.337  1.00  0.00     0.200 A 
ATOM     95  F   UNL A   1      47.629  29.233  35.302  1.00  0.00    -0.200 F 
ATOM     96  F   UNL A   1      47.331  27.057  36.920  1.00  0.00    -0.200 F 
ENDBRANCH  63  86
ENDBRANCH  37  38
ENDBRANCH  29  32
ENDBRANCH  27  28
ENDBRANCH  26  27
ENDBRANCH  25  26
ENDBRANCH   1  25
TORSDOF 17
ENDMDL
