MODEL 1
REMARK VINA RESULT:     -11.9      0.000      0.000
REMARK SMILES CCCCCCNC(=O)Oc1cccc(-c2ccc([C@@H](C)C(=O)NCCCCNC(=O)c3ccc(-c4c5nc(c(-c6c(F)c(F)c(F)c(F)c6F)c6ccc([nH]6)c(-c6c(F)c(F)c(F)c(F)c6F)c6nc(c(-c7c(F)c(F)c(F)c(F)c7F)c7ccc4[nH]7)C=C6)C=C5)cc3)cc2Cl)c1
REMARK SMILES IDX 20 1 21 2 19 3 16 4 17 5 96 6 18 7 95 8 97 9 15 10 11 11
REMARK SMILES IDX 12 12 98 13 13 14 14 15 10 16 8 17 7 18 9 20 6 21 5 22 4 23
REMARK SMILES IDX 3 24 2 25 1 26 22 27 23 28 24 29 25 31 26 32 27 33 28 34
REMARK SMILES IDX 29 35 30 36 31 38 32 39 33 40 94 41 34 42 93 43 35 44 36 45
REMARK SMILES IDX 37 46 87 47 38 48 92 49 86 50 88 51 39 52 91 53 85 54 84 55
REMARK SMILES IDX 40 57 72 58 52 59 71 60 53 61 56 62 70 63 89 64 54 65 55 66
REMARK SMILES IDX 69 68 90 69 57 70 41 71 42 72 50 73 43 74 44 75 48 76 51 77
REMARK SMILES IDX 45 78 46 79 49 80 47 81 73 82 74 83 82 84 75 85 76 86 80 87
REMARK SMILES IDX 83 88 77 89 78 90 81 91 79 92 58 93 59 94 67 95 60 96 61 97
REMARK SMILES IDX 65 98 68 99 62 100 63 101 66 102 64 103
REMARK H PARENT 7 19 24 30 29 37 88 56 56 67
REMARK Flexibility Score: inf
ROOT
ATOM      1  C   UNL A   1      29.043  30.774  22.135  1.00  0.00     0.105 C 
ATOM      2  C   UNL A   1      28.180  30.841  20.876  1.00  0.00     0.023 C 
ENDROOT
BRANCH   1   3
ATOM      3  C   UNL A   1      29.620  29.406  22.465  1.00  0.00    -0.034 A 
ATOM      4  C   UNL A   1      30.574  26.739  22.950  1.00  0.00     0.000 A 
ATOM      5  C   UNL A   1      31.385  27.737  22.374  1.00  0.00     0.010 A 
ATOM      6  C   UNL A   1      29.281  27.140  23.342  1.00  0.00     0.049 A 
ATOM      7  C   UNL A   1      30.937  29.050  22.186  1.00  0.00     0.005 A 
ATOM      8  C   UNL A   1      28.805  28.435  23.065  1.00  0.00     0.025 A 
ATOM      9  Cl  UNL A   1      28.208  26.124  24.250  1.00  0.00    -0.084 Cl
BRANCH   4  10
ATOM     10  C   UNL A   1      31.131  25.369  23.101  1.00  0.00    -0.013 A 
ATOM     11  C   UNL A   1      31.264  23.219  24.239  1.00  0.00     0.133 A 
ATOM     12  C   UNL A   1      32.208  22.751  23.330  1.00  0.00     0.047 A 
ATOM     13  C   UNL A   1      30.713  24.498  24.121  1.00  0.00     0.056 A 
ATOM     14  C   UNL A   1      32.607  23.577  22.288  1.00  0.00     0.004 A 
ATOM     15  C   UNL A   1      32.088  24.874  22.189  1.00  0.00     0.009 A 
BRANCH  11  16
ATOM     16  O   UNL A   1      31.025  22.415  25.366  1.00  0.00    -0.410 OA
BRANCH  16  17
ATOM     17  C   UNL A   1      31.332  22.894  26.629  1.00  0.00     0.412 C 
ATOM     18  N   UNL A   1      32.449  22.307  27.159  1.00  0.00    -0.321 N 
ATOM     19  H   UNL A   1      32.695  22.571  28.074  1.00  0.00     0.167 HD
ATOM     20  O   UNL A   1      30.702  23.739  27.251  1.00  0.00    -0.224 OA
BRANCH  18  21
ATOM     21  C   UNL A   1      33.306  21.333  26.510  1.00  0.00     0.119 C 
BRANCH  21  22
ATOM     22  C   UNL A   1      34.562  21.975  25.923  1.00  0.00     0.021 C 
BRANCH  22  23
ATOM     23  C   UNL A   1      34.934  23.335  26.528  1.00  0.00     0.002 C 
BRANCH  23  24
ATOM     24  C   UNL A   1      35.246  24.445  25.518  1.00  0.00    -0.000 C 
BRANCH  24  25
ATOM     25  C   UNL A   1      34.061  25.331  25.128  1.00  0.00    -0.003 C 
ATOM     26  C   UNL A   1      34.028  26.655  25.877  1.00  0.00     0.004 C 
ENDBRANCH  24  25
ENDBRANCH  23  24
ENDBRANCH  22  23
ENDBRANCH  21  22
ENDBRANCH  18  21
ENDBRANCH  16  17
ENDBRANCH  11  16
ENDBRANCH   4  10
ENDBRANCH   1   3
BRANCH   1  27
ATOM     27  C   UNL A   1      28.445  31.507  23.348  1.00  0.00     0.227 C 
ATOM     28  O   UNL A   1      27.279  31.916  23.305  1.00  0.00    -0.274 OA
ATOM     29  N   UNL A   1      29.119  31.737  24.509  1.00  0.00    -0.356 N 
ATOM     30  H   UNL A   1      28.572  32.148  25.216  1.00  0.00     0.163 HD
BRANCH  29  31
ATOM     31  C   UNL A   1      30.492  31.488  24.891  1.00  0.00     0.116 C 
BRANCH  31  32
ATOM     32  C   UNL A   1      30.852  32.168  26.213  1.00  0.00     0.023 C 
BRANCH  32  33
ATOM     33  C   UNL A   1      32.056  31.573  26.938  1.00  0.00     0.023 C 
BRANCH  33  34
ATOM     34  C   UNL A   1      33.135  32.573  27.331  1.00  0.00     0.116 C 
BRANCH  34  35
ATOM     35  N   UNL A   1      32.634  33.909  27.625  1.00  0.00    -0.352 N 
ATOM     36  C   UNL A   1      33.092  34.799  28.570  1.00  0.00     0.251 C 
ATOM     37  H   UNL A   1      31.874  34.214  27.079  1.00  0.00     0.163 HD
ATOM     38  O   UNL A   1      32.526  35.870  28.752  1.00  0.00    -0.269 OA
BRANCH  36  39
ATOM     39  C   UNL A   1      34.250  34.416  29.404  1.00  0.00     0.039 A 
ATOM     40  C   UNL A   1      34.020  33.795  30.633  1.00  0.00     0.014 A 
ATOM     41  C   UNL A   1      35.552  34.590  28.927  1.00  0.00     0.014 A 
ATOM     42  C   UNL A   1      35.097  33.265  31.346  1.00  0.00     0.010 A 
ATOM     43  C   UNL A   1      36.612  33.994  29.598  1.00  0.00     0.010 A 
ATOM     44  C   UNL A   1      36.393  33.315  30.808  1.00  0.00    -0.014 A 
BRANCH  44  45
ATOM     45  C   UNL A   1      37.535  32.649  31.480  1.00  0.00     0.031 A 
ATOM     46  C   UNL A   1      38.227  31.492  30.817  1.00  0.00     0.074 A 
ATOM     47  C   UNL A   1      37.888  33.028  32.725  1.00  0.00     0.049 A 
ATOM     48  N   UNL A   1      39.179  30.722  31.279  1.00  0.00    -0.248 NA
ATOM     49  C   UNL A   1      37.764  31.132  29.468  1.00  0.00     0.031 C 
ATOM     50  C   UNL A   1      37.251  34.094  33.498  1.00  0.00     0.029 A 
ATOM     51  N   UNL A   1      38.862  32.546  33.565  1.00  0.00    -0.354 N 
ATOM     52  C   UNL A   1      39.413  29.778  30.288  1.00  0.00     0.074 A 
ATOM     53  C   UNL A   1      38.469  30.038  29.223  1.00  0.00     0.031 C 
ATOM     54  C   UNL A   1      37.861  34.201  34.688  1.00  0.00     0.029 A 
ATOM     55  C   UNL A   1      38.909  33.189  34.778  1.00  0.00     0.049 A 
ATOM     56  H   UNL A   1      39.467  31.809  33.320  1.00  0.00     0.167 HD
ATOM     57  C   UNL A   1      40.348  28.798  30.260  1.00  0.00     0.037 A 
ATOM     58  C   UNL A   1      39.704  32.978  35.844  1.00  0.00     0.037 A 
ATOM     59  C   UNL A   1      41.308  28.567  31.307  1.00  0.00     0.049 A 
ATOM     60  C   UNL A   1      40.743  31.892  35.781  1.00  0.00     0.074 A 
ATOM     61  C   UNL A   1      42.345  27.653  31.338  1.00  0.00     0.029 A 
ATOM     62  N   UNL A   1      41.345  29.259  32.508  1.00  0.00    -0.354 N 
ATOM     63  N   UNL A   1      41.008  31.057  34.806  1.00  0.00    -0.248 NA
ATOM     64  C   UNL A   1      41.597  31.724  36.965  1.00  0.00     0.031 C 
ATOM     65  C   UNL A   1      42.986  27.762  32.577  1.00  0.00     0.029 A 
ATOM     66  C   UNL A   1      42.376  28.775  33.299  1.00  0.00     0.049 A 
ATOM     67  H   UNL A   1      40.731  29.985  32.763  1.00  0.00     0.167 HD
ATOM     68  C   UNL A   1      42.071  30.281  35.247  1.00  0.00     0.074 A 
ATOM     69  C   UNL A   1      42.414  30.756  36.572  1.00  0.00     0.031 C 
ATOM     70  C   UNL A   1      42.705  29.265  34.612  1.00  0.00     0.037 A 
BRANCH  57  71
ATOM     71  C   UNL A   1      40.383  27.910  29.052  1.00  0.00     0.064 A 
ATOM     72  C   UNL A   1      41.161  28.228  27.928  1.00  0.00     0.173 A 
ATOM     73  C   UNL A   1      39.656  26.710  29.029  1.00  0.00     0.173 A 
ATOM     74  F   UNL A   1      41.864  29.370  27.895  1.00  0.00    -0.203 F 
ATOM     75  C   UNL A   1      41.186  27.393  26.814  1.00  0.00     0.198 A 
ATOM     76  C   UNL A   1      39.708  25.863  27.925  1.00  0.00     0.198 A 
ATOM     77  F   UNL A   1      38.900  26.356  30.079  1.00  0.00    -0.203 F 
ATOM     78  F   UNL A   1      41.896  27.743  25.733  1.00  0.00    -0.200 F 
ATOM     79  C   UNL A   1      40.466  26.208  26.817  1.00  0.00     0.200 A 
ATOM     80  F   UNL A   1      39.021  24.712  27.933  1.00  0.00    -0.200 F 
ATOM     81  F   UNL A   1      40.496  25.403  25.746  1.00  0.00    -0.200 F 
ENDBRANCH  57  71
BRANCH  58  82
ATOM     82  C   UNL A   1      39.566  33.831  37.053  1.00  0.00     0.064 A 
ATOM     83  C   UNL A   1      38.753  33.431  38.124  1.00  0.00     0.173 A 
ATOM     84  C   UNL A   1      40.234  35.058  37.164  1.00  0.00     0.173 A 
ATOM     85  F   UNL A   1      38.075  32.276  38.054  1.00  0.00    -0.203 F 
ATOM     86  C   UNL A   1      38.598  34.236  39.251  1.00  0.00     0.198 A 
ATOM     87  C   UNL A   1      40.101  35.850  38.303  1.00  0.00     0.198 A 
ATOM     88  F   UNL A   1      41.027  35.483  36.170  1.00  0.00    -0.203 F 
ATOM     89  F   UNL A   1      37.780  33.852  40.239  1.00  0.00    -0.200 F 
ATOM     90  C   UNL A   1      39.277  35.443  39.341  1.00  0.00     0.200 A 
ATOM     91  F   UNL A   1      40.767  37.009  38.392  1.00  0.00    -0.200 F 
ATOM     92  F   UNL A   1      39.131  36.216  40.426  1.00  0.00    -0.200 F 
ENDBRANCH  58  82
BRANCH  70  93
ATOM     93  C   UNL A   1      43.852  28.617  35.330  1.00  0.00     0.064 A 
ATOM     94  C   UNL A   1      43.661  27.506  36.166  1.00  0.00     0.173 A 
ATOM     95  C   UNL A   1      45.162  29.082  35.144  1.00  0.00     0.173 A 
ATOM     96  F   UNL A   1      42.424  27.034  36.388  1.00  0.00    -0.203 F 
ATOM     97  C   UNL A   1      44.737  26.899  36.806  1.00  0.00     0.198 A 
ATOM     98  C   UNL A   1      46.240  28.456  35.763  1.00  0.00     0.198 A 
ATOM     99  F   UNL A   1      45.398  30.137  34.349  1.00  0.00    -0.203 F 
ATOM    100  F   UNL A   1      44.527  25.867  37.634  1.00  0.00    -0.200 F 
ATOM    101  C   UNL A   1      46.026  27.370  36.598  1.00  0.00     0.200 A 
ATOM    102  F   UNL A   1      47.485  28.903  35.551  1.00  0.00    -0.200 F 
ATOM    103  F   UNL A   1      47.062  26.779  37.208  1.00  0.00    -0.200 F 
ENDBRANCH  70  93
ENDBRANCH  44  45
ENDBRANCH  36  39
ENDBRANCH  34  35
ENDBRANCH  33  34
ENDBRANCH  32  33
ENDBRANCH  31  32
ENDBRANCH  29  31
ENDBRANCH   1  27
TORSDOF 20
ENDMDL
MODEL 2
REMARK VINA RESULT:     -11.9      2.813      4.394
REMARK SMILES CCCCCCNC(=O)Oc1cccc(-c2ccc([C@@H](C)C(=O)NCCCCNC(=O)c3ccc(-c4c5nc(c(-c6c(F)c(F)c(F)c(F)c6F)c6ccc([nH]6)c(-c6c(F)c(F)c(F)c(F)c6F)c6nc(c(-c7c(F)c(F)c(F)c(F)c7F)c7ccc4[nH]7)C=C6)C=C5)cc3)cc2Cl)c1
REMARK SMILES IDX 20 1 21 2 19 3 16 4 17 5 96 6 18 7 95 8 97 9 15 10 11 11
REMARK SMILES IDX 12 12 98 13 13 14 14 15 10 16 8 17 7 18 9 20 6 21 5 22 4 23
REMARK SMILES IDX 3 24 2 25 1 26 22 27 23 28 24 29 25 31 26 32 27 33 28 34
REMARK SMILES IDX 29 35 30 36 31 38 32 39 33 40 94 41 34 42 93 43 35 44 36 45
REMARK SMILES IDX 37 46 87 47 38 48 92 49 86 50 88 51 39 52 91 53 85 54 84 55
REMARK SMILES IDX 40 57 72 58 52 59 71 60 53 61 56 62 70 63 89 64 54 65 55 66
REMARK SMILES IDX 69 68 90 69 57 70 41 71 42 72 50 73 43 74 44 75 48 76 51 77
REMARK SMILES IDX 45 78 46 79 49 80 47 81 73 82 74 83 82 84 75 85 76 86 80 87
REMARK SMILES IDX 83 88 77 89 78 90 81 91 79 92 58 93 59 94 67 95 60 96 61 97
REMARK SMILES IDX 65 98 68 99 62 100 63 101 66 102 64 103
REMARK H PARENT 7 19 24 30 29 37 88 56 56 67
REMARK Flexibility Score: inf
ROOT
ATOM      1  C   UNL A   1      31.717  26.102  24.619  1.00  0.00     0.105 C 
ATOM      2  C   UNL A   1      30.712  25.544  23.613  1.00  0.00     0.023 C 
ENDROOT
BRANCH   1   3
ATOM      3  C   UNL A   1      32.972  25.268  24.825  1.00  0.00    -0.034 A 
ATOM      4  C   UNL A   1      35.225  23.522  25.194  1.00  0.00     0.000 A 
ATOM      5  C   UNL A   1      35.112  24.383  24.084  1.00  0.00     0.010 A 
ATOM      6  C   UNL A   1      34.199  23.613  26.157  1.00  0.00     0.049 A 
ATOM      7  C   UNL A   1      34.041  25.271  23.931  1.00  0.00     0.005 A 
ATOM      8  C   UNL A   1      33.079  24.439  25.952  1.00  0.00     0.025 A 
ATOM      9  Cl  UNL A   1      34.259  22.794  27.684  1.00  0.00    -0.084 Cl
BRANCH   4  10
ATOM     10  C   UNL A   1      36.392  22.605  25.267  1.00  0.00    -0.013 A 
ATOM     11  C   UNL A   1      38.697  22.107  25.881  1.00  0.00     0.133 A 
ATOM     12  C   UNL A   1      38.584  20.804  25.406  1.00  0.00     0.047 A 
ATOM     13  C   UNL A   1      37.617  22.993  25.836  1.00  0.00     0.056 A 
ATOM     14  C   UNL A   1      37.372  20.383  24.877  1.00  0.00     0.004 A 
ATOM     15  C   UNL A   1      36.299  21.278  24.792  1.00  0.00     0.009 A 
BRANCH  11  16
ATOM     16  O   UNL A   1      39.985  22.534  26.245  1.00  0.00    -0.410 OA
BRANCH  16  17
ATOM     17  C   UNL A   1      40.839  21.660  26.898  1.00  0.00     0.412 C 
ATOM     18  N   UNL A   1      42.094  21.641  26.351  1.00  0.00    -0.321 N 
ATOM     19  H   UNL A   1      42.736  21.006  26.741  1.00  0.00     0.167 HD
ATOM     20  O   UNL A   1      40.551  20.952  27.854  1.00  0.00    -0.224 OA
BRANCH  18  21
ATOM     21  C   UNL A   1      42.572  22.461  25.254  1.00  0.00     0.119 C 
BRANCH  21  22
ATOM     22  C   UNL A   1      44.073  22.732  25.354  1.00  0.00     0.021 C 
BRANCH  22  23
ATOM     23  C   UNL A   1      44.921  22.073  24.259  1.00  0.00     0.002 C 
BRANCH  23  24
ATOM     24  C   UNL A   1      46.138  21.281  24.753  1.00  0.00    -0.000 C 
BRANCH  24  25
ATOM     25  C   UNL A   1      45.936  19.768  24.862  1.00  0.00    -0.003 C 
ATOM     26  C   UNL A   1      44.493  19.337  24.647  1.00  0.00     0.004 C 
ENDBRANCH  24  25
ENDBRANCH  23  24
ENDBRANCH  22  23
ENDBRANCH  21  22
ENDBRANCH  18  21
ENDBRANCH  16  17
ENDBRANCH  11  16
ENDBRANCH   4  10
ENDBRANCH   1   3
BRANCH   1  27
ATOM     27  C   UNL A   1      31.084  26.608  25.927  1.00  0.00     0.227 C 
ATOM     28  O   UNL A   1      30.274  25.897  26.533  1.00  0.00    -0.274 OA
ATOM     29  N   UNL A   1      31.366  27.813  26.494  1.00  0.00    -0.356 N 
ATOM     30  H   UNL A   1      30.938  27.955  27.370  1.00  0.00     0.163 HD
BRANCH  29  31
ATOM     31  C   UNL A   1      32.179  28.922  26.046  1.00  0.00     0.116 C 
BRANCH  31  32
ATOM     32  C   UNL A   1      32.492  29.900  27.180  1.00  0.00     0.023 C 
BRANCH  32  33
ATOM     33  C   UNL A   1      32.130  31.355  26.896  1.00  0.00     0.023 C 
BRANCH  33  34
ATOM     34  C   UNL A   1      33.179  32.378  27.313  1.00  0.00     0.116 C 
BRANCH  34  35
ATOM     35  N   UNL A   1      32.646  33.706  27.583  1.00  0.00    -0.352 N 
ATOM     36  C   UNL A   1      33.075  34.619  28.518  1.00  0.00     0.251 C 
ATOM     37  H   UNL A   1      31.884  33.986  27.026  1.00  0.00     0.163 HD
ATOM     38  O   UNL A   1      32.483  35.681  28.679  1.00  0.00    -0.269 OA
BRANCH  36  39
ATOM     39  C   UNL A   1      34.234  34.275  29.367  1.00  0.00     0.039 A 
ATOM     40  C   UNL A   1      34.011  33.610  30.575  1.00  0.00     0.014 A 
ATOM     41  C   UNL A   1      35.534  34.530  28.925  1.00  0.00     0.014 A 
ATOM     42  C   UNL A   1      35.098  33.117  31.297  1.00  0.00     0.010 A 
ATOM     43  C   UNL A   1      36.610  33.972  29.604  1.00  0.00     0.010 A 
ATOM     44  C   UNL A   1      36.402  33.250  30.790  1.00  0.00    -0.014 A 
BRANCH  44  45
ATOM     45  C   UNL A   1      37.563  32.626  31.471  1.00  0.00     0.031 A 
ATOM     46  C   UNL A   1      38.287  31.480  30.823  1.00  0.00     0.074 A 
ATOM     47  C   UNL A   1      37.906  33.033  32.709  1.00  0.00     0.049 A 
ATOM     48  N   UNL A   1      39.261  30.744  31.295  1.00  0.00    -0.248 NA
ATOM     49  C   UNL A   1      37.833  31.088  29.480  1.00  0.00     0.031 C 
ATOM     50  C   UNL A   1      37.240  34.092  33.467  1.00  0.00     0.029 A 
ATOM     51  N   UNL A   1      38.894  32.591  33.554  1.00  0.00    -0.354 N 
ATOM     52  C   UNL A   1      39.520  29.793  30.317  1.00  0.00     0.074 A 
ATOM     53  C   UNL A   1      38.568  30.010  29.250  1.00  0.00     0.031 C 
ATOM     54  C   UNL A   1      37.848  34.234  34.655  1.00  0.00     0.029 A 
ATOM     55  C   UNL A   1      38.924  33.253  34.758  1.00  0.00     0.049 A 
ATOM     56  H   UNL A   1      39.520  31.869  33.320  1.00  0.00     0.167 HD
ATOM     57  C   UNL A   1      40.482  28.840  30.302  1.00  0.00     0.037 A 
ATOM     58  C   UNL A   1      39.726  33.080  35.826  1.00  0.00     0.037 A 
ATOM     59  C   UNL A   1      41.450  28.651  31.351  1.00  0.00     0.049 A 
ATOM     60  C   UNL A   1      40.796  32.023  35.777  1.00  0.00     0.074 A 
ATOM     61  C   UNL A   1      42.512  27.767  31.394  1.00  0.00     0.029 A 
ATOM     62  N   UNL A   1      41.468  29.361  32.542  1.00  0.00    -0.354 N 
ATOM     63  N   UNL A   1      41.083  31.183  34.814  1.00  0.00    -0.248 NA
ATOM     64  C   UNL A   1      41.655  31.897  36.962  1.00  0.00     0.031 C 
ATOM     65  C   UNL A   1      43.152  27.913  32.630  1.00  0.00     0.029 A 
ATOM     66  C   UNL A   1      42.514  28.919  33.338  1.00  0.00     0.049 A 
ATOM     67  H   UNL A   1      40.834  30.073  32.787  1.00  0.00     0.167 HD
ATOM     68  C   UNL A   1      42.168  30.444  35.264  1.00  0.00     0.074 A 
ATOM     69  C   UNL A   1      42.499  30.947  36.582  1.00  0.00     0.031 C 
ATOM     70  C   UNL A   1      42.830  29.436  34.644  1.00  0.00     0.037 A 
BRANCH  57  71
ATOM     71  C   UNL A   1      40.542  27.935  29.107  1.00  0.00     0.064 A 
ATOM     72  C   UNL A   1      41.379  28.212  28.017  1.00  0.00     0.173 A 
ATOM     73  C   UNL A   1      39.776  26.761  29.065  1.00  0.00     0.173 A 
ATOM     74  F   UNL A   1      42.122  29.330  28.002  1.00  0.00    -0.203 F 
ATOM     75  C   UNL A   1      41.426  27.362  26.914  1.00  0.00     0.198 A 
ATOM     76  C   UNL A   1      39.848  25.898  27.973  1.00  0.00     0.198 A 
ATOM     77  F   UNL A   1      38.961  26.445  30.083  1.00  0.00    -0.203 F 
ATOM     78  F   UNL A   1      42.196  27.675  25.863  1.00  0.00    -0.200 F 
ATOM     79  C   UNL A   1      40.666  26.203  26.897  1.00  0.00     0.200 A 
ATOM     80  F   UNL A   1      39.122  24.772  27.963  1.00  0.00    -0.200 F 
ATOM     81  F   UNL A   1      40.717  25.383  25.838  1.00  0.00    -0.200 F 
ENDBRANCH  57  71
BRANCH  58  82
ATOM     82  C   UNL A   1      39.565  33.947  37.023  1.00  0.00     0.064 A 
ATOM     83  C   UNL A   1      38.848  33.498  38.142  1.00  0.00     0.173 A 
ATOM     84  C   UNL A   1      40.115  35.235  37.074  1.00  0.00     0.173 A 
ATOM     85  F   UNL A   1      38.284  32.281  38.131  1.00  0.00    -0.203 F 
ATOM     86  C   UNL A   1      38.671  34.313  39.258  1.00  0.00     0.198 A 
ATOM     87  C   UNL A   1      39.962  36.039  38.202  1.00  0.00     0.198 A 
ATOM     88  F   UNL A   1      40.814  35.708  36.032  1.00  0.00    -0.203 F 
ATOM     89  F   UNL A   1      37.945  33.877  40.295  1.00  0.00    -0.200 F 
ATOM     90  C   UNL A   1      39.233  35.581  39.289  1.00  0.00     0.200 A 
ATOM     91  F   UNL A   1      40.515  37.259  38.233  1.00  0.00    -0.200 F 
ATOM     92  F   UNL A   1      39.066  36.364  40.363  1.00  0.00    -0.200 F 
ENDBRANCH  58  82
BRANCH  70  93
ATOM     93  C   UNL A   1      43.996  28.832  35.369  1.00  0.00     0.064 A 
ATOM     94  C   UNL A   1      43.841  27.713  36.202  1.00  0.00     0.173 A 
ATOM     95  C   UNL A   1      45.288  29.348  35.194  1.00  0.00     0.173 A 
ATOM     96  F   UNL A   1      42.622  27.192  36.413  1.00  0.00    -0.203 F 
ATOM     97  C   UNL A   1      44.936  27.147  36.848  1.00  0.00     0.198 A 
ATOM     98  C   UNL A   1      46.384  28.762  35.821  1.00  0.00     0.198 A 
ATOM     99  F   UNL A   1      45.489  30.413  34.403  1.00  0.00    -0.203 F 
ATOM    100  F   UNL A   1      44.759  26.106  37.673  1.00  0.00    -0.200 F 
ATOM    101  C   UNL A   1      46.207  27.667  36.652  1.00  0.00     0.200 A 
ATOM    102  F   UNL A   1      47.613  29.258  35.619  1.00  0.00    -0.200 F 
ATOM    103  F   UNL A   1      47.260  27.116  37.268  1.00  0.00    -0.200 F 
ENDBRANCH  70  93
ENDBRANCH  44  45
ENDBRANCH  36  39
ENDBRANCH  34  35
ENDBRANCH  33  34
ENDBRANCH  32  33
ENDBRANCH  31  32
ENDBRANCH  29  31
ENDBRANCH   1  27
TORSDOF 20
ENDMDL
MODEL 3
REMARK VINA RESULT:     -11.8      0.501      6.981
REMARK SMILES CCCCCCNC(=O)Oc1cccc(-c2ccc([C@@H](C)C(=O)NCCCCNC(=O)c3ccc(-c4c5nc(c(-c6c(F)c(F)c(F)c(F)c6F)c6ccc([nH]6)c(-c6c(F)c(F)c(F)c(F)c6F)c6nc(c(-c7c(F)c(F)c(F)c(F)c7F)c7ccc4[nH]7)C=C6)C=C5)cc3)cc2Cl)c1
REMARK SMILES IDX 20 1 21 2 19 3 16 4 17 5 96 6 18 7 95 8 97 9 15 10 11 11
REMARK SMILES IDX 12 12 98 13 13 14 14 15 10 16 8 17 7 18 9 20 6 21 5 22 4 23
REMARK SMILES IDX 3 24 2 25 1 26 22 27 23 28 24 29 25 31 26 32 27 33 28 34
REMARK SMILES IDX 29 35 30 36 31 38 32 39 33 40 94 41 34 42 93 43 35 44 36 45
REMARK SMILES IDX 37 46 87 47 38 48 92 49 86 50 88 51 39 52 91 53 85 54 84 55
REMARK SMILES IDX 40 57 72 58 52 59 71 60 53 61 56 62 70 63 89 64 54 65 55 66
REMARK SMILES IDX 69 68 90 69 57 70 41 71 42 72 50 73 43 74 44 75 48 76 51 77
REMARK SMILES IDX 45 78 46 79 49 80 47 81 73 82 74 83 82 84 75 85 76 86 80 87
REMARK SMILES IDX 83 88 77 89 78 90 81 91 79 92 58 93 59 94 67 95 60 96 61 97
REMARK SMILES IDX 65 98 68 99 62 100 63 101 66 102 64 103
REMARK H PARENT 7 19 24 30 29 37 88 56 56 67
REMARK Flexibility Score: inf
ROOT
ATOM      1  C   UNL A   1      29.091  30.934  22.079  1.00  0.00     0.105 C 
ATOM      2  C   UNL A   1      28.174  30.983  20.859  1.00  0.00     0.023 C 
ENDROOT
BRANCH   1   3
ATOM      3  C   UNL A   1      29.653  29.563  22.424  1.00  0.00    -0.034 A 
ATOM      4  C   UNL A   1      30.583  26.892  22.933  1.00  0.00     0.000 A 
ATOM      5  C   UNL A   1      31.412  27.886  22.377  1.00  0.00     0.010 A 
ATOM      6  C   UNL A   1      29.282  27.299  23.293  1.00  0.00     0.049 A 
ATOM      7  C   UNL A   1      30.975  29.201  22.178  1.00  0.00     0.005 A 
ATOM      8  C   UNL A   1      28.819  28.596  23.004  1.00  0.00     0.025 A 
ATOM      9  Cl  UNL A   1      28.182  26.288  24.174  1.00  0.00    -0.084 Cl
BRANCH   4  10
ATOM     10  C   UNL A   1      31.129  25.519  23.099  1.00  0.00    -0.013 A 
ATOM     11  C   UNL A   1      31.197  23.354  24.214  1.00  0.00     0.133 A 
ATOM     12  C   UNL A   1      32.190  22.897  23.355  1.00  0.00     0.047 A 
ATOM     13  C   UNL A   1      30.654  24.636  24.081  1.00  0.00     0.056 A 
ATOM     14  C   UNL A   1      32.649  23.736  22.348  1.00  0.00     0.004 A 
ATOM     15  C   UNL A   1      32.137  25.035  22.236  1.00  0.00     0.009 A 
BRANCH  11  16
ATOM     16  O   UNL A   1      30.892  22.536  25.315  1.00  0.00    -0.410 OA
BRANCH  16  17
ATOM     17  C   UNL A   1      31.155  22.987  26.598  1.00  0.00     0.412 C 
ATOM     18  N   UNL A   1      32.268  22.407  27.144  1.00  0.00    -0.321 N 
ATOM     19  H   UNL A   1      32.483  22.650  28.072  1.00  0.00     0.167 HD
ATOM     20  O   UNL A   1      30.490  23.802  27.225  1.00  0.00    -0.224 OA
BRANCH  18  21
ATOM     21  C   UNL A   1      33.162  21.468  26.493  1.00  0.00     0.119 C 
BRANCH  21  22
ATOM     22  C   UNL A   1      34.437  22.144  25.992  1.00  0.00     0.021 C 
BRANCH  22  23
ATOM     23  C   UNL A   1      34.670  23.561  26.530  1.00  0.00     0.002 C 
BRANCH  23  24
ATOM     24  C   UNL A   1      34.482  24.693  25.514  1.00  0.00    -0.000 C 
BRANCH  24  25
ATOM     25  C   UNL A   1      33.550  25.824  25.955  1.00  0.00    -0.003 C 
ATOM     26  C   UNL A   1      33.750  27.109  25.166  1.00  0.00     0.004 C 
ENDBRANCH  24  25
ENDBRANCH  23  24
ENDBRANCH  22  23
ENDBRANCH  21  22
ENDBRANCH  18  21
ENDBRANCH  16  17
ENDBRANCH  11  16
ENDBRANCH   4  10
ENDBRANCH   1   3
BRANCH   1  27
ATOM     27  C   UNL A   1      28.564  31.714  23.296  1.00  0.00     0.227 C 
ATOM     28  O   UNL A   1      27.462  32.272  23.237  1.00  0.00    -0.274 OA
ATOM     29  N   UNL A   1      29.233  31.831  24.476  1.00  0.00    -0.356 N 
ATOM     30  H   UNL A   1      28.726  32.296  25.181  1.00  0.00     0.163 HD
BRANCH  29  31
ATOM     31  C   UNL A   1      30.552  31.396  24.882  1.00  0.00     0.116 C 
BRANCH  31  32
ATOM     32  C   UNL A   1      30.995  32.056  26.189  1.00  0.00     0.023 C 
BRANCH  32  33
ATOM     33  C   UNL A   1      32.160  31.369  26.896  1.00  0.00     0.023 C 
BRANCH  33  34
ATOM     34  C   UNL A   1      33.258  32.301  27.393  1.00  0.00     0.116 C 
BRANCH  34  35
ATOM     35  N   UNL A   1      32.802  33.649  27.704  1.00  0.00    -0.352 N 
ATOM     36  C   UNL A   1      33.279  34.504  28.672  1.00  0.00     0.251 C 
ATOM     37  H   UNL A   1      32.062  33.992  27.153  1.00  0.00     0.163 HD
ATOM     38  O   UNL A   1      32.750  35.593  28.865  1.00  0.00    -0.269 OA
BRANCH  36  39
ATOM     39  C   UNL A   1      34.409  34.064  29.515  1.00  0.00     0.039 A 
ATOM     40  C   UNL A   1      34.145  33.278  30.639  1.00  0.00     0.014 A 
ATOM     41  C   UNL A   1      35.723  34.352  29.141  1.00  0.00     0.014 A 
ATOM     42  C   UNL A   1      35.207  32.704  31.339  1.00  0.00     0.010 A 
ATOM     43  C   UNL A   1      36.775  33.718  29.791  1.00  0.00     0.010 A 
ATOM     44  C   UNL A   1      36.527  32.878  30.888  1.00  0.00    -0.014 A 
BRANCH  44  45
ATOM     45  C   UNL A   1      37.662  32.177  31.535  1.00  0.00     0.031 A 
ATOM     46  C   UNL A   1      38.142  32.613  32.890  1.00  0.00     0.074 A 
ATOM     47  C   UNL A   1      38.317  31.209  30.862  1.00  0.00     0.049 A 
ATOM     48  N   UNL A   1      39.171  32.190  33.579  1.00  0.00    -0.248 NA
ATOM     49  C   UNL A   1      37.382  33.690  33.543  1.00  0.00     0.031 C 
ATOM     50  C   UNL A   1      37.986  30.742  29.515  1.00  0.00     0.029 A 
ATOM     51  N   UNL A   1      39.408  30.454  31.216  1.00  0.00    -0.354 N 
ATOM     52  C   UNL A   1      39.194  32.962  34.733  1.00  0.00     0.074 A 
ATOM     53  C   UNL A   1      38.108  33.913  34.628  1.00  0.00     0.031 C 
ATOM     54  C   UNL A   1      38.840  29.768  29.165  1.00  0.00     0.029 A 
ATOM     55  C   UNL A   1      39.800  29.566  30.245  1.00  0.00     0.049 A 
ATOM     56  H   UNL A   1      39.865  30.543  32.083  1.00  0.00     0.167 HD
ATOM     57  C   UNL A   1      40.029  32.869  35.794  1.00  0.00     0.037 A 
ATOM     58  C   UNL A   1      40.825  28.692  30.227  1.00  0.00     0.037 A 
ATOM     59  C   UNL A   1      41.085  31.897  35.909  1.00  0.00     0.049 A 
ATOM     60  C   UNL A   1      41.730  28.599  31.426  1.00  0.00     0.074 A 
ATOM     61  C   UNL A   1      41.934  31.669  36.976  1.00  0.00     0.029 A 
ATOM     62  N   UNL A   1      41.433  30.992  34.917  1.00  0.00    -0.354 N 
ATOM     63  N   UNL A   1      41.693  29.279  32.544  1.00  0.00    -0.248 NA
ATOM     64  C   UNL A   1      42.817  27.612  31.359  1.00  0.00     0.031 C 
ATOM     65  C   UNL A   1      42.825  30.652  36.616  1.00  0.00     0.029 A 
ATOM     66  C   UNL A   1      42.502  30.217  35.341  1.00  0.00     0.049 A 
ATOM     67  H   UNL A   1      40.988  30.911  34.043  1.00  0.00     0.167 HD
ATOM     68  C   UNL A   1      42.731  28.790  33.324  1.00  0.00     0.074 A 
ATOM     69  C   UNL A   1      43.372  27.742  32.556  1.00  0.00     0.031 C 
ATOM     70  C   UNL A   1      43.121  29.175  34.564  1.00  0.00     0.037 A 
BRANCH  57  71
ATOM     71  C   UNL A   1      39.828  33.837  36.922  1.00  0.00     0.064 A 
ATOM     72  C   UNL A   1      39.003  33.531  38.014  1.00  0.00     0.173 A 
ATOM     73  C   UNL A   1      40.491  35.073  36.926  1.00  0.00     0.173 A 
ATOM     74  F   UNL A   1      38.335  32.368  38.052  1.00  0.00    -0.203 F 
ATOM     75  C   UNL A   1      38.826  34.439  39.056  1.00  0.00     0.198 A 
ATOM     76  C   UNL A   1      40.336  35.966  37.984  1.00  0.00     0.198 A 
ATOM     77  F   UNL A   1      41.296  35.414  35.907  1.00  0.00    -0.203 F 
ATOM     78  F   UNL A   1      37.994  34.145  40.064  1.00  0.00    -0.200 F 
ATOM     79  C   UNL A   1      39.498  35.652  39.042  1.00  0.00     0.200 A 
ATOM     80  F   UNL A   1      40.994  37.133  37.975  1.00  0.00    -0.200 F 
ATOM     81  F   UNL A   1      39.331  36.522  40.048  1.00  0.00    -0.200 F 
ENDBRANCH  57  71
BRANCH  58  82
ATOM     82  C   UNL A   1      41.034  27.817  29.045  1.00  0.00     0.064 A 
ATOM     83  C   UNL A   1      40.210  26.704  28.822  1.00  0.00     0.173 A 
ATOM     84  C   UNL A   1      42.057  28.067  28.119  1.00  0.00     0.173 A 
ATOM     85  F   UNL A   1      39.233  26.411  29.692  1.00  0.00    -0.203 F 
ATOM     86  C   UNL A   1      40.415  25.864  27.729  1.00  0.00     0.198 A 
ATOM     87  C   UNL A   1      42.243  27.242  27.012  1.00  0.00     0.198 A 
ATOM     88  F   UNL A   1      42.869  29.122  28.285  1.00  0.00    -0.203 F 
ATOM     89  F   UNL A   1      39.642  24.782  27.565  1.00  0.00    -0.200 F 
ATOM     90  C   UNL A   1      41.428  26.137  26.822  1.00  0.00     0.200 A 
ATOM     91  F   UNL A   1      43.216  27.515  26.131  1.00  0.00    -0.200 F 
ATOM     92  F   UNL A   1      41.622  25.331  25.770  1.00  0.00    -0.200 F 
ENDBRANCH  58  82
BRANCH  70  93
ATOM     93  C   UNL A   1      44.276  28.441  35.179  1.00  0.00     0.064 A 
ATOM     94  C   UNL A   1      44.093  27.239  35.878  1.00  0.00     0.173 A 
ATOM     95  C   UNL A   1      45.586  28.921  35.027  1.00  0.00     0.173 A 
ATOM     96  F   UNL A   1      42.858  26.747  36.063  1.00  0.00    -0.203 F 
ATOM     97  C   UNL A   1      45.177  26.556  36.422  1.00  0.00     0.198 A 
ATOM     98  C   UNL A   1      46.670  28.221  35.549  1.00  0.00     0.198 A 
ATOM     99  F   UNL A   1      45.814  30.063  34.362  1.00  0.00    -0.203 F 
ATOM    100  F   UNL A   1      44.975  25.433  37.123  1.00  0.00    -0.200 F 
ATOM    101  C   UNL A   1      46.465  27.044  36.251  1.00  0.00     0.200 A 
ATOM    102  F   UNL A   1      47.914  28.687  35.371  1.00  0.00    -0.200 F 
ATOM    103  F   UNL A   1      47.508  26.381  36.767  1.00  0.00    -0.200 F 
ENDBRANCH  70  93
ENDBRANCH  44  45
ENDBRANCH  36  39
ENDBRANCH  34  35
ENDBRANCH  33  34
ENDBRANCH  32  33
ENDBRANCH  31  32
ENDBRANCH  29  31
ENDBRANCH   1  27
TORSDOF 20
ENDMDL
