MODEL 1
REMARK VINA RESULT:     -10.8      0.000      0.000
REMARK SMILES O=C(NCCCCNC(=O)[C@H](NC(=O)[C@H]1CC[C@@H](CNC(=O)[C@@H]2Cc3ccccc3C[NH2+]2)CC1)c1ccccc1)c1ccc(-c2c3nc(c(-c4c(F)c(F)c(F)c(F)c4F)c4ccc([nH]4)c(-c4c(F)c(F)c(F)c(F)c4F)c4nc(c(-c5c(F)c(F)c(F)c(F)c5F)c5ccc2[nH]5)C=C4)C=C3)cc1
REMARK SMILES IDX 7 1 6 2 5 3 4 4 3 5 1 6 2 7 41 9 42 10 103 11 43 12 102 13
REMARK SMILES IDX 44 14 45 15 46 16 96 17 47 18 101 19 95 20 97 21 48 22
REMARK SMILES IDX 100 23 94 24 93 25 49 27 81 28 61 29 80 30 62 31 65 32 79 33
REMARK SMILES IDX 98 34 63 35 64 36 78 38 99 39 66 40 50 41 51 42 59 43 52 44
REMARK SMILES IDX 53 45 57 46 60 47 54 48 55 49 58 50 56 51 82 52 83 53 91 54
REMARK SMILES IDX 84 55 85 56 89 57 92 58 86 59 87 60 90 61 88 62 67 63 68 64
REMARK SMILES IDX 76 65 69 66 70 67 74 68 77 69 71 70 72 71 75 72 73 73 8 74
REMARK SMILES IDX 9 75 10 77 11 78 35 79 36 80 40 81 37 82 39 83 38 84 12 85
REMARK SMILES IDX 13 86 14 88 15 89 34 90 16 91 33 92 17 93 18 94 19 95 20 96
REMARK SMILES IDX 21 97 22 99 23 100 24 101 32 102 25 103 31 104 26 107 30 108
REMARK SMILES IDX 27 109 29 110 28 111
REMARK H PARENT 3 8 97 26 65 37 8 76 12 87 20 98 32 105 32 106
REMARK Flexibility Score: inf
ROOT
ATOM      1  C   UNL A   1      47.587  26.598  24.411  1.00  0.00     0.116 C 
ENDROOT
BRANCH   1   2
ATOM      2  C   UNL A   1      48.723  27.608  24.459  1.00  0.00     0.023 C 
BRANCH   2   3
ATOM      3  C   UNL A   1      49.992  27.170  23.743  1.00  0.00     0.023 C 
BRANCH   3   4
ATOM      4  C   UNL A   1      51.281  27.395  24.524  1.00  0.00     0.116 C 
BRANCH   4   5
ATOM      5  N   UNL A   1      51.972  26.161  24.880  1.00  0.00    -0.352 N 
ATOM      6  O   UNL A   1      52.623  24.454  26.214  1.00  0.00    -0.269 OA
ATOM      7  C   UNL A   1      51.861  25.395  26.019  1.00  0.00     0.251 C 
ATOM      8  H   UNL A   1      52.610  25.828  24.208  1.00  0.00     0.163 HD
BRANCH   7   9
ATOM      9  C   UNL A   1      50.859  25.754  27.043  1.00  0.00     0.039 A 
ATOM     10  C   UNL A   1      49.602  25.148  27.046  1.00  0.00     0.014 A 
ATOM     11  C   UNL A   1      51.156  26.765  27.960  1.00  0.00     0.014 A 
ATOM     12  C   UNL A   1      48.581  25.708  27.801  1.00  0.00     0.010 A 
ATOM     13  C   UNL A   1      50.153  27.252  28.801  1.00  0.00     0.010 A 
ATOM     14  C   UNL A   1      48.840  26.775  28.678  1.00  0.00    -0.014 A 
BRANCH  14  15
ATOM     15  C   UNL A   1      47.712  27.375  29.437  1.00  0.00     0.031 A 
ATOM     16  C   UNL A   1      46.992  28.595  28.925  1.00  0.00     0.074 A 
ATOM     17  C   UNL A   1      47.293  26.768  30.564  1.00  0.00     0.049 A 
ATOM     18  N   UNL A   1      45.955  29.216  29.435  1.00  0.00    -0.248 NA
ATOM     19  C   UNL A   1      47.501  29.207  27.688  1.00  0.00     0.031 C 
ATOM     20  C   UNL A   1      47.915  25.586  31.162  1.00  0.00     0.029 A 
ATOM     21  N   UNL A   1      46.230  27.037  31.386  1.00  0.00    -0.354 N 
ATOM     22  C   UNL A   1      45.716  30.306  28.606  1.00  0.00     0.074 A 
ATOM     23  C   UNL A   1      46.721  30.273  27.567  1.00  0.00     0.031 C 
ATOM     24  C   UNL A   1      47.185  25.188  32.213  1.00  0.00     0.029 A 
ATOM     25  C   UNL A   1      46.081  26.123  32.400  1.00  0.00     0.049 A 
ATOM     26  H   UNL A   1      45.632  27.809  31.262  1.00  0.00     0.167 HD
ATOM     27  C   UNL A   1      44.743  31.243  28.702  1.00  0.00     0.037 A 
ATOM     28  C   UNL A   1      45.159  26.047  33.376  1.00  0.00     0.037 A 
ATOM     29  C   UNL A   1      43.715  31.247  29.712  1.00  0.00     0.049 A 
ATOM     30  C   UNL A   1      44.077  27.085  33.443  1.00  0.00     0.074 A 
ATOM     31  C   UNL A   1      42.662  32.131  29.869  1.00  0.00     0.029 A 
ATOM     32  N   UNL A   1      43.610  30.316  30.734  1.00  0.00    -0.354 N 
ATOM     33  N   UNL A   1      43.853  28.097  32.642  1.00  0.00    -0.248 NA
ATOM     34  C   UNL A   1      43.123  26.971  34.553  1.00  0.00     0.031 C 
ATOM     35  C   UNL A   1      41.937  31.754  31.006  1.00  0.00     0.029 A 
ATOM     36  C   UNL A   1      42.516  30.611  31.533  1.00  0.00     0.049 A 
ATOM     37  H   UNL A   1      44.222  29.557  30.873  1.00  0.00     0.167 HD
ATOM     38  C   UNL A   1      42.726  28.733  33.140  1.00  0.00     0.074 A 
ATOM     39  C   UNL A   1      42.300  27.979  34.300  1.00  0.00     0.031 C 
ATOM     40  C   UNL A   1      42.103  29.846  32.680  1.00  0.00     0.037 A 
BRANCH  27  41
ATOM     41  C   UNL A   1      44.747  32.360  27.698  1.00  0.00     0.064 A 
ATOM     42  C   UNL A   1      45.428  33.563  27.932  1.00  0.00     0.173 A 
ATOM     43  C   UNL A   1      44.097  32.202  26.464  1.00  0.00     0.173 A 
ATOM     44  F   UNL A   1      46.055  33.768  29.101  1.00  0.00    -0.203 F 
ATOM     45  C   UNL A   1      45.444  34.575  26.975  1.00  0.00     0.198 A 
ATOM     46  C   UNL A   1      44.135  33.206  25.499  1.00  0.00     0.198 A 
ATOM     47  F   UNL A   1      43.437  31.068  26.187  1.00  0.00    -0.203 F 
ATOM     48  F   UNL A   1      46.070  35.731  27.235  1.00  0.00    -0.200 F 
ATOM     49  C   UNL A   1      44.803  34.393  25.758  1.00  0.00     0.200 A 
ATOM     50  F   UNL A   1      43.526  33.024  24.320  1.00  0.00    -0.200 F 
ATOM     51  F   UNL A   1      44.826  35.365  24.836  1.00  0.00    -0.200 F 
ENDBRANCH  27  41
BRANCH  28  52
ATOM     52  C   UNL A   1      45.217  24.933  34.354  1.00  0.00     0.064 A 
ATOM     53  C   UNL A   1      45.783  25.118  35.622  1.00  0.00     0.173 A 
ATOM     54  C   UNL A   1      44.684  23.671  34.053  1.00  0.00     0.173 A 
ATOM     55  F   UNL A   1      46.320  26.302  35.950  1.00  0.00    -0.203 F 
ATOM     56  C   UNL A   1      45.826  24.078  36.548  1.00  0.00     0.198 A 
ATOM     57  C   UNL A   1      44.702  22.641  34.988  1.00  0.00     0.198 A 
ATOM     58  F   UNL A   1      44.125  23.449  32.854  1.00  0.00    -0.203 F 
ATOM     59  F   UNL A   1      46.404  24.270  37.743  1.00  0.00    -0.200 F 
ATOM     60  C   UNL A   1      45.278  22.844  36.234  1.00  0.00     0.200 A 
ATOM     61  F   UNL A   1      44.156  21.455  34.687  1.00  0.00    -0.200 F 
ATOM     62  F   UNL A   1      45.308  21.847  37.129  1.00  0.00    -0.200 F 
ENDBRANCH  28  52
BRANCH  40  63
ATOM     63  C   UNL A   1      40.877  30.291  33.418  1.00  0.00     0.064 A 
ATOM     64  C   UNL A   1      39.594  29.901  33.009  1.00  0.00     0.173 A 
ATOM     65  C   UNL A   1      40.990  31.105  34.553  1.00  0.00     0.173 A 
ATOM     66  F   UNL A   1      39.436  29.137  31.917  1.00  0.00    -0.203 F 
ATOM     67  C   UNL A   1      38.464  30.333  33.697  1.00  0.00     0.198 A 
ATOM     68  C   UNL A   1      39.858  31.515  35.253  1.00  0.00     0.198 A 
ATOM     69  F   UNL A   1      42.197  31.501  34.985  1.00  0.00    -0.203 F 
ATOM     70  F   UNL A   1      37.243  29.990  33.261  1.00  0.00    -0.200 F 
ATOM     71  C   UNL A   1      38.597  31.135  34.820  1.00  0.00     0.200 A 
ATOM     72  F   UNL A   1      39.989  32.283  36.344  1.00  0.00    -0.200 F 
ATOM     73  F   UNL A   1      37.508  31.553  35.480  1.00  0.00    -0.200 F 
ENDBRANCH  40  63
ENDBRANCH  14  15
ENDBRANCH   7   9
ENDBRANCH   4   5
ENDBRANCH   3   4
ENDBRANCH   2   3
ENDBRANCH   1   2
BRANCH   1  74
ATOM     74  N   UNL A   1      46.273  27.159  24.631  1.00  0.00    -0.354 N 
ATOM     75  C   UNL A   1      45.228  26.642  25.362  1.00  0.00     0.247 C 
ATOM     76  H   UNL A   1      46.103  28.026  24.197  1.00  0.00     0.163 HD
ATOM     77  O   UNL A   1      44.302  27.420  25.607  1.00  0.00    -0.272 OA
BRANCH  75  78
ATOM     78  C   UNL A   1      45.313  25.188  25.951  1.00  0.00     0.202 C 
BRANCH  78  79
ATOM     79  C   UNL A   1      44.859  25.088  27.404  1.00  0.00    -0.016 A 
ATOM     80  C   UNL A   1      44.110  26.091  28.040  1.00  0.00     0.006 A 
ATOM     81  C   UNL A   1      45.178  23.933  28.143  1.00  0.00     0.006 A 
ATOM     82  C   UNL A   1      43.693  25.943  29.365  1.00  0.00     0.000 A 
ATOM     83  C   UNL A   1      44.765  23.790  29.469  1.00  0.00     0.000 A 
ATOM     84  C   UNL A   1      44.020  24.795  30.079  1.00  0.00     0.000 A 
ENDBRANCH  78  79
BRANCH  78  85
ATOM     85  N   UNL A   1      44.569  24.280  25.075  1.00  0.00    -0.340 N 
ATOM     86  C   UNL A   1      43.323  23.750  25.147  1.00  0.00     0.224 C 
ATOM     87  H   UNL A   1      45.073  24.001  24.277  1.00  0.00     0.164 HD
ATOM     88  O   UNL A   1      43.029  22.954  24.251  1.00  0.00    -0.275 OA
BRANCH  86  89
ATOM     89  C   UNL A   1      42.338  24.095  26.281  1.00  0.00     0.078 C 
ATOM     90  C   UNL A   1      41.404  25.226  25.782  1.00  0.00     0.014 C 
ATOM     91  C   UNL A   1      41.509  22.884  26.745  1.00  0.00     0.014 C 
ATOM     92  C   UNL A   1      40.197  25.507  26.679  1.00  0.00     0.006 C 
ATOM     93  C   UNL A   1      40.372  23.253  27.687  1.00  0.00     0.006 C 
ATOM     94  C   UNL A   1      39.405  24.240  27.033  1.00  0.00     0.008 C 
BRANCH  94  95
ATOM     95  C   UNL A   1      38.675  23.661  25.800  1.00  0.00     0.119 C 
BRANCH  95  96
ATOM     96  N   UNL A   1      37.686  22.656  26.156  1.00  0.00    -0.351 N 
ATOM     97  C   UNL A   1      36.415  22.474  25.694  1.00  0.00     0.278 C 
ATOM     98  H   UNL A   1      37.978  22.007  26.837  1.00  0.00     0.163 HD
ATOM     99  O   UNL A   1      35.768  21.517  26.126  1.00  0.00    -0.268 OA
BRANCH  97 100
ATOM    100  C   UNL A   1      35.810  23.480  24.711  1.00  0.00     0.277 C 
ATOM    101  C   UNL A   1      34.754  24.293  25.474  1.00  0.00     0.111 C 
ATOM    102  N   UNL A   1      35.326  22.770  23.502  1.00  0.00    -0.332 N 
ATOM    103  C   UNL A   1      34.127  25.261  24.515  1.00  0.00    -0.033 A 
ATOM    104  C   UNL A   1      34.100  23.327  22.919  1.00  0.00     0.298 C 
ATOM    105  H   UNL A   1      35.145  21.798  23.754  1.00  0.00     0.347 HD
ATOM    106  H   UNL A   1      36.054  22.870  22.795  1.00  0.00     0.347 HD
ATOM    107  C   UNL A   1      33.824  26.577  24.871  1.00  0.00     0.004 A 
ATOM    108  C   UNL A   1      33.859  24.790  23.218  1.00  0.00     0.010 A 
ATOM    109  C   UNL A   1      33.274  27.436  23.923  1.00  0.00     0.000 A 
ATOM    110  C   UNL A   1      33.300  25.658  22.278  1.00  0.00     0.010 A 
ATOM    111  C   UNL A   1      33.019  26.980  22.628  1.00  0.00     0.001 A 
ENDBRANCH  97 100
ENDBRANCH  95  96
ENDBRANCH  94  95
ENDBRANCH  86  89
ENDBRANCH  78  85
ENDBRANCH  75  78
ENDBRANCH   1  74
TORSDOF 17
ENDMDL
MODEL 2
REMARK VINA RESULT:     -10.8      3.782      6.162
REMARK SMILES O=C(NCCCCNC(=O)[C@H](NC(=O)[C@H]1CC[C@@H](CNC(=O)[C@@H]2Cc3ccccc3C[NH2+]2)CC1)c1ccccc1)c1ccc(-c2c3nc(c(-c4c(F)c(F)c(F)c(F)c4F)c4ccc([nH]4)c(-c4c(F)c(F)c(F)c(F)c4F)c4nc(c(-c5c(F)c(F)c(F)c(F)c5F)c5ccc2[nH]5)C=C4)C=C3)cc1
REMARK SMILES IDX 7 1 6 2 5 3 4 4 3 5 1 6 2 7 41 9 42 10 103 11 43 12 102 13
REMARK SMILES IDX 44 14 45 15 46 16 96 17 47 18 101 19 95 20 97 21 48 22
REMARK SMILES IDX 100 23 94 24 93 25 49 27 81 28 61 29 80 30 62 31 65 32 79 33
REMARK SMILES IDX 98 34 63 35 64 36 78 38 99 39 66 40 50 41 51 42 59 43 52 44
REMARK SMILES IDX 53 45 57 46 60 47 54 48 55 49 58 50 56 51 82 52 83 53 91 54
REMARK SMILES IDX 84 55 85 56 89 57 92 58 86 59 87 60 90 61 88 62 67 63 68 64
REMARK SMILES IDX 76 65 69 66 70 67 74 68 77 69 71 70 72 71 75 72 73 73 8 74
REMARK SMILES IDX 9 75 10 77 11 78 35 79 36 80 40 81 37 82 39 83 38 84 12 85
REMARK SMILES IDX 13 86 14 88 15 89 34 90 16 91 33 92 17 93 18 94 19 95 20 96
REMARK SMILES IDX 21 97 22 99 23 100 24 101 32 102 25 103 31 104 26 107 30 108
REMARK SMILES IDX 27 109 29 110 28 111
REMARK H PARENT 3 8 97 26 65 37 8 76 12 87 20 98 32 105 32 106
REMARK Flexibility Score: inf
ROOT
ATOM      1  C   UNL A   1      39.867  24.366  26.847  1.00  0.00     0.116 C 
ENDROOT
BRANCH   1   2
ATOM      2  C   UNL A   1      40.982  25.402  26.858  1.00  0.00     0.023 C 
BRANCH   2   3
ATOM      3  C   UNL A   1      42.323  24.894  26.351  1.00  0.00     0.023 C 
BRANCH   3   4
ATOM      4  C   UNL A   1      42.768  25.478  25.015  1.00  0.00     0.116 C 
BRANCH   4   5
ATOM      5  N   UNL A   1      44.211  25.436  24.809  1.00  0.00    -0.352 N 
ATOM      6  O   UNL A   1      46.372  26.030  25.115  1.00  0.00    -0.269 OA
ATOM      7  C   UNL A   1      45.212  26.070  25.511  1.00  0.00     0.251 C 
ATOM      8  H   UNL A   1      44.512  24.872  24.061  1.00  0.00     0.163 HD
BRANCH   7   9
ATOM      9  C   UNL A   1      44.872  26.858  26.713  1.00  0.00     0.039 A 
ATOM     10  C   UNL A   1      44.715  26.232  27.949  1.00  0.00     0.014 A 
ATOM     11  C   UNL A   1      44.632  28.228  26.581  1.00  0.00     0.014 A 
ATOM     12  C   UNL A   1      44.099  26.920  28.986  1.00  0.00     0.010 A 
ATOM     13  C   UNL A   1      44.117  28.947  27.663  1.00  0.00     0.010 A 
ATOM     14  C   UNL A   1      43.780  28.282  28.851  1.00  0.00    -0.014 A 
BRANCH  14  15
ATOM     15  C   UNL A   1      43.084  28.973  29.967  1.00  0.00     0.031 A 
ATOM     16  C   UNL A   1      41.650  29.415  29.834  1.00  0.00     0.074 A 
ATOM     17  C   UNL A   1      43.735  29.138  31.135  1.00  0.00     0.049 A 
ATOM     18  N   UNL A   1      40.876  29.984  30.726  1.00  0.00    -0.248 NA
ATOM     19  C   UNL A   1      41.000  29.203  28.531  1.00  0.00     0.031 C 
ATOM     20  C   UNL A   1      45.126  28.756  31.382  1.00  0.00     0.029 A 
ATOM     21  N   UNL A   1      43.307  29.634  32.339  1.00  0.00    -0.354 N 
ATOM     22  C   UNL A   1      39.669  30.232  30.083  1.00  0.00     0.074 A 
ATOM     23  C   UNL A   1      39.813  29.764  28.722  1.00  0.00     0.031 C 
ATOM     24  C   UNL A   1      45.417  28.966  32.673  1.00  0.00     0.029 A 
ATOM     25  C   UNL A   1      44.255  29.554  33.329  1.00  0.00     0.049 A 
ATOM     26  H   UNL A   1      42.408  30.009  32.481  1.00  0.00     0.167 HD
ATOM     27  C   UNL A   1      38.543  30.791  30.587  1.00  0.00     0.037 A 
ATOM     28  C   UNL A   1      44.197  29.918  34.622  1.00  0.00     0.037 A 
ATOM     29  C   UNL A   1      38.386  31.214  31.955  1.00  0.00     0.049 A 
ATOM     30  C   UNL A   1      42.927  30.512  35.159  1.00  0.00     0.074 A 
ATOM     31  C   UNL A   1      37.270  31.755  32.570  1.00  0.00     0.029 A 
ATOM     32  N   UNL A   1      39.377  31.135  32.923  1.00  0.00    -0.354 N 
ATOM     33  N   UNL A   1      41.789  30.720  34.544  1.00  0.00    -0.248 NA
ATOM     34  C   UNL A   1      42.937  30.924  36.568  1.00  0.00     0.031 C 
ATOM     35  C   UNL A   1      37.596  32.035  33.903  1.00  0.00     0.029 A 
ATOM     36  C   UNL A   1      38.902  31.631  34.128  1.00  0.00     0.049 A 
ATOM     37  H   UNL A   1      40.284  30.781  32.776  1.00  0.00     0.167 HD
ATOM     38  C   UNL A   1      40.942  31.275  35.493  1.00  0.00     0.074 A 
ATOM     39  C   UNL A   1      41.692  31.349  36.729  1.00  0.00     0.031 C 
ATOM     40  C   UNL A   1      39.660  31.690  35.350  1.00  0.00     0.037 A 
BRANCH  27  41
ATOM     41  C   UNL A   1      37.387  30.999  29.651  1.00  0.00     0.064 A 
ATOM     42  C   UNL A   1      37.144  32.237  29.039  1.00  0.00     0.173 A 
ATOM     43  C   UNL A   1      36.540  29.928  29.325  1.00  0.00     0.173 A 
ATOM     44  F   UNL A   1      37.917  33.296  29.325  1.00  0.00    -0.203 F 
ATOM     45  C   UNL A   1      36.083  32.401  28.150  1.00  0.00     0.198 A 
ATOM     46  C   UNL A   1      35.496  30.089  28.418  1.00  0.00     0.198 A 
ATOM     47  F   UNL A   1      36.734  28.721  29.878  1.00  0.00    -0.203 F 
ATOM     48  F   UNL A   1      35.847  33.602  27.606  1.00  0.00    -0.200 F 
ATOM     49  C   UNL A   1      35.265  31.326  27.836  1.00  0.00     0.200 A 
ATOM     50  F   UNL A   1      34.713  29.046  28.107  1.00  0.00    -0.200 F 
ATOM     51  F   UNL A   1      34.250  31.484  26.975  1.00  0.00    -0.200 F 
ENDBRANCH  27  41
BRANCH  28  52
ATOM     52  C   UNL A   1      45.377  29.708  35.497  1.00  0.00     0.064 A 
ATOM     53  C   UNL A   1      46.350  30.706  35.642  1.00  0.00     0.173 A 
ATOM     54  C   UNL A   1      45.543  28.521  36.224  1.00  0.00     0.173 A 
ATOM     55  F   UNL A   1      46.242  31.852  34.954  1.00  0.00    -0.203 F 
ATOM     56  C   UNL A   1      47.452  30.518  36.473  1.00  0.00     0.198 A 
ATOM     57  C   UNL A   1      46.629  28.346  37.076  1.00  0.00     0.198 A 
ATOM     58  F   UNL A   1      44.633  27.540  36.123  1.00  0.00    -0.203 F 
ATOM     59  F   UNL A   1      48.387  31.474  36.569  1.00  0.00    -0.200 F 
ATOM     60  C   UNL A   1      47.586  29.342  37.196  1.00  0.00     0.200 A 
ATOM     61  F   UNL A   1      46.747  27.215  37.785  1.00  0.00    -0.200 F 
ATOM     62  F   UNL A   1      48.640  29.167  38.004  1.00  0.00    -0.200 F 
ENDBRANCH  28  52
BRANCH  40  63
ATOM     63  C   UNL A   1      38.982  32.232  36.572  1.00  0.00     0.064 A 
ATOM     64  C   UNL A   1      38.079  31.456  37.313  1.00  0.00     0.173 A 
ATOM     65  C   UNL A   1      39.250  33.535  37.012  1.00  0.00     0.173 A 
ATOM     66  F   UNL A   1      37.778  30.209  36.919  1.00  0.00    -0.203 F 
ATOM     67  C   UNL A   1      37.447  31.977  38.438  1.00  0.00     0.198 A 
ATOM     68  C   UNL A   1      38.634  34.044  38.153  1.00  0.00     0.198 A 
ATOM     69  F   UNL A   1      40.109  34.315  36.338  1.00  0.00    -0.203 F 
ATOM     70  F   UNL A   1      36.551  31.236  39.105  1.00  0.00    -0.200 F 
ATOM     71  C   UNL A   1      37.729  33.268  38.859  1.00  0.00     0.200 A 
ATOM     72  F   UNL A   1      38.914  35.289  38.563  1.00  0.00    -0.200 F 
ATOM     73  F   UNL A   1      37.118  33.769  39.942  1.00  0.00    -0.200 F 
ENDBRANCH  40  63
ENDBRANCH  14  15
ENDBRANCH   7   9
ENDBRANCH   4   5
ENDBRANCH   3   4
ENDBRANCH   2   3
ENDBRANCH   1   2
BRANCH   1  74
ATOM     74  N   UNL A   1      40.042  23.284  27.789  1.00  0.00    -0.354 N 
ATOM     75  C   UNL A   1      40.439  21.988  27.547  1.00  0.00     0.247 C 
ATOM     76  H   UNL A   1      39.850  23.503  28.729  1.00  0.00     0.163 HD
ATOM     77  O   UNL A   1      40.755  21.326  28.540  1.00  0.00    -0.272 OA
BRANCH  75  78
ATOM     78  C   UNL A   1      40.601  21.469  26.074  1.00  0.00     0.202 C 
BRANCH  78  79
ATOM     79  C   UNL A   1      41.966  20.848  25.790  1.00  0.00    -0.016 A 
ATOM     80  C   UNL A   1      42.190  19.461  25.805  1.00  0.00     0.006 A 
ATOM     81  C   UNL A   1      43.048  21.689  25.472  1.00  0.00     0.006 A 
ATOM     82  C   UNL A   1      43.451  18.937  25.512  1.00  0.00     0.000 A 
ATOM     83  C   UNL A   1      44.309  21.163  25.185  1.00  0.00     0.000 A 
ATOM     84  C   UNL A   1      44.510  19.786  25.203  1.00  0.00     0.000 A 
ENDBRANCH  78  79
BRANCH  78  85
ATOM     85  N   UNL A   1      39.502  20.550  25.774  1.00  0.00    -0.340 N 
ATOM     86  C   UNL A   1      38.241  20.744  25.315  1.00  0.00     0.224 C 
ATOM     87  H   UNL A   1      39.723  19.605  25.937  1.00  0.00     0.164 HD
ATOM     88  O   UNL A   1      37.540  19.731  25.232  1.00  0.00    -0.275 OA
BRANCH  86  89
ATOM     89  C   UNL A   1      37.700  22.137  24.938  1.00  0.00     0.078 C 
ATOM     90  C   UNL A   1      36.735  21.972  23.736  1.00  0.00     0.014 C 
ATOM     91  C   UNL A   1      36.982  22.838  26.105  1.00  0.00     0.014 C 
ATOM     92  C   UNL A   1      35.904  23.212  23.402  1.00  0.00     0.006 C 
ATOM     93  C   UNL A   1      36.237  24.099  25.689  1.00  0.00     0.006 C 
ATOM     94  C   UNL A   1      35.182  23.797  24.625  1.00  0.00     0.008 C 
BRANCH  94  95
ATOM     95  C   UNL A   1      34.056  22.863  25.123  1.00  0.00     0.119 C 
BRANCH  95  96
ATOM     96  N   UNL A   1      32.921  22.822  24.214  1.00  0.00    -0.351 N 
ATOM     97  C   UNL A   1      32.139  23.837  23.743  1.00  0.00     0.278 C 
ATOM     98  H   UNL A   1      32.678  21.925  23.890  1.00  0.00     0.163 HD
ATOM     99  O   UNL A   1      31.242  23.560  22.943  1.00  0.00    -0.268 OA
BRANCH  97 100
ATOM    100  C   UNL A   1      32.351  25.264  24.255  1.00  0.00     0.277 C 
ATOM    101  C   UNL A   1      31.280  25.536  25.321  1.00  0.00     0.111 C 
ATOM    102  N   UNL A   1      32.376  26.209  23.111  1.00  0.00    -0.332 N 
ATOM    103  C   UNL A   1      31.452  26.945  25.808  1.00  0.00    -0.033 A 
ATOM    104  C   UNL A   1      31.766  27.514  23.387  1.00  0.00     0.298 C 
ATOM    105  H   UNL A   1      31.873  25.780  22.334  1.00  0.00     0.347 HD
ATOM    106  H   UNL A   1      33.358  26.386  22.902  1.00  0.00     0.347 HD
ATOM    107  C   UNL A   1      31.330  27.289  27.156  1.00  0.00     0.004 A 
ATOM    108  C   UNL A   1      31.757  27.919  24.844  1.00  0.00     0.010 A 
ATOM    109  C   UNL A   1      31.536  28.609  27.549  1.00  0.00     0.000 A 
ATOM    110  C   UNL A   1      31.955  29.241  25.247  1.00  0.00     0.010 A 
ATOM    111  C   UNL A   1      31.855  29.582  26.598  1.00  0.00     0.001 A 
ENDBRANCH  97 100
ENDBRANCH  95  96
ENDBRANCH  94  95
ENDBRANCH  86  89
ENDBRANCH  78  85
ENDBRANCH  75  78
ENDBRANCH   1  74
TORSDOF 17
ENDMDL
MODEL 3
REMARK VINA RESULT:     -10.7      4.845     10.578
REMARK SMILES O=C(NCCCCNC(=O)[C@H](NC(=O)[C@H]1CC[C@@H](CNC(=O)[C@@H]2Cc3ccccc3C[NH2+]2)CC1)c1ccccc1)c1ccc(-c2c3nc(c(-c4c(F)c(F)c(F)c(F)c4F)c4ccc([nH]4)c(-c4c(F)c(F)c(F)c(F)c4F)c4nc(c(-c5c(F)c(F)c(F)c(F)c5F)c5ccc2[nH]5)C=C4)C=C3)cc1
REMARK SMILES IDX 7 1 6 2 5 3 4 4 3 5 1 6 2 7 41 9 42 10 103 11 43 12 102 13
REMARK SMILES IDX 44 14 45 15 46 16 96 17 47 18 101 19 95 20 97 21 48 22
REMARK SMILES IDX 100 23 94 24 93 25 49 27 81 28 61 29 80 30 62 31 65 32 79 33
REMARK SMILES IDX 98 34 63 35 64 36 78 38 99 39 66 40 50 41 51 42 59 43 52 44
REMARK SMILES IDX 53 45 57 46 60 47 54 48 55 49 58 50 56 51 82 52 83 53 91 54
REMARK SMILES IDX 84 55 85 56 89 57 92 58 86 59 87 60 90 61 88 62 67 63 68 64
REMARK SMILES IDX 76 65 69 66 70 67 74 68 77 69 71 70 72 71 75 72 73 73 8 74
REMARK SMILES IDX 9 75 10 77 11 78 35 79 36 80 40 81 37 82 39 83 38 84 12 85
REMARK SMILES IDX 13 86 14 88 15 89 34 90 16 91 33 92 17 93 18 94 19 95 20 96
REMARK SMILES IDX 21 97 22 99 23 100 24 101 32 102 25 103 31 104 26 107 30 108
REMARK SMILES IDX 27 109 29 110 28 111
REMARK H PARENT 3 8 97 26 65 37 8 76 12 87 20 98 32 105 32 106
REMARK Flexibility Score: inf
ROOT
ATOM      1  C   UNL A   1      42.126  23.636  25.910  1.00  0.00     0.116 C 
ENDROOT
BRANCH   1   2
ATOM      2  C   UNL A   1      41.479  22.392  26.500  1.00  0.00     0.023 C 
BRANCH   2   3
ATOM      3  C   UNL A   1      42.107  21.906  27.797  1.00  0.00     0.023 C 
BRANCH   3   4
ATOM      4  C   UNL A   1      43.050  22.899  28.466  1.00  0.00     0.116 C 
BRANCH   4   5
ATOM      5  N   UNL A   1      42.949  22.914  29.920  1.00  0.00    -0.352 N 
ATOM      6  O   UNL A   1      43.620  23.299  32.046  1.00  0.00    -0.269 OA
ATOM      7  C   UNL A   1      43.782  23.500  30.847  1.00  0.00     0.251 C 
ATOM      8  H   UNL A   1      42.174  22.437  30.293  1.00  0.00     0.163 HD
BRANCH   7   9
ATOM      9  C   UNL A   1      44.918  24.325  30.387  1.00  0.00     0.039 A 
ATOM     10  C   UNL A   1      45.554  25.206  31.262  1.00  0.00     0.014 A 
ATOM     11  C   UNL A   1      45.297  24.270  29.044  1.00  0.00     0.014 A 
ATOM     12  C   UNL A   1      46.395  26.184  30.750  1.00  0.00     0.010 A 
ATOM     13  C   UNL A   1      46.231  25.184  28.551  1.00  0.00     0.010 A 
ATOM     14  C   UNL A   1      46.733  26.194  29.386  1.00  0.00    -0.014 A 
BRANCH  14  15
ATOM     15  C   UNL A   1      47.603  27.282  28.866  1.00  0.00     0.031 A 
ATOM     16  C   UNL A   1      49.032  27.014  28.474  1.00  0.00     0.074 A 
ATOM     17  C   UNL A   1      47.071  28.505  28.684  1.00  0.00     0.049 A 
ATOM     18  N   UNL A   1      49.913  27.836  27.955  1.00  0.00    -0.248 NA
ATOM     19  C   UNL A   1      49.548  25.655  28.699  1.00  0.00     0.031 C 
ATOM     20  C   UNL A   1      45.701  28.887  29.033  1.00  0.00     0.029 A 
ATOM     21  N   UNL A   1      47.602  29.641  28.131  1.00  0.00    -0.354 N 
ATOM     22  C   UNL A   1      51.089  27.106  27.831  1.00  0.00     0.074 A 
ATOM     23  C   UNL A   1      50.818  25.779  28.338  1.00  0.00     0.031 C 
ATOM     24  C   UNL A   1      45.477  30.143  28.623  1.00  0.00     0.029 A 
ATOM     25  C   UNL A   1      46.703  30.675  28.041  1.00  0.00     0.049 A 
ATOM     26  H   UNL A   1      48.536  29.710  27.827  1.00  0.00     0.167 HD
ATOM     27  C   UNL A   1      52.283  27.507  27.331  1.00  0.00     0.037 A 
ATOM     28  C   UNL A   1      46.850  31.918  27.548  1.00  0.00     0.037 A 
ATOM     29  C   UNL A   1      52.538  28.815  26.784  1.00  0.00     0.049 A 
ATOM     30  C   UNL A   1      48.177  32.326  26.977  1.00  0.00     0.074 A 
ATOM     31  C   UNL A   1      53.703  29.304  26.218  1.00  0.00     0.029 A 
ATOM     32  N   UNL A   1      51.607  29.842  26.729  1.00  0.00    -0.354 N 
ATOM     33  N   UNL A   1      49.273  31.620  26.848  1.00  0.00    -0.248 NA
ATOM     34  C   UNL A   1      48.287  33.706  26.489  1.00  0.00     0.031 C 
ATOM     35  C   UNL A   1      53.486  30.637  25.850  1.00  0.00     0.029 A 
ATOM     36  C   UNL A   1      52.175  30.966  26.150  1.00  0.00     0.049 A 
ATOM     37  H   UNL A   1      50.679  29.782  27.054  1.00  0.00     0.167 HD
ATOM     38  C   UNL A   1      50.199  32.462  26.251  1.00  0.00     0.074 A 
ATOM     39  C   UNL A   1      49.528  33.726  26.024  1.00  0.00     0.031 C 
ATOM     40  C   UNL A   1      51.491  32.213  25.926  1.00  0.00     0.037 A 
BRANCH  27  41
ATOM     41  C   UNL A   1      53.420  26.527  27.367  1.00  0.00     0.064 A 
ATOM     42  C   UNL A   1      53.631  25.601  26.336  1.00  0.00     0.173 A 
ATOM     43  C   UNL A   1      54.340  26.550  28.428  1.00  0.00     0.173 A 
ATOM     44  F   UNL A   1      52.775  25.530  25.305  1.00  0.00    -0.203 F 
ATOM     45  C   UNL A   1      54.710  24.720  26.374  1.00  0.00     0.198 A 
ATOM     46  C   UNL A   1      55.430  25.685  28.451  1.00  0.00     0.198 A 
ATOM     47  F   UNL A   1      54.187  27.422  29.435  1.00  0.00    -0.203 F 
ATOM     48  F   UNL A   1      54.871  23.817  25.397  1.00  0.00    -0.200 F 
ATOM     49  C   UNL A   1      55.611  24.767  27.428  1.00  0.00     0.200 A 
ATOM     50  F   UNL A   1      56.306  25.740  29.463  1.00  0.00    -0.200 F 
ATOM     51  F   UNL A   1      56.653  23.924  27.459  1.00  0.00    -0.200 F 
ENDBRANCH  27  41
BRANCH  28  52
ATOM     52  C   UNL A   1      45.697  32.852  27.557  1.00  0.00     0.064 A 
ATOM     53  C   UNL A   1      45.389  33.601  28.701  1.00  0.00     0.173 A 
ATOM     54  C   UNL A   1      44.898  33.035  26.420  1.00  0.00     0.173 A 
ATOM     55  F   UNL A   1      46.115  33.448  29.818  1.00  0.00    -0.203 F 
ATOM     56  C   UNL A   1      44.317  34.490  28.709  1.00  0.00     0.198 A 
ATOM     57  C   UNL A   1      43.844  33.944  26.420  1.00  0.00     0.198 A 
ATOM     58  F   UNL A   1      45.159  32.345  25.299  1.00  0.00    -0.203 F 
ATOM     59  F   UNL A   1      44.022  35.170  29.826  1.00  0.00    -0.200 F 
ATOM     60  C   UNL A   1      43.551  34.667  27.567  1.00  0.00     0.200 A 
ATOM     61  F   UNL A   1      43.117  34.124  25.309  1.00  0.00    -0.200 F 
ATOM     62  F   UNL A   1      42.526  35.531  27.572  1.00  0.00    -0.200 F 
ENDBRANCH  28  52
BRANCH  40  63
ATOM     63  C   UNL A   1      52.249  33.321  25.261  1.00  0.00     0.064 A 
ATOM     64  C   UNL A   1      52.384  33.383  23.866  1.00  0.00     0.173 A 
ATOM     65  C   UNL A   1      52.834  34.338  26.027  1.00  0.00     0.173 A 
ATOM     66  F   UNL A   1      51.856  32.421  23.094  1.00  0.00    -0.203 F 
ATOM     67  C   UNL A   1      53.103  34.411  23.265  1.00  0.00     0.198 A 
ATOM     68  C   UNL A   1      53.531  35.379  25.419  1.00  0.00     0.198 A 
ATOM     69  F   UNL A   1      52.729  34.324  27.365  1.00  0.00    -0.203 F 
ATOM     70  F   UNL A   1      53.262  34.425  21.933  1.00  0.00    -0.200 F 
ATOM     71  C   UNL A   1      53.671  35.410  24.040  1.00  0.00     0.200 A 
ATOM     72  F   UNL A   1      54.073  36.349  26.170  1.00  0.00    -0.200 F 
ATOM     73  F   UNL A   1      54.365  36.399  23.459  1.00  0.00    -0.200 F 
ENDBRANCH  40  63
ENDBRANCH  14  15
ENDBRANCH   7   9
ENDBRANCH   4   5
ENDBRANCH   3   4
ENDBRANCH   2   3
ENDBRANCH   1   2
BRANCH   1  74
ATOM     74  N   UNL A   1      43.120  23.372  24.893  1.00  0.00    -0.354 N 
ATOM     75  C   UNL A   1      44.272  24.072  24.615  1.00  0.00     0.247 C 
ATOM     76  H   UNL A   1      42.948  22.588  24.323  1.00  0.00     0.163 HD
ATOM     77  O   UNL A   1      45.080  23.509  23.872  1.00  0.00    -0.272 OA
BRANCH  75  78
ATOM     78  C   UNL A   1      44.564  25.438  25.333  1.00  0.00     0.202 C 
BRANCH  78  79
ATOM     79  C   UNL A   1      46.016  25.893  25.216  1.00  0.00    -0.016 A 
ATOM     80  C   UNL A   1      47.095  24.995  25.164  1.00  0.00     0.006 A 
ATOM     81  C   UNL A   1      46.297  27.269  25.129  1.00  0.00     0.006 A 
ATOM     82  C   UNL A   1      48.406  25.457  25.028  1.00  0.00     0.000 A 
ATOM     83  C   UNL A   1      47.610  27.730  24.999  1.00  0.00     0.000 A 
ATOM     84  C   UNL A   1      48.664  26.823  24.946  1.00  0.00     0.000 A 
ENDBRANCH  78  79
BRANCH  78  85
ATOM     85  N   UNL A   1      43.627  26.445  24.832  1.00  0.00    -0.340 N 
ATOM     86  C   UNL A   1      42.908  27.417  25.445  1.00  0.00     0.224 C 
ATOM     87  H   UNL A   1      43.493  26.408  23.858  1.00  0.00     0.164 HD
ATOM     88  O   UNL A   1      42.151  28.063  24.715  1.00  0.00    -0.275 OA
BRANCH  86  89
ATOM     89  C   UNL A   1      43.006  27.693  26.958  1.00  0.00     0.078 C 
ATOM     90  C   UNL A   1      42.135  28.933  27.280  1.00  0.00     0.014 C 
ATOM     91  C   UNL A   1      42.564  26.494  27.816  1.00  0.00     0.014 C 
ATOM     92  C   UNL A   1      41.903  29.188  28.771  1.00  0.00     0.006 C 
ATOM     93  C   UNL A   1      42.425  26.826  29.295  1.00  0.00     0.006 C 
ATOM     94  C   UNL A   1      41.407  27.944  29.522  1.00  0.00     0.008 C 
BRANCH  94  95
ATOM     95  C   UNL A   1      39.969  27.561  29.103  1.00  0.00     0.119 C 
BRANCH  95  96
ATOM     96  N   UNL A   1      39.033  27.604  30.215  1.00  0.00    -0.351 N 
ATOM     97  C   UNL A   1      38.287  28.642  30.693  1.00  0.00     0.278 C 
ATOM     98  H   UNL A   1      38.921  26.754  30.699  1.00  0.00     0.163 HD
ATOM     99  O   UNL A   1      37.527  28.428  31.641  1.00  0.00    -0.268 OA
BRANCH  97 100
ATOM    100  C   UNL A   1      38.452  30.040  30.091  1.00  0.00     0.277 C 
ATOM    101  C   UNL A   1      39.314  30.862  31.061  1.00  0.00     0.111 C 
ATOM    102  N   UNL A   1      37.119  30.610  29.773  1.00  0.00    -0.332 N 
ATOM    103  C   UNL A   1      39.456  32.247  30.503  1.00  0.00    -0.033 A 
ATOM    104  C   UNL A   1      37.009  32.057  29.989  1.00  0.00     0.298 C 
ATOM    105  H   UNL A   1      36.427  30.147  30.362  1.00  0.00     0.347 HD
ATOM    106  H   UNL A   1      36.966  30.453  28.777  1.00  0.00     0.347 HD
ATOM    107  C   UNL A   1      40.661  32.951  30.548  1.00  0.00     0.004 A 
ATOM    108  C   UNL A   1      38.315  32.815  29.911  1.00  0.00     0.010 A 
ATOM    109  C   UNL A   1      40.736  34.220  29.980  1.00  0.00     0.000 A 
ATOM    110  C   UNL A   1      38.400  34.091  29.351  1.00  0.00     0.010 A 
ATOM    111  C   UNL A   1      39.611  34.786  29.377  1.00  0.00     0.001 A 
ENDBRANCH  97 100
ENDBRANCH  95  96
ENDBRANCH  94  95
ENDBRANCH  86  89
ENDBRANCH  78  85
ENDBRANCH  75  78
ENDBRANCH   1  74
TORSDOF 17
ENDMDL
