MODEL 1
REMARK VINA RESULT:     -12.3      0.000      0.000
REMARK SMILES O=C(NCCCCNC(=O)[C@@H]1Cc2[nH]cnc2CN1C(=O)NCC(F)(F)F)c1ccc(-c2c3nc(c(-c4c(F)c(F)c(F)c(F)c4F)c4ccc([nH]4)c(-c4c(F)c(F)c(F)c(F)c4F)c4nc(c(-c5c(F)c(F)c(F)c(F)c5F)c5ccc2[nH]5)C=C4)C=C3)cc1
REMARK SMILES IDX 6 1 5 2 4 3 3 4 1 5 2 6 28 8 29 9 90 10 30 11 89 12 31 13
REMARK SMILES IDX 32 14 33 15 83 16 34 17 88 18 82 19 84 20 35 21 87 22 81 23
REMARK SMILES IDX 80 24 36 26 68 27 48 28 67 29 49 30 52 31 66 32 85 33 50 34
REMARK SMILES IDX 51 35 65 37 86 38 53 39 37 40 38 41 46 42 39 43 40 44 44 45
REMARK SMILES IDX 47 46 41 47 42 48 45 49 43 50 69 51 70 52 78 53 71 54 72 55
REMARK SMILES IDX 76 56 79 57 73 58 74 59 77 60 75 61 54 62 55 63 63 64 56 65
REMARK SMILES IDX 57 66 61 67 64 68 58 69 59 70 62 71 60 72 7 73 8 74 9 75
REMARK SMILES IDX 10 77 11 78 12 79 19 80 13 81 18 82 14 83 17 84 15 85 16 87
REMARK SMILES IDX 20 88 21 89 22 90 23 92 24 93 25 94 26 95 27 96
REMARK H PARENT 3 7 84 25 52 36 8 76 14 86 22 91
REMARK Flexibility Score: inf
ROOT
ATOM      1  C   UNL A   1      35.096  30.417  27.598  1.00  0.00     0.023 C 
ENDROOT
BRANCH   1   2
ATOM      2  C   UNL A   1      34.051  31.527  27.644  1.00  0.00     0.023 C 
BRANCH   2   3
ATOM      3  C   UNL A   1      34.357  32.731  28.541  1.00  0.00     0.116 C 
BRANCH   3   4
ATOM      4  N   UNL A   1      34.093  32.584  29.960  1.00  0.00    -0.352 N 
ATOM      5  O   UNL A   1      34.381  32.579  32.161  1.00  0.00    -0.269 OA
ATOM      6  C   UNL A   1      34.873  32.337  31.055  1.00  0.00     0.251 C 
ATOM      7  H   UNL A   1      33.139  32.685  30.184  1.00  0.00     0.163 HD
BRANCH   6   8
ATOM      8  C   UNL A   1      36.215  31.707  31.001  1.00  0.00     0.039 A 
ATOM      9  C   UNL A   1      37.420  32.402  30.952  1.00  0.00     0.014 A 
ATOM     10  C   UNL A   1      36.241  30.301  30.946  1.00  0.00     0.014 A 
ATOM     11  C   UNL A   1      38.605  31.732  30.687  1.00  0.00     0.010 A 
ATOM     12  C   UNL A   1      37.431  29.616  30.739  1.00  0.00     0.010 A 
ATOM     13  C   UNL A   1      38.606  30.342  30.560  1.00  0.00    -0.014 A 
BRANCH  13  14
ATOM     14  C   UNL A   1      39.903  29.680  30.465  1.00  0.00     0.031 A 
ATOM     15  C   UNL A   1      40.597  29.542  31.777  1.00  0.00     0.074 A 
ATOM     16  C   UNL A   1      40.374  29.114  29.338  1.00  0.00     0.049 A 
ATOM     17  N   UNL A   1      41.764  29.982  32.117  1.00  0.00    -0.248 NA
ATOM     18  C   UNL A   1      39.836  28.944  32.887  1.00  0.00     0.031 C 
ATOM     19  C   UNL A   1      39.655  28.938  28.075  1.00  0.00     0.029 A 
ATOM     20  N   UNL A   1      41.555  28.462  29.119  1.00  0.00    -0.354 N 
ATOM     21  C   UNL A   1      41.960  29.559  33.432  1.00  0.00     0.074 A 
ATOM     22  C   UNL A   1      40.691  29.079  33.901  1.00  0.00     0.031 C 
ATOM     23  C   UNL A   1      40.312  28.035  27.316  1.00  0.00     0.029 A 
ATOM     24  C   UNL A   1      41.546  27.657  27.987  1.00  0.00     0.049 A 
ATOM     25  H   UNL A   1      42.338  28.554  29.708  1.00  0.00     0.167 HD
ATOM     26  C   UNL A   1      43.217  29.381  33.924  1.00  0.00     0.037 A 
ATOM     27  C   UNL A   1      42.441  26.692  27.666  1.00  0.00     0.037 A 
ATOM     28  C   UNL A   1      44.180  30.121  33.149  1.00  0.00     0.049 A 
ATOM     29  C   UNL A   1      43.677  26.942  28.443  1.00  0.00     0.074 A 
ATOM     30  C   UNL A   1      44.441  31.449  32.881  1.00  0.00     0.029 A 
ATOM     31  N   UNL A   1      44.890  29.397  32.231  1.00  0.00    -0.354 N 
ATOM     32  N   UNL A   1      44.487  27.939  28.235  1.00  0.00    -0.248 NA
ATOM     33  C   UNL A   1      43.858  26.247  29.710  1.00  0.00     0.031 C 
ATOM     34  C   UNL A   1      45.018  31.469  31.574  1.00  0.00     0.029 A 
ATOM     35  C   UNL A   1      45.109  30.154  31.118  1.00  0.00     0.049 A 
ATOM     36  H   UNL A   1      45.198  28.469  32.355  1.00  0.00     0.167 HD
ATOM     37  C   UNL A   1      44.953  28.274  29.495  1.00  0.00     0.074 A 
ATOM     38  C   UNL A   1      44.678  27.105  30.321  1.00  0.00     0.031 C 
ATOM     39  C   UNL A   1      45.230  29.576  29.801  1.00  0.00     0.037 A 
BRANCH  26  40
ATOM     40  C   UNL A   1      43.634  28.154  34.730  1.00  0.00     0.064 A 
ATOM     41  C   UNL A   1      43.286  26.880  34.227  1.00  0.00     0.173 A 
ATOM     42  C   UNL A   1      43.992  28.179  36.096  1.00  0.00     0.173 A 
ATOM     43  F   UNL A   1      42.950  26.722  32.937  1.00  0.00    -0.203 F 
ATOM     44  C   UNL A   1      43.146  25.767  35.061  1.00  0.00     0.198 A 
ATOM     45  C   UNL A   1      43.897  27.054  36.914  1.00  0.00     0.198 A 
ATOM     46  F   UNL A   1      44.348  29.299  36.732  1.00  0.00    -0.203 F 
ATOM     47  F   UNL A   1      42.645  24.626  34.568  1.00  0.00    -0.200 F 
ATOM     48  C   UNL A   1      43.430  25.861  36.409  1.00  0.00     0.200 A 
ATOM     49  F   UNL A   1      44.174  27.168  38.221  1.00  0.00    -0.200 F 
ATOM     50  F   UNL A   1      43.209  24.825  37.227  1.00  0.00    -0.200 F 
ENDBRANCH  26  40
BRANCH  27  51
ATOM     51  C   UNL A   1      42.219  25.423  26.930  1.00  0.00     0.064 A 
ATOM     52  C   UNL A   1      43.008  25.081  25.817  1.00  0.00     0.173 A 
ATOM     53  C   UNL A   1      41.413  24.395  27.460  1.00  0.00     0.173 A 
ATOM     54  F   UNL A   1      43.841  25.983  25.277  1.00  0.00    -0.203 F 
ATOM     55  C   UNL A   1      43.012  23.786  25.288  1.00  0.00     0.198 A 
ATOM     56  C   UNL A   1      41.408  23.108  26.921  1.00  0.00     0.198 A 
ATOM     57  F   UNL A   1      40.690  24.589  28.570  1.00  0.00    -0.203 F 
ATOM     58  F   UNL A   1      43.831  23.482  24.271  1.00  0.00    -0.200 F 
ATOM     59  C   UNL A   1      42.217  22.799  25.847  1.00  0.00     0.200 A 
ATOM     60  F   UNL A   1      40.660  22.154  27.494  1.00  0.00    -0.200 F 
ATOM     61  F   UNL A   1      42.265  21.544  25.379  1.00  0.00    -0.200 F 
ENDBRANCH  27  51
BRANCH  39  62
ATOM     62  C   UNL A   1      45.470  30.512  28.656  1.00  0.00     0.064 A 
ATOM     63  C   UNL A   1      44.458  31.189  27.956  1.00  0.00     0.173 A 
ATOM     64  C   UNL A   1      46.799  30.795  28.313  1.00  0.00     0.173 A 
ATOM     65  F   UNL A   1      43.169  31.047  28.293  1.00  0.00    -0.203 F 
ATOM     66  C   UNL A   1      44.768  32.061  26.914  1.00  0.00     0.198 A 
ATOM     67  C   UNL A   1      47.105  31.699  27.302  1.00  0.00     0.198 A 
ATOM     68  F   UNL A   1      47.807  30.216  28.986  1.00  0.00    -0.203 F 
ATOM     69  F   UNL A   1      43.785  32.673  26.237  1.00  0.00    -0.200 F 
ATOM     70  C   UNL A   1      46.090  32.320  26.593  1.00  0.00     0.200 A 
ATOM     71  F   UNL A   1      48.386  31.984  27.028  1.00  0.00    -0.200 F 
ATOM     72  F   UNL A   1      46.388  33.185  25.614  1.00  0.00    -0.200 F 
ENDBRANCH  39  62
ENDBRANCH  13  14
ENDBRANCH   6   8
ENDBRANCH   3   4
ENDBRANCH   2   3
ENDBRANCH   1   2
BRANCH   1  73
ATOM     73  C   UNL A   1      34.568  29.016  27.343  1.00  0.00     0.116 C 
BRANCH  73  74
ATOM     74  N   UNL A   1      33.148  28.871  27.564  1.00  0.00    -0.354 N 
ATOM     75  C   UNL A   1      32.322  27.825  27.291  1.00  0.00     0.243 C 
ATOM     76  H   UNL A   1      32.710  29.649  27.977  1.00  0.00     0.163 HD
ATOM     77  O   UNL A   1      31.182  27.918  27.768  1.00  0.00    -0.273 OA
BRANCH  75  78
ATOM     78  C   UNL A   1      32.646  26.703  26.254  1.00  0.00     0.182 C 
ATOM     79  C   UNL A   1      33.153  27.380  24.937  1.00  0.00     0.091 C 
ATOM     80  N   UNL A   1      31.641  25.645  25.916  1.00  0.00    -0.306 N 
ATOM     81  C   UNL A   1      31.952  27.810  24.180  1.00  0.00     0.042 A 
ATOM     82  C   UNL A   1      30.410  26.086  25.203  1.00  0.00     0.180 C 
ATOM     83  N   UNL A   1      31.798  28.842  23.306  1.00  0.00    -0.348 N 
ATOM     84  C   UNL A   1      30.710  27.236  24.310  1.00  0.00     0.081 A 
ATOM     85  C   UNL A   1      30.469  28.869  22.965  1.00  0.00     0.197 A 
ATOM     86  H   UNL A   1      32.501  29.451  22.983  1.00  0.00     0.167 HD
ATOM     87  N   UNL A   1      29.788  27.910  23.557  1.00  0.00    -0.240 NA
BRANCH  80  88
ATOM     88  C   UNL A   1      31.642  24.336  26.295  1.00  0.00     0.318 C 
ATOM     89  O   UNL A   1      30.964  23.944  27.249  1.00  0.00    -0.249 OA
ATOM     90  N   UNL A   1      32.343  23.380  25.668  1.00  0.00    -0.329 N 
ATOM     91  H   UNL A   1      32.370  22.543  26.186  1.00  0.00     0.165 HD
BRANCH  90  92
ATOM     92  C   UNL A   1      33.078  23.269  24.406  1.00  0.00     0.233 C 
BRANCH  92  93
ATOM     93  C   UNL A   1      32.200  23.415  23.161  1.00  0.00     0.405 C 
ATOM     94  F   UNL A   1      32.165  24.701  22.746  1.00  0.00    -0.169 F 
ATOM     95  F   UNL A   1      32.681  22.668  22.143  1.00  0.00    -0.169 F 
ATOM     96  F   UNL A   1      30.928  23.020  23.392  1.00  0.00    -0.169 F 
ENDBRANCH  92  93
ENDBRANCH  90  92
ENDBRANCH  80  88
ENDBRANCH  75  78
ENDBRANCH  73  74
ENDBRANCH   1  73
TORSDOF 14
ENDMDL
MODEL 2
REMARK VINA RESULT:     -12.3      3.321      8.516
REMARK SMILES O=C(NCCCCNC(=O)[C@@H]1Cc2[nH]cnc2CN1C(=O)NCC(F)(F)F)c1ccc(-c2c3nc(c(-c4c(F)c(F)c(F)c(F)c4F)c4ccc([nH]4)c(-c4c(F)c(F)c(F)c(F)c4F)c4nc(c(-c5c(F)c(F)c(F)c(F)c5F)c5ccc2[nH]5)C=C4)C=C3)cc1
REMARK SMILES IDX 6 1 5 2 4 3 3 4 1 5 2 6 28 8 29 9 90 10 30 11 89 12 31 13
REMARK SMILES IDX 32 14 33 15 83 16 34 17 88 18 82 19 84 20 35 21 87 22 81 23
REMARK SMILES IDX 80 24 36 26 68 27 48 28 67 29 49 30 52 31 66 32 85 33 50 34
REMARK SMILES IDX 51 35 65 37 86 38 53 39 37 40 38 41 46 42 39 43 40 44 44 45
REMARK SMILES IDX 47 46 41 47 42 48 45 49 43 50 69 51 70 52 78 53 71 54 72 55
REMARK SMILES IDX 76 56 79 57 73 58 74 59 77 60 75 61 54 62 55 63 63 64 56 65
REMARK SMILES IDX 57 66 61 67 64 68 58 69 59 70 62 71 60 72 7 73 8 74 9 75
REMARK SMILES IDX 10 77 11 78 12 79 19 80 13 81 18 82 14 83 17 84 15 85 16 87
REMARK SMILES IDX 20 88 21 89 22 90 23 92 24 93 25 94 26 95 27 96
REMARK H PARENT 3 7 84 25 52 36 8 76 14 86 22 91
REMARK Flexibility Score: inf
ROOT
ATOM      1  C   UNL A   1      37.996  21.873  25.374  1.00  0.00     0.023 C 
ENDROOT
BRANCH   1   2
ATOM      2  C   UNL A   1      39.007  22.148  26.483  1.00  0.00     0.023 C 
BRANCH   2   3
ATOM      3  C   UNL A   1      40.268  21.278  26.502  1.00  0.00     0.116 C 
BRANCH   3   4
ATOM      4  N   UNL A   1      41.300  21.585  25.529  1.00  0.00    -0.352 N 
ATOM      5  O   UNL A   1      43.199  22.316  24.641  1.00  0.00    -0.269 OA
ATOM      6  C   UNL A   1      42.298  22.518  25.460  1.00  0.00     0.251 C 
ATOM      7  H   UNL A   1      41.277  20.990  24.746  1.00  0.00     0.163 HD
BRANCH   6   8
ATOM      8  C   UNL A   1      42.307  23.791  26.221  1.00  0.00     0.039 A 
ATOM      9  C   UNL A   1      43.000  24.003  27.410  1.00  0.00     0.014 A 
ATOM     10  C   UNL A   1      41.508  24.829  25.708  1.00  0.00     0.014 A 
ATOM     11  C   UNL A   1      42.776  25.150  28.156  1.00  0.00     0.010 A 
ATOM     12  C   UNL A   1      41.323  26.007  26.421  1.00  0.00     0.010 A 
ATOM     13  C   UNL A   1      41.921  26.142  27.670  1.00  0.00    -0.014 A 
BRANCH  13  14
ATOM     14  C   UNL A   1      41.869  27.399  28.409  1.00  0.00     0.031 A 
ATOM     15  C   UNL A   1      43.019  28.303  28.126  1.00  0.00     0.074 A 
ATOM     16  C   UNL A   1      40.820  27.782  29.161  1.00  0.00     0.049 A 
ATOM     17  N   UNL A   1      43.876  28.797  28.959  1.00  0.00    -0.248 NA
ATOM     18  C   UNL A   1      43.324  28.591  26.714  1.00  0.00     0.031 C 
ATOM     19  C   UNL A   1      39.526  27.107  29.275  1.00  0.00     0.029 A 
ATOM     20  N   UNL A   1      40.641  28.926  29.889  1.00  0.00    -0.354 N 
ATOM     21  C   UNL A   1      44.722  29.604  28.199  1.00  0.00     0.074 A 
ATOM     22  C   UNL A   1      44.442  29.309  26.822  1.00  0.00     0.031 C 
ATOM     23  C   UNL A   1      38.631  27.957  29.824  1.00  0.00     0.029 A 
ATOM     24  C   UNL A   1      39.312  29.186  30.199  1.00  0.00     0.049 A 
ATOM     25  H   UNL A   1      41.384  29.509  30.165  1.00  0.00     0.167 HD
ATOM     26  C   UNL A   1      45.381  30.649  28.770  1.00  0.00     0.037 A 
ATOM     27  C   UNL A   1      38.796  30.355  30.651  1.00  0.00     0.037 A 
ATOM     28  C   UNL A   1      45.476  30.477  30.197  1.00  0.00     0.049 A 
ATOM     29  C   UNL A   1      39.907  31.155  31.215  1.00  0.00     0.074 A 
ATOM     30  C   UNL A   1      46.080  29.587  31.060  1.00  0.00     0.029 A 
ATOM     31  N   UNL A   1      44.573  31.184  30.944  1.00  0.00    -0.354 N 
ATOM     32  N   UNL A   1      40.540  30.862  32.316  1.00  0.00    -0.248 NA
ATOM     33  C   UNL A   1      40.562  32.139  30.364  1.00  0.00     0.031 C 
ATOM     34  C   UNL A   1      45.248  29.553  32.221  1.00  0.00     0.029 A 
ATOM     35  C   UNL A   1      44.193  30.445  32.025  1.00  0.00     0.049 A 
ATOM     36  H   UNL A   1      44.249  32.090  30.734  1.00  0.00     0.167 HD
ATOM     37  C   UNL A   1      41.844  31.264  32.081  1.00  0.00     0.074 A 
ATOM     38  C   UNL A   1      41.756  32.188  30.958  1.00  0.00     0.031 C 
ATOM     39  C   UNL A   1      42.885  30.567  32.624  1.00  0.00     0.037 A 
BRANCH  26  40
ATOM     40  C   UNL A   1      45.453  32.038  28.140  1.00  0.00     0.064 A 
ATOM     41  C   UNL A   1      44.250  32.625  27.691  1.00  0.00     0.173 A 
ATOM     42  C   UNL A   1      46.632  32.621  27.624  1.00  0.00     0.173 A 
ATOM     43  F   UNL A   1      43.063  32.175  28.128  1.00  0.00    -0.203 F 
ATOM     44  C   UNL A   1      44.228  33.596  26.684  1.00  0.00     0.198 A 
ATOM     45  C   UNL A   1      46.606  33.624  26.655  1.00  0.00     0.198 A 
ATOM     46  F   UNL A   1      47.855  32.189  27.944  1.00  0.00    -0.203 F 
ATOM     47  F   UNL A   1      43.058  33.994  26.170  1.00  0.00    -0.200 F 
ATOM     48  C   UNL A   1      45.408  34.077  26.151  1.00  0.00     0.200 A 
ATOM     49  F   UNL A   1      47.763  34.075  26.148  1.00  0.00    -0.200 F 
ATOM     50  F   UNL A   1      45.393  34.937  25.126  1.00  0.00    -0.200 F 
ENDBRANCH  26  40
BRANCH  27  51
ATOM     51  C   UNL A   1      37.455  30.939  30.403  1.00  0.00     0.064 A 
ATOM     52  C   UNL A   1      36.611  31.300  31.468  1.00  0.00     0.173 A 
ATOM     53  C   UNL A   1      37.080  31.405  29.127  1.00  0.00     0.173 A 
ATOM     54  F   UNL A   1      36.916  30.939  32.724  1.00  0.00    -0.203 F 
ATOM     55  C   UNL A   1      35.481  32.101  31.273  1.00  0.00     0.198 A 
ATOM     56  C   UNL A   1      35.944  32.192  28.932  1.00  0.00     0.198 A 
ATOM     57  F   UNL A   1      37.859  31.193  28.058  1.00  0.00    -0.203 F 
ATOM     58  F   UNL A   1      34.741  32.482  32.324  1.00  0.00    -0.200 F 
ATOM     59  C   UNL A   1      35.154  32.553  30.005  1.00  0.00     0.200 A 
ATOM     60  F   UNL A   1      35.660  32.651  27.705  1.00  0.00    -0.200 F 
ATOM     61  F   UNL A   1      34.106  33.370  29.825  1.00  0.00    -0.200 F 
ENDBRANCH  27  51
BRANCH  39  62
ATOM     62  C   UNL A   1      42.585  29.700  33.808  1.00  0.00     0.064 A 
ATOM     63  C   UNL A   1      42.063  28.398  33.730  1.00  0.00     0.173 A 
ATOM     64  C   UNL A   1      42.923  30.189  35.077  1.00  0.00     0.173 A 
ATOM     65  F   UNL A   1      41.810  27.824  32.546  1.00  0.00    -0.203 F 
ATOM     66  C   UNL A   1      41.833  27.648  34.882  1.00  0.00     0.198 A 
ATOM     67  C   UNL A   1      42.732  29.422  36.220  1.00  0.00     0.198 A 
ATOM     68  F   UNL A   1      43.474  31.407  35.205  1.00  0.00    -0.203 F 
ATOM     69  F   UNL A   1      41.304  26.418  34.788  1.00  0.00    -0.200 F 
ATOM     70  C   UNL A   1      42.173  28.158  36.124  1.00  0.00     0.200 A 
ATOM     71  F   UNL A   1      43.108  29.899  37.414  1.00  0.00    -0.200 F 
ATOM     72  F   UNL A   1      41.982  27.423  37.228  1.00  0.00    -0.200 F 
ENDBRANCH  39  62
ENDBRANCH  13  14
ENDBRANCH   6   8
ENDBRANCH   3   4
ENDBRANCH   2   3
ENDBRANCH   1   2
BRANCH   1  73
ATOM     73  C   UNL A   1      36.700  22.661  25.445  1.00  0.00     0.116 C 
BRANCH  73  74
ATOM     74  N   UNL A   1      36.196  23.084  24.158  1.00  0.00    -0.354 N 
ATOM     75  C   UNL A   1      34.951  22.963  23.624  1.00  0.00     0.243 C 
ATOM     76  H   UNL A   1      36.855  23.529  23.579  1.00  0.00     0.163 HD
ATOM     77  O   UNL A   1      34.768  23.592  22.572  1.00  0.00    -0.273 OA
BRANCH  75  78
ATOM     78  C   UNL A   1      33.887  21.929  24.111  1.00  0.00     0.182 C 
ATOM     79  C   UNL A   1      32.675  21.964  23.121  1.00  0.00     0.091 C 
ATOM     80  N   UNL A   1      33.380  21.942  25.521  1.00  0.00    -0.306 N 
ATOM     81  C   UNL A   1      31.823  23.111  23.518  1.00  0.00     0.042 A 
ATOM     82  C   UNL A   1      32.568  23.120  25.935  1.00  0.00     0.180 C 
ATOM     83  N   UNL A   1      31.003  23.890  22.760  1.00  0.00    -0.348 N 
ATOM     84  C   UNL A   1      31.785  23.644  24.785  1.00  0.00     0.081 A 
ATOM     85  C   UNL A   1      30.525  24.874  23.588  1.00  0.00     0.197 A 
ATOM     86  H   UNL A   1      30.795  23.770  21.805  1.00  0.00     0.167 HD
ATOM     87  N   UNL A   1      30.982  24.750  24.817  1.00  0.00    -0.240 NA
BRANCH  80  88
ATOM     88  C   UNL A   1      33.675  21.072  26.527  1.00  0.00     0.318 C 
ATOM     89  O   UNL A   1      34.134  21.466  27.602  1.00  0.00    -0.249 OA
ATOM     90  N   UNL A   1      33.477  19.748  26.447  1.00  0.00    -0.329 N 
ATOM     91  H   UNL A   1      33.916  19.264  27.185  1.00  0.00     0.165 HD
BRANCH  90  92
ATOM     92  C   UNL A   1      32.773  18.840  25.538  1.00  0.00     0.233 C 
BRANCH  92  93
ATOM     93  C   UNL A   1      33.681  18.169  24.504  1.00  0.00     0.405 C 
ATOM     94  F   UNL A   1      33.873  16.866  24.808  1.00  0.00    -0.169 F 
ATOM     95  F   UNL A   1      33.129  18.227  23.272  1.00  0.00    -0.169 F 
ATOM     96  F   UNL A   1      34.893  18.762  24.437  1.00  0.00    -0.169 F 
ENDBRANCH  92  93
ENDBRANCH  90  92
ENDBRANCH  80  88
ENDBRANCH  75  78
ENDBRANCH  73  74
ENDBRANCH   1  73
TORSDOF 14
ENDMDL
MODEL 3
REMARK VINA RESULT:     -12.3      3.191      8.507
REMARK SMILES O=C(NCCCCNC(=O)[C@@H]1Cc2[nH]cnc2CN1C(=O)NCC(F)(F)F)c1ccc(-c2c3nc(c(-c4c(F)c(F)c(F)c(F)c4F)c4ccc([nH]4)c(-c4c(F)c(F)c(F)c(F)c4F)c4nc(c(-c5c(F)c(F)c(F)c(F)c5F)c5ccc2[nH]5)C=C4)C=C3)cc1
REMARK SMILES IDX 6 1 5 2 4 3 3 4 1 5 2 6 28 8 29 9 90 10 30 11 89 12 31 13
REMARK SMILES IDX 32 14 33 15 83 16 34 17 88 18 82 19 84 20 35 21 87 22 81 23
REMARK SMILES IDX 80 24 36 26 68 27 48 28 67 29 49 30 52 31 66 32 85 33 50 34
REMARK SMILES IDX 51 35 65 37 86 38 53 39 37 40 38 41 46 42 39 43 40 44 44 45
REMARK SMILES IDX 47 46 41 47 42 48 45 49 43 50 69 51 70 52 78 53 71 54 72 55
REMARK SMILES IDX 76 56 79 57 73 58 74 59 77 60 75 61 54 62 55 63 63 64 56 65
REMARK SMILES IDX 57 66 61 67 64 68 58 69 59 70 62 71 60 72 7 73 8 74 9 75
REMARK SMILES IDX 10 77 11 78 12 79 19 80 13 81 18 82 14 83 17 84 15 85 16 87
REMARK SMILES IDX 20 88 21 89 22 90 23 92 24 93 25 94 26 95 27 96
REMARK H PARENT 3 7 84 25 52 36 8 76 14 86 22 91
REMARK Flexibility Score: inf
ROOT
ATOM      1  C   UNL A   1      34.950  22.122  23.875  1.00  0.00     0.023 C 
ENDROOT
BRANCH   1   2
ATOM      2  C   UNL A   1      35.933  21.542  24.886  1.00  0.00     0.023 C 
BRANCH   2   3
ATOM      3  C   UNL A   1      37.137  22.412  25.261  1.00  0.00     0.116 C 
BRANCH   3   4
ATOM      4  N   UNL A   1      38.393  21.733  25.515  1.00  0.00    -0.352 N 
ATOM      5  O   UNL A   1      40.215  21.006  26.554  1.00  0.00    -0.269 OA
ATOM      6  C   UNL A   1      39.435  21.946  26.374  1.00  0.00     0.251 C 
ATOM      7  H   UNL A   1      38.524  20.944  24.942  1.00  0.00     0.163 HD
BRANCH   6   8
ATOM      8  C   UNL A   1      39.741  23.249  27.012  1.00  0.00     0.039 A 
ATOM      9  C   UNL A   1      38.984  24.407  26.861  1.00  0.00     0.014 A 
ATOM     10  C   UNL A   1      40.918  23.305  27.781  1.00  0.00     0.014 A 
ATOM     11  C   UNL A   1      39.465  25.625  27.319  1.00  0.00     0.010 A 
ATOM     12  C   UNL A   1      41.380  24.511  28.294  1.00  0.00     0.010 A 
ATOM     13  C   UNL A   1      40.674  25.678  28.017  1.00  0.00    -0.014 A 
BRANCH  13  14
ATOM     14  C   UNL A   1      41.036  26.951  28.630  1.00  0.00     0.031 A 
ATOM     15  C   UNL A   1      42.257  27.569  28.040  1.00  0.00     0.074 A 
ATOM     16  C   UNL A   1      40.272  27.590  29.537  1.00  0.00     0.049 A 
ATOM     17  N   UNL A   1      43.354  27.904  28.637  1.00  0.00    -0.248 NA
ATOM     18  C   UNL A   1      42.305  27.713  26.575  1.00  0.00     0.031 C 
ATOM     19  C   UNL A   1      38.924  27.219  29.968  1.00  0.00     0.029 A 
ATOM     20  N   UNL A   1      40.489  28.779  30.175  1.00  0.00    -0.354 N 
ATOM     21  C   UNL A   1      44.164  28.470  27.651  1.00  0.00     0.074 A 
ATOM     22  C   UNL A   1      43.541  28.175  26.391  1.00  0.00     0.031 C 
ATOM     23  C   UNL A   1      38.358  28.270  30.602  1.00  0.00     0.029 A 
ATOM     24  C   UNL A   1      39.338  29.338  30.717  1.00  0.00     0.049 A 
ATOM     25  H   UNL A   1      41.376  29.200  30.242  1.00  0.00     0.167 HD
ATOM     26  C   UNL A   1      45.128  29.373  27.979  1.00  0.00     0.037 A 
ATOM     27  C   UNL A   1      39.178  30.612  31.152  1.00  0.00     0.037 A 
ATOM     28  C   UNL A   1      45.489  29.255  29.369  1.00  0.00     0.049 A 
ATOM     29  C   UNL A   1      40.523  31.177  31.406  1.00  0.00     0.074 A 
ATOM     30  C   UNL A   1      46.071  28.298  30.174  1.00  0.00     0.029 A 
ATOM     31  N   UNL A   1      44.930  30.178  30.211  1.00  0.00    -0.354 N 
ATOM     32  N   UNL A   1      41.304  30.809  32.381  1.00  0.00    -0.248 NA
ATOM     33  C   UNL A   1      41.165  31.953  30.353  1.00  0.00     0.031 C 
ATOM     34  C   UNL A   1      45.518  28.504  31.475  1.00  0.00     0.029 A 
ATOM     35  C   UNL A   1      44.648  29.593  31.410  1.00  0.00     0.049 A 
ATOM     36  H   UNL A   1      44.758  31.121  29.985  1.00  0.00     0.167 HD
ATOM     37  C   UNL A   1      42.581  30.905  31.855  1.00  0.00     0.074 A 
ATOM     38  C   UNL A   1      42.444  31.770  30.690  1.00  0.00     0.031 C 
ATOM     39  C   UNL A   1      43.551  30.026  32.243  1.00  0.00     0.037 A 
BRANCH  26  40
ATOM     40  C   UNL A   1      45.342  30.680  27.220  1.00  0.00     0.064 A 
ATOM     41  C   UNL A   1      46.663  31.025  26.854  1.00  0.00     0.173 A 
ATOM     42  C   UNL A   1      44.415  31.745  27.185  1.00  0.00     0.173 A 
ATOM     43  F   UNL A   1      47.630  30.095  26.825  1.00  0.00    -0.203 F 
ATOM     44  C   UNL A   1      47.051  32.351  26.639  1.00  0.00     0.198 A 
ATOM     45  C   UNL A   1      44.798  33.060  26.921  1.00  0.00     0.198 A 
ATOM     46  F   UNL A   1      43.127  31.595  27.501  1.00  0.00    -0.203 F 
ATOM     47  F   UNL A   1      48.346  32.645  26.467  1.00  0.00    -0.200 F 
ATOM     48  C   UNL A   1      46.121  33.370  26.696  1.00  0.00     0.200 A 
ATOM     49  F   UNL A   1      43.881  34.036  26.985  1.00  0.00    -0.200 F 
ATOM     50  F   UNL A   1      46.501  34.649  26.582  1.00  0.00    -0.200 F 
ENDBRANCH  26  40
BRANCH  27  51
ATOM     51  C   UNL A   1      37.962  31.460  31.121  1.00  0.00     0.064 A 
ATOM     52  C   UNL A   1      37.263  31.772  32.301  1.00  0.00     0.173 A 
ATOM     53  C   UNL A   1      37.612  32.205  29.977  1.00  0.00     0.173 A 
ATOM     54  F   UNL A   1      37.563  31.146  33.449  1.00  0.00    -0.203 F 
ATOM     55  C   UNL A   1      36.298  32.783  32.340  1.00  0.00     0.198 A 
ATOM     56  C   UNL A   1      36.638  33.204  30.014  1.00  0.00     0.198 A 
ATOM     57  F   UNL A   1      38.275  32.049  28.823  1.00  0.00    -0.203 F 
ATOM     58  F   UNL A   1      35.705  33.098  33.500  1.00  0.00    -0.200 F 
ATOM     59  C   UNL A   1      35.993  33.504  31.197  1.00  0.00     0.200 A 
ATOM     60  F   UNL A   1      36.379  33.916  28.909  1.00  0.00    -0.200 F 
ATOM     61  F   UNL A   1      35.112  34.513  31.246  1.00  0.00    -0.200 F 
ENDBRANCH  27  51
BRANCH  39  62
ATOM     62  C   UNL A   1      43.343  29.304  33.539  1.00  0.00     0.064 A 
ATOM     63  C   UNL A   1      43.760  29.782  34.792  1.00  0.00     0.173 A 
ATOM     64  C   UNL A   1      42.611  28.110  33.510  1.00  0.00     0.173 A 
ATOM     65  F   UNL A   1      44.376  30.965  34.911  1.00  0.00    -0.203 F 
ATOM     66  C   UNL A   1      43.507  29.058  35.956  1.00  0.00     0.198 A 
ATOM     67  C   UNL A   1      42.323  27.412  34.677  1.00  0.00     0.198 A 
ATOM     68  F   UNL A   1      42.142  27.635  32.344  1.00  0.00    -0.203 F 
ATOM     69  F   UNL A   1      43.941  29.516  37.139  1.00  0.00    -0.200 F 
ATOM     70  C   UNL A   1      42.784  27.878  35.897  1.00  0.00     0.200 A 
ATOM     71  F   UNL A   1      41.581  26.297  34.621  1.00  0.00    -0.200 F 
ATOM     72  F   UNL A   1      42.512  27.199  37.020  1.00  0.00    -0.200 F 
ENDBRANCH  39  62
ENDBRANCH  13  14
ENDBRANCH   6   8
ENDBRANCH   3   4
ENDBRANCH   2   3
ENDBRANCH   1   2
BRANCH   1  73
ATOM     73  C   UNL A   1      35.232  23.540  23.408  1.00  0.00     0.116 C 
BRANCH  73  74
ATOM     74  N   UNL A   1      34.072  24.236  22.902  1.00  0.00    -0.354 N 
ATOM     75  C   UNL A   1      33.564  25.451  23.241  1.00  0.00     0.243 C 
ATOM     76  H   UNL A   1      33.572  23.757  22.202  1.00  0.00     0.163 HD
ATOM     77  O   UNL A   1      32.664  25.869  22.498  1.00  0.00    -0.273 OA
BRANCH  75  78
ATOM     78  C   UNL A   1      33.868  26.181  24.588  1.00  0.00     0.182 C 
ATOM     79  C   UNL A   1      33.883  25.115  25.735  1.00  0.00     0.091 C 
ATOM     80  N   UNL A   1      33.068  27.370  25.023  1.00  0.00    -0.306 N 
ATOM     81  C   UNL A   1      32.471  24.872  26.120  1.00  0.00     0.042 A 
ATOM     82  C   UNL A   1      31.636  27.135  25.360  1.00  0.00     0.180 C 
ATOM     83  N   UNL A   1      31.888  23.753  26.632  1.00  0.00    -0.348 N 
ATOM     84  C   UNL A   1      31.453  25.778  25.937  1.00  0.00     0.081 A 
ATOM     85  C   UNL A   1      30.545  24.016  26.714  1.00  0.00     0.197 A 
ATOM     86  H   UNL A   1      32.343  22.920  26.893  1.00  0.00     0.167 HD
ATOM     87  N   UNL A   1      30.253  25.232  26.300  1.00  0.00    -0.240 NA
BRANCH  80  88
ATOM     88  C   UNL A   1      33.447  28.679  25.028  1.00  0.00     0.318 C 
ATOM     89  O   UNL A   1      32.994  29.481  24.207  1.00  0.00    -0.249 OA
ATOM     90  N   UNL A   1      34.305  29.203  25.915  1.00  0.00    -0.329 N 
ATOM     91  H   UNL A   1      34.601  30.105  25.654  1.00  0.00     0.165 HD
BRANCH  90  92
ATOM     92  C   UNL A   1      34.914  28.769  27.175  1.00  0.00     0.233 C 
BRANCH  92  93
ATOM     93  C   UNL A   1      35.803  29.828  27.833  1.00  0.00     0.405 C 
ATOM     94  F   UNL A   1      37.096  29.658  27.476  1.00  0.00    -0.169 F 
ATOM     95  F   UNL A   1      35.431  31.070  27.452  1.00  0.00    -0.169 F 
ATOM     96  F   UNL A   1      35.735  29.776  29.181  1.00  0.00    -0.169 F 
ENDBRANCH  92  93
ENDBRANCH  90  92
ENDBRANCH  80  88
ENDBRANCH  75  78
ENDBRANCH  73  74
ENDBRANCH   1  73
TORSDOF 14
ENDMDL
