MODEL 1
REMARK VINA RESULT:     -14.1      0.000      0.000
REMARK SMILES Cc1c(CCC(=O)N2CCC[C@H]2C(=O)NCCCCNC(=O)c2ccc(-c3c4nc(c(-c5c(F)c(F)c(F)c(F)c5F)c5ccc([nH]5)c(-c5c(F)c(F)c(F)c(F)c5F)c5nc(c(-c6c(F)c(F)c(F)c(F)c6F)c6ccc3[nH]6)C=C5)C=C4)cc2)c(=O)oc2cc3oc4c(c3cc12)CCCC4
REMARK SMILES IDX 16 1 15 2 13 3 14 4 12 6 8 7 9 8 10 9 11 10 6 11 7 12 5 13
REMARK SMILES IDX 4 14 3 15 1 16 2 17 97 18 86 19 89 20 96 21 87 22 88 23
REMARK SMILES IDX 90 24 95 25 91 26 94 27 92 28 93 29 98 30 101 31 99 32
REMARK SMILES IDX 100 33 17 34 18 35 19 36 20 37 21 38 22 40 23 41 24 42 85 43
REMARK SMILES IDX 25 44 84 45 26 46 27 47 28 48 78 49 29 50 83 51 77 52 79 53
REMARK SMILES IDX 30 54 82 55 76 56 75 57 31 59 63 60 43 61 62 62 44 63 47 64
REMARK SMILES IDX 61 65 80 66 45 67 46 68 60 70 81 71 48 72 32 73 33 74 41 75
REMARK SMILES IDX 34 76 35 77 39 78 42 79 36 80 37 81 40 82 38 83 64 84 65 85
REMARK SMILES IDX 73 86 66 87 67 88 71 89 74 90 68 91 69 92 72 93 70 94 49 95
REMARK SMILES IDX 50 96 58 97 51 98 52 99 56 100 59 101 53 102 54 103 57 104
REMARK SMILES IDX 55 105
REMARK H PARENT 15 5 20 39 79 58 47 69
REMARK Flexibility Score: inf
ROOT
ATOM      1  C   UNL A   1      35.470  21.479  24.691  1.00  0.00     0.116 C 
ENDROOT
BRANCH   1   2
ATOM      2  N   UNL A   1      34.663  22.294  25.580  1.00  0.00    -0.354 N 
ATOM      3  C   UNL A   1      33.336  22.179  25.904  1.00  0.00     0.242 C 
ATOM      4  O   UNL A   1      32.862  23.056  26.624  1.00  0.00    -0.273 OA
ATOM      5  H   UNL A   1      35.138  23.038  26.015  1.00  0.00     0.163 HD
BRANCH   3   6
ATOM      6  C   UNL A   1      32.525  21.016  25.290  1.00  0.00     0.174 C 
ATOM      7  N   UNL A   1      32.566  20.780  23.833  1.00  0.00    -0.331 N 
ATOM      8  C   UNL A   1      32.673  19.357  23.547  1.00  0.00     0.120 C 
ATOM      9  C   UNL A   1      32.597  18.649  24.884  1.00  0.00     0.024 C 
ATOM     10  C   UNL A   1      33.071  19.696  25.865  1.00  0.00     0.037 C 
BRANCH   7  11
ATOM     11  C   UNL A   1      32.226  21.758  22.914  1.00  0.00     0.223 C 
ATOM     12  O   UNL A   1      31.923  21.472  21.753  1.00  0.00    -0.275 OA
BRANCH  11  13
ATOM     13  C   UNL A   1      32.252  23.233  23.352  1.00  0.00     0.105 C 
BRANCH  13  14
ATOM     14  C   UNL A   1      33.356  24.118  22.742  1.00  0.00     0.053 C 
BRANCH  14  15
ATOM     15  C   UNL A   1      33.155  25.575  23.060  1.00  0.00     0.042 A 
ATOM     16  C   UNL A   1      31.880  26.035  20.927  1.00  0.00     0.046 C 
ATOM     17  C   UNL A   1      32.348  26.351  22.320  1.00  0.00    -0.030 A 
ATOM     18  C   UNL A   1      31.752  27.481  23.022  1.00  0.00     0.022 A 
ATOM     19  C   UNL A   1      33.795  26.109  24.300  1.00  0.00     0.339 A 
ATOM     20  C   UNL A   1      32.415  28.071  24.096  1.00  0.00     0.142 A 
ATOM     21  C   UNL A   1      30.457  27.886  22.715  1.00  0.00     0.024 A 
ATOM     22  O   UNL A   1      34.511  25.406  25.003  1.00  0.00    -0.246 OA
ATOM     23  O   UNL A   1      33.574  27.454  24.602  1.00  0.00    -0.422 OA
ATOM     24  C   UNL A   1      31.943  29.221  24.746  1.00  0.00     0.095 A 
ATOM     25  C   UNL A   1      29.919  28.984  23.383  1.00  0.00     0.025 A 
ATOM     26  C   UNL A   1      30.715  29.686  24.282  1.00  0.00     0.138 A 
ATOM     27  C   UNL A   1      28.730  29.717  23.221  1.00  0.00     0.001 A 
ATOM     28  O   UNL A   1      30.162  30.921  24.503  1.00  0.00    -0.461 OA
ATOM     29  C   UNL A   1      29.063  30.962  23.701  1.00  0.00     0.108 A 
ATOM     30  C   UNL A   1      27.661  29.562  22.207  1.00  0.00     0.040 C 
ATOM     31  C   UNL A   1      28.722  32.191  22.930  1.00  0.00     0.076 C 
ATOM     32  C   UNL A   1      27.961  30.520  21.040  1.00  0.00     0.005 C 
ATOM     33  C   UNL A   1      28.812  31.771  21.428  1.00  0.00     0.008 C 
ENDBRANCH  14  15
ENDBRANCH  13  14
ENDBRANCH  11  13
ENDBRANCH   7  11
ENDBRANCH   3   6
ENDBRANCH   1   2
BRANCH   1  34
ATOM     34  C   UNL A   1      36.859  22.088  24.484  1.00  0.00     0.023 C 
BRANCH  34  35
ATOM     35  C   UNL A   1      36.983  23.530  24.978  1.00  0.00     0.023 C 
BRANCH  35  36
ATOM     36  C   UNL A   1      38.118  23.739  25.975  1.00  0.00     0.116 C 
BRANCH  36  37
ATOM     37  N   UNL A   1      38.693  22.486  26.446  1.00  0.00    -0.352 N 
ATOM     38  C   UNL A   1      39.883  22.292  27.118  1.00  0.00     0.251 C 
ATOM     39  H   UNL A   1      38.166  21.675  26.262  1.00  0.00     0.163 HD
ATOM     40  O   UNL A   1      40.308  21.186  27.377  1.00  0.00    -0.269 OA
BRANCH  38  41
ATOM     41  C   UNL A   1      40.649  23.501  27.471  1.00  0.00     0.039 A 
ATOM     42  C   UNL A   1      40.099  24.413  28.375  1.00  0.00     0.014 A 
ATOM     43  C   UNL A   1      41.807  23.789  26.747  1.00  0.00     0.014 A 
ATOM     44  C   UNL A   1      40.609  25.699  28.420  1.00  0.00     0.010 A 
ATOM     45  C   UNL A   1      42.353  25.063  26.841  1.00  0.00     0.010 A 
ATOM     46  C   UNL A   1      41.716  26.030  27.631  1.00  0.00    -0.014 A 
BRANCH  46  47
ATOM     47  C   UNL A   1      42.209  27.402  27.754  1.00  0.00     0.031 A 
ATOM     48  C   UNL A   1      41.121  28.415  27.680  1.00  0.00     0.074 A 
ATOM     49  C   UNL A   1      43.308  27.716  28.465  1.00  0.00     0.049 A 
ATOM     50  N   UNL A   1      40.395  28.739  28.708  1.00  0.00    -0.248 NA
ATOM     51  C   UNL A   1      40.598  28.883  26.400  1.00  0.00     0.031 C 
ATOM     52  C   UNL A   1      43.742  27.029  29.687  1.00  0.00     0.029 A 
ATOM     53  N   UNL A   1      44.091  28.844  28.404  1.00  0.00    -0.354 N 
ATOM     54  C   UNL A   1      39.268  29.362  28.215  1.00  0.00     0.074 A 
ATOM     55  C   UNL A   1      39.450  29.459  26.782  1.00  0.00     0.031 C 
ATOM     56  C   UNL A   1      44.566  27.852  30.367  1.00  0.00     0.029 A 
ATOM     57  C   UNL A   1      44.843  29.034  29.557  1.00  0.00     0.049 A 
ATOM     58  H   UNL A   1      44.118  29.450  27.628  1.00  0.00     0.167 HD
ATOM     59  C   UNL A   1      38.222  29.727  28.997  1.00  0.00     0.037 A 
ATOM     60  C   UNL A   1      45.221  30.254  30.023  1.00  0.00     0.037 A 
ATOM     61  C   UNL A   1      38.353  29.467  30.397  1.00  0.00     0.049 A 
ATOM     62  C   UNL A   1      43.917  30.733  30.621  1.00  0.00     0.074 A 
ATOM     63  C   UNL A   1      37.979  28.468  31.269  1.00  0.00     0.029 A 
ATOM     64  N   UNL A   1      39.096  30.341  31.156  1.00  0.00    -0.354 N 
ATOM     65  N   UNL A   1      43.427  30.387  31.785  1.00  0.00    -0.248 NA
ATOM     66  C   UNL A   1      42.945  31.355  29.717  1.00  0.00     0.031 C 
ATOM     67  C   UNL A   1      38.879  28.568  32.376  1.00  0.00     0.029 A 
ATOM     68  C   UNL A   1      39.782  29.587  32.076  1.00  0.00     0.049 A 
ATOM     69  H   UNL A   1      39.130  31.321  31.057  1.00  0.00     0.167 HD
ATOM     70  C   UNL A   1      42.039  30.497  31.647  1.00  0.00     0.074 A 
ATOM     71  C   UNL A   1      41.814  31.150  30.377  1.00  0.00     0.031 C 
ATOM     72  C   UNL A   1      41.144  29.871  32.464  1.00  0.00     0.037 A 
BRANCH  59  73
ATOM     73  C   UNL A   1      37.045  30.445  28.489  1.00  0.00     0.064 A 
ATOM     74  C   UNL A   1      36.995  31.835  28.645  1.00  0.00     0.173 A 
ATOM     75  C   UNL A   1      35.917  29.785  27.997  1.00  0.00     0.173 A 
ATOM     76  F   UNL A   1      38.065  32.493  29.122  1.00  0.00    -0.203 F 
ATOM     77  C   UNL A   1      35.840  32.544  28.345  1.00  0.00     0.198 A 
ATOM     78  C   UNL A   1      34.759  30.497  27.694  1.00  0.00     0.198 A 
ATOM     79  F   UNL A   1      35.927  28.452  27.840  1.00  0.00    -0.203 F 
ATOM     80  F   UNL A   1      35.807  33.871  28.530  1.00  0.00    -0.200 F 
ATOM     81  C   UNL A   1      34.719  31.874  27.879  1.00  0.00     0.200 A 
ATOM     82  F   UNL A   1      33.675  29.853  27.244  1.00  0.00    -0.200 F 
ATOM     83  F   UNL A   1      33.596  32.556  27.613  1.00  0.00    -0.200 F 
ENDBRANCH  59  73
BRANCH  60  84
ATOM     84  C   UNL A   1      46.057  31.021  29.039  1.00  0.00     0.064 A 
ATOM     85  C   UNL A   1      47.451  31.082  29.272  1.00  0.00     0.173 A 
ATOM     86  C   UNL A   1      45.606  31.643  27.869  1.00  0.00     0.173 A 
ATOM     87  F   UNL A   1      47.962  30.617  30.424  1.00  0.00    -0.203 F 
ATOM     88  C   UNL A   1      48.341  31.585  28.324  1.00  0.00     0.198 A 
ATOM     89  C   UNL A   1      46.500  32.123  26.906  1.00  0.00     0.198 A 
ATOM     90  F   UNL A   1      44.300  31.782  27.614  1.00  0.00    -0.203 F 
ATOM     91  F   UNL A   1      49.659  31.565  28.566  1.00  0.00    -0.200 F 
ATOM     92  C   UNL A   1      47.866  32.071  27.122  1.00  0.00     0.200 A 
ATOM     93  F   UNL A   1      46.027  32.603  25.747  1.00  0.00    -0.200 F 
ATOM     94  F   UNL A   1      48.717  32.489  26.176  1.00  0.00    -0.200 F 
ENDBRANCH  60  84
BRANCH  72  95
ATOM     95  C   UNL A   1      41.717  29.235  33.681  1.00  0.00     0.064 A 
ATOM     96  C   UNL A   1      41.835  29.972  34.865  1.00  0.00     0.173 A 
ATOM     97  C   UNL A   1      42.099  27.885  33.699  1.00  0.00     0.173 A 
ATOM     98  F   UNL A   1      41.475  31.266  34.897  1.00  0.00    -0.203 F 
ATOM     99  C   UNL A   1      42.291  29.372  36.035  1.00  0.00     0.198 A 
ATOM    100  C   UNL A   1      42.530  27.283  34.876  1.00  0.00     0.198 A 
ATOM    101  F   UNL A   1      42.031  27.137  32.587  1.00  0.00    -0.203 F 
ATOM    102  F   UNL A   1      42.384  30.091  37.162  1.00  0.00    -0.200 F 
ATOM    103  C   UNL A   1      42.623  28.026  36.044  1.00  0.00     0.200 A 
ATOM    104  F   UNL A   1      42.836  25.978  34.886  1.00  0.00    -0.200 F 
ATOM    105  F   UNL A   1      43.023  27.439  37.181  1.00  0.00    -0.200 F 
ENDBRANCH  72  95
ENDBRANCH  46  47
ENDBRANCH  38  41
ENDBRANCH  36  37
ENDBRANCH  35  36
ENDBRANCH  34  35
ENDBRANCH   1  34
TORSDOF 15
ENDMDL
MODEL 2
REMARK VINA RESULT:     -13.6      8.195     15.351
REMARK SMILES Cc1c(CCC(=O)N2CCC[C@H]2C(=O)NCCCCNC(=O)c2ccc(-c3c4nc(c(-c5c(F)c(F)c(F)c(F)c5F)c5ccc([nH]5)c(-c5c(F)c(F)c(F)c(F)c5F)c5nc(c(-c6c(F)c(F)c(F)c(F)c6F)c6ccc3[nH]6)C=C5)C=C4)cc2)c(=O)oc2cc3oc4c(c3cc12)CCCC4
REMARK SMILES IDX 16 1 15 2 13 3 14 4 12 6 8 7 9 8 10 9 11 10 6 11 7 12 5 13
REMARK SMILES IDX 4 14 3 15 1 16 2 17 97 18 86 19 89 20 96 21 87 22 88 23
REMARK SMILES IDX 90 24 95 25 91 26 94 27 92 28 93 29 98 30 101 31 99 32
REMARK SMILES IDX 100 33 17 34 18 35 19 36 20 37 21 38 22 40 23 41 24 42 85 43
REMARK SMILES IDX 25 44 84 45 26 46 27 47 28 48 78 49 29 50 83 51 77 52 79 53
REMARK SMILES IDX 30 54 82 55 76 56 75 57 31 59 63 60 43 61 62 62 44 63 47 64
REMARK SMILES IDX 61 65 80 66 45 67 46 68 60 70 81 71 48 72 32 73 33 74 41 75
REMARK SMILES IDX 34 76 35 77 39 78 42 79 36 80 37 81 40 82 38 83 64 84 65 85
REMARK SMILES IDX 73 86 66 87 67 88 71 89 74 90 68 91 69 92 72 93 70 94 49 95
REMARK SMILES IDX 50 96 58 97 51 98 52 99 56 100 59 101 53 102 54 103 57 104
REMARK SMILES IDX 55 105
REMARK H PARENT 15 5 20 39 79 58 47 69
REMARK Flexibility Score: inf
ROOT
ATOM      1  C   UNL A   1      48.478  20.669  34.938  1.00  0.00     0.116 C 
ENDROOT
BRANCH   1   2
ATOM      2  N   UNL A   1      49.550  19.730  35.212  1.00  0.00    -0.354 N 
ATOM      3  C   UNL A   1      50.361  19.628  36.312  1.00  0.00     0.242 C 
ATOM      4  O   UNL A   1      51.260  18.790  36.264  1.00  0.00    -0.273 OA
ATOM      5  H   UNL A   1      49.720  19.068  34.503  1.00  0.00     0.163 HD
BRANCH   3   6
ATOM      6  C   UNL A   1      50.139  20.608  37.486  1.00  0.00     0.174 C 
ATOM      7  N   UNL A   1      50.120  20.102  38.873  1.00  0.00    -0.331 N 
ATOM      8  C   UNL A   1      50.859  20.993  39.754  1.00  0.00     0.120 C 
ATOM      9  C   UNL A   1      51.284  22.173  38.905  1.00  0.00     0.024 C 
ATOM     10  C   UNL A   1      51.310  21.607  37.503  1.00  0.00     0.037 C 
BRANCH   7  11
ATOM     11  C   UNL A   1      49.253  19.105  39.287  1.00  0.00     0.223 C 
ATOM     12  O   UNL A   1      49.584  18.277  40.138  1.00  0.00    -0.275 OA
BRANCH  11  13
ATOM     13  C   UNL A   1      47.855  19.022  38.648  1.00  0.00     0.105 C 
BRANCH  13  14
ATOM     14  C   UNL A   1      46.650  19.069  39.607  1.00  0.00     0.053 C 
BRANCH  14  15
ATOM     15  C   UNL A   1      45.818  17.818  39.535  1.00  0.00     0.042 A 
ATOM     16  C   UNL A   1      46.757  16.872  41.683  1.00  0.00     0.046 C 
ATOM     17  C   UNL A   1      45.761  16.952  40.559  1.00  0.00    -0.030 A 
ATOM     18  C   UNL A   1      44.531  16.175  40.655  1.00  0.00     0.022 A 
ATOM     19  C   UNL A   1      44.959  17.624  38.329  1.00  0.00     0.339 A 
ATOM     20  C   UNL A   1      43.800  15.874  39.507  1.00  0.00     0.142 A 
ATOM     21  C   UNL A   1      44.007  15.852  41.902  1.00  0.00     0.024 A 
ATOM     22  O   UNL A   1      44.975  18.421  37.397  1.00  0.00    -0.246 OA
ATOM     23  O   UNL A   1      44.166  16.476  38.289  1.00  0.00    -0.422 OA
ATOM     24  C   UNL A   1      42.667  15.048  39.521  1.00  0.00     0.095 A 
ATOM     25  C   UNL A   1      42.845  15.087  41.965  1.00  0.00     0.025 A 
ATOM     26  C   UNL A   1      42.283  14.611  40.786  1.00  0.00     0.138 A 
ATOM     27  C   UNL A   1      42.149  14.488  43.029  1.00  0.00     0.001 A 
ATOM     28  O   UNL A   1      41.427  13.581  41.080  1.00  0.00    -0.461 OA
ATOM     29  C   UNL A   1      41.518  13.423  42.428  1.00  0.00     0.108 A 
ATOM     30  C   UNL A   1      42.489  14.445  44.470  1.00  0.00     0.040 C 
ATOM     31  C   UNL A   1      41.569  12.065  43.040  1.00  0.00     0.076 C 
ATOM     32  C   UNL A   1      43.264  13.143  44.744  1.00  0.00     0.005 C 
ATOM     33  C   UNL A   1      42.961  11.983  43.743  1.00  0.00     0.008 C 
ENDBRANCH  14  15
ENDBRANCH  13  14
ENDBRANCH  11  13
ENDBRANCH   7  11
ENDBRANCH   3   6
ENDBRANCH   1   2
BRANCH   1  34
ATOM     34  C   UNL A   1      47.107  19.997  35.045  1.00  0.00     0.023 C 
BRANCH  34  35
ATOM     35  C   UNL A   1      45.936  20.926  34.720  1.00  0.00     0.023 C 
BRANCH  35  36
ATOM     36  C   UNL A   1      45.880  22.169  35.602  1.00  0.00     0.116 C 
BRANCH  36  37
ATOM     37  N   UNL A   1      44.519  22.557  35.946  1.00  0.00    -0.352 N 
ATOM     38  C   UNL A   1      43.726  23.517  35.349  1.00  0.00     0.251 C 
ATOM     39  H   UNL A   1      44.112  22.071  36.700  1.00  0.00     0.163 HD
ATOM     40  O   UNL A   1      42.637  23.820  35.786  1.00  0.00    -0.269 OA
BRANCH  38  41
ATOM     41  C   UNL A   1      44.289  24.201  34.172  1.00  0.00     0.039 A 
ATOM     42  C   UNL A   1      44.870  25.462  34.332  1.00  0.00     0.014 A 
ATOM     43  C   UNL A   1      44.052  23.655  32.909  1.00  0.00     0.014 A 
ATOM     44  C   UNL A   1      45.048  26.262  33.217  1.00  0.00     0.010 A 
ATOM     45  C   UNL A   1      44.290  24.439  31.788  1.00  0.00     0.010 A 
ATOM     46  C   UNL A   1      44.729  25.760  31.950  1.00  0.00    -0.014 A 
BRANCH  46  47
ATOM     47  C   UNL A   1      44.969  26.660  30.821  1.00  0.00     0.031 A 
ATOM     48  C   UNL A   1      44.939  25.960  29.508  1.00  0.00     0.074 A 
ATOM     49  C   UNL A   1      44.621  27.960  30.845  1.00  0.00     0.049 A 
ATOM     50  N   UNL A   1      43.832  25.702  28.878  1.00  0.00    -0.248 NA
ATOM     51  C   UNL A   1      46.108  25.253  28.992  1.00  0.00     0.031 C 
ATOM     52  C   UNL A   1      43.449  28.503  31.540  1.00  0.00     0.029 A 
ATOM     53  N   UNL A   1      45.068  28.995  30.058  1.00  0.00    -0.354 N 
ATOM     54  C   UNL A   1      44.125  24.725  27.949  1.00  0.00     0.074 A 
ATOM     55  C   UNL A   1      45.553  24.499  28.033  1.00  0.00     0.031 C 
ATOM     56  C   UNL A   1      43.148  29.700  30.996  1.00  0.00     0.029 A 
ATOM     57  C   UNL A   1      44.190  30.072  30.045  1.00  0.00     0.049 A 
ATOM     58  H   UNL A   1      45.917  28.976  29.560  1.00  0.00     0.167 HD
ATOM     59  C   UNL A   1      43.180  24.117  27.191  1.00  0.00     0.037 A 
ATOM     60  C   UNL A   1      44.049  30.922  28.993  1.00  0.00     0.037 A 
ATOM     61  C   UNL A   1      41.834  24.567  27.370  1.00  0.00     0.049 A 
ATOM     62  C   UNL A   1      43.234  30.061  28.055  1.00  0.00     0.074 A 
ATOM     63  C   UNL A   1      40.739  24.180  28.111  1.00  0.00     0.029 A 
ATOM     64  N   UNL A   1      41.447  25.729  26.744  1.00  0.00    -0.354 N 
ATOM     65  N   UNL A   1      41.943  29.853  28.122  1.00  0.00    -0.248 NA
ATOM     66  C   UNL A   1      43.957  29.104  27.213  1.00  0.00     0.031 C 
ATOM     67  C   UNL A   1      39.928  25.351  28.237  1.00  0.00     0.029 A 
ATOM     68  C   UNL A   1      40.614  26.391  27.612  1.00  0.00     0.049 A 
ATOM     69  H   UNL A   1      41.716  26.028  25.844  1.00  0.00     0.167 HD
ATOM     70  C   UNL A   1      41.745  28.588  27.558  1.00  0.00     0.074 A 
ATOM     71  C   UNL A   1      43.009  28.210  26.969  1.00  0.00     0.031 C 
ATOM     72  C   UNL A   1      40.635  27.826  27.778  1.00  0.00     0.037 A 
BRANCH  59  73
ATOM     73  C   UNL A   1      43.491  23.119  26.158  1.00  0.00     0.064 A 
ATOM     74  C   UNL A   1      43.304  21.766  26.462  1.00  0.00     0.173 A 
ATOM     75  C   UNL A   1      44.104  23.457  24.949  1.00  0.00     0.173 A 
ATOM     76  F   UNL A   1      42.722  21.416  27.621  1.00  0.00    -0.203 F 
ATOM     77  C   UNL A   1      43.743  20.775  25.595  1.00  0.00     0.198 A 
ATOM     78  C   UNL A   1      44.542  22.461  24.079  1.00  0.00     0.198 A 
ATOM     79  F   UNL A   1      44.305  24.743  24.627  1.00  0.00    -0.203 F 
ATOM     80  F   UNL A   1      43.579  19.485  25.921  1.00  0.00    -0.200 F 
ATOM     81  C   UNL A   1      44.371  21.122  24.409  1.00  0.00     0.200 A 
ATOM     82  F   UNL A   1      45.149  22.793  22.932  1.00  0.00    -0.200 F 
ATOM     83  F   UNL A   1      44.816  20.164  23.584  1.00  0.00    -0.200 F 
ENDBRANCH  59  73
BRANCH  60  84
ATOM     84  C   UNL A   1      45.327  31.624  28.635  1.00  0.00     0.064 A 
ATOM     85  C   UNL A   1      45.361  33.032  28.772  1.00  0.00     0.173 A 
ATOM     86  C   UNL A   1      46.524  31.022  28.228  1.00  0.00     0.173 A 
ATOM     87  F   UNL A   1      44.234  33.709  29.043  1.00  0.00    -0.203 F 
ATOM     88  C   UNL A   1      46.546  33.760  28.668  1.00  0.00     0.198 A 
ATOM     89  C   UNL A   1      47.717  31.747  28.151  1.00  0.00     0.198 A 
ATOM     90  F   UNL A   1      46.578  29.721  27.921  1.00  0.00    -0.203 F 
ATOM     91  F   UNL A   1      46.537  35.086  28.867  1.00  0.00    -0.200 F 
ATOM     92  C   UNL A   1      47.733  33.110  28.395  1.00  0.00     0.200 A 
ATOM     93  F   UNL A   1      48.863  31.108  27.873  1.00  0.00    -0.200 F 
ATOM     94  F   UNL A   1      48.887  33.789  28.364  1.00  0.00    -0.200 F 
ENDBRANCH  60  84
BRANCH  72  95
ATOM     95  C   UNL A   1      39.511  28.509  28.473  1.00  0.00     0.064 A 
ATOM     96  C   UNL A   1      38.643  29.338  27.752  1.00  0.00     0.173 A 
ATOM     97  C   UNL A   1      39.252  28.304  29.837  1.00  0.00     0.173 A 
ATOM     98  F   UNL A   1      38.847  29.558  26.443  1.00  0.00    -0.203 F 
ATOM     99  C   UNL A   1      37.539  29.920  28.367  1.00  0.00     0.198 A 
ATOM    100  C   UNL A   1      38.133  28.867  30.442  1.00  0.00     0.198 A 
ATOM    101  F   UNL A   1      40.064  27.539  30.583  1.00  0.00    -0.203 F 
ATOM    102  F   UNL A   1      36.713  30.700  27.658  1.00  0.00    -0.200 F 
ATOM    103  C   UNL A   1      37.276  29.671  29.706  1.00  0.00     0.200 A 
ATOM    104  F   UNL A   1      37.872  28.613  31.732  1.00  0.00    -0.200 F 
ATOM    105  F   UNL A   1      36.189  30.198  30.287  1.00  0.00    -0.200 F 
ENDBRANCH  72  95
ENDBRANCH  46  47
ENDBRANCH  38  41
ENDBRANCH  36  37
ENDBRANCH  35  36
ENDBRANCH  34  35
ENDBRANCH   1  34
TORSDOF 15
ENDMDL
MODEL 3
REMARK VINA RESULT:     -13.2      9.404     14.933
REMARK SMILES Cc1c(CCC(=O)N2CCC[C@H]2C(=O)NCCCCNC(=O)c2ccc(-c3c4nc(c(-c5c(F)c(F)c(F)c(F)c5F)c5ccc([nH]5)c(-c5c(F)c(F)c(F)c(F)c5F)c5nc(c(-c6c(F)c(F)c(F)c(F)c6F)c6ccc3[nH]6)C=C5)C=C4)cc2)c(=O)oc2cc3oc4c(c3cc12)CCCC4
REMARK SMILES IDX 16 1 15 2 13 3 14 4 12 6 8 7 9 8 10 9 11 10 6 11 7 12 5 13
REMARK SMILES IDX 4 14 3 15 1 16 2 17 97 18 86 19 89 20 96 21 87 22 88 23
REMARK SMILES IDX 90 24 95 25 91 26 94 27 92 28 93 29 98 30 101 31 99 32
REMARK SMILES IDX 100 33 17 34 18 35 19 36 20 37 21 38 22 40 23 41 24 42 85 43
REMARK SMILES IDX 25 44 84 45 26 46 27 47 28 48 78 49 29 50 83 51 77 52 79 53
REMARK SMILES IDX 30 54 82 55 76 56 75 57 31 59 63 60 43 61 62 62 44 63 47 64
REMARK SMILES IDX 61 65 80 66 45 67 46 68 60 70 81 71 48 72 32 73 33 74 41 75
REMARK SMILES IDX 34 76 35 77 39 78 42 79 36 80 37 81 40 82 38 83 64 84 65 85
REMARK SMILES IDX 73 86 66 87 67 88 71 89 74 90 68 91 69 92 72 93 70 94 49 95
REMARK SMILES IDX 50 96 58 97 51 98 52 99 56 100 59 101 53 102 54 103 57 104
REMARK SMILES IDX 55 105
REMARK H PARENT 15 5 20 39 79 58 47 69
REMARK Flexibility Score: inf
ROOT
ATOM      1  C   UNL A   1      42.982  41.111  26.154  1.00  0.00     0.116 C 
ENDROOT
BRANCH   1   2
ATOM      2  N   UNL A   1      42.723  42.066  25.092  1.00  0.00    -0.354 N 
ATOM      3  C   UNL A   1      43.513  43.084  24.621  1.00  0.00     0.242 C 
ATOM      4  O   UNL A   1      43.024  43.813  23.761  1.00  0.00    -0.273 OA
ATOM      5  H   UNL A   1      41.852  41.969  24.642  1.00  0.00     0.163 HD
BRANCH   3   6
ATOM      6  C   UNL A   1      44.910  43.283  25.250  1.00  0.00     0.174 C 
ATOM      7  N   UNL A   1      46.119  43.145  24.413  1.00  0.00    -0.331 N 
ATOM      8  C   UNL A   1      47.078  44.195  24.721  1.00  0.00     0.120 C 
ATOM      9  C   UNL A   1      46.493  44.978  25.877  1.00  0.00     0.024 C 
ATOM     10  C   UNL A   1      45.006  44.736  25.751  1.00  0.00     0.037 C 
BRANCH   7  11
ATOM     11  C   UNL A   1      46.394  41.995  23.692  1.00  0.00     0.223 C 
ATOM     12  O   UNL A   1      46.147  40.876  24.148  1.00  0.00    -0.275 OA
BRANCH  11  13
ATOM     13  C   UNL A   1      47.042  42.125  22.302  1.00  0.00     0.105 C 
BRANCH  13  14
ATOM     14  C   UNL A   1      46.169  41.743  21.091  1.00  0.00     0.053 C 
BRANCH  14  15
ATOM     15  C   UNL A   1      45.204  42.837  20.720  1.00  0.00     0.042 A 
ATOM     16  C   UNL A   1      46.982  44.633  20.724  1.00  0.00     0.046 C 
ATOM     17  C   UNL A   1      45.629  44.067  20.394  1.00  0.00    -0.030 A 
ATOM     18  C   UNL A   1      44.758  44.811  19.493  1.00  0.00     0.022 A 
ATOM     19  C   UNL A   1      43.759  42.478  20.610  1.00  0.00     0.339 A 
ATOM     20  C   UNL A   1      43.385  44.575  19.489  1.00  0.00     0.142 A 
ATOM     21  C   UNL A   1      45.306  45.658  18.535  1.00  0.00     0.024 A 
ATOM     22  O   UNL A   1      43.358  41.350  20.875  1.00  0.00    -0.246 OA
ATOM     23  O   UNL A   1      42.878  43.493  20.232  1.00  0.00    -0.422 OA
ATOM     24  C   UNL A   1      42.484  45.326  18.720  1.00  0.00     0.095 A 
ATOM     25  C   UNL A   1      44.451  46.376  17.703  1.00  0.00     0.025 A 
ATOM     26  C   UNL A   1      43.078  46.282  17.900  1.00  0.00     0.138 A 
ATOM     27  C   UNL A   1      44.666  47.390  16.753  1.00  0.00     0.001 A 
ATOM     28  O   UNL A   1      42.462  47.339  17.282  1.00  0.00    -0.461 OA
ATOM     29  C   UNL A   1      43.476  48.080  16.758  1.00  0.00     0.108 A 
ATOM     30  C   UNL A   1      45.926  48.067  16.368  1.00  0.00     0.040 C 
ATOM     31  C   UNL A   1      43.460  49.568  16.836  1.00  0.00     0.076 C 
ATOM     32  C   UNL A   1      46.059  49.351  17.207  1.00  0.00     0.005 C 
ATOM     33  C   UNL A   1      44.703  49.947  17.702  1.00  0.00     0.008 C 
ENDBRANCH  14  15
ENDBRANCH  13  14
ENDBRANCH  11  13
ENDBRANCH   7  11
ENDBRANCH   3   6
ENDBRANCH   1   2
BRANCH   1  34
ATOM     34  C   UNL A   1      41.725  40.310  26.502  1.00  0.00     0.023 C 
BRANCH  34  35
ATOM     35  C   UNL A   1      41.917  39.331  27.662  1.00  0.00     0.023 C 
BRANCH  35  36
ATOM     36  C   UNL A   1      43.213  38.532  27.578  1.00  0.00     0.116 C 
BRANCH  36  37
ATOM     37  N   UNL A   1      43.217  37.575  26.480  1.00  0.00    -0.352 N 
ATOM     38  C   UNL A   1      43.032  36.208  26.537  1.00  0.00     0.251 C 
ATOM     39  H   UNL A   1      43.369  37.951  25.583  1.00  0.00     0.163 HD
ATOM     40  O   UNL A   1      43.151  35.498  25.562  1.00  0.00    -0.269 OA
BRANCH  38  41
ATOM     41  C   UNL A   1      42.726  35.636  27.860  1.00  0.00     0.039 A 
ATOM     42  C   UNL A   1      43.733  34.966  28.559  1.00  0.00     0.014 A 
ATOM     43  C   UNL A   1      41.396  35.615  28.284  1.00  0.00     0.014 A 
ATOM     44  C   UNL A   1      43.378  34.115  29.590  1.00  0.00     0.010 A 
ATOM     45  C   UNL A   1      41.052  34.806  29.360  1.00  0.00     0.010 A 
ATOM     46  C   UNL A   1      42.034  34.014  29.969  1.00  0.00    -0.014 A 
BRANCH  46  47
ATOM     47  C   UNL A   1      41.745  33.110  31.084  1.00  0.00     0.031 A 
ATOM     48  C   UNL A   1      40.318  33.151  31.504  1.00  0.00     0.074 A 
ATOM     49  C   UNL A   1      42.423  31.965  31.283  1.00  0.00     0.049 A 
ATOM     50  N   UNL A   1      39.391  32.467  30.901  1.00  0.00    -0.248 NA
ATOM     51  C   UNL A   1      39.816  34.180  32.411  1.00  0.00     0.031 C 
ATOM     52  C   UNL A   1      42.967  31.115  30.218  1.00  0.00     0.029 A 
ATOM     53  N   UNL A   1      42.530  31.204  32.423  1.00  0.00    -0.354 N 
ATOM     54  C   UNL A   1      38.185  33.033  31.262  1.00  0.00     0.074 A 
ATOM     55  C   UNL A   1      38.494  34.071  32.223  1.00  0.00     0.031 C 
ATOM     56  C   UNL A   1      43.158  29.877  30.718  1.00  0.00     0.029 A 
ATOM     57  C   UNL A   1      42.912  29.895  32.155  1.00  0.00     0.049 A 
ATOM     58  H   UNL A   1      42.356  31.549  33.329  1.00  0.00     0.167 HD
ATOM     59  C   UNL A   1      37.000  32.656  30.722  1.00  0.00     0.037 A 
ATOM     60  C   UNL A   1      42.554  28.829  32.920  1.00  0.00     0.037 A 
ATOM     61  C   UNL A   1      37.046  31.593  29.765  1.00  0.00     0.049 A 
ATOM     62  C   UNL A   1      41.117  28.652  32.483  1.00  0.00     0.074 A 
ATOM     63  C   UNL A   1      37.108  31.483  28.394  1.00  0.00     0.029 A 
ATOM     64  N   UNL A   1      37.131  30.302  30.230  1.00  0.00    -0.354 N 
ATOM     65  N   UNL A   1      40.710  28.063  31.387  1.00  0.00    -0.248 NA
ATOM     66  C   UNL A   1      40.103  29.487  33.132  1.00  0.00     0.031 C 
ATOM     67  C   UNL A   1      37.669  30.193  28.138  1.00  0.00     0.029 A 
ATOM     68  C   UNL A   1      37.967  29.625  29.375  1.00  0.00     0.049 A 
ATOM     69  H   UNL A   1      36.680  29.933  31.025  1.00  0.00     0.167 HD
ATOM     70  C   UNL A   1      39.491  28.674  31.072  1.00  0.00     0.074 A 
ATOM     71  C   UNL A   1      39.149  29.494  32.212  1.00  0.00     0.031 C 
ATOM     72  C   UNL A   1      38.930  28.648  29.829  1.00  0.00     0.037 A 
BRANCH  59  73
ATOM     73  C   UNL A   1      35.707  33.211  31.144  1.00  0.00     0.064 A 
ATOM     74  C   UNL A   1      35.117  34.202  30.350  1.00  0.00     0.173 A 
ATOM     75  C   UNL A   1      35.122  32.901  32.374  1.00  0.00     0.173 A 
ATOM     76  F   UNL A   1      35.664  34.523  29.165  1.00  0.00    -0.203 F 
ATOM     77  C   UNL A   1      33.990  34.885  30.785  1.00  0.00     0.198 A 
ATOM     78  C   UNL A   1      33.990  33.587  32.808  1.00  0.00     0.198 A 
ATOM     79  F   UNL A   1      35.663  31.962  33.164  1.00  0.00    -0.203 F 
ATOM     80  F   UNL A   1      33.460  35.850  30.020  1.00  0.00    -0.200 F 
ATOM     81  C   UNL A   1      33.432  34.584  32.018  1.00  0.00     0.200 A 
ATOM     82  F   UNL A   1      33.448  33.299  33.999  1.00  0.00    -0.200 F 
ATOM     83  F   UNL A   1      32.359  35.261  32.448  1.00  0.00    -0.200 F 
ENDBRANCH  59  73
BRANCH  60  84
ATOM     84  C   UNL A   1      43.017  28.950  34.344  1.00  0.00     0.064 A 
ATOM     85  C   UNL A   1      44.095  28.130  34.752  1.00  0.00     0.173 A 
ATOM     86  C   UNL A   1      42.529  29.841  35.307  1.00  0.00     0.173 A 
ATOM     87  F   UNL A   1      44.553  27.165  33.938  1.00  0.00    -0.203 F 
ATOM     88  C   UNL A   1      44.738  28.304  35.977  1.00  0.00     0.198 A 
ATOM     89  C   UNL A   1      43.190  30.035  36.524  1.00  0.00     0.198 A 
ATOM     90  F   UNL A   1      41.422  30.560  35.091  1.00  0.00    -0.203 F 
ATOM     91  F   UNL A   1      45.795  27.541  36.293  1.00  0.00    -0.200 F 
ATOM     92  C   UNL A   1      44.308  29.285  36.848  1.00  0.00     0.200 A 
ATOM     93  F   UNL A   1      42.757  30.982  37.368  1.00  0.00    -0.200 F 
ATOM     94  F   UNL A   1      44.963  29.508  37.995  1.00  0.00    -0.200 F 
ENDBRANCH  60  84
BRANCH  72  95
ATOM     95  C   UNL A   1      39.566  27.725  28.852  1.00  0.00     0.064 A 
ATOM     96  C   UNL A   1      39.298  26.352  28.909  1.00  0.00     0.173 A 
ATOM     97  C   UNL A   1      40.397  28.196  27.824  1.00  0.00     0.173 A 
ATOM     98  F   UNL A   1      38.503  25.857  29.872  1.00  0.00    -0.203 F 
ATOM     99  C   UNL A   1      39.819  25.484  27.955  1.00  0.00     0.198 A 
ATOM    100  C   UNL A   1      40.895  27.329  26.857  1.00  0.00     0.198 A 
ATOM    101  F   UNL A   1      40.709  29.498  27.735  1.00  0.00    -0.203 F 
ATOM    102  F   UNL A   1      39.540  24.175  28.019  1.00  0.00    -0.200 F 
ATOM    103  C   UNL A   1      40.603  25.974  26.921  1.00  0.00     0.200 A 
ATOM    104  F   UNL A   1      41.640  27.807  25.850  1.00  0.00    -0.200 F 
ATOM    105  F   UNL A   1      41.070  25.144  25.979  1.00  0.00    -0.200 F 
ENDBRANCH  72  95
ENDBRANCH  46  47
ENDBRANCH  38  41
ENDBRANCH  36  37
ENDBRANCH  35  36
ENDBRANCH  34  35
ENDBRANCH   1  34
TORSDOF 15
ENDMDL
