MODEL 1
REMARK VINA RESULT:     -13.0      0.000      0.000
REMARK SMILES Cc1ccc(C)c(OCc2ccc(C(=O)NCCCCNC(=O)c3ccc(-c4c5nc(c(-c6c(F)c(F)c(F)c(F)c6F)c6ccc([nH]6)c(-c6c(F)c(F)c(F)c(F)c6F)c6nc(c(-c7c(F)c(F)c(F)c(F)c7F)c7ccc4[nH]7)C=C6)C=C5)cc3)cc2)c1C
REMARK SMILES IDX 18 1 17 2 16 3 14 4 15 5 13 7 10 8 11 9 88 10 12 11 87 12
REMARK SMILES IDX 9 13 8 14 7 15 1 16 2 17 3 18 89 19 4 20 90 21 5 22 6 23
REMARK SMILES IDX 19 24 20 25 21 26 22 27 23 29 24 30 25 31 86 32 26 33 85 34
REMARK SMILES IDX 27 35 28 36 29 37 79 38 30 39 84 40 78 41 80 42 31 43 83 44
REMARK SMILES IDX 77 45 76 46 32 48 64 49 44 50 63 51 45 52 48 53 62 54 81 55
REMARK SMILES IDX 46 56 47 57 61 59 82 60 49 61 33 62 34 63 42 64 35 65 36 66
REMARK SMILES IDX 40 67 43 68 37 69 38 70 41 71 39 72 65 73 66 74 74 75 67 76
REMARK SMILES IDX 68 77 72 78 75 79 69 80 70 81 73 82 71 83 50 84 51 85 59 86
REMARK SMILES IDX 52 87 53 88 57 89 60 90 54 91 55 92 58 93 56 94
REMARK H PARENT 16 6 21 28 80 47 48 58
REMARK Flexibility Score: inf
ROOT
ATOM      1  C   UNL A   1      31.675  30.883  26.206  1.00  0.00     0.023 C 
ENDROOT
BRANCH   1   2
ATOM      2  C   UNL A   1      32.009  29.938  27.362  1.00  0.00     0.116 C 
BRANCH   2   3
ATOM      3  N   UNL A   1      33.434  29.735  27.430  1.00  0.00    -0.352 N 
ATOM      4  C   UNL A   1      34.257  28.853  26.782  1.00  0.00     0.251 C 
ATOM      5  O   UNL A   1      35.431  28.833  27.159  1.00  0.00    -0.269 OA
ATOM      6  H   UNL A   1      33.898  30.337  28.053  1.00  0.00     0.163 HD
BRANCH   4   7
ATOM      7  C   UNL A   1      33.838  27.988  25.633  1.00  0.00     0.039 A 
ATOM      8  C   UNL A   1      33.335  26.017  23.628  1.00  0.00    -0.011 A 
ATOM      9  C   UNL A   1      33.216  25.726  24.989  1.00  0.00     0.008 A 
ATOM     10  C   UNL A   1      33.598  27.349  23.288  1.00  0.00     0.008 A 
ATOM     11  C   UNL A   1      33.472  26.684  25.971  1.00  0.00     0.014 A 
ATOM     12  C   UNL A   1      33.823  28.320  24.276  1.00  0.00     0.014 A 
BRANCH   8  13
ATOM     13  C   UNL A   1      33.397  24.955  22.537  1.00  0.00     0.265 C 
BRANCH  13  14
ATOM     14  O   UNL A   1      34.410  23.951  22.535  1.00  0.00    -0.488 OA
BRANCH  14  15
ATOM     15  C   UNL A   1      34.311  22.851  23.340  1.00  0.00     0.125 A 
ATOM     16  C   UNL A   1      36.893  20.817  25.326  1.00  0.00     0.045 C 
ATOM     17  C   UNL A   1      35.613  21.282  24.689  1.00  0.00    -0.044 A 
ATOM     18  C   UNL A   1      34.458  20.509  24.848  1.00  0.00     0.004 A 
ATOM     19  C   UNL A   1      35.538  22.476  23.945  1.00  0.00    -0.006 A 
ATOM     20  C   UNL A   1      33.236  20.933  24.326  1.00  0.00     0.007 A 
ATOM     21  C   UNL A   1      36.750  23.353  23.728  1.00  0.00     0.049 C 
ATOM     22  C   UNL A   1      33.132  22.129  23.599  1.00  0.00    -0.009 A 
ATOM     23  C   UNL A   1      31.772  22.524  23.097  1.00  0.00     0.048 C 
ENDBRANCH  14  15
ENDBRANCH  13  14
ENDBRANCH   8  13
ENDBRANCH   4   7
ENDBRANCH   2   3
ENDBRANCH   1   2
BRANCH   1  24
ATOM     24  C   UNL A   1      31.415  32.326  26.646  1.00  0.00     0.023 C 
BRANCH  24  25
ATOM     25  C   UNL A   1      32.550  32.949  27.445  1.00  0.00     0.116 C 
BRANCH  25  26
ATOM     26  N   UNL A   1      32.322  34.351  27.756  1.00  0.00    -0.352 N 
ATOM     27  C   UNL A   1      32.971  35.135  28.673  1.00  0.00     0.251 C 
ATOM     28  H   UNL A   1      31.610  34.794  27.242  1.00  0.00     0.163 HD
ATOM     29  O   UNL A   1      32.587  36.276  28.904  1.00  0.00    -0.269 OA
BRANCH  27  30
ATOM     30  C   UNL A   1      34.111  34.567  29.412  1.00  0.00     0.039 A 
ATOM     31  C   UNL A   1      33.871  33.980  30.654  1.00  0.00     0.014 A 
ATOM     32  C   UNL A   1      35.396  34.582  28.863  1.00  0.00     0.014 A 
ATOM     33  C   UNL A   1      34.919  33.362  31.330  1.00  0.00     0.010 A 
ATOM     34  C   UNL A   1      36.423  33.899  29.502  1.00  0.00     0.010 A 
ATOM     35  C   UNL A   1      36.195  33.294  30.746  1.00  0.00    -0.014 A 
BRANCH  35  36
ATOM     36  C   UNL A   1      37.301  32.595  31.440  1.00  0.00     0.031 A 
ATOM     37  C   UNL A   1      37.995  31.440  30.777  1.00  0.00     0.074 A 
ATOM     38  C   UNL A   1      37.654  32.986  32.677  1.00  0.00     0.049 A 
ATOM     39  N   UNL A   1      38.992  30.713  31.213  1.00  0.00    -0.248 NA
ATOM     40  C   UNL A   1      37.484  31.024  29.461  1.00  0.00     0.031 C 
ATOM     41  C   UNL A   1      37.006  34.053  33.443  1.00  0.00     0.029 A 
ATOM     42  N   UNL A   1      38.646  32.534  33.510  1.00  0.00    -0.354 N 
ATOM     43  C   UNL A   1      39.222  29.759  30.232  1.00  0.00     0.074 A 
ATOM     44  C   UNL A   1      38.221  29.953  29.207  1.00  0.00     0.031 C 
ATOM     45  C   UNL A   1      37.640  34.198  34.617  1.00  0.00     0.029 A 
ATOM     46  C   UNL A   1      38.718  33.218  34.699  1.00  0.00     0.049 A 
ATOM     47  H   UNL A   1      39.248  31.791  33.278  1.00  0.00     0.167 HD
ATOM     48  C   UNL A   1      40.199  28.824  30.178  1.00  0.00     0.037 A 
ATOM     49  C   UNL A   1      39.567  33.071  35.733  1.00  0.00     0.037 A 
ATOM     50  C   UNL A   1      41.204  28.652  31.194  1.00  0.00     0.049 A 
ATOM     51  C   UNL A   1      40.652  32.033  35.642  1.00  0.00     0.074 A 
ATOM     52  C   UNL A   1      42.275  27.776  31.210  1.00  0.00     0.029 A 
ATOM     53  N   UNL A   1      41.258  29.373  32.379  1.00  0.00    -0.354 N 
ATOM     54  N   UNL A   1      40.914  31.192  34.670  1.00  0.00    -0.248 NA
ATOM     55  C   UNL A   1      41.568  31.935  36.785  1.00  0.00     0.031 C 
ATOM     56  C   UNL A   1      42.950  27.935  32.426  1.00  0.00     0.029 A 
ATOM     57  C   UNL A   1      42.332  28.947  33.144  1.00  0.00     0.049 A 
ATOM     58  H   UNL A   1      40.627  30.083  32.638  1.00  0.00     0.167 HD
ATOM     59  C   UNL A   1      42.038  30.484  35.072  1.00  0.00     0.074 A 
ATOM     60  C   UNL A   1      42.421  31.010  36.366  1.00  0.00     0.031 C 
ATOM     61  C   UNL A   1      42.695  29.487  34.430  1.00  0.00     0.037 A 
BRANCH  48  62
ATOM     62  C   UNL A   1      40.232  27.923  28.978  1.00  0.00     0.064 A 
ATOM     63  C   UNL A   1      40.942  28.269  27.817  1.00  0.00     0.173 A 
ATOM     64  C   UNL A   1      39.570  26.687  28.996  1.00  0.00     0.173 A 
ATOM     65  F   UNL A   1      41.581  29.446  27.742  1.00  0.00    -0.203 F 
ATOM     66  C   UNL A   1      40.961  27.424  26.709  1.00  0.00     0.198 A 
ATOM     67  C   UNL A   1      39.618  25.831  27.899  1.00  0.00     0.198 A 
ATOM     68  F   UNL A   1      38.879  26.305  30.081  1.00  0.00    -0.203 F 
ATOM     69  F   UNL A   1      41.602  27.801  25.594  1.00  0.00    -0.200 F 
ATOM     70  C   UNL A   1      40.307  26.203  26.754  1.00  0.00     0.200 A 
ATOM     71  F   UNL A   1      38.995  24.645  27.948  1.00  0.00    -0.200 F 
ATOM     72  F   UNL A   1      40.333  25.389  25.690  1.00  0.00    -0.200 F 
ENDBRANCH  48  62
BRANCH  49  73
ATOM     73  C   UNL A   1      39.449  33.954  36.922  1.00  0.00     0.064 A 
ATOM     74  C   UNL A   1      38.736  33.543  38.056  1.00  0.00     0.173 A 
ATOM     75  C   UNL A   1      40.043  35.224  36.949  1.00  0.00     0.173 A 
ATOM     76  F   UNL A   1      38.135  32.344  38.072  1.00  0.00    -0.203 F 
ATOM     77  C   UNL A   1      38.599  34.378  39.163  1.00  0.00     0.198 A 
ATOM     78  C   UNL A   1      39.932  36.047  38.069  1.00  0.00     0.198 A 
ATOM     79  F   UNL A   1      40.745  35.661  35.893  1.00  0.00    -0.203 F 
ATOM     80  F   UNL A   1      37.872  33.979  40.215  1.00  0.00    -0.200 F 
ATOM     81  C   UNL A   1      39.203  35.627  39.171  1.00  0.00     0.200 A 
ATOM     82  F   UNL A   1      40.529  37.245  38.078  1.00  0.00    -0.200 F 
ATOM     83  F   UNL A   1      39.075  36.428  40.237  1.00  0.00    -0.200 F 
ENDBRANCH  49  73
BRANCH  61  84
ATOM     84  C   UNL A   1      43.912  28.924  35.106  1.00  0.00     0.064 A 
ATOM     85  C   UNL A   1      45.204  29.365  34.783  1.00  0.00     0.173 A 
ATOM     86  C   UNL A   1      43.780  27.950  36.108  1.00  0.00     0.173 A 
ATOM     87  F   UNL A   1      45.383  30.284  33.823  1.00  0.00    -0.203 F 
ATOM     88  C   UNL A   1      46.322  28.825  35.414  1.00  0.00     0.198 A 
ATOM     89  C   UNL A   1      44.898  27.437  36.760  1.00  0.00     0.198 A 
ATOM     90  F   UNL A   1      42.566  27.501  36.459  1.00  0.00    -0.203 F 
ATOM     91  F   UNL A   1      47.550  29.219  35.049  1.00  0.00    -0.200 F 
ATOM     92  C   UNL A   1      46.167  27.867  36.405  1.00  0.00     0.200 A 
ATOM     93  F   UNL A   1      44.746  26.524  37.728  1.00  0.00    -0.200 F 
ATOM     94  F   UNL A   1      47.245  27.352  37.014  1.00  0.00    -0.200 F 
ENDBRANCH  61  84
ENDBRANCH  35  36
ENDBRANCH  27  30
ENDBRANCH  25  26
ENDBRANCH  24  25
ENDBRANCH   1  24
TORSDOF 14
ENDMDL
MODEL 2
REMARK VINA RESULT:     -13.0      1.547      7.599
REMARK SMILES Cc1ccc(C)c(OCc2ccc(C(=O)NCCCCNC(=O)c3ccc(-c4c5nc(c(-c6c(F)c(F)c(F)c(F)c6F)c6ccc([nH]6)c(-c6c(F)c(F)c(F)c(F)c6F)c6nc(c(-c7c(F)c(F)c(F)c(F)c7F)c7ccc4[nH]7)C=C6)C=C5)cc3)cc2)c1C
REMARK SMILES IDX 18 1 17 2 16 3 14 4 15 5 13 7 10 8 11 9 88 10 12 11 87 12
REMARK SMILES IDX 9 13 8 14 7 15 1 16 2 17 3 18 89 19 4 20 90 21 5 22 6 23
REMARK SMILES IDX 19 24 20 25 21 26 22 27 23 29 24 30 25 31 86 32 26 33 85 34
REMARK SMILES IDX 27 35 28 36 29 37 79 38 30 39 84 40 78 41 80 42 31 43 83 44
REMARK SMILES IDX 77 45 76 46 32 48 64 49 44 50 63 51 45 52 48 53 62 54 81 55
REMARK SMILES IDX 46 56 47 57 61 59 82 60 49 61 33 62 34 63 42 64 35 65 36 66
REMARK SMILES IDX 40 67 43 68 37 69 38 70 41 71 39 72 65 73 66 74 74 75 67 76
REMARK SMILES IDX 68 77 72 78 75 79 69 80 70 81 73 82 71 83 50 84 51 85 59 86
REMARK SMILES IDX 52 87 53 88 57 89 60 90 54 91 55 92 58 93 56 94
REMARK H PARENT 16 6 21 28 80 47 48 58
REMARK Flexibility Score: inf
ROOT
ATOM      1  C   UNL A   1      31.699  30.418  26.644  1.00  0.00     0.023 C 
ENDROOT
BRANCH   1   2
ATOM      2  C   UNL A   1      31.954  29.739  25.297  1.00  0.00     0.116 C 
BRANCH   2   3
ATOM      3  N   UNL A   1      30.853  29.998  24.404  1.00  0.00    -0.352 N 
ATOM      4  C   UNL A   1      30.255  29.220  23.449  1.00  0.00     0.251 C 
ATOM      5  O   UNL A   1      29.410  29.779  22.747  1.00  0.00    -0.269 OA
ATOM      6  H   UNL A   1      30.460  30.896  24.497  1.00  0.00     0.163 HD
BRANCH   4   7
ATOM      7  C   UNL A   1      30.515  27.757  23.263  1.00  0.00     0.039 A 
ATOM      8  C   UNL A   1      31.066  24.956  23.375  1.00  0.00    -0.011 A 
ATOM      9  C   UNL A   1      30.074  25.541  24.166  1.00  0.00     0.008 A 
ATOM     10  C   UNL A   1      31.698  25.784  22.441  1.00  0.00     0.008 A 
ATOM     11  C   UNL A   1      29.810  26.911  24.120  1.00  0.00     0.014 A 
ATOM     12  C   UNL A   1      31.410  27.155  22.373  1.00  0.00     0.014 A 
BRANCH   8  13
ATOM     13  C   UNL A   1      31.622  23.557  23.614  1.00  0.00     0.265 C 
BRANCH  13  14
ATOM     14  O   UNL A   1      32.226  23.200  24.855  1.00  0.00    -0.488 OA
BRANCH  14  15
ATOM     15  C   UNL A   1      33.584  23.208  25.004  1.00  0.00     0.125 A 
ATOM     16  C   UNL A   1      36.247  20.442  24.919  1.00  0.00     0.045 C 
ATOM     17  C   UNL A   1      35.561  21.771  25.071  1.00  0.00    -0.044 A 
ATOM     18  C   UNL A   1      36.314  22.879  25.475  1.00  0.00     0.004 A 
ATOM     19  C   UNL A   1      34.187  21.937  24.814  1.00  0.00    -0.006 A 
ATOM     20  C   UNL A   1      35.732  24.143  25.571  1.00  0.00     0.007 A 
ATOM     21  C   UNL A   1      33.314  20.781  24.383  1.00  0.00     0.049 C 
ATOM     22  C   UNL A   1      34.369  24.337  25.299  1.00  0.00    -0.009 A 
ATOM     23  C   UNL A   1      33.831  25.737  25.400  1.00  0.00     0.048 C 
ENDBRANCH  14  15
ENDBRANCH  13  14
ENDBRANCH   8  13
ENDBRANCH   4   7
ENDBRANCH   2   3
ENDBRANCH   1   2
BRANCH   1  24
ATOM     24  C   UNL A   1      31.598  31.943  26.555  1.00  0.00     0.023 C 
BRANCH  24  25
ATOM     25  C   UNL A   1      32.797  32.683  27.126  1.00  0.00     0.116 C 
BRANCH  25  26
ATOM     26  N   UNL A   1      32.470  34.024  27.586  1.00  0.00    -0.352 N 
ATOM     27  C   UNL A   1      33.068  34.752  28.580  1.00  0.00     0.251 C 
ATOM     28  H   UNL A   1      31.722  34.466  27.124  1.00  0.00     0.163 HD
ATOM     29  O   UNL A   1      32.604  35.830  28.933  1.00  0.00    -0.269 OA
BRANCH  27  30
ATOM     30  C   UNL A   1      34.254  34.194  29.253  1.00  0.00     0.039 A 
ATOM     31  C   UNL A   1      34.062  33.295  30.301  1.00  0.00     0.014 A 
ATOM     32  C   UNL A   1      35.541  34.529  28.823  1.00  0.00     0.014 A 
ATOM     33  C   UNL A   1      35.167  32.691  30.893  1.00  0.00     0.010 A 
ATOM     34  C   UNL A   1      36.638  33.869  29.362  1.00  0.00     0.010 A 
ATOM     35  C   UNL A   1      36.460  32.953  30.409  1.00  0.00    -0.014 A 
BRANCH  35  36
ATOM     36  C   UNL A   1      37.635  32.276  31.004  1.00  0.00     0.031 A 
ATOM     37  C   UNL A   1      38.111  32.659  32.376  1.00  0.00     0.074 A 
ATOM     38  C   UNL A   1      38.287  31.339  30.291  1.00  0.00     0.049 A 
ATOM     39  N   UNL A   1      39.106  32.171  33.071  1.00  0.00    -0.248 NA
ATOM     40  C   UNL A   1      37.393  33.754  33.046  1.00  0.00     0.031 C 
ATOM     41  C   UNL A   1      37.952  30.935  28.923  1.00  0.00     0.029 A 
ATOM     42  N   UNL A   1      39.364  30.556  30.616  1.00  0.00    -0.354 N 
ATOM     43  C   UNL A   1      39.135  32.901  34.252  1.00  0.00     0.074 A 
ATOM     44  C   UNL A   1      38.101  33.908  34.154  1.00  0.00     0.031 C 
ATOM     45  C   UNL A   1      38.783  29.953  28.540  1.00  0.00     0.029 A 
ATOM     46  C   UNL A   1      39.725  29.680  29.621  1.00  0.00     0.049 A 
ATOM     47  H   UNL A   1      39.834  30.616  31.478  1.00  0.00     0.167 HD
ATOM     48  C   UNL A   1      39.932  32.726  35.332  1.00  0.00     0.037 A 
ATOM     49  C   UNL A   1      40.703  28.755  29.593  1.00  0.00     0.037 A 
ATOM     50  C   UNL A   1      40.943  31.707  35.428  1.00  0.00     0.049 A 
ATOM     51  C   UNL A   1      41.566  28.573  30.812  1.00  0.00     0.074 A 
ATOM     52  C   UNL A   1      41.766  31.404  36.498  1.00  0.00     0.029 A 
ATOM     53  N   UNL A   1      41.272  30.825  34.407  1.00  0.00    -0.354 N 
ATOM     54  N   UNL A   1      41.528  29.211  31.957  1.00  0.00    -0.248 NA
ATOM     55  C   UNL A   1      42.598  27.531  30.739  1.00  0.00     0.031 C 
ATOM     56  C   UNL A   1      42.625  30.369  36.109  1.00  0.00     0.029 A 
ATOM     57  C   UNL A   1      42.301  29.991  34.816  1.00  0.00     0.049 A 
ATOM     58  H   UNL A   1      40.839  30.796  33.524  1.00  0.00     0.167 HD
ATOM     59  C   UNL A   1      42.510  28.631  32.749  1.00  0.00     0.074 A 
ATOM     60  C   UNL A   1      43.112  27.576  31.960  1.00  0.00     0.031 C 
ATOM     61  C   UNL A   1      42.884  28.945  34.014  1.00  0.00     0.037 A 
BRANCH  48  62
ATOM     62  C   UNL A   1      39.734  33.652  36.497  1.00  0.00     0.064 A 
ATOM     63  C   UNL A   1      38.893  33.315  37.569  1.00  0.00     0.173 A 
ATOM     64  C   UNL A   1      40.413  34.877  36.558  1.00  0.00     0.173 A 
ATOM     65  F   UNL A   1      38.209  32.162  37.555  1.00  0.00    -0.203 F 
ATOM     66  C   UNL A   1      38.717  34.185  38.643  1.00  0.00     0.198 A 
ATOM     67  C   UNL A   1      40.260  35.729  37.648  1.00  0.00     0.198 A 
ATOM     68  F   UNL A   1      41.232  35.247  35.561  1.00  0.00    -0.203 F 
ATOM     69  F   UNL A   1      37.868  33.864  39.630  1.00  0.00    -0.200 F 
ATOM     70  C   UNL A   1      39.406  35.387  38.686  1.00  0.00     0.200 A 
ATOM     71  F   UNL A   1      40.936  36.886  37.693  1.00  0.00    -0.200 F 
ATOM     72  F   UNL A   1      39.240  36.219  39.723  1.00  0.00    -0.200 F 
ENDBRANCH  48  62
BRANCH  49  73
ATOM     73  C   UNL A   1      40.889  27.907  28.388  1.00  0.00     0.064 A 
ATOM     74  C   UNL A   1      41.709  28.327  27.332  1.00  0.00     0.173 A 
ATOM     75  C   UNL A   1      40.252  26.663  28.265  1.00  0.00     0.173 A 
ATOM     76  F   UNL A   1      42.326  29.516  27.395  1.00  0.00    -0.203 F 
ATOM     77  C   UNL A   1      41.866  27.547  26.188  1.00  0.00     0.198 A 
ATOM     78  C   UNL A   1      40.434  25.870  27.134  1.00  0.00     0.198 A 
ATOM     79  F   UNL A   1      39.465  26.211  29.252  1.00  0.00    -0.203 F 
ATOM     80  F   UNL A   1      42.618  27.995  25.173  1.00  0.00    -0.200 F 
ATOM     81  C   UNL A   1      41.232  26.317  26.092  1.00  0.00     0.200 A 
ATOM     82  F   UNL A   1      39.833  24.676  27.052  1.00  0.00    -0.200 F 
ATOM     83  F   UNL A   1      41.386  25.566  24.994  1.00  0.00    -0.200 F 
ENDBRANCH  49  73
BRANCH  61  84
ATOM     84  C   UNL A   1      43.972  28.116  34.630  1.00  0.00     0.064 A 
ATOM     85  C   UNL A   1      45.320  28.502  34.564  1.00  0.00     0.173 A 
ATOM     86  C   UNL A   1      43.661  26.933  35.318  1.00  0.00     0.173 A 
ATOM     87  F   UNL A   1      45.671  29.617  33.906  1.00  0.00    -0.203 F 
ATOM     88  C   UNL A   1      46.318  27.715  35.133  1.00  0.00     0.198 A 
ATOM     89  C   UNL A   1      44.658  26.167  35.914  1.00  0.00     0.198 A 
ATOM     90  F   UNL A   1      42.387  26.524  35.417  1.00  0.00    -0.203 F 
ATOM     91  F   UNL A   1      47.603  28.073  35.007  1.00  0.00    -0.200 F 
ATOM     92  C   UNL A   1      45.985  26.553  35.812  1.00  0.00     0.200 A 
ATOM     93  F   UNL A   1      44.334  25.053  36.584  1.00  0.00    -0.200 F 
ATOM     94  F   UNL A   1      46.948  25.799  36.363  1.00  0.00    -0.200 F 
ENDBRANCH  61  84
ENDBRANCH  35  36
ENDBRANCH  27  30
ENDBRANCH  25  26
ENDBRANCH  24  25
ENDBRANCH   1  24
TORSDOF 14
ENDMDL
MODEL 3
REMARK VINA RESULT:     -12.9      0.958      7.498
REMARK SMILES Cc1ccc(C)c(OCc2ccc(C(=O)NCCCCNC(=O)c3ccc(-c4c5nc(c(-c6c(F)c(F)c(F)c(F)c6F)c6ccc([nH]6)c(-c6c(F)c(F)c(F)c(F)c6F)c6nc(c(-c7c(F)c(F)c(F)c(F)c7F)c7ccc4[nH]7)C=C6)C=C5)cc3)cc2)c1C
REMARK SMILES IDX 18 1 17 2 16 3 14 4 15 5 13 7 10 8 11 9 88 10 12 11 87 12
REMARK SMILES IDX 9 13 8 14 7 15 1 16 2 17 3 18 89 19 4 20 90 21 5 22 6 23
REMARK SMILES IDX 19 24 20 25 21 26 22 27 23 29 24 30 25 31 86 32 26 33 85 34
REMARK SMILES IDX 27 35 28 36 29 37 79 38 30 39 84 40 78 41 80 42 31 43 83 44
REMARK SMILES IDX 77 45 76 46 32 48 64 49 44 50 63 51 45 52 48 53 62 54 81 55
REMARK SMILES IDX 46 56 47 57 61 59 82 60 49 61 33 62 34 63 42 64 35 65 36 66
REMARK SMILES IDX 40 67 43 68 37 69 38 70 41 71 39 72 65 73 66 74 74 75 67 76
REMARK SMILES IDX 68 77 72 78 75 79 69 80 70 81 73 82 71 83 50 84 51 85 59 86
REMARK SMILES IDX 52 87 53 88 57 89 60 90 54 91 55 92 58 93 56 94
REMARK H PARENT 16 6 21 28 80 47 48 58
REMARK Flexibility Score: inf
ROOT
ATOM      1  C   UNL A   1      31.737  30.963  25.806  1.00  0.00     0.023 C 
ENDROOT
BRANCH   1   2
ATOM      2  C   UNL A   1      32.871  30.156  26.442  1.00  0.00     0.116 C 
BRANCH   2   3
ATOM      3  N   UNL A   1      32.334  29.248  27.424  1.00  0.00    -0.352 N 
ATOM      4  C   UNL A   1      31.992  27.925  27.345  1.00  0.00     0.251 C 
ATOM      5  O   UNL A   1      31.424  27.453  28.333  1.00  0.00    -0.269 OA
ATOM      6  H   UNL A   1      32.186  29.651  28.309  1.00  0.00     0.163 HD
BRANCH   4   7
ATOM      7  C   UNL A   1      32.320  27.031  26.189  1.00  0.00     0.039 A 
ATOM      8  C   UNL A   1      33.327  25.600  23.931  1.00  0.00    -0.011 A 
ATOM      9  C   UNL A   1      34.118  25.846  25.055  1.00  0.00     0.008 A 
ATOM     10  C   UNL A   1      31.983  25.984  24.008  1.00  0.00     0.008 A 
ATOM     11  C   UNL A   1      33.631  26.555  26.156  1.00  0.00     0.014 A 
ATOM     12  C   UNL A   1      31.486  26.667  25.128  1.00  0.00     0.014 A 
BRANCH   8  13
ATOM     13  C   UNL A   1      33.883  25.137  22.590  1.00  0.00     0.265 C 
BRANCH  13  14
ATOM     14  O   UNL A   1      33.945  23.754  22.249  1.00  0.00    -0.488 OA
BRANCH  14  15
ATOM     15  C   UNL A   1      34.271  22.813  23.185  1.00  0.00     0.125 A 
ATOM     16  C   UNL A   1      32.209  20.206  25.109  1.00  0.00     0.045 C 
ATOM     17  C   UNL A   1      33.338  21.076  24.631  1.00  0.00    -0.044 A 
ATOM     18  C   UNL A   1      34.588  20.965  25.250  1.00  0.00     0.004 A 
ATOM     19  C   UNL A   1      33.179  21.995  23.575  1.00  0.00    -0.006 A 
ATOM     20  C   UNL A   1      35.678  21.709  24.800  1.00  0.00     0.007 A 
ATOM     21  C   UNL A   1      31.855  22.171  22.870  1.00  0.00     0.049 C 
ATOM     22  C   UNL A   1      35.550  22.614  23.736  1.00  0.00    -0.009 A 
ATOM     23  C   UNL A   1      36.783  23.354  23.297  1.00  0.00     0.048 C 
ENDBRANCH  14  15
ENDBRANCH  13  14
ENDBRANCH   8  13
ENDBRANCH   4   7
ENDBRANCH   2   3
ENDBRANCH   1   2
BRANCH   1  24
ATOM     24  C   UNL A   1      31.393  32.246  26.566  1.00  0.00     0.023 C 
BRANCH  24  25
ATOM     25  C   UNL A   1      32.576  32.889  27.274  1.00  0.00     0.116 C 
BRANCH  25  26
ATOM     26  N   UNL A   1      32.312  34.257  27.693  1.00  0.00    -0.352 N 
ATOM     27  C   UNL A   1      32.967  34.997  28.641  1.00  0.00     0.251 C 
ATOM     28  H   UNL A   1      31.566  34.708  27.237  1.00  0.00     0.163 HD
ATOM     29  O   UNL A   1      32.553  36.104  28.967  1.00  0.00    -0.269 OA
BRANCH  27  30
ATOM     30  C   UNL A   1      34.153  34.420  29.298  1.00  0.00     0.039 A 
ATOM     31  C   UNL A   1      33.966  33.632  30.433  1.00  0.00     0.014 A 
ATOM     32  C   UNL A   1      35.431  34.628  28.772  1.00  0.00     0.014 A 
ATOM     33  C   UNL A   1      35.064  33.008  31.018  1.00  0.00     0.010 A 
ATOM     34  C   UNL A   1      36.513  33.944  29.310  1.00  0.00     0.010 A 
ATOM     35  C   UNL A   1      36.340  33.138  30.444  1.00  0.00    -0.014 A 
BRANCH  35  36
ATOM     36  C   UNL A   1      37.503  32.436  31.035  1.00  0.00     0.031 A 
ATOM     37  C   UNL A   1      37.986  32.804  32.408  1.00  0.00     0.074 A 
ATOM     38  C   UNL A   1      38.137  31.492  30.317  1.00  0.00     0.049 A 
ATOM     39  N   UNL A   1      38.972  32.296  33.101  1.00  0.00    -0.248 NA
ATOM     40  C   UNL A   1      37.288  33.910  33.084  1.00  0.00     0.031 C 
ATOM     41  C   UNL A   1      37.794  31.100  28.948  1.00  0.00     0.029 A 
ATOM     42  N   UNL A   1      39.199  30.687  30.638  1.00  0.00    -0.354 N 
ATOM     43  C   UNL A   1      39.015  33.019  34.285  1.00  0.00     0.074 A 
ATOM     44  C   UNL A   1      37.999  34.045  34.193  1.00  0.00     0.031 C 
ATOM     45  C   UNL A   1      38.607  30.105  28.560  1.00  0.00     0.029 A 
ATOM     46  C   UNL A   1      39.544  29.809  29.639  1.00  0.00     0.049 A 
ATOM     47  H   UNL A   1      39.671  30.734  31.500  1.00  0.00     0.167 HD
ATOM     48  C   UNL A   1      39.809  32.824  35.364  1.00  0.00     0.037 A 
ATOM     49  C   UNL A   1      40.505  28.867  29.607  1.00  0.00     0.037 A 
ATOM     50  C   UNL A   1      40.802  31.787  35.455  1.00  0.00     0.049 A 
ATOM     51  C   UNL A   1      41.366  28.663  30.824  1.00  0.00     0.074 A 
ATOM     52  C   UNL A   1      41.619  31.464  36.523  1.00  0.00     0.029 A 
ATOM     53  N   UNL A   1      41.114  30.904  34.430  1.00  0.00    -0.354 N 
ATOM     54  N   UNL A   1      41.340  29.297  31.972  1.00  0.00    -0.248 NA
ATOM     55  C   UNL A   1      42.378  27.603  30.745  1.00  0.00     0.031 C 
ATOM     56  C   UNL A   1      42.459  30.416  36.129  1.00  0.00     0.029 A 
ATOM     57  C   UNL A   1      42.128  30.049  34.834  1.00  0.00     0.049 A 
ATOM     58  H   UNL A   1      40.680  30.887  33.547  1.00  0.00     0.167 HD
ATOM     59  C   UNL A   1      42.311  28.696  32.760  1.00  0.00     0.074 A 
ATOM     60  C   UNL A   1      42.893  27.634  31.966  1.00  0.00     0.031 C 
ATOM     61  C   UNL A   1      42.691  28.997  34.027  1.00  0.00     0.037 A 
BRANCH  48  62
ATOM     62  C   UNL A   1      39.628  33.748  36.534  1.00  0.00     0.064 A 
ATOM     63  C   UNL A   1      38.819  33.402  37.626  1.00  0.00     0.173 A 
ATOM     64  C   UNL A   1      40.294  34.982  36.577  1.00  0.00     0.173 A 
ATOM     65  F   UNL A   1      38.148  32.240  37.629  1.00  0.00    -0.203 F 
ATOM     66  C   UNL A   1      38.658  34.270  38.704  1.00  0.00     0.198 A 
ATOM     67  C   UNL A   1      40.157  35.833  37.670  1.00  0.00     0.198 A 
ATOM     68  F   UNL A   1      41.083  35.362  35.560  1.00  0.00    -0.203 F 
ATOM     69  F   UNL A   1      37.838  33.939  39.712  1.00  0.00    -0.200 F 
ATOM     70  C   UNL A   1      39.333  35.480  38.729  1.00  0.00     0.200 A 
ATOM     71  F   UNL A   1      40.819  36.998  37.699  1.00  0.00    -0.200 F 
ATOM     72  F   UNL A   1      39.183  36.311  39.770  1.00  0.00    -0.200 F 
ENDBRANCH  48  62
BRANCH  49  73
ATOM     73  C   UNL A   1      40.675  28.021  28.397  1.00  0.00     0.064 A 
ATOM     74  C   UNL A   1      40.047  26.772  28.298  1.00  0.00     0.173 A 
ATOM     75  C   UNL A   1      41.467  28.440  27.319  1.00  0.00     0.173 A 
ATOM     76  F   UNL A   1      39.293  26.319  29.311  1.00  0.00    -0.203 F 
ATOM     77  C   UNL A   1      40.225  25.963  27.178  1.00  0.00     0.198 A 
ATOM     78  C   UNL A   1      41.620  27.644  26.185  1.00  0.00     0.198 A 
ATOM     79  F   UNL A   1      42.082  29.631  27.359  1.00  0.00    -0.203 F 
ATOM     80  F   UNL A   1      39.651  24.753  27.131  1.00  0.00    -0.200 F 
ATOM     81  C   UNL A   1      41.007  26.402  26.120  1.00  0.00     0.200 A 
ATOM     82  F   UNL A   1      42.363  28.078  25.159  1.00  0.00    -0.200 F 
ATOM     83  F   UNL A   1      41.174  25.626  25.041  1.00  0.00    -0.200 F 
ENDBRANCH  49  73
BRANCH  61  84
ATOM     84  C   UNL A   1      43.765  28.145  34.639  1.00  0.00     0.064 A 
ATOM     85  C   UNL A   1      43.461  26.961  35.328  1.00  0.00     0.173 A 
ATOM     86  C   UNL A   1      45.115  28.504  34.511  1.00  0.00     0.173 A 
ATOM     87  F   UNL A   1      42.185  26.581  35.489  1.00  0.00    -0.203 F 
ATOM     88  C   UNL A   1      44.469  26.187  35.898  1.00  0.00     0.198 A 
ATOM     89  C   UNL A   1      46.122  27.710  35.053  1.00  0.00     0.198 A 
ATOM     90  F   UNL A   1      45.458  29.622  33.854  1.00  0.00    -0.203 F 
ATOM     91  F   UNL A   1      44.153  25.091  36.602  1.00  0.00    -0.200 F 
ATOM     92  C   UNL A   1      45.797  26.559  35.754  1.00  0.00     0.200 A 
ATOM     93  F   UNL A   1      47.405  28.062  34.900  1.00  0.00    -0.200 F 
ATOM     94  F   UNL A   1      46.767  25.811  36.300  1.00  0.00    -0.200 F 
ENDBRANCH  61  84
ENDBRANCH  35  36
ENDBRANCH  27  30
ENDBRANCH  25  26
ENDBRANCH  24  25
ENDBRANCH   1  24
TORSDOF 14
ENDMDL
