MODEL 1
REMARK VINA RESULT:     -12.0      0.000      0.000
REMARK SMILES CC(C)CCNC(=O)[C@@H](C)Oc1ccc(N)cc1C(=O)NCCCCNC(=O)c1ccc(-c2c3nc(c(-c4c(F)c(F)c(F)c(F)c4F)c4ccc([nH]4)c(-c4c(F)c(F)c(F)c(F)c4F)c4nc(c(-c5c(F)c(F)c(F)c(F)c5F)c5ccc2[nH]5)C=C4)C=C3)cc1
REMARK SMILES IDX 19 1 20 2 21 3 18 5 12 6 13 7 14 8 17 9 15 10 11 11 9 12
REMARK SMILES IDX 10 13 7 14 6 15 8 17 5 18 4 19 2 20 1 21 3 22 16 23 22 26
REMARK SMILES IDX 23 27 24 28 25 29 26 30 27 31 28 33 29 34 30 35 91 36 31 37
REMARK SMILES IDX 90 38 32 39 33 40 34 41 84 42 35 43 89 44 83 45 85 46 36 47
REMARK SMILES IDX 88 48 82 49 81 50 37 52 69 53 49 54 68 55 50 56 53 57 67 58
REMARK SMILES IDX 86 59 51 60 52 61 66 63 87 64 54 65 38 66 39 67 47 68 40 69
REMARK SMILES IDX 41 70 45 71 48 72 42 73 43 74 46 75 44 76 70 77 71 78 79 79
REMARK SMILES IDX 72 80 73 81 77 82 80 83 74 84 75 85 78 86 76 87 55 88 56 89
REMARK SMILES IDX 64 90 57 91 58 92 62 93 65 94 59 95 60 96 63 97 61 98
REMARK H PARENT 21 4 6 16 16 24 16 25 26 32 85 51 53 62
REMARK Flexibility Score: inf
ROOT
ATOM      1  C   UNL A   1      33.670  28.157  24.563  1.00  0.00     0.255 C 
ATOM      2  O   UNL A   1      34.066  28.172  23.392  1.00  0.00    -0.269 OA
ATOM      3  N   UNL A   1      33.739  29.368  25.193  1.00  0.00    -0.352 N 
ATOM      4  H   UNL A   1      33.855  30.116  24.564  1.00  0.00     0.163 HD
ENDROOT
BRANCH   1   5
ATOM      5  C   UNL A   1      33.084  26.886  25.096  1.00  0.00     0.083 A 
ATOM      6  C   UNL A   1      31.747  26.516  25.281  1.00  0.00     0.133 A 
ATOM      7  C   UNL A   1      31.434  25.171  25.526  1.00  0.00     0.049 A 
ATOM      8  C   UNL A   1      32.435  24.246  25.838  1.00  0.00     0.029 A 
ATOM      9  C   UNL A   1      34.070  25.935  25.458  1.00  0.00     0.043 A 
ATOM     10  C   UNL A   1      33.760  24.652  25.909  1.00  0.00     0.032 A 
BRANCH   6  11
ATOM     11  O   UNL A   1      30.704  27.380  25.175  1.00  0.00    -0.480 OA
BRANCH  11  12
ATOM     12  C   UNL A   1      29.981  27.420  23.940  1.00  0.00     0.258 C 
ATOM     13  C   UNL A   1      28.735  26.525  23.921  1.00  0.00     0.064 C 
BRANCH  12  14
ATOM     14  C   UNL A   1      30.684  27.523  22.556  1.00  0.00     0.260 C 
ATOM     15  N   UNL A   1      30.826  28.705  21.891  1.00  0.00    -0.353 N 
ATOM     16  H   UNL A   1      31.499  28.711  21.173  1.00  0.00     0.163 HD
ATOM     17  O   UNL A   1      31.172  26.519  22.026  1.00  0.00    -0.271 OA
BRANCH  15  18
ATOM     18  C   UNL A   1      30.123  29.952  22.099  1.00  0.00     0.116 C 
BRANCH  18  19
ATOM     19  C   UNL A   1      28.614  29.843  21.944  1.00  0.00     0.024 C 
BRANCH  19  20
ATOM     20  C   UNL A   1      27.841  31.138  22.252  1.00  0.00    -0.016 C 
ATOM     21  C   UNL A   1      27.477  31.274  23.736  1.00  0.00     0.007 C 
ATOM     22  C   UNL A   1      28.693  32.336  21.828  1.00  0.00     0.007 C 
ENDBRANCH  19  20
ENDBRANCH  18  19
ENDBRANCH  15  18
ENDBRANCH  12  14
ENDBRANCH  11  12
ENDBRANCH   6  11
BRANCH  10  23
ATOM     23  N   UNL A   1      34.763  23.774  26.277  1.00  0.00    -0.399 N 
ATOM     24  H   UNL A   1      35.389  24.015  26.997  1.00  0.00     0.156 HD
ATOM     25  H   UNL A   1      34.851  22.907  25.818  1.00  0.00     0.156 HD
ENDBRANCH  10  23
ENDBRANCH   1   5
BRANCH   3  26
ATOM     26  C   UNL A   1      33.682  29.805  26.570  1.00  0.00     0.116 C 
BRANCH  26  27
ATOM     27  C   UNL A   1      32.225  30.126  26.925  1.00  0.00     0.023 C 
BRANCH  27  28
ATOM     28  C   UNL A   1      31.869  31.605  26.858  1.00  0.00     0.023 C 
BRANCH  28  29
ATOM     29  C   UNL A   1      32.916  32.516  27.471  1.00  0.00     0.116 C 
BRANCH  29  30
ATOM     30  N   UNL A   1      32.473  33.892  27.662  1.00  0.00    -0.352 N 
ATOM     31  C   UNL A   1      33.005  34.825  28.524  1.00  0.00     0.251 C 
ATOM     32  H   UNL A   1      31.709  34.187  27.115  1.00  0.00     0.163 HD
ATOM     33  O   UNL A   1      32.519  35.942  28.646  1.00  0.00    -0.269 OA
BRANCH  31  34
ATOM     34  C   UNL A   1      34.152  34.409  29.349  1.00  0.00     0.039 A 
ATOM     35  C   UNL A   1      33.914  33.677  30.512  1.00  0.00     0.014 A 
ATOM     36  C   UNL A   1      35.450  34.592  28.865  1.00  0.00     0.014 A 
ATOM     37  C   UNL A   1      34.982  33.042  31.145  1.00  0.00     0.010 A 
ATOM     38  C   UNL A   1      36.491  33.877  29.437  1.00  0.00     0.010 A 
ATOM     39  C   UNL A   1      36.268  33.092  30.580  1.00  0.00    -0.014 A 
BRANCH  39  40
ATOM     40  C   UNL A   1      37.400  32.334  31.165  1.00  0.00     0.031 A 
ATOM     41  C   UNL A   1      37.892  32.683  32.541  1.00  0.00     0.074 A 
ATOM     42  C   UNL A   1      38.041  31.405  30.428  1.00  0.00     0.049 A 
ATOM     43  N   UNL A   1      38.928  32.222  33.192  1.00  0.00    -0.248 NA
ATOM     44  C   UNL A   1      37.144  33.726  33.263  1.00  0.00     0.031 C 
ATOM     45  C   UNL A   1      37.707  31.032  29.052  1.00  0.00     0.029 A 
ATOM     46  N   UNL A   1      39.118  30.611  30.734  1.00  0.00    -0.354 N 
ATOM     47  C   UNL A   1      38.976  32.942  34.377  1.00  0.00     0.074 A 
ATOM     48  C   UNL A   1      37.902  33.909  34.334  1.00  0.00     0.031 C 
ATOM     49  C   UNL A   1      38.540  30.061  28.644  1.00  0.00     0.029 A 
ATOM     50  C   UNL A   1      39.486  29.765  29.717  1.00  0.00     0.049 A 
ATOM     51  H   UNL A   1      39.582  30.644  31.601  1.00  0.00     0.167 HD
ATOM     52  C   UNL A   1      39.820  32.789  35.422  1.00  0.00     0.037 A 
ATOM     53  C   UNL A   1      40.474  28.852  29.659  1.00  0.00     0.037 A 
ATOM     54  C   UNL A   1      40.844  31.784  35.490  1.00  0.00     0.049 A 
ATOM     55  C   UNL A   1      41.360  28.659  30.860  1.00  0.00     0.074 A 
ATOM     56  C   UNL A   1      41.692  31.483  36.540  1.00  0.00     0.029 A 
ATOM     57  N   UNL A   1      41.150  30.904  34.461  1.00  0.00    -0.354 N 
ATOM     58  N   UNL A   1      41.348  29.293  32.007  1.00  0.00    -0.248 NA
ATOM     59  C   UNL A   1      42.392  27.617  30.761  1.00  0.00     0.031 C 
ATOM     60  C   UNL A   1      42.532  30.440  36.137  1.00  0.00     0.029 A 
ATOM     61  C   UNL A   1      42.182  30.066  34.848  1.00  0.00     0.049 A 
ATOM     62  H   UNL A   1      40.700  30.880  33.586  1.00  0.00     0.167 HD
ATOM     63  C   UNL A   1      42.349  28.713  32.774  1.00  0.00     0.074 A 
ATOM     64  C   UNL A   1      42.940  27.666  31.967  1.00  0.00     0.031 C 
ATOM     65  C   UNL A   1      42.745  29.022  34.033  1.00  0.00     0.037 A 
BRANCH  52  66
ATOM     66  C   UNL A   1      39.656  33.723  36.585  1.00  0.00     0.064 A 
ATOM     67  C   UNL A   1      40.285  34.978  36.613  1.00  0.00     0.173 A 
ATOM     68  C   UNL A   1      38.851  33.366  37.676  1.00  0.00     0.173 A 
ATOM     69  F   UNL A   1      41.079  35.358  35.601  1.00  0.00    -0.203 F 
ATOM     70  C   UNL A   1      40.138  35.828  37.706  1.00  0.00     0.198 A 
ATOM     71  C   UNL A   1      38.682  34.232  38.753  1.00  0.00     0.198 A 
ATOM     72  F   UNL A   1      38.227  32.179  37.697  1.00  0.00    -0.203 F 
ATOM     73  F   UNL A   1      40.792  36.996  37.736  1.00  0.00    -0.200 F 
ATOM     74  C   UNL A   1      39.332  35.457  38.772  1.00  0.00     0.200 A 
ATOM     75  F   UNL A   1      37.895  33.877  39.779  1.00  0.00    -0.200 F 
ATOM     76  F   UNL A   1      39.189  36.278  39.822  1.00  0.00    -0.200 F 
ENDBRANCH  52  66
BRANCH  53  77
ATOM     77  C   UNL A   1      40.650  28.021  28.441  1.00  0.00     0.064 A 
ATOM     78  C   UNL A   1      40.037  26.765  28.337  1.00  0.00     0.173 A 
ATOM     79  C   UNL A   1      41.428  28.459  27.360  1.00  0.00     0.173 A 
ATOM     80  F   UNL A   1      39.298  26.296  29.353  1.00  0.00    -0.203 F 
ATOM     81  C   UNL A   1      40.209  25.969  27.206  1.00  0.00     0.198 A 
ATOM     82  C   UNL A   1      41.581  27.673  26.219  1.00  0.00     0.198 A 
ATOM     83  F   UNL A   1      42.032  29.656  27.408  1.00  0.00    -0.203 F 
ATOM     84  F   UNL A   1      39.644  24.757  27.150  1.00  0.00    -0.200 F 
ATOM     85  C   UNL A   1      40.978  26.427  26.145  1.00  0.00     0.200 A 
ATOM     86  F   UNL A   1      42.315  28.122  25.191  1.00  0.00    -0.200 F 
ATOM     87  F   UNL A   1      41.141  25.663  25.057  1.00  0.00    -0.200 F 
ENDBRANCH  53  77
BRANCH  65  88
ATOM     88  C   UNL A   1      43.847  28.199  34.628  1.00  0.00     0.064 A 
ATOM     89  C   UNL A   1      45.174  28.653  34.643  1.00  0.00     0.173 A 
ATOM     90  C   UNL A   1      43.562  26.968  35.237  1.00  0.00     0.173 A 
ATOM     91  F   UNL A   1      45.495  29.817  34.060  1.00  0.00    -0.203 F 
ATOM     92  C   UNL A   1      46.180  27.892  35.232  1.00  0.00     0.198 A 
ATOM     93  C   UNL A   1      44.567  26.224  35.847  1.00  0.00     0.198 A 
ATOM     94  F   UNL A   1      42.307  26.496  35.253  1.00  0.00    -0.203 F 
ATOM     95  F   UNL A   1      47.448  28.327  35.204  1.00  0.00    -0.200 F 
ATOM     96  C   UNL A   1      45.874  26.684  35.840  1.00  0.00     0.200 A 
ATOM     97  F   UNL A   1      44.269  25.062  36.446  1.00  0.00    -0.200 F 
ATOM     98  F   UNL A   1      46.844  25.959  36.416  1.00  0.00    -0.200 F 
ENDBRANCH  65  88
ENDBRANCH  39  40
ENDBRANCH  31  34
ENDBRANCH  29  30
ENDBRANCH  28  29
ENDBRANCH  27  28
ENDBRANCH  26  27
ENDBRANCH   3  26
TORSDOF 18
ENDMDL
MODEL 2
REMARK VINA RESULT:     -12.0      0.694      7.266
REMARK SMILES CC(C)CCNC(=O)[C@@H](C)Oc1ccc(N)cc1C(=O)NCCCCNC(=O)c1ccc(-c2c3nc(c(-c4c(F)c(F)c(F)c(F)c4F)c4ccc([nH]4)c(-c4c(F)c(F)c(F)c(F)c4F)c4nc(c(-c5c(F)c(F)c(F)c(F)c5F)c5ccc2[nH]5)C=C4)C=C3)cc1
REMARK SMILES IDX 19 1 20 2 21 3 18 5 12 6 13 7 14 8 17 9 15 10 11 11 9 12
REMARK SMILES IDX 10 13 7 14 6 15 8 17 5 18 4 19 2 20 1 21 3 22 16 23 22 26
REMARK SMILES IDX 23 27 24 28 25 29 26 30 27 31 28 33 29 34 30 35 91 36 31 37
REMARK SMILES IDX 90 38 32 39 33 40 34 41 84 42 35 43 89 44 83 45 85 46 36 47
REMARK SMILES IDX 88 48 82 49 81 50 37 52 69 53 49 54 68 55 50 56 53 57 67 58
REMARK SMILES IDX 86 59 51 60 52 61 66 63 87 64 54 65 38 66 39 67 47 68 40 69
REMARK SMILES IDX 41 70 45 71 48 72 42 73 43 74 46 75 44 76 70 77 71 78 79 79
REMARK SMILES IDX 72 80 73 81 77 82 80 83 74 84 75 85 78 86 76 87 55 88 56 89
REMARK SMILES IDX 64 90 57 91 58 92 62 93 65 94 59 95 60 96 63 97 61 98
REMARK H PARENT 21 4 6 16 16 24 16 25 26 32 85 51 53 62
REMARK Flexibility Score: inf
ROOT
ATOM      1  C   UNL A   1      33.783  28.046  24.597  1.00  0.00     0.255 C 
ATOM      2  O   UNL A   1      34.025  28.171  23.391  1.00  0.00    -0.269 OA
ATOM      3  N   UNL A   1      33.891  29.205  25.314  1.00  0.00    -0.352 N 
ATOM      4  H   UNL A   1      33.901  30.005  24.740  1.00  0.00     0.163 HD
ENDROOT
BRANCH   1   5
ATOM      5  C   UNL A   1      33.311  26.712  25.089  1.00  0.00     0.083 A 
ATOM      6  C   UNL A   1      32.014  26.243  25.323  1.00  0.00     0.133 A 
ATOM      7  C   UNL A   1      31.802  24.869  25.510  1.00  0.00     0.049 A 
ATOM      8  C   UNL A   1      32.878  24.000  25.717  1.00  0.00     0.029 A 
ATOM      9  C   UNL A   1      34.376  25.813  25.346  1.00  0.00     0.043 A 
ATOM     10  C   UNL A   1      34.175  24.490  25.741  1.00  0.00     0.032 A 
BRANCH   6  11
ATOM     11  O   UNL A   1      30.912  27.039  25.320  1.00  0.00    -0.480 OA
BRANCH  11  12
ATOM     12  C   UNL A   1      30.142  27.123  24.116  1.00  0.00     0.258 C 
ATOM     13  C   UNL A   1      28.959  26.146  24.066  1.00  0.00     0.064 C 
BRANCH  12  14
ATOM     14  C   UNL A   1      30.784  27.382  22.723  1.00  0.00     0.260 C 
ATOM     15  N   UNL A   1      30.920  28.634  22.199  1.00  0.00    -0.353 N 
ATOM     16  H   UNL A   1      31.560  28.716  21.455  1.00  0.00     0.163 HD
ATOM     17  O   UNL A   1      31.226  26.442  22.053  1.00  0.00    -0.271 OA
BRANCH  15  18
ATOM     18  C   UNL A   1      30.254  29.856  22.588  1.00  0.00     0.116 C 
BRANCH  18  19
ATOM     19  C   UNL A   1      29.108  30.255  21.671  1.00  0.00     0.024 C 
BRANCH  19  20
ATOM     20  C   UNL A   1      27.748  30.418  22.374  1.00  0.00    -0.016 C 
ATOM     21  C   UNL A   1      27.249  29.115  23.011  1.00  0.00     0.007 C 
ATOM     22  C   UNL A   1      27.875  31.494  23.454  1.00  0.00     0.007 C 
ENDBRANCH  19  20
ENDBRANCH  18  19
ENDBRANCH  15  18
ENDBRANCH  12  14
ENDBRANCH  11  12
ENDBRANCH   6  11
BRANCH  10  23
ATOM     23  N   UNL A   1      35.253  23.665  26.007  1.00  0.00    -0.399 N 
ATOM     24  H   UNL A   1      35.468  23.420  26.935  1.00  0.00     0.156 HD
ATOM     25  H   UNL A   1      35.804  23.322  25.266  1.00  0.00     0.156 HD
ENDBRANCH  10  23
ENDBRANCH   1   5
BRANCH   3  26
ATOM     26  C   UNL A   1      33.996  29.527  26.719  1.00  0.00     0.116 C 
BRANCH  26  27
ATOM     27  C   UNL A   1      32.607  29.916  27.240  1.00  0.00     0.023 C 
BRANCH  27  28
ATOM     28  C   UNL A   1      32.212  31.361  26.967  1.00  0.00     0.023 C 
BRANCH  28  29
ATOM     29  C   UNL A   1      33.160  32.381  27.569  1.00  0.00     0.116 C 
BRANCH  29  30
ATOM     30  N   UNL A   1      32.607  33.726  27.669  1.00  0.00    -0.352 N 
ATOM     31  C   UNL A   1      33.042  34.746  28.485  1.00  0.00     0.251 C 
ATOM     32  H   UNL A   1      31.838  33.929  27.087  1.00  0.00     0.163 HD
ATOM     33  O   UNL A   1      32.467  35.827  28.530  1.00  0.00    -0.269 OA
BRANCH  31  34
ATOM     34  C   UNL A   1      34.195  34.469  29.359  1.00  0.00     0.039 A 
ATOM     35  C   UNL A   1      33.966  33.928  30.625  1.00  0.00     0.014 A 
ATOM     36  C   UNL A   1      35.489  34.579  28.845  1.00  0.00     0.014 A 
ATOM     37  C   UNL A   1      35.040  33.405  31.343  1.00  0.00     0.010 A 
ATOM     38  C   UNL A   1      36.537  33.968  29.517  1.00  0.00     0.010 A 
ATOM     39  C   UNL A   1      36.322  33.371  30.770  1.00  0.00    -0.014 A 
BRANCH  39  40
ATOM     40  C   UNL A   1      37.462  32.719  31.461  1.00  0.00     0.031 A 
ATOM     41  C   UNL A   1      38.170  31.572  30.798  1.00  0.00     0.074 A 
ATOM     42  C   UNL A   1      37.795  33.094  32.711  1.00  0.00     0.049 A 
ATOM     43  N   UNL A   1      39.114  30.798  31.269  1.00  0.00    -0.248 NA
ATOM     44  C   UNL A   1      37.724  31.218  29.440  1.00  0.00     0.031 C 
ATOM     45  C   UNL A   1      37.132  34.142  33.490  1.00  0.00     0.029 A 
ATOM     46  N   UNL A   1      38.772  32.625  33.553  1.00  0.00    -0.354 N 
ATOM     47  C   UNL A   1      39.345  29.849  30.283  1.00  0.00     0.074 A 
ATOM     48  C   UNL A   1      38.407  30.106  29.213  1.00  0.00     0.031 C 
ATOM     49  C   UNL A   1      37.741  34.258  34.682  1.00  0.00     0.029 A 
ATOM     50  C   UNL A   1      38.816  33.272  34.764  1.00  0.00     0.049 A 
ATOM     51  H   UNL A   1      39.385  31.893  33.312  1.00  0.00     0.167 HD
ATOM     52  C   UNL A   1      40.277  28.869  30.259  1.00  0.00     0.037 A 
ATOM     53  C   UNL A   1      39.633  33.091  35.818  1.00  0.00     0.037 A 
ATOM     54  C   UNL A   1      41.250  28.659  31.294  1.00  0.00     0.049 A 
ATOM     55  C   UNL A   1      40.703  32.036  35.740  1.00  0.00     0.074 A 
ATOM     56  C   UNL A   1      42.296  27.755  31.326  1.00  0.00     0.029 A 
ATOM     57  N   UNL A   1      41.300  29.374  32.482  1.00  0.00    -0.354 N 
ATOM     58  N   UNL A   1      40.963  31.193  34.770  1.00  0.00    -0.248 NA
ATOM     59  C   UNL A   1      41.598  31.912  36.899  1.00  0.00     0.031 C 
ATOM     60  C   UNL A   1      42.963  27.903  32.546  1.00  0.00     0.029 A 
ATOM     61  C   UNL A   1      42.355  28.925  33.259  1.00  0.00     0.049 A 
ATOM     62  H   UNL A   1      40.678  30.094  32.735  1.00  0.00     0.167 HD
ATOM     63  C   UNL A   1      42.063  30.457  35.189  1.00  0.00     0.074 A 
ATOM     64  C   UNL A   1      42.431  30.963  36.496  1.00  0.00     0.031 C 
ATOM     65  C   UNL A   1      42.709  29.452  34.551  1.00  0.00     0.037 A 
BRANCH  52  66
ATOM     66  C   UNL A   1      40.297  27.965  29.062  1.00  0.00     0.064 A 
ATOM     67  C   UNL A   1      39.581  26.758  29.043  1.00  0.00     0.173 A 
ATOM     68  C   UNL A   1      41.028  28.315  27.918  1.00  0.00     0.173 A 
ATOM     69  F   UNL A   1      38.881  26.370  30.120  1.00  0.00    -0.203 F 
ATOM     70  C   UNL A   1      39.622  25.919  27.932  1.00  0.00     0.198 A 
ATOM     71  C   UNL A   1      41.042  27.488  26.798  1.00  0.00     0.198 A 
ATOM     72  F   UNL A   1      41.727  29.458  27.885  1.00  0.00    -0.203 F 
ATOM     73  F   UNL A   1      38.977  24.745  27.958  1.00  0.00    -0.200 F 
ATOM     74  C   UNL A   1      40.347  26.287  26.809  1.00  0.00     0.200 A 
ATOM     75  F   UNL A   1      41.734  27.849  25.708  1.00  0.00    -0.200 F 
ATOM     76  F   UNL A   1      40.383  25.480  25.739  1.00  0.00    -0.200 F 
ENDBRANCH  52  66
BRANCH  53  77
ATOM     77  C   UNL A   1      39.502  33.956  37.019  1.00  0.00     0.064 A 
ATOM     78  C   UNL A   1      38.786  33.519  38.141  1.00  0.00     0.173 A 
ATOM     79  C   UNL A   1      40.086  35.229  37.072  1.00  0.00     0.173 A 
ATOM     80  F   UNL A   1      38.193  32.316  38.129  1.00  0.00    -0.203 F 
ATOM     81  C   UNL A   1      38.641  34.329  39.265  1.00  0.00     0.198 A 
ATOM     82  C   UNL A   1      39.961  36.030  38.206  1.00  0.00     0.198 A 
ATOM     83  F   UNL A   1      40.787  35.692  36.026  1.00  0.00    -0.203 F 
ATOM     84  F   UNL A   1      37.918  33.902  40.308  1.00  0.00    -0.200 F 
ATOM     85  C   UNL A   1      39.234  35.583  39.299  1.00  0.00     0.200 A 
ATOM     86  F   UNL A   1      40.545  37.236  38.240  1.00  0.00    -0.200 F 
ATOM     87  F   UNL A   1      39.098  36.361  40.380  1.00  0.00    -0.200 F 
ENDBRANCH  53  77
BRANCH  65  88
ATOM     88  C   UNL A   1      43.899  28.853  35.239  1.00  0.00     0.064 A 
ATOM     89  C   UNL A   1      45.191  29.359  35.041  1.00  0.00     0.173 A 
ATOM     90  C   UNL A   1      43.733  27.796  36.147  1.00  0.00     0.173 A 
ATOM     91  F   UNL A   1      45.398  30.359  34.172  1.00  0.00    -0.203 F 
ATOM     92  C   UNL A   1      46.280  28.814  35.716  1.00  0.00     0.198 A 
ATOM     93  C   UNL A   1      44.821  27.272  36.838  1.00  0.00     0.198 A 
ATOM     94  F   UNL A   1      42.515  27.283  36.373  1.00  0.00    -0.203 F 
ATOM     95  F   UNL A   1      47.512  29.289  35.486  1.00  0.00    -0.200 F 
ATOM     96  C   UNL A   1      46.093  27.778  36.619  1.00  0.00     0.200 A 
ATOM     97  F   UNL A   1      44.639  26.279  37.720  1.00  0.00    -0.200 F 
ATOM     98  F   UNL A   1      47.142  27.263  37.275  1.00  0.00    -0.200 F 
ENDBRANCH  65  88
ENDBRANCH  39  40
ENDBRANCH  31  34
ENDBRANCH  29  30
ENDBRANCH  28  29
ENDBRANCH  27  28
ENDBRANCH  26  27
ENDBRANCH   3  26
TORSDOF 18
ENDMDL
MODEL 3
REMARK VINA RESULT:     -11.9      0.300      1.959
REMARK SMILES CC(C)CCNC(=O)[C@@H](C)Oc1ccc(N)cc1C(=O)NCCCCNC(=O)c1ccc(-c2c3nc(c(-c4c(F)c(F)c(F)c(F)c4F)c4ccc([nH]4)c(-c4c(F)c(F)c(F)c(F)c4F)c4nc(c(-c5c(F)c(F)c(F)c(F)c5F)c5ccc2[nH]5)C=C4)C=C3)cc1
REMARK SMILES IDX 19 1 20 2 21 3 18 5 12 6 13 7 14 8 17 9 15 10 11 11 9 12
REMARK SMILES IDX 10 13 7 14 6 15 8 17 5 18 4 19 2 20 1 21 3 22 16 23 22 26
REMARK SMILES IDX 23 27 24 28 25 29 26 30 27 31 28 33 29 34 30 35 91 36 31 37
REMARK SMILES IDX 90 38 32 39 33 40 34 41 84 42 35 43 89 44 83 45 85 46 36 47
REMARK SMILES IDX 88 48 82 49 81 50 37 52 69 53 49 54 68 55 50 56 53 57 67 58
REMARK SMILES IDX 86 59 51 60 52 61 66 63 87 64 54 65 38 66 39 67 47 68 40 69
REMARK SMILES IDX 41 70 45 71 48 72 42 73 43 74 46 75 44 76 70 77 71 78 79 79
REMARK SMILES IDX 72 80 73 81 77 82 80 83 74 84 75 85 78 86 76 87 55 88 56 89
REMARK SMILES IDX 64 90 57 91 58 92 62 93 65 94 59 95 60 96 63 97 61 98
REMARK H PARENT 21 4 6 16 16 24 16 25 26 32 85 51 53 62
REMARK Flexibility Score: inf
ROOT
ATOM      1  C   UNL A   1      33.632  28.173  24.658  1.00  0.00     0.255 C 
ATOM      2  O   UNL A   1      33.957  28.322  23.474  1.00  0.00    -0.269 OA
ATOM      3  N   UNL A   1      33.663  29.322  25.396  1.00  0.00    -0.352 N 
ATOM      4  H   UNL A   1      33.696  30.131  24.836  1.00  0.00     0.163 HD
ENDROOT
BRANCH   1   5
ATOM      5  C   UNL A   1      33.156  26.821  25.095  1.00  0.00     0.083 A 
ATOM      6  C   UNL A   1      31.856  26.331  25.258  1.00  0.00     0.133 A 
ATOM      7  C   UNL A   1      31.654  24.951  25.402  1.00  0.00     0.049 A 
ATOM      8  C   UNL A   1      32.731  24.090  25.639  1.00  0.00     0.029 A 
ATOM      9  C   UNL A   1      34.220  25.930  25.380  1.00  0.00     0.043 A 
ATOM     10  C   UNL A   1      34.019  24.595  25.734  1.00  0.00     0.032 A 
BRANCH   6  11
ATOM     11  O   UNL A   1      30.745  27.113  25.223  1.00  0.00    -0.480 OA
BRANCH  11  12
ATOM     12  C   UNL A   1      30.039  27.231  23.983  1.00  0.00     0.258 C 
ATOM     13  C   UNL A   1      28.813  26.314  23.876  1.00  0.00     0.064 C 
BRANCH  12  14
ATOM     14  C   UNL A   1      30.761  27.453  22.623  1.00  0.00     0.260 C 
ATOM     15  N   UNL A   1      30.966  28.693  22.095  1.00  0.00    -0.353 N 
ATOM     16  H   UNL A   1      31.646  28.746  21.385  1.00  0.00     0.163 HD
ATOM     17  O   UNL A   1      31.205  26.491  21.985  1.00  0.00    -0.271 OA
BRANCH  15  18
ATOM     18  C   UNL A   1      30.323  29.942  22.438  1.00  0.00     0.116 C 
BRANCH  18  19
ATOM     19  C   UNL A   1      29.080  30.243  21.615  1.00  0.00     0.024 C 
BRANCH  19  20
ATOM     20  C   UNL A   1      27.827  30.583  22.442  1.00  0.00    -0.016 C 
ATOM     21  C   UNL A   1      27.215  29.355  23.126  1.00  0.00     0.007 C 
ATOM     22  C   UNL A   1      28.202  31.620  23.504  1.00  0.00     0.007 C 
ENDBRANCH  19  20
ENDBRANCH  18  19
ENDBRANCH  15  18
ENDBRANCH  12  14
ENDBRANCH  11  12
ENDBRANCH   6  11
BRANCH  10  23
ATOM     23  N   UNL A   1      35.094  23.777  26.030  1.00  0.00    -0.399 N 
ATOM     24  H   UNL A   1      35.099  23.253  26.862  1.00  0.00     0.156 HD
ATOM     25  H   UNL A   1      35.854  23.718  25.406  1.00  0.00     0.156 HD
ENDBRANCH  10  23
ENDBRANCH   1   5
BRANCH   3  26
ATOM     26  C   UNL A   1      33.659  29.625  26.810  1.00  0.00     0.116 C 
BRANCH  26  27
ATOM     27  C   UNL A   1      32.260  30.112  27.206  1.00  0.00     0.023 C 
BRANCH  27  28
ATOM     28  C   UNL A   1      31.981  31.571  26.871  1.00  0.00     0.023 C 
BRANCH  28  29
ATOM     29  C   UNL A   1      33.041  32.531  27.376  1.00  0.00     0.116 C 
BRANCH  29  30
ATOM     30  N   UNL A   1      32.554  33.882  27.625  1.00  0.00    -0.352 N 
ATOM     31  C   UNL A   1      33.049  34.789  28.534  1.00  0.00     0.251 C 
ATOM     32  H   UNL A   1      31.787  34.179  27.083  1.00  0.00     0.163 HD
ATOM     33  O   UNL A   1      32.528  35.885  28.703  1.00  0.00    -0.269 OA
BRANCH  31  34
ATOM     34  C   UNL A   1      34.200  34.371  29.352  1.00  0.00     0.039 A 
ATOM     35  C   UNL A   1      33.965  33.697  30.551  1.00  0.00     0.014 A 
ATOM     36  C   UNL A   1      35.492  34.489  28.833  1.00  0.00     0.014 A 
ATOM     37  C   UNL A   1      35.025  33.054  31.188  1.00  0.00     0.010 A 
ATOM     38  C   UNL A   1      36.522  33.765  29.414  1.00  0.00     0.010 A 
ATOM     39  C   UNL A   1      36.299  33.037  30.593  1.00  0.00    -0.014 A 
BRANCH  39  40
ATOM     40  C   UNL A   1      37.419  32.267  31.186  1.00  0.00     0.031 A 
ATOM     41  C   UNL A   1      37.890  32.597  32.574  1.00  0.00     0.074 A 
ATOM     42  C   UNL A   1      38.067  31.345  30.448  1.00  0.00     0.049 A 
ATOM     43  N   UNL A   1      38.915  32.122  33.236  1.00  0.00    -0.248 NA
ATOM     44  C   UNL A   1      37.136  33.633  33.298  1.00  0.00     0.031 C 
ATOM     45  C   UNL A   1      37.754  30.991  29.063  1.00  0.00     0.029 A 
ATOM     46  N   UNL A   1      39.136  30.542  30.761  1.00  0.00    -0.354 N 
ATOM     47  C   UNL A   1      38.947  32.828  34.431  1.00  0.00     0.074 A 
ATOM     48  C   UNL A   1      37.877  33.799  34.383  1.00  0.00     0.031 C 
ATOM     49  C   UNL A   1      38.589  30.021  28.655  1.00  0.00     0.029 A 
ATOM     50  C   UNL A   1      39.517  29.707  29.739  1.00  0.00     0.049 A 
ATOM     51  H   UNL A   1      39.587  30.562  31.636  1.00  0.00     0.167 HD
ATOM     52  C   UNL A   1      39.774  32.658  35.487  1.00  0.00     0.037 A 
ATOM     53  C   UNL A   1      40.502  28.791  29.685  1.00  0.00     0.037 A 
ATOM     54  C   UNL A   1      40.792  31.647  35.558  1.00  0.00     0.049 A 
ATOM     55  C   UNL A   1      41.368  28.579  30.897  1.00  0.00     0.074 A 
ATOM     56  C   UNL A   1      41.623  31.330  36.617  1.00  0.00     0.029 A 
ATOM     57  N   UNL A   1      41.111  30.779  34.523  1.00  0.00    -0.354 N 
ATOM     58  N   UNL A   1      41.341  29.199  32.051  1.00  0.00    -0.248 NA
ATOM     59  C   UNL A   1      42.398  27.534  30.801  1.00  0.00     0.031 C 
ATOM     60  C   UNL A   1      42.464  30.288  36.214  1.00  0.00     0.029 A 
ATOM     61  C   UNL A   1      42.133  29.932  34.915  1.00  0.00     0.049 A 
ATOM     62  H   UNL A   1      40.674  30.768  33.640  1.00  0.00     0.167 HD
ATOM     63  C   UNL A   1      42.327  28.605  32.827  1.00  0.00     0.074 A 
ATOM     64  C   UNL A   1      42.927  27.565  32.016  1.00  0.00     0.031 C 
ATOM     65  C   UNL A   1      42.705  28.896  34.095  1.00  0.00     0.037 A 
BRANCH  52  66
ATOM     66  C   UNL A   1      39.595  33.577  36.659  1.00  0.00     0.064 A 
ATOM     67  C   UNL A   1      38.773  33.234  37.743  1.00  0.00     0.173 A 
ATOM     68  C   UNL A   1      40.265  34.808  36.705  1.00  0.00     0.173 A 
ATOM     69  F   UNL A   1      38.097  32.074  37.738  1.00  0.00    -0.203 F 
ATOM     70  C   UNL A   1      38.603  34.104  38.817  1.00  0.00     0.198 A 
ATOM     71  C   UNL A   1      40.117  35.662  37.795  1.00  0.00     0.198 A 
ATOM     72  F   UNL A   1      41.064  35.183  35.696  1.00  0.00    -0.203 F 
ATOM     73  F   UNL A   1      37.769  33.779  39.814  1.00  0.00    -0.200 F 
ATOM     74  C   UNL A   1      39.279  35.314  38.845  1.00  0.00     0.200 A 
ATOM     75  F   UNL A   1      40.779  36.827  37.827  1.00  0.00    -0.200 F 
ATOM     76  F   UNL A   1      39.117  36.149  39.881  1.00  0.00    -0.200 F 
ENDBRANCH  52  66
BRANCH  53  77
ATOM     77  C   UNL A   1      40.694  27.975  28.459  1.00  0.00     0.064 A 
ATOM     78  C   UNL A   1      41.488  28.445  27.404  1.00  0.00     0.173 A 
ATOM     79  C   UNL A   1      40.093  26.717  28.314  1.00  0.00     0.173 A 
ATOM     80  F   UNL A   1      42.067  29.651  27.489  1.00  0.00    -0.203 F 
ATOM     81  C   UNL A   1      41.660  27.695  26.241  1.00  0.00     0.198 A 
ATOM     82  C   UNL A   1      40.285  25.957  27.161  1.00  0.00     0.198 A 
ATOM     83  F   UNL A   1      39.328  26.220  29.298  1.00  0.00    -0.203 F 
ATOM     84  F   UNL A   1      42.391  28.185  25.233  1.00  0.00    -0.200 F 
ATOM     85  C   UNL A   1      41.062  26.449  26.124  1.00  0.00     0.200 A 
ATOM     86  F   UNL A   1      39.715  24.748  27.055  1.00  0.00    -0.200 F 
ATOM     87  F   UNL A   1      41.229  25.727  25.008  1.00  0.00    -0.200 F 
ENDBRANCH  53  77
BRANCH  65  88
ATOM     88  C   UNL A   1      43.794  28.061  34.697  1.00  0.00     0.064 A 
ATOM     89  C   UNL A   1      43.511  26.873  35.385  1.00  0.00     0.173 A 
ATOM     90  C   UNL A   1      45.138  28.427  34.537  1.00  0.00     0.173 A 
ATOM     91  F   UNL A   1      42.239  26.490  35.575  1.00  0.00    -0.203 F 
ATOM     92  C   UNL A   1      44.536  26.089  35.907  1.00  0.00     0.198 A 
ATOM     93  C   UNL A   1      46.162  27.628  35.037  1.00  0.00     0.198 A 
ATOM     94  F   UNL A   1      45.459  29.553  33.880  1.00  0.00    -0.203 F 
ATOM     95  F   UNL A   1      44.243  24.975  36.592  1.00  0.00    -0.200 F 
ATOM     96  C   UNL A   1      45.860  26.464  35.725  1.00  0.00     0.200 A 
ATOM     97  F   UNL A   1      47.440  27.984  34.851  1.00  0.00    -0.200 F 
ATOM     98  F   UNL A   1      46.845  25.701  36.219  1.00  0.00    -0.200 F 
ENDBRANCH  65  88
ENDBRANCH  39  40
ENDBRANCH  31  34
ENDBRANCH  29  30
ENDBRANCH  28  29
ENDBRANCH  27  28
ENDBRANCH  26  27
ENDBRANCH   3  26
TORSDOF 18
ENDMDL
