MODEL 1
REMARK VINA RESULT:     -12.9      0.000      0.000
REMARK SMILES O=C(NCCCCNC(=O)c1ccccc1C(=O)OC[C@@H]1C[C@H]2CC[C@@H]1C2)c1ccc(-c2c3nc(c(-c4c(F)c(F)c(F)c(F)c4F)c4ccc([nH]4)c(-c4c(F)c(F)c(F)c(F)c4F)c4nc(c(-c5c(F)c(F)c(F)c(F)c5F)c5ccc2[nH]5)C=C4)C=C3)cc1
REMARK SMILES IDX 6 1 5 2 4 3 3 4 1 5 2 6 28 8 29 9 90 10 30 11 89 12 31 13
REMARK SMILES IDX 32 14 33 15 83 16 34 17 88 18 82 19 84 20 35 21 87 22 81 23
REMARK SMILES IDX 80 24 36 26 68 27 48 28 67 29 49 30 52 31 66 32 85 33 50 34
REMARK SMILES IDX 51 35 65 37 86 38 53 39 37 40 38 41 46 42 39 43 40 44 44 45
REMARK SMILES IDX 47 46 41 47 42 48 45 49 43 50 69 51 70 52 78 53 71 54 72 55
REMARK SMILES IDX 76 56 79 57 73 58 74 59 77 60 75 61 54 62 55 63 63 64 56 65
REMARK SMILES IDX 57 66 61 67 64 68 58 69 59 70 62 71 60 72 7 73 8 74 9 75
REMARK SMILES IDX 10 77 11 78 12 79 16 80 13 81 15 82 14 83 17 84 18 85 19 86
REMARK SMILES IDX 20 87 21 88 22 89 26 90 23 91 25 92 27 93 24 94
REMARK H PARENT 3 7 84 25 52 36 8 76
REMARK Flexibility Score: inf
ROOT
ATOM      1  C   UNL A   1      31.497  30.383  26.479  1.00  0.00     0.023 C 
ENDROOT
BRANCH   1   2
ATOM      2  C   UNL A   1      31.475  31.912  26.518  1.00  0.00     0.023 C 
BRANCH   2   3
ATOM      3  C   UNL A   1      32.613  32.573  27.289  1.00  0.00     0.116 C 
BRANCH   3   4
ATOM      4  N   UNL A   1      32.349  33.963  27.626  1.00  0.00    -0.352 N 
ATOM      5  O   UNL A   1      32.497  35.893  28.787  1.00  0.00    -0.269 OA
ATOM      6  C   UNL A   1      32.965  34.785  28.541  1.00  0.00     0.251 C 
ATOM      7  H   UNL A   1      31.615  34.381  27.120  1.00  0.00     0.163 HD
BRANCH   6   8
ATOM      8  C   UNL A   1      34.172  34.325  29.264  1.00  0.00     0.039 A 
ATOM      9  C   UNL A   1      35.448  34.547  28.746  1.00  0.00     0.014 A 
ATOM     10  C   UNL A   1      34.021  33.652  30.480  1.00  0.00     0.014 A 
ATOM     11  C   UNL A   1      36.547  33.930  29.335  1.00  0.00     0.010 A 
ATOM     12  C   UNL A   1      35.140  33.112  31.121  1.00  0.00     0.010 A 
ATOM     13  C   UNL A   1      36.406  33.195  30.524  1.00  0.00    -0.014 A 
BRANCH  13  14
ATOM     14  C   UNL A   1      37.595  32.521  31.110  1.00  0.00     0.031 A 
ATOM     15  C   UNL A   1      38.071  32.857  32.500  1.00  0.00     0.074 A 
ATOM     16  C   UNL A   1      38.224  31.561  30.404  1.00  0.00     0.049 A 
ATOM     17  N   UNL A   1      39.053  32.329  33.188  1.00  0.00    -0.248 NA
ATOM     18  C   UNL A   1      37.360  33.933  33.207  1.00  0.00     0.031 C 
ATOM     19  C   UNL A   1      37.869  31.151  29.044  1.00  0.00     0.029 A 
ATOM     20  N   UNL A   1      39.271  30.739  30.737  1.00  0.00    -0.354 N 
ATOM     21  C   UNL A   1      39.092  33.020  34.393  1.00  0.00     0.074 A 
ATOM     22  C   UNL A   1      38.053  34.026  34.333  1.00  0.00     0.031 C 
ATOM     23  C   UNL A   1      38.646  30.121  28.679  1.00  0.00     0.029 A 
ATOM     24  C   UNL A   1      39.588  29.832  29.756  1.00  0.00     0.049 A 
ATOM     25  H   UNL A   1      39.747  30.796  31.596  1.00  0.00     0.167 HD
ATOM     26  C   UNL A   1      39.912  32.828  35.455  1.00  0.00     0.037 A 
ATOM     27  C   UNL A   1      40.533  28.874  29.725  1.00  0.00     0.037 A 
ATOM     28  C   UNL A   1      40.925  31.806  35.529  1.00  0.00     0.049 A 
ATOM     29  C   UNL A   1      41.426  28.683  30.918  1.00  0.00     0.074 A 
ATOM     30  C   UNL A   1      41.773  31.504  36.581  1.00  0.00     0.029 A 
ATOM     31  N   UNL A   1      41.229  30.920  34.506  1.00  0.00    -0.354 N 
ATOM     32  N   UNL A   1      41.422  29.315  32.066  1.00  0.00    -0.248 NA
ATOM     33  C   UNL A   1      42.455  27.640  30.809  1.00  0.00     0.031 C 
ATOM     34  C   UNL A   1      42.619  30.464  36.180  1.00  0.00     0.029 A 
ATOM     35  C   UNL A   1      42.265  30.084  34.896  1.00  0.00     0.049 A 
ATOM     36  H   UNL A   1      40.777  30.889  33.632  1.00  0.00     0.167 HD
ATOM     37  C   UNL A   1      42.425  28.731  32.826  1.00  0.00     0.074 A 
ATOM     38  C   UNL A   1      43.008  27.683  32.013  1.00  0.00     0.031 C 
ATOM     39  C   UNL A   1      42.827  29.036  34.084  1.00  0.00     0.037 A 
BRANCH  26  40
ATOM     40  C   UNL A   1      39.763  33.754  36.629  1.00  0.00     0.064 A 
ATOM     41  C   UNL A   1      40.410  34.998  36.677  1.00  0.00     0.173 A 
ATOM     42  C   UNL A   1      38.924  33.411  37.701  1.00  0.00     0.173 A 
ATOM     43  F   UNL A   1      41.231  35.371  35.684  1.00  0.00    -0.203 F 
ATOM     44  C   UNL A   1      40.242  35.852  37.765  1.00  0.00     0.198 A 
ATOM     45  C   UNL A   1      38.737  34.279  38.773  1.00  0.00     0.198 A 
ATOM     46  F   UNL A   1      38.275  32.236  37.702  1.00  0.00    -0.203 F 
ATOM     47  F   UNL A   1      40.904  37.017  37.809  1.00  0.00    -0.200 F 
ATOM     48  C   UNL A   1      39.400  35.495  38.808  1.00  0.00     0.200 A 
ATOM     49  F   UNL A   1      37.913  33.937  39.774  1.00  0.00    -0.200 F 
ATOM     50  F   UNL A   1      39.235  36.321  39.850  1.00  0.00    -0.200 F 
ENDBRANCH  26  40
BRANCH  27  51
ATOM     51  C   UNL A   1      40.664  28.007  28.526  1.00  0.00     0.064 A 
ATOM     52  C   UNL A   1      40.015  26.767  28.460  1.00  0.00     0.173 A 
ATOM     53  C   UNL A   1      41.434  28.402  27.422  1.00  0.00     0.173 A 
ATOM     54  F   UNL A   1      39.283  26.338  29.500  1.00  0.00    -0.203 F 
ATOM     55  C   UNL A   1      40.143  25.948  27.342  1.00  0.00     0.198 A 
ATOM     56  C   UNL A   1      41.538  27.595  26.292  1.00  0.00     0.198 A 
ATOM     57  F   UNL A   1      42.071  29.582  27.435  1.00  0.00    -0.203 F 
ATOM     58  F   UNL A   1      39.545  24.749  27.320  1.00  0.00    -0.200 F 
ATOM     59  C   UNL A   1      40.898  26.365  26.256  1.00  0.00     0.200 A 
ATOM     60  F   UNL A   1      42.255  28.009  25.240  1.00  0.00    -0.200 F 
ATOM     61  F   UNL A   1      41.015  25.580  25.177  1.00  0.00    -0.200 F 
ENDBRANCH  27  51
BRANCH  39  62
ATOM     62  C   UNL A   1      43.920  28.195  34.675  1.00  0.00     0.064 A 
ATOM     63  C   UNL A   1      45.269  28.569  34.590  1.00  0.00     0.173 A 
ATOM     64  C   UNL A   1      43.609  27.005  35.352  1.00  0.00     0.173 A 
ATOM     65  F   UNL A   1      45.618  29.689  33.939  1.00  0.00    -0.203 F 
ATOM     66  C   UNL A   1      46.269  27.767  35.134  1.00  0.00     0.198 A 
ATOM     67  C   UNL A   1      44.609  26.222  35.920  1.00  0.00     0.198 A 
ATOM     68  F   UNL A   1      42.333  26.606  35.467  1.00  0.00    -0.203 F 
ATOM     69  F   UNL A   1      47.555  28.118  34.994  1.00  0.00    -0.200 F 
ATOM     70  C   UNL A   1      45.938  26.598  35.802  1.00  0.00     0.200 A 
ATOM     71  F   UNL A   1      44.286  25.098  36.576  1.00  0.00    -0.200 F 
ATOM     72  F   UNL A   1      46.903  25.828  36.325  1.00  0.00    -0.200 F 
ENDBRANCH  39  62
ENDBRANCH  13  14
ENDBRANCH   6   8
ENDBRANCH   3   4
ENDBRANCH   2   3
ENDBRANCH   1   2
BRANCH   1  73
ATOM     73  C   UNL A   1      32.864  29.748  26.238  1.00  0.00     0.116 C 
BRANCH  73  74
ATOM     74  N   UNL A   1      33.287  29.794  24.849  1.00  0.00    -0.352 N 
ATOM     75  C   UNL A   1      33.381  28.761  23.952  1.00  0.00     0.252 C 
ATOM     76  H   UNL A   1      33.540  30.683  24.508  1.00  0.00     0.163 HD
ATOM     77  O   UNL A   1      33.781  28.960  22.809  1.00  0.00    -0.269 OA
BRANCH  75  78
ATOM     78  C   UNL A   1      33.076  27.385  24.385  1.00  0.00     0.054 A 
ATOM     79  C   UNL A   1      33.996  26.802  25.271  1.00  0.00     0.015 A 
ATOM     80  C   UNL A   1      31.927  26.681  23.999  1.00  0.00     0.072 A 
ATOM     81  C   UNL A   1      33.744  25.545  25.817  1.00  0.00     0.001 A 
ATOM     82  C   UNL A   1      31.676  25.423  24.568  1.00  0.00     0.016 A 
ATOM     83  C   UNL A   1      32.578  24.860  25.476  1.00  0.00     0.001 A 
BRANCH  80  84
ATOM     84  C   UNL A   1      30.906  27.224  23.076  1.00  0.00     0.338 C 
ATOM     85  O   UNL A   1      30.956  27.054  21.866  1.00  0.00    -0.246 OA
BRANCH  84  86
ATOM     86  O   UNL A   1      29.933  27.874  23.751  1.00  0.00    -0.462 OA
BRANCH  86  87
ATOM     87  C   UNL A   1      28.814  28.333  22.969  1.00  0.00     0.237 C 
BRANCH  87  88
ATOM     88  C   UNL A   1      29.038  29.775  22.511  1.00  0.00     0.030 C 
ATOM     89  C   UNL A   1      29.712  30.652  23.595  1.00  0.00     0.011 C 
ATOM     90  C   UNL A   1      27.704  30.534  22.268  1.00  0.00    -0.004 C 
ATOM     91  C   UNL A   1      28.770  31.861  23.702  1.00  0.00    -0.010 C 
ATOM     92  C   UNL A   1      28.014  31.776  21.417  1.00  0.00     0.004 C 
ATOM     93  C   UNL A   1      27.408  31.176  23.626  1.00  0.00     0.007 C 
ATOM     94  C   UNL A   1      28.816  32.656  22.384  1.00  0.00     0.004 C 
ENDBRANCH  87  88
ENDBRANCH  86  87
ENDBRANCH  84  86
ENDBRANCH  80  84
ENDBRANCH  75  78
ENDBRANCH  73  74
ENDBRANCH   1  73
TORSDOF 15
ENDMDL
MODEL 2
REMARK VINA RESULT:     -12.8      3.093      5.326
REMARK SMILES O=C(NCCCCNC(=O)c1ccccc1C(=O)OC[C@@H]1C[C@H]2CC[C@@H]1C2)c1ccc(-c2c3nc(c(-c4c(F)c(F)c(F)c(F)c4F)c4ccc([nH]4)c(-c4c(F)c(F)c(F)c(F)c4F)c4nc(c(-c5c(F)c(F)c(F)c(F)c5F)c5ccc2[nH]5)C=C4)C=C3)cc1
REMARK SMILES IDX 6 1 5 2 4 3 3 4 1 5 2 6 28 8 29 9 90 10 30 11 89 12 31 13
REMARK SMILES IDX 32 14 33 15 83 16 34 17 88 18 82 19 84 20 35 21 87 22 81 23
REMARK SMILES IDX 80 24 36 26 68 27 48 28 67 29 49 30 52 31 66 32 85 33 50 34
REMARK SMILES IDX 51 35 65 37 86 38 53 39 37 40 38 41 46 42 39 43 40 44 44 45
REMARK SMILES IDX 47 46 41 47 42 48 45 49 43 50 69 51 70 52 78 53 71 54 72 55
REMARK SMILES IDX 76 56 79 57 73 58 74 59 77 60 75 61 54 62 55 63 63 64 56 65
REMARK SMILES IDX 57 66 61 67 64 68 58 69 59 70 62 71 60 72 7 73 8 74 9 75
REMARK SMILES IDX 10 77 11 78 12 79 16 80 13 81 15 82 14 83 17 84 18 85 19 86
REMARK SMILES IDX 20 87 21 88 22 89 26 90 23 91 25 92 27 93 24 94
REMARK H PARENT 3 7 84 25 52 36 8 76
REMARK Flexibility Score: inf
ROOT
ATOM      1  C   UNL A   1      32.450  27.150  26.457  1.00  0.00     0.023 C 
ENDROOT
BRANCH   1   2
ATOM      2  C   UNL A   1      31.857  28.500  26.051  1.00  0.00     0.023 C 
BRANCH   2   3
ATOM      3  C   UNL A   1      32.865  29.585  25.685  1.00  0.00     0.116 C 
BRANCH   3   4
ATOM      4  N   UNL A   1      32.522  30.893  26.220  1.00  0.00    -0.352 N 
ATOM      5  O   UNL A   1      32.642  32.685  27.589  1.00  0.00    -0.269 OA
ATOM      6  C   UNL A   1      33.172  31.666  27.155  1.00  0.00     0.251 C 
ATOM      7  H   UNL A   1      31.697  31.288  25.856  1.00  0.00     0.163 HD
BRANCH   6   8
ATOM      8  C   UNL A   1      34.495  31.253  27.675  1.00  0.00     0.039 A 
ATOM      9  C   UNL A   1      34.755  29.921  27.998  1.00  0.00     0.014 A 
ATOM     10  C   UNL A   1      35.490  32.219  27.847  1.00  0.00     0.014 A 
ATOM     11  C   UNL A   1      35.927  29.593  28.673  1.00  0.00     0.010 A 
ATOM     12  C   UNL A   1      36.707  31.868  28.441  1.00  0.00     0.010 A 
ATOM     13  C   UNL A   1      36.913  30.564  28.913  1.00  0.00    -0.014 A 
BRANCH  13  14
ATOM     14  C   UNL A   1      38.139  30.187  29.665  1.00  0.00     0.031 A 
ATOM     15  C   UNL A   1      38.348  30.642  31.087  1.00  0.00     0.074 A 
ATOM     16  C   UNL A   1      39.051  29.385  29.081  1.00  0.00     0.049 A 
ATOM     17  N   UNL A   1      39.329  30.361  31.910  1.00  0.00    -0.248 NA
ATOM     18  C   UNL A   1      37.331  31.537  31.658  1.00  0.00     0.031 C 
ATOM     19  C   UNL A   1      38.972  28.886  27.707  1.00  0.00     0.029 A 
ATOM     20  N   UNL A   1      40.205  28.828  29.572  1.00  0.00    -0.354 N 
ATOM     21  C   UNL A   1      39.059  31.060  33.080  1.00  0.00     0.074 A 
ATOM     22  C   UNL A   1      37.837  31.801  32.854  1.00  0.00     0.031 C 
ATOM     23  C   UNL A   1      40.000  28.055  27.482  1.00  0.00     0.029 A 
ATOM     24  C   UNL A   1      40.838  28.004  28.676  1.00  0.00     0.049 A 
ATOM     25  H   UNL A   1      40.545  29.004  30.479  1.00  0.00     0.167 HD
ATOM     26  C   UNL A   1      39.760  31.074  34.240  1.00  0.00     0.037 A 
ATOM     27  C   UNL A   1      41.971  27.286  28.798  1.00  0.00     0.037 A 
ATOM     28  C   UNL A   1      40.960  30.312  34.478  1.00  0.00     0.049 A 
ATOM     29  C   UNL A   1      42.726  27.320  30.097  1.00  0.00     0.074 A 
ATOM     30  C   UNL A   1      41.713  30.225  35.636  1.00  0.00     0.029 A 
ATOM     31  N   UNL A   1      41.581  29.504  33.538  1.00  0.00    -0.354 N 
ATOM     32  N   UNL A   1      42.436  27.951  31.208  1.00  0.00    -0.248 NA
ATOM     33  C   UNL A   1      43.968  26.538  30.156  1.00  0.00     0.031 C 
ATOM     34  C   UNL A   1      42.815  29.400  35.383  1.00  0.00     0.029 A 
ATOM     35  C   UNL A   1      42.720  28.931  34.083  1.00  0.00     0.049 A 
ATOM     36  H   UNL A   1      41.261  29.358  32.618  1.00  0.00     0.167 HD
ATOM     37  C   UNL A   1      43.440  27.621  32.106  1.00  0.00     0.074 A 
ATOM     38  C   UNL A   1      44.341  26.722  31.414  1.00  0.00     0.031 C 
ATOM     39  C   UNL A   1      43.601  28.028  33.390  1.00  0.00     0.037 A 
BRANCH  26  40
ATOM     40  C   UNL A   1      39.260  31.958  35.347  1.00  0.00     0.064 A 
ATOM     41  C   UNL A   1      38.444  31.466  36.376  1.00  0.00     0.173 A 
ATOM     42  C   UNL A   1      39.643  33.308  35.405  1.00  0.00     0.173 A 
ATOM     43  F   UNL A   1      38.040  30.187  36.365  1.00  0.00    -0.203 F 
ATOM     44  C   UNL A   1      38.008  32.297  37.406  1.00  0.00     0.198 A 
ATOM     45  C   UNL A   1      39.229  34.128  36.451  1.00  0.00     0.198 A 
ATOM     46  F   UNL A   1      40.430  33.828  34.450  1.00  0.00    -0.203 F 
ATOM     47  F   UNL A   1      37.193  31.815  38.355  1.00  0.00    -0.200 F 
ATOM     48  C   UNL A   1      38.407  33.625  37.446  1.00  0.00     0.200 A 
ATOM     49  F   UNL A   1      39.626  35.408  36.494  1.00  0.00    -0.200 F 
ATOM     50  F   UNL A   1      37.993  34.421  38.442  1.00  0.00    -0.200 F 
ENDBRANCH  26  40
BRANCH  27  51
ATOM     51  C   UNL A   1      42.444  26.455  27.662  1.00  0.00     0.064 A 
ATOM     52  C   UNL A   1      41.920  25.174  27.440  1.00  0.00     0.173 A 
ATOM     53  C   UNL A   1      43.420  26.925  26.772  1.00  0.00     0.173 A 
ATOM     54  F   UNL A   1      40.998  24.673  28.276  1.00  0.00    -0.203 F 
ATOM     55  C   UNL A   1      42.367  24.389  26.381  1.00  0.00     0.198 A 
ATOM     56  C   UNL A   1      43.846  26.151  25.696  1.00  0.00     0.198 A 
ATOM     57  F   UNL A   1      43.948  28.147  26.939  1.00  0.00    -0.203 F 
ATOM     58  F   UNL A   1      41.881  23.151  26.215  1.00  0.00    -0.200 F 
ATOM     59  C   UNL A   1      43.324  24.880  25.506  1.00  0.00     0.200 A 
ATOM     60  F   UNL A   1      44.758  26.636  24.844  1.00  0.00    -0.200 F 
ATOM     61  F   UNL A   1      43.750  24.127  24.482  1.00  0.00    -0.200 F 
ENDBRANCH  27  51
BRANCH  39  62
ATOM     62  C   UNL A   1      44.771  27.466  34.143  1.00  0.00     0.064 A 
ATOM     63  C   UNL A   1      46.010  28.122  34.180  1.00  0.00     0.173 A 
ATOM     64  C   UNL A   1      44.643  26.261  34.852  1.00  0.00     0.173 A 
ATOM     65  F   UNL A   1      46.187  29.268  33.505  1.00  0.00    -0.203 F 
ATOM     66  C   UNL A   1      47.087  27.577  34.874  1.00  0.00     0.198 A 
ATOM     67  C   UNL A   1      45.714  25.735  35.568  1.00  0.00     0.198 A 
ATOM     68  F   UNL A   1      43.477  25.597  34.852  1.00  0.00    -0.203 F 
ATOM     69  F   UNL A   1      48.276  28.195  34.852  1.00  0.00    -0.200 F 
ATOM     70  C   UNL A   1      46.937  26.388  35.571  1.00  0.00     0.200 A 
ATOM     71  F   UNL A   1      45.564  24.591  36.251  1.00  0.00    -0.200 F 
ATOM     72  F   UNL A   1      47.975  25.865  36.238  1.00  0.00    -0.200 F 
ENDBRANCH  39  62
ENDBRANCH  13  14
ENDBRANCH   6   8
ENDBRANCH   3   4
ENDBRANCH   2   3
ENDBRANCH   1   2
BRANCH   1  73
ATOM     73  C   UNL A   1      31.781  25.923  25.844  1.00  0.00     0.116 C 
BRANCH  73  74
ATOM     74  N   UNL A   1      31.653  24.810  26.769  1.00  0.00    -0.352 N 
ATOM     75  C   UNL A   1      32.434  23.686  26.863  1.00  0.00     0.252 C 
ATOM     76  H   UNL A   1      30.909  24.871  27.411  1.00  0.00     0.163 HD
ATOM     77  O   UNL A   1      32.180  22.817  27.692  1.00  0.00    -0.269 OA
BRANCH  75  78
ATOM     78  C   UNL A   1      33.538  23.479  25.908  1.00  0.00     0.054 A 
ATOM     79  C   UNL A   1      34.787  23.989  26.294  1.00  0.00     0.015 A 
ATOM     80  C   UNL A   1      33.404  22.782  24.700  1.00  0.00     0.072 A 
ATOM     81  C   UNL A   1      35.913  23.755  25.507  1.00  0.00     0.001 A 
ATOM     82  C   UNL A   1      34.548  22.539  23.924  1.00  0.00     0.016 A 
ATOM     83  C   UNL A   1      35.797  23.019  24.329  1.00  0.00     0.001 A 
BRANCH  80  84
ATOM     84  C   UNL A   1      32.126  22.208  24.222  1.00  0.00     0.338 C 
ATOM     85  O   UNL A   1      31.375  22.810  23.468  1.00  0.00    -0.246 OA
BRANCH  84  86
ATOM     86  O   UNL A   1      31.945  20.957  24.698  1.00  0.00    -0.462 OA
BRANCH  86  87
ATOM     87  C   UNL A   1      32.357  19.882  23.832  1.00  0.00     0.237 C 
BRANCH  87  88
ATOM     88  C   UNL A   1      32.966  18.742  24.650  1.00  0.00     0.030 C 
ATOM     89  C   UNL A   1      34.513  18.707  24.572  1.00  0.00     0.011 C 
ATOM     90  C   UNL A   1      32.586  17.342  24.092  1.00  0.00    -0.004 C 
ATOM     91  C   UNL A   1      34.809  17.260  24.149  1.00  0.00    -0.010 C 
ATOM     92  C   UNL A   1      32.860  16.303  25.191  1.00  0.00     0.004 C 
ATOM     93  C   UNL A   1      33.716  17.032  23.108  1.00  0.00     0.007 C 
ATOM     94  C   UNL A   1      34.392  16.305  25.282  1.00  0.00     0.004 C 
ENDBRANCH  87  88
ENDBRANCH  86  87
ENDBRANCH  84  86
ENDBRANCH  80  84
ENDBRANCH  75  78
ENDBRANCH  73  74
ENDBRANCH   1  73
TORSDOF 15
ENDMDL
MODEL 3
REMARK VINA RESULT:     -12.7      0.538      7.283
REMARK SMILES O=C(NCCCCNC(=O)c1ccccc1C(=O)OC[C@@H]1C[C@H]2CC[C@@H]1C2)c1ccc(-c2c3nc(c(-c4c(F)c(F)c(F)c(F)c4F)c4ccc([nH]4)c(-c4c(F)c(F)c(F)c(F)c4F)c4nc(c(-c5c(F)c(F)c(F)c(F)c5F)c5ccc2[nH]5)C=C4)C=C3)cc1
REMARK SMILES IDX 6 1 5 2 4 3 3 4 1 5 2 6 28 8 29 9 90 10 30 11 89 12 31 13
REMARK SMILES IDX 32 14 33 15 83 16 34 17 88 18 82 19 84 20 35 21 87 22 81 23
REMARK SMILES IDX 80 24 36 26 68 27 48 28 67 29 49 30 52 31 66 32 85 33 50 34
REMARK SMILES IDX 51 35 65 37 86 38 53 39 37 40 38 41 46 42 39 43 40 44 44 45
REMARK SMILES IDX 47 46 41 47 42 48 45 49 43 50 69 51 70 52 78 53 71 54 72 55
REMARK SMILES IDX 76 56 79 57 73 58 74 59 77 60 75 61 54 62 55 63 63 64 56 65
REMARK SMILES IDX 57 66 61 67 64 68 58 69 59 70 62 71 60 72 7 73 8 74 9 75
REMARK SMILES IDX 10 77 11 78 12 79 16 80 13 81 15 82 14 83 17 84 18 85 19 86
REMARK SMILES IDX 20 87 21 88 22 89 26 90 23 91 25 92 27 93 24 94
REMARK H PARENT 3 7 84 25 52 36 8 76
REMARK Flexibility Score: inf
ROOT
ATOM      1  C   UNL A   1      31.437  30.628  26.522  1.00  0.00     0.023 C 
ENDROOT
BRANCH   1   2
ATOM      2  C   UNL A   1      31.473  32.157  26.516  1.00  0.00     0.023 C 
BRANCH   2   3
ATOM      3  C   UNL A   1      32.622  32.798  27.288  1.00  0.00     0.116 C 
BRANCH   3   4
ATOM      4  N   UNL A   1      32.385  34.194  27.621  1.00  0.00    -0.352 N 
ATOM      5  O   UNL A   1      32.525  36.110  28.807  1.00  0.00    -0.269 OA
ATOM      6  C   UNL A   1      32.969  34.988  28.580  1.00  0.00     0.251 C 
ATOM      7  H   UNL A   1      31.700  34.641  27.073  1.00  0.00     0.163 HD
BRANCH   6   8
ATOM      8  C   UNL A   1      34.110  34.480  29.375  1.00  0.00     0.039 A 
ATOM      9  C   UNL A   1      35.411  34.524  28.872  1.00  0.00     0.014 A 
ATOM     10  C   UNL A   1      33.871  33.944  30.643  1.00  0.00     0.014 A 
ATOM     11  C   UNL A   1      36.432  33.860  29.544  1.00  0.00     0.010 A 
ATOM     12  C   UNL A   1      34.919  33.358  31.361  1.00  0.00     0.010 A 
ATOM     13  C   UNL A   1      36.197  33.259  30.792  1.00  0.00    -0.014 A 
BRANCH  13  14
ATOM     14  C   UNL A   1      37.302  32.528  31.469  1.00  0.00     0.031 A 
ATOM     15  C   UNL A   1      38.049  31.425  30.765  1.00  0.00     0.074 A 
ATOM     16  C   UNL A   1      37.671  32.896  32.712  1.00  0.00     0.049 A 
ATOM     17  N   UNL A   1      39.074  30.722  31.182  1.00  0.00    -0.248 NA
ATOM     18  C   UNL A   1      37.580  31.053  29.421  1.00  0.00     0.031 C 
ATOM     19  C   UNL A   1      37.021  33.940  33.506  1.00  0.00     0.029 A 
ATOM     20  N   UNL A   1      38.693  32.455  33.514  1.00  0.00    -0.354 N 
ATOM     21  C   UNL A   1      39.354  29.815  30.168  1.00  0.00     0.074 A 
ATOM     22  C   UNL A   1      38.376  30.036  29.124  1.00  0.00     0.031 C 
ATOM     23  C   UNL A   1      37.692  34.097  34.657  1.00  0.00     0.029 A 
ATOM     24  C   UNL A   1      38.784  33.131  34.705  1.00  0.00     0.049 A 
ATOM     25  H   UNL A   1      39.301  31.724  33.259  1.00  0.00     0.167 HD
ATOM     26  C   UNL A   1      40.343  28.890  30.107  1.00  0.00     0.037 A 
ATOM     27  C   UNL A   1      39.651  32.989  35.725  1.00  0.00     0.037 A 
ATOM     28  C   UNL A   1      41.338  28.690  31.131  1.00  0.00     0.049 A 
ATOM     29  C   UNL A   1      40.738  31.956  35.630  1.00  0.00     0.074 A 
ATOM     30  C   UNL A   1      42.406  27.810  31.138  1.00  0.00     0.029 A 
ATOM     31  N   UNL A   1      41.383  29.382  32.332  1.00  0.00    -0.354 N 
ATOM     32  N   UNL A   1      41.017  31.136  34.647  1.00  0.00    -0.248 NA
ATOM     33  C   UNL A   1      41.632  31.833  36.789  1.00  0.00     0.031 C 
ATOM     34  C   UNL A   1      43.073  27.938  32.362  1.00  0.00     0.029 A 
ATOM     35  C   UNL A   1      42.451  28.934  33.096  1.00  0.00     0.049 A 
ATOM     36  H   UNL A   1      40.752  30.087  32.603  1.00  0.00     0.167 HD
ATOM     37  C   UNL A   1      42.133  30.419  35.054  1.00  0.00     0.074 A 
ATOM     38  C   UNL A   1      42.488  30.912  36.370  1.00  0.00     0.031 C 
ATOM     39  C   UNL A   1      42.802  29.441  34.397  1.00  0.00     0.037 A 
BRANCH  26  40
ATOM     40  C   UNL A   1      40.396  28.001  28.897  1.00  0.00     0.064 A 
ATOM     41  C   UNL A   1      41.149  28.339  27.762  1.00  0.00     0.173 A 
ATOM     42  C   UNL A   1      39.719  26.772  28.890  1.00  0.00     0.173 A 
ATOM     43  F   UNL A   1      41.806  29.508  27.712  1.00  0.00    -0.203 F 
ATOM     44  C   UNL A   1      41.202  27.492  26.658  1.00  0.00     0.198 A 
ATOM     45  C   UNL A   1      39.797  25.915  27.795  1.00  0.00     0.198 A 
ATOM     46  F   UNL A   1      38.990  26.396  29.952  1.00  0.00    -0.203 F 
ATOM     47  F   UNL A   1      41.894  27.856  25.569  1.00  0.00    -0.200 F 
ATOM     48  C   UNL A   1      40.532  26.278  26.679  1.00  0.00     0.200 A 
ATOM     49  F   UNL A   1      39.159  24.736  27.822  1.00  0.00    -0.200 F 
ATOM     50  F   UNL A   1      40.591  25.460  25.617  1.00  0.00    -0.200 F 
ENDBRANCH  26  40
BRANCH  27  51
ATOM     51  C   UNL A   1      39.535  33.868  36.918  1.00  0.00     0.064 A 
ATOM     52  C   UNL A   1      40.148  35.128  36.945  1.00  0.00     0.173 A 
ATOM     53  C   UNL A   1      38.806  33.470  38.048  1.00  0.00     0.173 A 
ATOM     54  F   UNL A   1      40.873  35.543  35.895  1.00  0.00    -0.203 F 
ATOM     55  C   UNL A   1      40.050  35.950  38.064  1.00  0.00     0.198 A 
ATOM     56  C   UNL A   1      38.684  34.306  39.155  1.00  0.00     0.198 A 
ATOM     57  F   UNL A   1      38.197  32.276  38.068  1.00  0.00    -0.203 F 
ATOM     58  F   UNL A   1      40.679  37.133  38.081  1.00  0.00    -0.200 F 
ATOM     59  C   UNL A   1      39.312  35.542  39.165  1.00  0.00     0.200 A 
ATOM     60  F   UNL A   1      37.958  33.914  40.210  1.00  0.00    -0.200 F 
ATOM     61  F   UNL A   1      39.212  36.337  40.239  1.00  0.00    -0.200 F 
ENDBRANCH  27  51
BRANCH  39  62
ATOM     62  C   UNL A   1      44.015  28.871  35.072  1.00  0.00     0.064 A 
ATOM     63  C   UNL A   1      45.295  29.405  34.869  1.00  0.00     0.173 A 
ATOM     64  C   UNL A   1      43.889  27.782  35.950  1.00  0.00     0.173 A 
ATOM     65  F   UNL A   1      45.470  30.435  34.026  1.00  0.00    -0.203 F 
ATOM     66  C   UNL A   1      46.409  28.852  35.494  1.00  0.00     0.198 A 
ATOM     67  C   UNL A   1      45.001  27.251  36.597  1.00  0.00     0.198 A 
ATOM     68  F   UNL A   1      42.685  27.238  36.184  1.00  0.00    -0.203 F 
ATOM     69  F   UNL A   1      47.630  29.345  35.243  1.00  0.00    -0.200 F 
ATOM     70  C   UNL A   1      46.260  27.780  36.361  1.00  0.00     0.200 A 
ATOM     71  F   UNL A   1      44.853  26.222  37.444  1.00  0.00    -0.200 F 
ATOM     72  F   UNL A   1      47.334  27.249  36.963  1.00  0.00    -0.200 F 
ENDBRANCH  39  62
ENDBRANCH  13  14
ENDBRANCH   6   8
ENDBRANCH   3   4
ENDBRANCH   2   3
ENDBRANCH   1   2
BRANCH   1  73
ATOM     73  C   UNL A   1      32.772  29.935  26.268  1.00  0.00     0.116 C 
BRANCH  73  74
ATOM     74  N   UNL A   1      33.178  29.955  24.873  1.00  0.00    -0.352 N 
ATOM     75  C   UNL A   1      33.260  28.904  23.995  1.00  0.00     0.252 C 
ATOM     76  H   UNL A   1      33.428  30.836  24.513  1.00  0.00     0.163 HD
ATOM     77  O   UNL A   1      33.646  29.081  22.843  1.00  0.00    -0.269 OA
BRANCH  75  78
ATOM     78  C   UNL A   1      32.960  27.537  24.458  1.00  0.00     0.054 A 
ATOM     79  C   UNL A   1      33.863  26.989  25.382  1.00  0.00     0.015 A 
ATOM     80  C   UNL A   1      31.828  26.810  24.063  1.00  0.00     0.072 A 
ATOM     81  C   UNL A   1      33.610  25.744  25.956  1.00  0.00     0.001 A 
ATOM     82  C   UNL A   1      31.576  25.565  24.660  1.00  0.00     0.016 A 
ATOM     83  C   UNL A   1      32.461  25.038  25.604  1.00  0.00     0.001 A 
BRANCH  80  84
ATOM     84  C   UNL A   1      30.824  27.316  23.100  1.00  0.00     0.338 C 
ATOM     85  O   UNL A   1      30.941  27.173  21.891  1.00  0.00    -0.246 OA
BRANCH  84  86
ATOM     86  O   UNL A   1      29.787  27.901  23.738  1.00  0.00    -0.462 OA
BRANCH  86  87
ATOM     87  C   UNL A   1      28.720  28.387  22.902  1.00  0.00     0.237 C 
BRANCH  87  88
ATOM     88  C   UNL A   1      28.983  29.837  22.491  1.00  0.00     0.030 C 
ATOM     89  C   UNL A   1      29.689  30.657  23.599  1.00  0.00     0.011 C 
ATOM     90  C   UNL A   1      27.670  30.642  22.284  1.00  0.00    -0.004 C 
ATOM     91  C   UNL A   1      28.783  31.889  23.753  1.00  0.00    -0.010 C 
ATOM     92  C   UNL A   1      28.010  31.903  21.472  1.00  0.00     0.004 C 
ATOM     93  C   UNL A   1      27.402  31.246  23.664  1.00  0.00     0.007 C 
ATOM     94  C   UNL A   1      28.844  32.726  22.462  1.00  0.00     0.004 C 
ENDBRANCH  87  88
ENDBRANCH  86  87
ENDBRANCH  84  86
ENDBRANCH  80  84
ENDBRANCH  75  78
ENDBRANCH  73  74
ENDBRANCH   1  73
TORSDOF 15
ENDMDL
