MODEL 1
REMARK VINA RESULT:     -14.1      0.000      0.000
REMARK SMILES O=C1O[C@@H](c2ccc(O)c(O)c2)[C@H](C(=O)NCCCCNC(=O)c2ccc(-c3c4nc(c(-c5c(F)c(F)c(F)c(F)c5F)c5ccc([nH]5)c(-c5c(F)c(F)c(F)c(F)c5F)c5nc(c(-c6c(F)c(F)c(F)c(F)c6F)c6ccc3[nH]6)C=C5)C=C4)cc2)/C1=C\c1ccc(O)c(O)c1
REMARK SMILES IDX 18 1 17 2 16 3 14 4 15 5 13 7 1 8 2 9 3 10 87 11 4 12 88 13
REMARK SMILES IDX 5 14 6 15 12 16 7 17 10 18 8 19 11 20 9 22 89 24 90 25 96 26
REMARK SMILES IDX 91 27 94 28 92 29 95 30 93 32 19 34 20 35 21 36 22 37 23 39
REMARK SMILES IDX 24 40 25 41 86 42 26 43 85 44 27 45 28 46 29 47 79 48 30 49
REMARK SMILES IDX 84 50 78 51 80 52 31 53 83 54 77 55 76 56 32 58 64 59 44 60
REMARK SMILES IDX 63 61 45 62 48 63 62 64 81 65 46 66 47 67 61 69 82 70 49 71
REMARK SMILES IDX 33 72 34 73 42 74 35 75 36 76 40 77 43 78 37 79 38 80 41 81
REMARK SMILES IDX 39 82 65 83 66 84 74 85 67 86 68 87 72 88 75 89 69 90 70 91
REMARK SMILES IDX 73 92 71 93 50 94 51 95 59 96 52 97 53 98 57 99 60 100
REMARK SMILES IDX 54 101 55 102 58 103 56 104
REMARK H PARENT 16 6 11 21 9 23 95 31 93 33 21 38 80 57 48 68
REMARK Flexibility Score: inf
ROOT
ATOM      1  C   UNL A   1      31.819  30.757  26.182  1.00  0.00     0.023 C 
ENDROOT
BRANCH   1   2
ATOM      2  C   UNL A   1      32.151  29.571  27.076  1.00  0.00     0.116 C 
BRANCH   2   3
ATOM      3  N   UNL A   1      33.353  28.859  26.691  1.00  0.00    -0.355 N 
ATOM      4  C   UNL A   1      33.614  28.069  25.605  1.00  0.00     0.231 C 
ATOM      5  O   UNL A   1      34.789  27.736  25.442  1.00  0.00    -0.274 OA
ATOM      6  H   UNL A   1      34.106  28.961  27.316  1.00  0.00     0.163 HD
BRANCH   4   7
ATOM      7  C   UNL A   1      32.474  27.548  24.720  1.00  0.00     0.161 C 
ATOM      8  O   UNL A   1      33.752  26.824  21.459  1.00  0.00    -0.247 OA
ATOM      9  C   UNL A   1      33.169  27.251  22.440  1.00  0.00     0.335 C 
ATOM     10  O   UNL A   1      32.566  28.460  22.524  1.00  0.00    -0.453 OA
ATOM     11  C   UNL A   1      32.967  26.555  23.721  1.00  0.00     0.054 C 
ATOM     12  C   UNL A   1      31.902  28.614  23.790  1.00  0.00     0.224 C 
ATOM     13  C   UNL A   1      33.190  25.234  23.801  1.00  0.00     0.020 C 
BRANCH  12  14
ATOM     14  C   UNL A   1      30.376  28.581  23.643  1.00  0.00    -0.002 A 
ATOM     15  C   UNL A   1      29.653  29.711  23.197  1.00  0.00     0.012 A 
ATOM     16  C   UNL A   1      29.661  27.392  23.856  1.00  0.00     0.057 A 
ATOM     17  C   UNL A   1      28.278  29.659  22.945  1.00  0.00     0.050 A 
ATOM     18  C   UNL A   1      28.289  27.354  23.627  1.00  0.00     0.157 A 
ATOM     19  C   UNL A   1      27.603  28.471  23.164  1.00  0.00     0.157 A 
BRANCH  18  20
ATOM     20  O   UNL A   1      27.613  26.190  23.853  1.00  0.00    -0.504 OA
ATOM     21  H   UNL A   1      26.937  25.919  23.263  1.00  0.00     0.293 HD
ENDBRANCH  18  20
BRANCH  19  22
ATOM     22  O   UNL A   1      26.263  28.351  22.932  1.00  0.00    -0.504 OA
ATOM     23  H   UNL A   1      25.894  27.510  22.737  1.00  0.00     0.293 HD
ENDBRANCH  19  22
ENDBRANCH  12  14
BRANCH  13  24
ATOM     24  C   UNL A   1      33.000  24.434  25.009  1.00  0.00    -0.021 A 
ATOM     25  C   UNL A   1      34.087  23.829  25.658  1.00  0.00     0.012 A 
ATOM     26  C   UNL A   1      31.714  24.309  25.545  1.00  0.00     0.058 A 
ATOM     27  C   UNL A   1      33.892  23.075  26.819  1.00  0.00     0.051 A 
ATOM     28  C   UNL A   1      31.531  23.567  26.703  1.00  0.00     0.157 A 
ATOM     29  C   UNL A   1      32.607  22.948  27.333  1.00  0.00     0.157 A 
BRANCH  28  30
ATOM     30  O   UNL A   1      30.275  23.451  27.228  1.00  0.00    -0.504 OA
ATOM     31  H   UNL A   1      29.995  22.636  27.597  1.00  0.00     0.293 HD
ENDBRANCH  28  30
BRANCH  29  32
ATOM     32  O   UNL A   1      32.351  22.226  28.466  1.00  0.00    -0.504 OA
ATOM     33  H   UNL A   1      31.466  22.054  28.722  1.00  0.00     0.293 HD
ENDBRANCH  29  32
ENDBRANCH  13  24
ENDBRANCH   4   7
ENDBRANCH   2   3
ENDBRANCH   1   2
BRANCH   1  34
ATOM     34  C   UNL A   1      31.511  32.047  26.931  1.00  0.00     0.023 C 
BRANCH  34  35
ATOM     35  C   UNL A   1      32.735  32.827  27.392  1.00  0.00     0.116 C 
BRANCH  35  36
ATOM     36  N   UNL A   1      32.458  34.230  27.675  1.00  0.00    -0.352 N 
ATOM     37  C   UNL A   1      33.039  35.026  28.637  1.00  0.00     0.251 C 
ATOM     38  H   UNL A   1      31.776  34.659  27.112  1.00  0.00     0.163 HD
ATOM     39  O   UNL A   1      32.633  36.163  28.850  1.00  0.00    -0.269 OA
BRANCH  37  40
ATOM     40  C   UNL A   1      34.142  34.460  29.437  1.00  0.00     0.039 A 
ATOM     41  C   UNL A   1      33.846  33.692  30.564  1.00  0.00     0.014 A 
ATOM     42  C   UNL A   1      35.457  34.597  28.987  1.00  0.00     0.014 A 
ATOM     43  C   UNL A   1      34.871  32.985  31.196  1.00  0.00     0.010 A 
ATOM     44  C   UNL A   1      36.454  33.820  29.560  1.00  0.00     0.010 A 
ATOM     45  C   UNL A   1      36.173  33.007  30.671  1.00  0.00    -0.014 A 
BRANCH  45  46
ATOM     46  C   UNL A   1      37.280  32.220  31.268  1.00  0.00     0.031 A 
ATOM     47  C   UNL A   1      37.792  32.596  32.631  1.00  0.00     0.074 A 
ATOM     48  C   UNL A   1      37.886  31.247  30.560  1.00  0.00     0.049 A 
ATOM     49  N   UNL A   1      38.852  32.169  33.268  1.00  0.00    -0.248 NA
ATOM     50  C   UNL A   1      37.025  33.621  33.358  1.00  0.00     0.031 C 
ATOM     51  C   UNL A   1      37.501  30.805  29.219  1.00  0.00     0.029 A 
ATOM     52  N   UNL A   1      38.976  30.467  30.865  1.00  0.00    -0.354 N 
ATOM     53  C   UNL A   1      38.889  32.888  34.455  1.00  0.00     0.074 A 
ATOM     54  C   UNL A   1      37.786  33.823  34.422  1.00  0.00     0.031 C 
ATOM     55  C   UNL A   1      38.330  29.824  28.824  1.00  0.00     0.029 A 
ATOM     56  C   UNL A   1      39.335  29.603  29.859  1.00  0.00     0.049 A 
ATOM     57  H   UNL A   1      39.452  30.522  31.724  1.00  0.00     0.167 HD
ATOM     58  C   UNL A   1      39.750  32.764  35.491  1.00  0.00     0.037 A 
ATOM     59  C   UNL A   1      40.373  28.746  29.776  1.00  0.00     0.037 A 
ATOM     60  C   UNL A   1      40.831  31.815  35.528  1.00  0.00     0.049 A 
ATOM     61  C   UNL A   1      41.342  28.654  30.928  1.00  0.00     0.074 A 
ATOM     62  C   UNL A   1      41.738  31.582  36.546  1.00  0.00     0.029 A 
ATOM     63  N   UNL A   1      41.149  30.943  34.498  1.00  0.00    -0.354 N 
ATOM     64  N   UNL A   1      41.342  29.305  32.065  1.00  0.00    -0.248 NA
ATOM     65  C   UNL A   1      42.453  27.702  30.785  1.00  0.00     0.031 C 
ATOM     66  C   UNL A   1      42.638  30.604  36.111  1.00  0.00     0.029 A 
ATOM     67  C   UNL A   1      42.250  30.179  34.851  1.00  0.00     0.049 A 
ATOM     68  H   UNL A   1      40.664  30.875  33.644  1.00  0.00     0.167 HD
ATOM     69  C   UNL A   1      42.418  28.810  32.789  1.00  0.00     0.074 A 
ATOM     70  C   UNL A   1      43.049  27.802  31.964  1.00  0.00     0.031 C 
ATOM     71  C   UNL A   1      42.842  29.155  34.030  1.00  0.00     0.037 A 
BRANCH  58  72
ATOM     72  C   UNL A   1      39.554  33.672  36.671  1.00  0.00     0.064 A 
ATOM     73  C   UNL A   1      38.788  33.283  37.781  1.00  0.00     0.173 A 
ATOM     74  C   UNL A   1      40.159  34.936  36.704  1.00  0.00     0.173 A 
ATOM     75  F   UNL A   1      38.175  32.089  37.794  1.00  0.00    -0.203 F 
ATOM     76  C   UNL A   1      38.608  34.138  38.864  1.00  0.00     0.198 A 
ATOM     77  C   UNL A   1      40.008  35.775  37.805  1.00  0.00     0.198 A 
ATOM     78  F   UNL A   1      40.906  35.358  35.672  1.00  0.00    -0.203 F 
ATOM     79  F   UNL A   1      37.824  33.767  39.885  1.00  0.00    -0.200 F 
ATOM     80  C   UNL A   1      39.225  35.380  38.879  1.00  0.00     0.200 A 
ATOM     81  F   UNL A   1      40.619  36.968  37.826  1.00  0.00    -0.200 F 
ATOM     82  F   UNL A   1      39.059  36.199  39.927  1.00  0.00    -0.200 F 
ENDBRANCH  58  72
BRANCH  59  83
ATOM     83  C   UNL A   1      40.550  27.894  28.568  1.00  0.00     0.064 A 
ATOM     84  C   UNL A   1      41.298  28.351  27.472  1.00  0.00     0.173 A 
ATOM     85  C   UNL A   1      39.959  26.628  28.469  1.00  0.00     0.173 A 
ATOM     86  F   UNL A   1      41.868  29.564  27.510  1.00  0.00    -0.203 F 
ATOM     87  C   UNL A   1      41.420  27.586  26.314  1.00  0.00     0.198 A 
ATOM     88  C   UNL A   1      40.110  25.850  27.321  1.00  0.00     0.198 A 
ATOM     89  F   UNL A   1      39.238  26.139  29.489  1.00  0.00    -0.203 F 
ATOM     90  F   UNL A   1      42.091  28.074  25.261  1.00  0.00    -0.200 F 
ATOM     91  C   UNL A   1      40.830  26.335  26.240  1.00  0.00     0.200 A 
ATOM     92  F   UNL A   1      39.551  24.633  27.262  1.00  0.00    -0.200 F 
ATOM     93  F   UNL A   1      40.947  25.600  25.126  1.00  0.00    -0.200 F 
ENDBRANCH  59  83
BRANCH  71  94
ATOM     94  C   UNL A   1      43.995  28.389  34.613  1.00  0.00     0.064 A 
ATOM     95  C   UNL A   1      45.317  28.840  34.515  1.00  0.00     0.173 A 
ATOM     96  C   UNL A   1      43.754  27.216  35.349  1.00  0.00     0.173 A 
ATOM     97  F   UNL A   1      45.602  29.947  33.811  1.00  0.00    -0.203 F 
ATOM     98  C   UNL A   1      46.359  28.139  35.116  1.00  0.00     0.198 A 
ATOM     99  C   UNL A   1      44.792  26.537  35.977  1.00  0.00     0.198 A 
ATOM    100  F   UNL A   1      42.505  26.745  35.480  1.00  0.00    -0.203 F 
ATOM    101  F   UNL A   1      47.621  28.567  34.974  1.00  0.00    -0.200 F 
ATOM    102  C   UNL A   1      46.095  26.995  35.855  1.00  0.00     0.200 A 
ATOM    103  F   UNL A   1      44.532  25.443  36.707  1.00  0.00    -0.200 F 
ATOM    104  F   UNL A   1      47.098  26.333  36.449  1.00  0.00    -0.200 F 
ENDBRANCH  71  94
ENDBRANCH  45  46
ENDBRANCH  37  40
ENDBRANCH  35  36
ENDBRANCH  34  35
ENDBRANCH   1  34
TORSDOF 17
ENDMDL
MODEL 2
REMARK VINA RESULT:     -14.0      0.163      1.541
REMARK SMILES O=C1O[C@@H](c2ccc(O)c(O)c2)[C@H](C(=O)NCCCCNC(=O)c2ccc(-c3c4nc(c(-c5c(F)c(F)c(F)c(F)c5F)c5ccc([nH]5)c(-c5c(F)c(F)c(F)c(F)c5F)c5nc(c(-c6c(F)c(F)c(F)c(F)c6F)c6ccc3[nH]6)C=C5)C=C4)cc2)/C1=C\c1ccc(O)c(O)c1
REMARK SMILES IDX 18 1 17 2 16 3 14 4 15 5 13 7 1 8 2 9 3 10 87 11 4 12 88 13
REMARK SMILES IDX 5 14 6 15 12 16 7 17 10 18 8 19 11 20 9 22 89 24 90 25 96 26
REMARK SMILES IDX 91 27 94 28 92 29 95 30 93 32 19 34 20 35 21 36 22 37 23 39
REMARK SMILES IDX 24 40 25 41 86 42 26 43 85 44 27 45 28 46 29 47 79 48 30 49
REMARK SMILES IDX 84 50 78 51 80 52 31 53 83 54 77 55 76 56 32 58 64 59 44 60
REMARK SMILES IDX 63 61 45 62 48 63 62 64 81 65 46 66 47 67 61 69 82 70 49 71
REMARK SMILES IDX 33 72 34 73 42 74 35 75 36 76 40 77 43 78 37 79 38 80 41 81
REMARK SMILES IDX 39 82 65 83 66 84 74 85 67 86 68 87 72 88 75 89 69 90 70 91
REMARK SMILES IDX 73 92 71 93 50 94 51 95 59 96 52 97 53 98 57 99 60 100
REMARK SMILES IDX 54 101 55 102 58 103 56 104
REMARK H PARENT 16 6 11 21 9 23 95 31 93 33 21 38 80 57 48 68
REMARK Flexibility Score: inf
ROOT
ATOM      1  C   UNL A   1      31.779  30.751  26.148  1.00  0.00     0.023 C 
ENDROOT
BRANCH   1   2
ATOM      2  C   UNL A   1      32.140  29.580  27.049  1.00  0.00     0.116 C 
BRANCH   2   3
ATOM      3  N   UNL A   1      33.347  28.881  26.656  1.00  0.00    -0.355 N 
ATOM      4  C   UNL A   1      33.612  28.101  25.563  1.00  0.00     0.231 C 
ATOM      5  O   UNL A   1      34.790  27.780  25.394  1.00  0.00    -0.274 OA
ATOM      6  H   UNL A   1      34.101  28.985  27.279  1.00  0.00     0.163 HD
BRANCH   4   7
ATOM      7  C   UNL A   1      32.475  27.577  24.678  1.00  0.00     0.161 C 
ATOM      8  O   UNL A   1      33.760  26.842  21.421  1.00  0.00    -0.247 OA
ATOM      9  C   UNL A   1      33.174  27.272  22.400  1.00  0.00     0.335 C 
ATOM     10  O   UNL A   1      32.569  28.481  22.479  1.00  0.00    -0.453 OA
ATOM     11  C   UNL A   1      32.970  26.580  23.683  1.00  0.00     0.054 C 
ATOM     12  C   UNL A   1      31.903  28.639  23.743  1.00  0.00     0.224 C 
ATOM     13  C   UNL A   1      33.194  25.260  23.768  1.00  0.00     0.020 C 
BRANCH  12  14
ATOM     14  C   UNL A   1      30.378  28.604  23.593  1.00  0.00    -0.002 A 
ATOM     15  C   UNL A   1      29.657  29.724  23.116  1.00  0.00     0.012 A 
ATOM     16  C   UNL A   1      29.661  27.422  23.834  1.00  0.00     0.057 A 
ATOM     17  C   UNL A   1      28.283  29.667  22.863  1.00  0.00     0.050 A 
ATOM     18  C   UNL A   1      28.289  27.380  23.604  1.00  0.00     0.157 A 
ATOM     19  C   UNL A   1      27.605  28.486  23.110  1.00  0.00     0.157 A 
BRANCH  18  20
ATOM     20  O   UNL A   1      27.610  26.223  23.858  1.00  0.00    -0.504 OA
ATOM     21  H   UNL A   1      27.596  25.539  23.217  1.00  0.00     0.293 HD
ENDBRANCH  18  20
BRANCH  19  22
ATOM     22  O   UNL A   1      26.266  28.361  22.878  1.00  0.00    -0.504 OA
ATOM     23  H   UNL A   1      25.943  27.645  22.366  1.00  0.00     0.293 HD
ENDBRANCH  19  22
ENDBRANCH  12  14
BRANCH  13  24
ATOM     24  C   UNL A   1      33.002  24.464  24.978  1.00  0.00    -0.021 A 
ATOM     25  C   UNL A   1      34.083  23.829  25.609  1.00  0.00     0.012 A 
ATOM     26  C   UNL A   1      31.722  24.373  25.535  1.00  0.00     0.058 A 
ATOM     27  C   UNL A   1      33.887  23.079  26.773  1.00  0.00     0.051 A 
ATOM     28  C   UNL A   1      31.538  23.634  26.695  1.00  0.00     0.157 A 
ATOM     29  C   UNL A   1      32.608  22.986  27.308  1.00  0.00     0.157 A 
BRANCH  28  30
ATOM     30  O   UNL A   1      30.289  23.552  27.241  1.00  0.00    -0.504 OA
ATOM     31  H   UNL A   1      29.875  22.716  27.341  1.00  0.00     0.293 HD
ENDBRANCH  28  30
BRANCH  29  32
ATOM     32  O   UNL A   1      32.351  22.270  28.443  1.00  0.00    -0.504 OA
ATOM     33  H   UNL A   1      31.803  22.632  29.112  1.00  0.00     0.293 HD
ENDBRANCH  29  32
ENDBRANCH  13  24
ENDBRANCH   4   7
ENDBRANCH   2   3
ENDBRANCH   1   2
BRANCH   1  34
ATOM     34  C   UNL A   1      31.489  32.052  26.886  1.00  0.00     0.023 C 
BRANCH  34  35
ATOM     35  C   UNL A   1      32.723  32.833  27.315  1.00  0.00     0.116 C 
BRANCH  35  36
ATOM     36  N   UNL A   1      32.450  34.234  27.614  1.00  0.00    -0.352 N 
ATOM     37  C   UNL A   1      33.040  35.021  28.577  1.00  0.00     0.251 C 
ATOM     38  H   UNL A   1      31.762  34.669  27.061  1.00  0.00     0.163 HD
ATOM     39  O   UNL A   1      32.637  36.156  28.805  1.00  0.00    -0.269 OA
BRANCH  37  40
ATOM     40  C   UNL A   1      34.151  34.447  29.361  1.00  0.00     0.039 A 
ATOM     41  C   UNL A   1      33.866  33.684  30.494  1.00  0.00     0.014 A 
ATOM     42  C   UNL A   1      35.460  34.571  28.890  1.00  0.00     0.014 A 
ATOM     43  C   UNL A   1      34.895  32.969  31.112  1.00  0.00     0.010 A 
ATOM     44  C   UNL A   1      36.459  33.787  29.449  1.00  0.00     0.010 A 
ATOM     45  C   UNL A   1      36.188  32.979  30.566  1.00  0.00    -0.014 A 
BRANCH  45  46
ATOM     46  C   UNL A   1      37.298  32.183  31.147  1.00  0.00     0.031 A 
ATOM     47  C   UNL A   1      37.830  32.553  32.504  1.00  0.00     0.074 A 
ATOM     48  C   UNL A   1      37.888  31.207  30.430  1.00  0.00     0.049 A 
ATOM     49  N   UNL A   1      38.895  32.118  33.127  1.00  0.00    -0.248 NA
ATOM     50  C   UNL A   1      37.080  33.582  33.243  1.00  0.00     0.031 C 
ATOM     51  C   UNL A   1      37.483  30.770  29.094  1.00  0.00     0.029 A 
ATOM     52  N   UNL A   1      38.976  30.419  30.719  1.00  0.00    -0.354 N 
ATOM     53  C   UNL A   1      38.953  32.835  34.314  1.00  0.00     0.074 A 
ATOM     54  C   UNL A   1      37.856  33.777  34.297  1.00  0.00     0.031 C 
ATOM     55  C   UNL A   1      38.300  29.784  28.687  1.00  0.00     0.029 A 
ATOM     56  C   UNL A   1      39.317  29.555  29.708  1.00  0.00     0.049 A 
ATOM     57  H   UNL A   1      39.465  30.470  31.573  1.00  0.00     0.167 HD
ATOM     58  C   UNL A   1      39.826  32.703  35.339  1.00  0.00     0.037 A 
ATOM     59  C   UNL A   1      40.348  28.691  29.610  1.00  0.00     0.037 A 
ATOM     60  C   UNL A   1      40.902  31.748  35.360  1.00  0.00     0.049 A 
ATOM     61  C   UNL A   1      41.331  28.591  30.749  1.00  0.00     0.074 A 
ATOM     62  C   UNL A   1      41.819  31.507  36.366  1.00  0.00     0.029 A 
ATOM     63  N   UNL A   1      41.200  30.875  34.325  1.00  0.00    -0.354 N 
ATOM     64  N   UNL A   1      41.350  29.240  31.887  1.00  0.00    -0.248 NA
ATOM     65  C   UNL A   1      42.434  27.631  30.590  1.00  0.00     0.031 C 
ATOM     66  C   UNL A   1      42.707  30.523  35.918  1.00  0.00     0.029 A 
ATOM     67  C   UNL A   1      42.300  30.104  34.662  1.00  0.00     0.049 A 
ATOM     68  H   UNL A   1      40.704  30.812  33.477  1.00  0.00     0.167 HD
ATOM     69  C   UNL A   1      42.432  28.737  32.596  1.00  0.00     0.074 A 
ATOM     70  C   UNL A   1      43.046  27.726  31.761  1.00  0.00     0.031 C 
ATOM     71  C   UNL A   1      42.875  29.076  33.832  1.00  0.00     0.037 A 
BRANCH  58  72
ATOM     72  C   UNL A   1      39.651  33.611  36.522  1.00  0.00     0.064 A 
ATOM     73  C   UNL A   1      40.307  34.850  36.604  1.00  0.00     0.173 A 
ATOM     74  C   UNL A   1      38.798  33.252  37.576  1.00  0.00     0.173 A 
ATOM     75  F   UNL A   1      41.146  35.235  35.630  1.00  0.00    -0.203 F 
ATOM     76  C   UNL A   1      40.142  35.678  37.710  1.00  0.00     0.198 A 
ATOM     77  C   UNL A   1      38.606  34.099  38.664  1.00  0.00     0.198 A 
ATOM     78  F   UNL A   1      38.142  32.082  37.548  1.00  0.00    -0.203 F 
ATOM     79  F   UNL A   1      40.825  36.827  37.792  1.00  0.00    -0.200 F 
ATOM     80  C   UNL A   1      39.285  35.306  38.736  1.00  0.00     0.200 A 
ATOM     81  F   UNL A   1      37.765  33.747  39.645  1.00  0.00    -0.200 F 
ATOM     82  F   UNL A   1      39.120  36.108  39.796  1.00  0.00    -0.200 F 
ENDBRANCH  58  72
BRANCH  59  83
ATOM     83  C   UNL A   1      40.503  27.840  28.399  1.00  0.00     0.064 A 
ATOM     84  C   UNL A   1      39.943  26.555  28.348  1.00  0.00     0.173 A 
ATOM     85  C   UNL A   1      41.233  28.274  27.283  1.00  0.00     0.173 A 
ATOM     86  F   UNL A   1      39.251  26.086  29.397  1.00  0.00    -0.203 F 
ATOM     87  C   UNL A   1      40.133  25.728  27.244  1.00  0.00     0.198 A 
ATOM     88  C   UNL A   1      41.395  27.457  26.165  1.00  0.00     0.198 A 
ATOM     89  F   UNL A   1      41.787  29.497  27.274  1.00  0.00    -0.203 F 
ATOM     90  F   UNL A   1      39.636  24.483  27.249  1.00  0.00    -0.200 F 
ATOM     91  C   UNL A   1      40.855  26.180  26.151  1.00  0.00     0.200 A 
ATOM     92  F   UNL A   1      42.080  27.906  25.104  1.00  0.00    -0.200 F 
ATOM     93  F   UNL A   1      41.039  25.384  25.089  1.00  0.00    -0.200 F 
ENDBRANCH  59  83
BRANCH  71  94
ATOM     94  C   UNL A   1      44.029  28.302  34.399  1.00  0.00     0.064 A 
ATOM     95  C   UNL A   1      45.352  28.756  34.304  1.00  0.00     0.173 A 
ATOM     96  C   UNL A   1      43.792  27.117  35.115  1.00  0.00     0.173 A 
ATOM     97  F   UNL A   1      45.634  29.875  33.619  1.00  0.00    -0.203 F 
ATOM     98  C   UNL A   1      46.396  28.045  34.891  1.00  0.00     0.198 A 
ATOM     99  C   UNL A   1      44.833  26.428  35.729  1.00  0.00     0.198 A 
ATOM    100  F   UNL A   1      42.543  26.643  35.243  1.00  0.00    -0.203 F 
ATOM    101  F   UNL A   1      47.657  28.477  34.752  1.00  0.00    -0.200 F 
ATOM    102  C   UNL A   1      46.135  26.889  35.611  1.00  0.00     0.200 A 
ATOM    103  F   UNL A   1      44.576  25.322  36.441  1.00  0.00    -0.200 F 
ATOM    104  F   UNL A   1      47.140  26.218  36.191  1.00  0.00    -0.200 F 
ENDBRANCH  71  94
ENDBRANCH  45  46
ENDBRANCH  37  40
ENDBRANCH  35  36
ENDBRANCH  34  35
ENDBRANCH   1  34
TORSDOF 17
ENDMDL
MODEL 3
REMARK VINA RESULT:     -14.0      3.344      6.126
REMARK SMILES O=C1O[C@@H](c2ccc(O)c(O)c2)[C@H](C(=O)NCCCCNC(=O)c2ccc(-c3c4nc(c(-c5c(F)c(F)c(F)c(F)c5F)c5ccc([nH]5)c(-c5c(F)c(F)c(F)c(F)c5F)c5nc(c(-c6c(F)c(F)c(F)c(F)c6F)c6ccc3[nH]6)C=C5)C=C4)cc2)/C1=C\c1ccc(O)c(O)c1
REMARK SMILES IDX 18 1 17 2 16 3 14 4 15 5 13 7 1 8 2 9 3 10 87 11 4 12 88 13
REMARK SMILES IDX 5 14 6 15 12 16 7 17 10 18 8 19 11 20 9 22 89 24 90 25 96 26
REMARK SMILES IDX 91 27 94 28 92 29 95 30 93 32 19 34 20 35 21 36 22 37 23 39
REMARK SMILES IDX 24 40 25 41 86 42 26 43 85 44 27 45 28 46 29 47 79 48 30 49
REMARK SMILES IDX 84 50 78 51 80 52 31 53 83 54 77 55 76 56 32 58 64 59 44 60
REMARK SMILES IDX 63 61 45 62 48 63 62 64 81 65 46 66 47 67 61 69 82 70 49 71
REMARK SMILES IDX 33 72 34 73 42 74 35 75 36 76 40 77 43 78 37 79 38 80 41 81
REMARK SMILES IDX 39 82 65 83 66 84 74 85 67 86 68 87 72 88 75 89 69 90 70 91
REMARK SMILES IDX 73 92 71 93 50 94 51 95 59 96 52 97 53 98 57 99 60 100
REMARK SMILES IDX 54 101 55 102 58 103 56 104
REMARK H PARENT 16 6 11 21 9 23 95 31 93 33 21 38 80 57 48 68
REMARK Flexibility Score: inf
ROOT
ATOM      1  C   UNL A   1      31.403  27.454  26.455  1.00  0.00     0.023 C 
ENDROOT
BRANCH   1   2
ATOM      2  C   UNL A   1      32.086  26.126  26.165  1.00  0.00     0.116 C 
BRANCH   2   3
ATOM      3  N   UNL A   1      31.464  24.988  26.812  1.00  0.00    -0.355 N 
ATOM      4  C   UNL A   1      31.844  23.675  26.869  1.00  0.00     0.231 C 
ATOM      5  O   UNL A   1      31.214  22.956  27.647  1.00  0.00    -0.274 OA
ATOM      6  H   UNL A   1      30.629  25.195  27.290  1.00  0.00     0.163 HD
BRANCH   4   7
ATOM      7  C   UNL A   1      32.923  23.127  25.925  1.00  0.00     0.161 C 
ATOM      8  O   UNL A   1      31.932  19.898  24.750  1.00  0.00    -0.247 OA
ATOM      9  C   UNL A   1      32.473  20.863  25.260  1.00  0.00     0.335 C 
ATOM     10  O   UNL A   1      33.341  20.815  26.298  1.00  0.00    -0.453 OA
ATOM     11  C   UNL A   1      32.331  22.272  24.855  1.00  0.00     0.054 C 
ATOM     12  C   UNL A   1      33.855  22.123  26.598  1.00  0.00     0.224 C 
ATOM     13  C   UNL A   1      31.779  22.569  23.669  1.00  0.00     0.020 C 
BRANCH  12  14
ATOM     14  C   UNL A   1      35.331  22.261  26.206  1.00  0.00    -0.002 A 
ATOM     15  C   UNL A   1      36.030  23.478  26.380  1.00  0.00     0.012 A 
ATOM     16  C   UNL A   1      36.059  21.151  25.751  1.00  0.00     0.057 A 
ATOM     17  C   UNL A   1      37.403  23.585  26.139  1.00  0.00     0.050 A 
ATOM     18  C   UNL A   1      37.420  21.271  25.489  1.00  0.00     0.157 A 
ATOM     19  C   UNL A   1      38.092  22.471  25.692  1.00  0.00     0.157 A 
BRANCH  18  20
ATOM     20  O   UNL A   1      38.105  20.181  25.035  1.00  0.00    -0.504 OA
ATOM     21  H   UNL A   1      37.641  19.462  24.652  1.00  0.00     0.293 HD
ENDBRANCH  18  20
BRANCH  19  22
ATOM     22  O   UNL A   1      39.435  22.505  25.444  1.00  0.00    -0.504 OA
ATOM     23  H   UNL A   1      39.906  21.707  25.304  1.00  0.00     0.293 HD
ENDBRANCH  19  22
ENDBRANCH  12  14
BRANCH  13  24
ATOM     24  C   UNL A   1      31.610  23.925  23.151  1.00  0.00    -0.021 A 
ATOM     25  C   UNL A   1      30.459  24.674  23.438  1.00  0.00     0.012 A 
ATOM     26  C   UNL A   1      32.637  24.494  22.390  1.00  0.00     0.058 A 
ATOM     27  C   UNL A   1      30.315  25.974  22.945  1.00  0.00     0.051 A 
ATOM     28  C   UNL A   1      32.490  25.788  21.912  1.00  0.00     0.157 A 
ATOM     29  C   UNL A   1      31.337  26.522  22.180  1.00  0.00     0.157 A 
BRANCH  28  30
ATOM     30  O   UNL A   1      33.496  26.344  21.175  1.00  0.00    -0.504 OA
ATOM     31  H   UNL A   1      33.370  27.177  20.762  1.00  0.00     0.293 HD
ENDBRANCH  28  30
BRANCH  29  32
ATOM     32  O   UNL A   1      31.257  27.788  21.670  1.00  0.00    -0.504 OA
ATOM     33  H   UNL A   1      30.452  28.265  21.723  1.00  0.00     0.293 HD
ENDBRANCH  29  32
ENDBRANCH  13  24
ENDBRANCH   4   7
ENDBRANCH   2   3
ENDBRANCH   1   2
BRANCH   1  34
ATOM     34  C   UNL A   1      31.941  28.189  27.676  1.00  0.00     0.023 C 
BRANCH  34  35
ATOM     35  C   UNL A   1      33.359  28.724  27.528  1.00  0.00     0.116 C 
BRANCH  35  36
ATOM     36  N   UNL A   1      33.450  30.174  27.658  1.00  0.00    -0.352 N 
ATOM     37  C   UNL A   1      34.527  30.915  28.088  1.00  0.00     0.251 C 
ATOM     38  H   UNL A   1      32.646  30.683  27.408  1.00  0.00     0.163 HD
ATOM     39  O   UNL A   1      34.437  32.125  28.264  1.00  0.00    -0.269 OA
BRANCH  37  40
ATOM     40  C   UNL A   1      35.790  30.208  28.374  1.00  0.00     0.039 A 
ATOM     41  C   UNL A   1      36.807  30.209  27.418  1.00  0.00     0.014 A 
ATOM     42  C   UNL A   1      35.996  29.654  29.640  1.00  0.00     0.014 A 
ATOM     43  C   UNL A   1      38.071  29.726  27.765  1.00  0.00     0.010 A 
ATOM     44  C   UNL A   1      37.275  29.262  30.008  1.00  0.00     0.010 A 
ATOM     45  C   UNL A   1      38.326  29.293  29.076  1.00  0.00    -0.014 A 
BRANCH  45  46
ATOM     46  C   UNL A   1      39.669  28.834  29.510  1.00  0.00     0.031 A 
ATOM     47  C   UNL A   1      40.483  29.713  30.419  1.00  0.00     0.074 A 
ATOM     48  C   UNL A   1      40.193  27.694  29.019  1.00  0.00     0.049 A 
ATOM     49  N   UNL A   1      41.735  29.601  30.782  1.00  0.00    -0.248 NA
ATOM     50  C   UNL A   1      39.803  30.900  30.961  1.00  0.00     0.031 C 
ATOM     51  C   UNL A   1      39.517  26.767  28.111  1.00  0.00     0.029 A 
ATOM     52  N   UNL A   1      41.435  27.132  29.200  1.00  0.00    -0.354 N 
ATOM     53  C   UNL A   1      41.995  30.711  31.573  1.00  0.00     0.074 A 
ATOM     54  C   UNL A   1      40.795  31.518  31.585  1.00  0.00     0.031 C 
ATOM     55  C   UNL A   1      40.343  25.747  27.828  1.00  0.00     0.029 A 
ATOM     56  C   UNL A   1      41.624  25.972  28.489  1.00  0.00     0.049 A 
ATOM     57  H   UNL A   1      42.122  27.524  29.784  1.00  0.00     0.167 HD
ATOM     58  C   UNL A   1      43.125  31.020  32.250  1.00  0.00     0.037 A 
ATOM     59  C   UNL A   1      42.717  25.192  28.370  1.00  0.00     0.037 A 
ATOM     60  C   UNL A   1      44.309  30.202  32.253  1.00  0.00     0.049 A 
ATOM     61  C   UNL A   1      43.977  25.578  29.103  1.00  0.00     0.074 A 
ATOM     62  C   UNL A   1      45.494  30.405  32.936  1.00  0.00     0.029 A 
ATOM     63  N   UNL A   1      44.453  29.023  31.538  1.00  0.00    -0.354 N 
ATOM     64  N   UNL A   1      44.199  26.606  29.885  1.00  0.00    -0.248 NA
ATOM     65  C   UNL A   1      45.138  24.690  28.939  1.00  0.00     0.031 C 
ATOM     66  C   UNL A   1      46.376  29.375  32.593  1.00  0.00     0.029 A 
ATOM     67  C   UNL A   1      45.715  28.494  31.751  1.00  0.00     0.049 A 
ATOM     68  H   UNL A   1      43.761  28.620  30.965  1.00  0.00     0.167 HD
ATOM     69  C   UNL A   1      45.502  26.464  30.343  1.00  0.00     0.074 A 
ATOM     70  C   UNL A   1      46.023  25.249  29.752  1.00  0.00     0.031 C 
ATOM     71  C   UNL A   1      46.204  27.264  31.183  1.00  0.00     0.037 A 
BRANCH  58  72
ATOM     72  C   UNL A   1      43.133  32.294  33.046  1.00  0.00     0.064 A 
ATOM     73  C   UNL A   1      42.710  32.329  34.384  1.00  0.00     0.173 A 
ATOM     74  C   UNL A   1      43.593  33.488  32.473  1.00  0.00     0.173 A 
ATOM     75  F   UNL A   1      42.246  31.217  34.975  1.00  0.00    -0.203 F 
ATOM     76  C   UNL A   1      42.715  33.518  35.107  1.00  0.00     0.198 A 
ATOM     77  C   UNL A   1      43.633  34.668  33.210  1.00  0.00     0.198 A 
ATOM     78  F   UNL A   1      44.014  33.511  31.199  1.00  0.00    -0.203 F 
ATOM     79  F   UNL A   1      42.250  33.538  36.363  1.00  0.00    -0.200 F 
ATOM     80  C   UNL A   1      43.184  34.685  34.523  1.00  0.00     0.200 A 
ATOM     81  F   UNL A   1      44.102  35.791  32.650  1.00  0.00    -0.200 F 
ATOM     82  F   UNL A   1      43.197  35.827  35.223  1.00  0.00    -0.200 F 
ENDBRANCH  58  72
BRANCH  59  83
ATOM     83  C   UNL A   1      42.675  23.959  27.536  1.00  0.00     0.064 A 
ATOM     84  C   UNL A   1      42.306  22.727  28.096  1.00  0.00     0.173 A 
ATOM     85  C   UNL A   1      43.025  23.977  26.179  1.00  0.00     0.173 A 
ATOM     86  F   UNL A   1      41.980  22.654  29.395  1.00  0.00    -0.203 F 
ATOM     87  C   UNL A   1      42.320  21.557  27.340  1.00  0.00     0.198 A 
ATOM     88  C   UNL A   1      43.008  22.810  25.415  1.00  0.00     0.198 A 
ATOM     89  F   UNL A   1      43.381  25.128  25.590  1.00  0.00    -0.203 F 
ATOM     90  F   UNL A   1      42.020  20.385  27.917  1.00  0.00    -0.200 F 
ATOM     91  C   UNL A   1      42.667  21.600  25.999  1.00  0.00     0.200 A 
ATOM     92  F   UNL A   1      43.327  22.860  24.114  1.00  0.00    -0.200 F 
ATOM     93  F   UNL A   1      42.682  20.474  25.271  1.00  0.00    -0.200 F 
ENDBRANCH  59  83
BRANCH  71  94
ATOM     94  C   UNL A   1      47.581  26.822  31.583  1.00  0.00     0.064 A 
ATOM     95  C   UNL A   1      47.802  25.948  32.656  1.00  0.00     0.173 A 
ATOM     96  C   UNL A   1      48.693  27.226  30.827  1.00  0.00     0.173 A 
ATOM     97  F   UNL A   1      46.775  25.543  33.419  1.00  0.00    -0.203 F 
ATOM     98  C   UNL A   1      49.086  25.509  32.968  1.00  0.00     0.198 A 
ATOM     99  C   UNL A   1      49.970  26.759  31.119  1.00  0.00     0.198 A 
ATOM    100  F   UNL A   1      48.536  28.056  29.784  1.00  0.00    -0.203 F 
ATOM    101  F   UNL A   1      49.279  24.706  34.024  1.00  0.00    -0.200 F 
ATOM    102  C   UNL A   1      50.167  25.905  32.194  1.00  0.00     0.200 A 
ATOM    103  F   UNL A   1      51.010  27.128  30.358  1.00  0.00    -0.200 F 
ATOM    104  F   UNL A   1      51.399  25.465  32.485  1.00  0.00    -0.200 F 
ENDBRANCH  71  94
ENDBRANCH  45  46
ENDBRANCH  37  40
ENDBRANCH  35  36
ENDBRANCH  34  35
ENDBRANCH   1  34
TORSDOF 17
ENDMDL
