MODEL 1
REMARK VINA RESULT:     -12.4      0.000      0.000
REMARK SMILES COc1ccc(/C=C2\SC(=S)[NH+]=C2NCCCCNC(=O)c2ccc(-c3c4nc(c(-c5c(F)c(F)c(F)c(F)c5F)c5ccc([nH]5)c(-c5c(F)c(F)c(F)c(F)c5F)c5nc(c(-c6c(F)c(F)c(F)c(F)c6F)c6ccc3[nH]6)C=C5)C=C4)cc2)c(C(=O)[O-])c1OC
REMARK SMILES IDX 17 1 16 2 15 3 14 4 7 5 8 6 9 7 13 8 10 9 12 10 11 11 6 14
REMARK SMILES IDX 3 15 4 16 89 17 5 18 85 19 2 20 1 21 90 22 91 23 86 24 87 25
REMARK SMILES IDX 88 26 18 27 19 28 20 29 21 31 22 32 23 33 84 34 24 35 83 36
REMARK SMILES IDX 25 37 26 38 27 39 77 40 28 41 82 42 76 43 78 44 29 45 81 46
REMARK SMILES IDX 75 47 74 48 30 50 62 51 42 52 61 53 43 54 46 55 60 56 79 57
REMARK SMILES IDX 44 58 45 59 59 61 80 62 47 63 31 64 32 65 40 66 33 67 34 68
REMARK SMILES IDX 38 69 41 70 35 71 36 72 39 73 37 74 63 75 64 76 72 77 65 78
REMARK SMILES IDX 66 79 70 80 73 81 67 82 68 83 71 84 69 85 48 86 49 87 57 88
REMARK SMILES IDX 50 89 51 90 55 91 58 92 52 93 53 94 56 95 54 96
REMARK H PARENT 12 12 14 13 19 30 78 49 46 60
REMARK Flexibility Score: inf
ROOT
ATOM      1  C   UNL A   1      31.577  31.929  27.024  1.00  0.00     0.025 C 
ENDROOT
BRANCH   1   2
ATOM      2  C   UNL A   1      31.895  30.442  26.872  1.00  0.00     0.048 C 
BRANCH   2   3
ATOM      3  C   UNL A   1      33.370  30.125  26.625  1.00  0.00     0.234 C 
BRANCH   3   4
ATOM      4  N   UNL A   1      33.575  28.697  26.410  1.00  0.00    -0.273 N 
ATOM      5  C   UNL A   1      34.061  25.705  25.695  1.00  0.00     0.033 C 
ATOM      6  C   UNL A   1      33.173  26.519  25.086  1.00  0.00     0.106 C 
ATOM      7  S   UNL A   1      32.113  26.153  23.767  1.00  0.00    -0.027 SA
ATOM      8  C   UNL A   1      32.958  27.995  25.399  1.00  0.00     0.288 C 
ATOM      9  C   UNL A   1      31.604  27.827  23.629  1.00  0.00     0.230 C 
ATOM     10  N   UNL A   1      32.118  28.627  24.615  1.00  0.00    -0.225 N 
ATOM     11  S   UNL A   1      30.625  28.351  22.378  1.00  0.00    -0.026 S 
ATOM     12  H   UNL A   1      31.882  29.577  24.723  1.00  0.00     0.314 HD
ATOM     13  H   UNL A   1      34.182  28.214  27.015  1.00  0.00     0.305 HD
BRANCH   5  14
ATOM     14  C   UNL A   1      34.453  24.268  25.446  1.00  0.00    -0.011 A 
ATOM     15  C   UNL A   1      35.350  21.585  25.013  1.00  0.00     0.161 A 
ATOM     16  C   UNL A   1      36.146  22.663  24.658  1.00  0.00     0.051 A 
ATOM     17  C   UNL A   1      34.080  21.807  25.565  1.00  0.00     0.170 A 
ATOM     18  C   UNL A   1      35.691  23.971  24.844  1.00  0.00     0.013 A 
ATOM     19  C   UNL A   1      33.626  23.147  25.768  1.00  0.00     0.050 A 
BRANCH  15  20
ATOM     20  O   UNL A   1      35.874  20.322  24.937  1.00  0.00    -0.493 OA
ATOM     21  C   UNL A   1      37.301  20.315  24.876  1.00  0.00     0.278 C 
ENDBRANCH  15  20
BRANCH  17  22
ATOM     22  O   UNL A   1      33.285  20.782  26.030  1.00  0.00    -0.492 OA
ATOM     23  C   UNL A   1      32.531  20.058  25.059  1.00  0.00     0.278 C 
ENDBRANCH  17  22
BRANCH  19  24
ATOM     24  C   UNL A   1      32.271  23.353  26.369  1.00  0.00     0.076 C 
ATOM     25  O   UNL A   1      31.215  23.421  25.772  1.00  0.00    -0.545 OA
ATOM     26  O   UNL A   1      32.294  23.387  27.716  1.00  0.00    -0.545 OA
ENDBRANCH  19  24
ENDBRANCH   5  14
ENDBRANCH   3   4
ENDBRANCH   2   3
ENDBRANCH   1   2
BRANCH   1  27
ATOM     27  C   UNL A   1      32.784  32.829  27.259  1.00  0.00     0.116 C 
BRANCH  27  28
ATOM     28  N   UNL A   1      32.429  34.190  27.630  1.00  0.00    -0.352 N 
ATOM     29  C   UNL A   1      32.981  34.991  28.603  1.00  0.00     0.251 C 
ATOM     30  H   UNL A   1      31.691  34.592  27.116  1.00  0.00     0.163 HD
ATOM     31  O   UNL A   1      32.480  36.077  28.874  1.00  0.00    -0.269 OA
BRANCH  29  32
ATOM     32  C   UNL A   1      34.168  34.520  29.350  1.00  0.00     0.039 A 
ATOM     33  C   UNL A   1      33.989  33.906  30.593  1.00  0.00     0.014 A 
ATOM     34  C   UNL A   1      35.451  34.657  28.814  1.00  0.00     0.014 A 
ATOM     35  C   UNL A   1      35.088  33.361  31.261  1.00  0.00     0.010 A 
ATOM     36  C   UNL A   1      36.530  34.042  29.439  1.00  0.00     0.010 A 
ATOM     37  C   UNL A   1      36.362  33.387  30.671  1.00  0.00    -0.014 A 
BRANCH  37  38
ATOM     38  C   UNL A   1      37.539  32.754  31.321  1.00  0.00     0.031 A 
ATOM     39  C   UNL A   1      38.236  31.604  30.644  1.00  0.00     0.074 A 
ATOM     40  C   UNL A   1      37.932  33.151  32.547  1.00  0.00     0.049 A 
ATOM     41  N   UNL A   1      39.194  30.833  31.093  1.00  0.00    -0.248 NA
ATOM     42  C   UNL A   1      37.770  31.255  29.292  1.00  0.00     0.031 C 
ATOM     43  C   UNL A   1      37.321  34.231  33.323  1.00  0.00     0.029 A 
ATOM     44  N   UNL A   1      38.930  32.679  33.365  1.00  0.00    -0.354 N 
ATOM     45  C   UNL A   1      39.430  29.901  30.090  1.00  0.00     0.074 A 
ATOM     46  C   UNL A   1      38.479  30.165  29.034  1.00  0.00     0.031 C 
ATOM     47  C   UNL A   1      37.965  34.348  34.496  1.00  0.00     0.029 A 
ATOM     48  C   UNL A   1      39.000  33.322  34.577  1.00  0.00     0.049 A 
ATOM     49  H   UNL A   1      39.536  31.948  33.108  1.00  0.00     0.167 HD
ATOM     50  C   UNL A   1      40.371  28.928  30.046  1.00  0.00     0.037 A 
ATOM     51  C   UNL A   1      39.796  33.098  35.642  1.00  0.00     0.037 A 
ATOM     52  C   UNL A   1      41.331  28.684  31.089  1.00  0.00     0.049 A 
ATOM     53  C   UNL A   1      40.816  31.989  35.576  1.00  0.00     0.074 A 
ATOM     54  C   UNL A   1      42.357  27.755  31.115  1.00  0.00     0.029 A 
ATOM     55  N   UNL A   1      41.383  29.372  32.293  1.00  0.00    -0.354 N 
ATOM     56  N   UNL A   1      41.068  31.153  34.599  1.00  0.00    -0.248 NA
ATOM     57  C   UNL A   1      41.666  31.798  36.760  1.00  0.00     0.031 C 
ATOM     58  C   UNL A   1      42.992  27.840  32.356  1.00  0.00     0.029 A 
ATOM     59  C   UNL A   1      42.409  28.870  33.077  1.00  0.00     0.049 A 
ATOM     60  H   UNL A   1      40.782  30.107  32.550  1.00  0.00     0.167 HD
ATOM     61  C   UNL A   1      42.130  30.368  35.032  1.00  0.00     0.074 A 
ATOM     62  C   UNL A   1      42.478  30.832  36.358  1.00  0.00     0.031 C 
ATOM     63  C   UNL A   1      42.762  29.358  34.386  1.00  0.00     0.037 A 
BRANCH  50  64
ATOM     64  C   UNL A   1      40.407  28.048  28.828  1.00  0.00     0.064 A 
ATOM     65  C   UNL A   1      41.161  28.387  27.695  1.00  0.00     0.173 A 
ATOM     66  C   UNL A   1      39.716  26.827  28.814  1.00  0.00     0.173 A 
ATOM     67  F   UNL A   1      41.832  29.548  27.651  1.00  0.00    -0.203 F 
ATOM     68  C   UNL A   1      41.197  27.552  26.581  1.00  0.00     0.198 A 
ATOM     69  C   UNL A   1      39.783  25.977  27.713  1.00  0.00     0.198 A 
ATOM     70  F   UNL A   1      38.985  26.450  29.874  1.00  0.00    -0.203 F 
ATOM     71  F   UNL A   1      41.882  27.922  25.490  1.00  0.00    -0.200 F 
ATOM     72  C   UNL A   1      40.516  26.344  26.595  1.00  0.00     0.200 A 
ATOM     73  F   UNL A   1      39.139  24.803  27.735  1.00  0.00    -0.200 F 
ATOM     74  F   UNL A   1      40.563  25.535  25.527  1.00  0.00    -0.200 F 
ENDBRANCH  50  64
BRANCH  51  75
ATOM     75  C   UNL A   1      39.673  33.942  36.861  1.00  0.00     0.064 A 
ATOM     76  C   UNL A   1      38.872  33.539  37.940  1.00  0.00     0.173 A 
ATOM     77  C   UNL A   1      40.328  35.178  36.964  1.00  0.00     0.173 A 
ATOM     78  F   UNL A   1      38.207  32.377  37.882  1.00  0.00    -0.203 F 
ATOM     79  C   UNL A   1      38.708  34.353  39.059  1.00  0.00     0.198 A 
ATOM     80  C   UNL A   1      40.191  35.975  38.098  1.00  0.00     0.198 A 
ATOM     81  F   UNL A   1      41.111  35.610  35.963  1.00  0.00    -0.203 F 
ATOM     82  F   UNL A   1      37.888  33.970  40.048  1.00  0.00    -0.200 F 
ATOM     83  C   UNL A   1      39.371  35.568  39.140  1.00  0.00     0.200 A 
ATOM     84  F   UNL A   1      40.846  37.142  38.178  1.00  0.00    -0.200 F 
ATOM     85  F   UNL A   1      39.211  36.351  40.215  1.00  0.00    -0.200 F 
ENDBRANCH  51  75
BRANCH  63  86
ATOM     86  C   UNL A   1      43.940  28.722  35.066  1.00  0.00     0.064 A 
ATOM     87  C   UNL A   1      45.244  29.218  34.915  1.00  0.00     0.173 A 
ATOM     88  C   UNL A   1      43.749  27.638  35.937  1.00  0.00     0.173 A 
ATOM     89  F   UNL A   1      45.483  30.245  34.084  1.00  0.00    -0.203 F 
ATOM     90  C   UNL A   1      46.313  28.639  35.593  1.00  0.00     0.198 A 
ATOM     91  C   UNL A   1      44.814  27.083  36.640  1.00  0.00     0.198 A 
ATOM     92  F   UNL A   1      42.521  27.129  36.124  1.00  0.00    -0.203 F 
ATOM     93  F   UNL A   1      47.556  29.101  35.399  1.00  0.00    -0.200 F 
ATOM     94  C   UNL A   1      46.096  27.580  36.462  1.00  0.00     0.200 A 
ATOM     95  F   UNL A   1      44.598  26.073  37.493  1.00  0.00    -0.200 F 
ATOM     96  F   UNL A   1      47.124  27.035  37.127  1.00  0.00    -0.200 F 
ENDBRANCH  63  86
ENDBRANCH  37  38
ENDBRANCH  29  32
ENDBRANCH  27  28
ENDBRANCH   1  27
TORSDOF 14
ENDMDL
MODEL 2
REMARK VINA RESULT:     -12.4      0.118      1.167
REMARK SMILES COc1ccc(/C=C2\SC(=S)[NH+]=C2NCCCCNC(=O)c2ccc(-c3c4nc(c(-c5c(F)c(F)c(F)c(F)c5F)c5ccc([nH]5)c(-c5c(F)c(F)c(F)c(F)c5F)c5nc(c(-c6c(F)c(F)c(F)c(F)c6F)c6ccc3[nH]6)C=C5)C=C4)cc2)c(C(=O)[O-])c1OC
REMARK SMILES IDX 17 1 16 2 15 3 14 4 7 5 8 6 9 7 13 8 10 9 12 10 11 11 6 14
REMARK SMILES IDX 3 15 4 16 89 17 5 18 85 19 2 20 1 21 90 22 91 23 86 24 87 25
REMARK SMILES IDX 88 26 18 27 19 28 20 29 21 31 22 32 23 33 84 34 24 35 83 36
REMARK SMILES IDX 25 37 26 38 27 39 77 40 28 41 82 42 76 43 78 44 29 45 81 46
REMARK SMILES IDX 75 47 74 48 30 50 62 51 42 52 61 53 43 54 46 55 60 56 79 57
REMARK SMILES IDX 44 58 45 59 59 61 80 62 47 63 31 64 32 65 40 66 33 67 34 68
REMARK SMILES IDX 38 69 41 70 35 71 36 72 39 73 37 74 63 75 64 76 72 77 65 78
REMARK SMILES IDX 66 79 70 80 73 81 67 82 68 83 71 84 69 85 48 86 49 87 57 88
REMARK SMILES IDX 50 89 51 90 55 91 58 92 52 93 53 94 56 95 54 96
REMARK H PARENT 12 12 14 13 19 30 78 49 46 60
REMARK Flexibility Score: inf
ROOT
ATOM      1  C   UNL A   1      31.602  31.942  26.909  1.00  0.00     0.025 C 
ENDROOT
BRANCH   1   2
ATOM      2  C   UNL A   1      31.897  30.451  26.751  1.00  0.00     0.048 C 
BRANCH   2   3
ATOM      3  C   UNL A   1      33.383  30.095  26.711  1.00  0.00     0.234 C 
BRANCH   3   4
ATOM      4  N   UNL A   1      33.578  28.668  26.477  1.00  0.00    -0.273 N 
ATOM      5  C   UNL A   1      34.047  25.683  25.722  1.00  0.00     0.033 C 
ATOM      6  C   UNL A   1      33.175  26.515  25.113  1.00  0.00     0.106 C 
ATOM      7  S   UNL A   1      32.132  26.180  23.773  1.00  0.00    -0.027 SA
ATOM      8  C   UNL A   1      32.970  27.988  25.446  1.00  0.00     0.288 C 
ATOM      9  C   UNL A   1      31.641  27.861  23.654  1.00  0.00     0.230 C 
ATOM     10  N   UNL A   1      32.147  28.640  24.660  1.00  0.00    -0.225 N 
ATOM     11  S   UNL A   1      30.685  28.413  22.398  1.00  0.00    -0.026 S 
ATOM     12  H   UNL A   1      31.919  29.590  24.779  1.00  0.00     0.314 HD
ATOM     13  H   UNL A   1      34.172  28.169  27.083  1.00  0.00     0.305 HD
BRANCH   5  14
ATOM     14  C   UNL A   1      34.429  24.246  25.456  1.00  0.00    -0.011 A 
ATOM     15  C   UNL A   1      35.308  21.563  24.989  1.00  0.00     0.161 A 
ATOM     16  C   UNL A   1      36.100  22.641  24.623  1.00  0.00     0.051 A 
ATOM     17  C   UNL A   1      34.051  21.786  25.568  1.00  0.00     0.170 A 
ATOM     18  C   UNL A   1      35.653  23.949  24.827  1.00  0.00     0.013 A 
ATOM     19  C   UNL A   1      33.605  23.126  25.789  1.00  0.00     0.050 A 
BRANCH  15  20
ATOM     20  O   UNL A   1      35.826  20.299  24.894  1.00  0.00    -0.493 OA
ATOM     21  C   UNL A   1      37.255  20.283  24.883  1.00  0.00     0.278 C 
ENDBRANCH  15  20
BRANCH  17  22
ATOM     22  O   UNL A   1      33.262  20.760  26.043  1.00  0.00    -0.492 OA
ATOM     23  C   UNL A   1      32.567  19.979  25.073  1.00  0.00     0.278 C 
ENDBRANCH  17  22
BRANCH  19  24
ATOM     24  C   UNL A   1      32.264  23.333  26.418  1.00  0.00     0.076 C 
ATOM     25  O   UNL A   1      32.038  23.564  27.589  1.00  0.00    -0.545 OA
ATOM     26  O   UNL A   1      31.256  23.317  25.523  1.00  0.00    -0.545 OA
ENDBRANCH  19  24
ENDBRANCH   5  14
ENDBRANCH   3   4
ENDBRANCH   2   3
ENDBRANCH   1   2
BRANCH   1  27
ATOM     27  C   UNL A   1      32.804  32.806  27.268  1.00  0.00     0.116 C 
BRANCH  27  28
ATOM     28  N   UNL A   1      32.451  34.174  27.618  1.00  0.00    -0.352 N 
ATOM     29  C   UNL A   1      33.001  34.987  28.582  1.00  0.00     0.251 C 
ATOM     30  H   UNL A   1      31.718  34.571  27.094  1.00  0.00     0.163 HD
ATOM     31  O   UNL A   1      32.502  36.079  28.835  1.00  0.00    -0.269 OA
BRANCH  29  32
ATOM     32  C   UNL A   1      34.183  34.523  29.342  1.00  0.00     0.039 A 
ATOM     33  C   UNL A   1      33.996  33.935  30.597  1.00  0.00     0.014 A 
ATOM     34  C   UNL A   1      35.468  34.641  28.808  1.00  0.00     0.014 A 
ATOM     35  C   UNL A   1      35.089  33.396  31.279  1.00  0.00     0.010 A 
ATOM     36  C   UNL A   1      36.541  34.030  29.449  1.00  0.00     0.010 A 
ATOM     37  C   UNL A   1      36.365  33.402  30.693  1.00  0.00    -0.014 A 
BRANCH  37  38
ATOM     38  C   UNL A   1      37.536  32.774  31.359  1.00  0.00     0.031 A 
ATOM     39  C   UNL A   1      38.248  31.628  30.691  1.00  0.00     0.074 A 
ATOM     40  C   UNL A   1      37.909  33.172  32.591  1.00  0.00     0.049 A 
ATOM     41  N   UNL A   1      39.203  30.861  31.154  1.00  0.00    -0.248 NA
ATOM     42  C   UNL A   1      37.803  31.278  29.333  1.00  0.00     0.031 C 
ATOM     43  C   UNL A   1      37.282  34.248  33.359  1.00  0.00     0.029 A 
ATOM     44  N   UNL A   1      38.897  32.704  33.423  1.00  0.00    -0.354 N 
ATOM     45  C   UNL A   1      39.458  29.931  30.154  1.00  0.00     0.074 A 
ATOM     46  C   UNL A   1      38.520  30.192  29.084  1.00  0.00     0.031 C 
ATOM     47  C   UNL A   1      37.909  34.368  34.541  1.00  0.00     0.029 A 
ATOM     48  C   UNL A   1      38.947  33.346  34.636  1.00  0.00     0.049 A 
ATOM     49  H   UNL A   1      39.511  31.976  33.174  1.00  0.00     0.167 HD
ATOM     50  C   UNL A   1      40.404  28.962  30.122  1.00  0.00     0.037 A 
ATOM     51  C   UNL A   1      39.729  33.125  35.712  1.00  0.00     0.037 A 
ATOM     52  C   UNL A   1      41.350  28.723  31.178  1.00  0.00     0.049 A 
ATOM     53  C   UNL A   1      40.755  32.022  35.660  1.00  0.00     0.074 A 
ATOM     54  C   UNL A   1      42.380  27.798  31.218  1.00  0.00     0.029 A 
ATOM     55  N   UNL A   1      41.382  29.409  32.383  1.00  0.00    -0.354 N 
ATOM     56  N   UNL A   1      41.025  31.187  34.686  1.00  0.00    -0.248 NA
ATOM     57  C   UNL A   1      41.589  31.834  36.856  1.00  0.00     0.031 C 
ATOM     58  C   UNL A   1      42.997  27.886  32.469  1.00  0.00     0.029 A 
ATOM     59  C   UNL A   1      42.398  28.912  33.182  1.00  0.00     0.049 A 
ATOM     60  H   UNL A   1      40.773  30.142  32.632  1.00  0.00     0.167 HD
ATOM     61  C   UNL A   1      42.084  30.408  35.134  1.00  0.00     0.074 A 
ATOM     62  C   UNL A   1      42.411  30.871  36.465  1.00  0.00     0.031 C 
ATOM     63  C   UNL A   1      42.730  29.400  34.496  1.00  0.00     0.037 A 
BRANCH  50  64
ATOM     64  C   UNL A   1      40.462  28.084  28.904  1.00  0.00     0.064 A 
ATOM     65  C   UNL A   1      39.743  26.882  28.825  1.00  0.00     0.173 A 
ATOM     66  C   UNL A   1      41.210  28.475  27.783  1.00  0.00     0.173 A 
ATOM     67  F   UNL A   1      39.020  26.457  29.873  1.00  0.00    -0.203 F 
ATOM     68  C   UNL A   1      39.794  26.089  27.682  1.00  0.00     0.198 A 
ATOM     69  C   UNL A   1      41.230  27.697  26.628  1.00  0.00     0.198 A 
ATOM     70  F   UNL A   1      41.910  29.618  27.801  1.00  0.00    -0.203 F 
ATOM     71  F   UNL A   1      39.141  24.919  27.651  1.00  0.00    -0.200 F 
ATOM     72  C   UNL A   1      40.530  26.502  26.582  1.00  0.00     0.200 A 
ATOM     73  F   UNL A   1      41.928  28.105  25.559  1.00  0.00    -0.200 F 
ATOM     74  F   UNL A   1      40.569  25.743  25.477  1.00  0.00    -0.200 F 
ENDBRANCH  50  64
BRANCH  51  75
ATOM     75  C   UNL A   1      39.584  33.968  36.930  1.00  0.00     0.064 A 
ATOM     76  C   UNL A   1      38.803  33.541  38.014  1.00  0.00     0.173 A 
ATOM     77  C   UNL A   1      40.199  35.225  37.026  1.00  0.00     0.173 A 
ATOM     78  F   UNL A   1      38.177  32.357  37.962  1.00  0.00    -0.203 F 
ATOM     79  C   UNL A   1      38.618  34.352  39.133  1.00  0.00     0.198 A 
ATOM     80  C   UNL A   1      40.041  36.020  38.159  1.00  0.00     0.198 A 
ATOM     81  F   UNL A   1      40.961  35.681  36.020  1.00  0.00    -0.203 F 
ATOM     82  F   UNL A   1      37.817  33.945  40.126  1.00  0.00    -0.200 F 
ATOM     83  C   UNL A   1      39.241  35.589  39.206  1.00  0.00     0.200 A 
ATOM     84  F   UNL A   1      40.657  37.209  38.233  1.00  0.00    -0.200 F 
ATOM     85  F   UNL A   1      39.061  36.369  40.281  1.00  0.00    -0.200 F 
ENDBRANCH  51  75
BRANCH  63  86
ATOM     86  C   UNL A   1      43.902  28.770  35.192  1.00  0.00     0.064 A 
ATOM     87  C   UNL A   1      45.208  29.259  35.043  1.00  0.00     0.173 A 
ATOM     88  C   UNL A   1      43.701  27.698  36.076  1.00  0.00     0.173 A 
ATOM     89  F   UNL A   1      45.457  30.274  34.200  1.00  0.00    -0.203 F 
ATOM     90  C   UNL A   1      46.271  28.685  35.736  1.00  0.00     0.198 A 
ATOM     91  C   UNL A   1      44.759  27.149  36.793  1.00  0.00     0.198 A 
ATOM     92  F   UNL A   1      42.470  27.197  36.263  1.00  0.00    -0.203 F 
ATOM     93  F   UNL A   1      47.517  29.141  35.544  1.00  0.00    -0.200 F 
ATOM     94  C   UNL A   1      46.044  27.639  36.618  1.00  0.00     0.200 A 
ATOM     95  F   UNL A   1      44.534  26.151  37.659  1.00  0.00    -0.200 F 
ATOM     96  F   UNL A   1      47.066  27.100  37.297  1.00  0.00    -0.200 F 
ENDBRANCH  63  86
ENDBRANCH  37  38
ENDBRANCH  29  32
ENDBRANCH  27  28
ENDBRANCH   1  27
TORSDOF 14
ENDMDL
MODEL 3
REMARK VINA RESULT:     -12.3      0.513      7.262
REMARK SMILES COc1ccc(/C=C2\SC(=S)[NH+]=C2NCCCCNC(=O)c2ccc(-c3c4nc(c(-c5c(F)c(F)c(F)c(F)c5F)c5ccc([nH]5)c(-c5c(F)c(F)c(F)c(F)c5F)c5nc(c(-c6c(F)c(F)c(F)c(F)c6F)c6ccc3[nH]6)C=C5)C=C4)cc2)c(C(=O)[O-])c1OC
REMARK SMILES IDX 17 1 16 2 15 3 14 4 7 5 8 6 9 7 13 8 10 9 12 10 11 11 6 14
REMARK SMILES IDX 3 15 4 16 89 17 5 18 85 19 2 20 1 21 90 22 91 23 86 24 87 25
REMARK SMILES IDX 88 26 18 27 19 28 20 29 21 31 22 32 23 33 84 34 24 35 83 36
REMARK SMILES IDX 25 37 26 38 27 39 77 40 28 41 82 42 76 43 78 44 29 45 81 46
REMARK SMILES IDX 75 47 74 48 30 50 62 51 42 52 61 53 43 54 46 55 60 56 79 57
REMARK SMILES IDX 44 58 45 59 59 61 80 62 47 63 31 64 32 65 40 66 33 67 34 68
REMARK SMILES IDX 38 69 41 70 35 71 36 72 39 73 37 74 63 75 64 76 72 77 65 78
REMARK SMILES IDX 66 79 70 80 73 81 67 82 68 83 71 84 69 85 48 86 49 87 57 88
REMARK SMILES IDX 50 89 51 90 55 91 58 92 52 93 53 94 56 95 54 96
REMARK H PARENT 12 12 14 13 19 30 78 49 46 60
REMARK Flexibility Score: inf
ROOT
ATOM      1  C   UNL A   1      33.873  32.619  27.535  1.00  0.00     0.025 C 
ENDROOT
BRANCH   1   2
ATOM      2  C   UNL A   1      33.979  31.095  27.562  1.00  0.00     0.048 C 
BRANCH   2   3
ATOM      3  C   UNL A   1      32.692  30.357  27.194  1.00  0.00     0.234 C 
BRANCH   3   4
ATOM      4  N   UNL A   1      32.956  28.956  26.885  1.00  0.00    -0.273 N 
ATOM      5  C   UNL A   1      33.601  26.045  25.981  1.00  0.00     0.033 C 
ATOM      6  C   UNL A   1      32.789  26.904  25.328  1.00  0.00     0.106 C 
ATOM      7  S   UNL A   1      31.932  26.651  23.846  1.00  0.00    -0.027 SA
ATOM      8  C   UNL A   1      32.501  28.343  25.738  1.00  0.00     0.288 C 
ATOM      9  C   UNL A   1      31.411  28.326  23.787  1.00  0.00     0.230 C 
ATOM     10  N   UNL A   1      31.766  29.037  24.903  1.00  0.00    -0.225 N 
ATOM     11  S   UNL A   1      30.605  28.953  22.463  1.00  0.00    -0.026 S 
ATOM     12  H   UNL A   1      31.496  29.971  25.061  1.00  0.00     0.314 HD
ATOM     13  H   UNL A   1      33.483  28.425  27.524  1.00  0.00     0.305 HD
BRANCH   5  14
ATOM     14  C   UNL A   1      34.055  24.641  25.663  1.00  0.00    -0.011 A 
ATOM     15  C   UNL A   1      35.064  22.019  25.114  1.00  0.00     0.161 A 
ATOM     16  C   UNL A   1      35.852  23.140  24.900  1.00  0.00     0.051 A 
ATOM     17  C   UNL A   1      33.749  22.169  25.579  1.00  0.00     0.170 A 
ATOM     18  C   UNL A   1      35.344  24.419  25.141  1.00  0.00     0.013 A 
ATOM     19  C   UNL A   1      33.240  23.479  25.839  1.00  0.00     0.050 A 
BRANCH  15  20
ATOM     20  O   UNL A   1      35.630  20.779  24.991  1.00  0.00    -0.493 OA
ATOM     21  C   UNL A   1      37.056  20.824  24.907  1.00  0.00     0.278 C 
ENDBRANCH  15  20
BRANCH  17  22
ATOM     22  O   UNL A   1      32.952  21.093  25.906  1.00  0.00    -0.492 OA
ATOM     23  C   UNL A   1      32.317  20.409  24.827  1.00  0.00     0.278 C 
ENDBRANCH  17  22
BRANCH  19  24
ATOM     24  C   UNL A   1      31.838  23.607  26.344  1.00  0.00     0.076 C 
ATOM     25  O   UNL A   1      31.490  23.732  27.501  1.00  0.00    -0.545 OA
ATOM     26  O   UNL A   1      30.925  23.653  25.352  1.00  0.00    -0.545 OA
ENDBRANCH  19  24
ENDBRANCH   5  14
ENDBRANCH   3   4
ENDBRANCH   2   3
ENDBRANCH   1   2
BRANCH   1  27
ATOM     27  C   UNL A   1      32.457  33.171  27.653  1.00  0.00     0.116 C 
BRANCH  27  28
ATOM     28  N   UNL A   1      32.413  34.599  27.929  1.00  0.00    -0.352 N 
ATOM     29  C   UNL A   1      33.179  35.332  28.805  1.00  0.00     0.251 C 
ATOM     30  H   UNL A   1      31.743  35.110  27.419  1.00  0.00     0.163 HD
ATOM     31  O   UNL A   1      32.930  36.516  29.010  1.00  0.00    -0.269 OA
BRANCH  29  32
ATOM     32  C   UNL A   1      34.289  34.676  29.532  1.00  0.00     0.039 A 
ATOM     33  C   UNL A   1      34.003  33.932  30.680  1.00  0.00     0.014 A 
ATOM     34  C   UNL A   1      35.602  34.770  29.065  1.00  0.00     0.014 A 
ATOM     35  C   UNL A   1      35.023  33.219  31.315  1.00  0.00     0.010 A 
ATOM     36  C   UNL A   1      36.599  33.994  29.649  1.00  0.00     0.010 A 
ATOM     37  C   UNL A   1      36.322  33.211  30.782  1.00  0.00    -0.014 A 
BRANCH  37  38
ATOM     38  C   UNL A   1      37.414  32.406  31.390  1.00  0.00     0.031 A 
ATOM     39  C   UNL A   1      37.937  32.769  32.753  1.00  0.00     0.074 A 
ATOM     40  C   UNL A   1      37.990  31.408  30.692  1.00  0.00     0.049 A 
ATOM     41  N   UNL A   1      38.963  32.282  33.406  1.00  0.00    -0.248 NA
ATOM     42  C   UNL A   1      37.231  33.847  33.465  1.00  0.00     0.031 C 
ATOM     43  C   UNL A   1      37.597  30.978  29.349  1.00  0.00     0.029 A 
ATOM     44  N   UNL A   1      39.042  30.584  31.008  1.00  0.00    -0.354 N 
ATOM     45  C   UNL A   1      39.034  33.004  34.590  1.00  0.00     0.074 A 
ATOM     46  C   UNL A   1      37.986  34.000  34.543  1.00  0.00     0.031 C 
ATOM     47  C   UNL A   1      38.387  29.963  28.964  1.00  0.00     0.029 A 
ATOM     48  C   UNL A   1      39.373  29.702  30.008  1.00  0.00     0.049 A 
ATOM     49  H   UNL A   1      39.516  30.623  31.870  1.00  0.00     0.167 HD
ATOM     50  C   UNL A   1      39.882  32.837  35.633  1.00  0.00     0.037 A 
ATOM     51  C   UNL A   1      40.370  28.798  29.934  1.00  0.00     0.037 A 
ATOM     52  C   UNL A   1      40.907  31.829  35.686  1.00  0.00     0.049 A 
ATOM     53  C   UNL A   1      41.317  28.651  31.097  1.00  0.00     0.074 A 
ATOM     54  C   UNL A   1      41.784  31.546  36.719  1.00  0.00     0.029 A 
ATOM     55  N   UNL A   1      41.197  30.940  34.661  1.00  0.00    -0.354 N 
ATOM     56  N   UNL A   1      41.338  29.300  32.235  1.00  0.00    -0.248 NA
ATOM     57  C   UNL A   1      42.377  27.641  30.967  1.00  0.00     0.031 C 
ATOM     58  C   UNL A   1      42.641  30.526  36.298  1.00  0.00     0.029 A 
ATOM     59  C   UNL A   1      42.254  30.125  35.029  1.00  0.00     0.049 A 
ATOM     60  H   UNL A   1      40.720  30.895  33.800  1.00  0.00     0.167 HD
ATOM     61  C   UNL A   1      42.380  28.749  32.970  1.00  0.00     0.074 A 
ATOM     62  C   UNL A   1      42.965  27.710  32.152  1.00  0.00     0.031 C 
ATOM     63  C   UNL A   1      42.810  29.075  34.215  1.00  0.00     0.037 A 
BRANCH  50  64
ATOM     64  C   UNL A   1      39.740  33.767  36.804  1.00  0.00     0.064 A 
ATOM     65  C   UNL A   1      40.386  35.011  36.842  1.00  0.00     0.173 A 
ATOM     66  C   UNL A   1      38.908  33.428  37.882  1.00  0.00     0.173 A 
ATOM     67  F   UNL A   1      41.202  35.380  35.842  1.00  0.00    -0.203 F 
ATOM     68  C   UNL A   1      40.230  35.868  37.928  1.00  0.00     0.198 A 
ATOM     69  C   UNL A   1      38.726  34.303  38.950  1.00  0.00     0.198 A 
ATOM     70  F   UNL A   1      38.260  32.254  37.895  1.00  0.00    -0.203 F 
ATOM     71  F   UNL A   1      40.900  37.029  37.965  1.00  0.00    -0.200 F 
ATOM     72  C   UNL A   1      39.393  35.518  38.976  1.00  0.00     0.200 A 
ATOM     73  F   UNL A   1      37.903  33.970  39.954  1.00  0.00    -0.200 F 
ATOM     74  F   UNL A   1      39.234  36.349  40.015  1.00  0.00    -0.200 F 
ENDBRANCH  50  64
BRANCH  51  75
ATOM     75  C   UNL A   1      40.524  27.950  28.720  1.00  0.00     0.064 A 
ATOM     76  C   UNL A   1      41.300  28.380  27.633  1.00  0.00     0.173 A 
ATOM     77  C   UNL A   1      39.880  26.709  28.608  1.00  0.00     0.173 A 
ATOM     78  F   UNL A   1      41.918  29.568  27.682  1.00  0.00    -0.203 F 
ATOM     79  C   UNL A   1      41.400  27.615  26.472  1.00  0.00     0.198 A 
ATOM     80  C   UNL A   1      40.008  25.930  27.460  1.00  0.00     0.198 A 
ATOM     81  F   UNL A   1      39.128  26.247  29.620  1.00  0.00    -0.203 F 
ATOM     82  F   UNL A   1      42.099  28.080  25.427  1.00  0.00    -0.200 F 
ATOM     83  C   UNL A   1      40.758  26.390  26.388  1.00  0.00     0.200 A 
ATOM     84  F   UNL A   1      39.398  24.739  27.389  1.00  0.00    -0.200 F 
ATOM     85  F   UNL A   1      40.853  25.656  25.270  1.00  0.00    -0.200 F 
ENDBRANCH  51  75
BRANCH  63  86
ATOM     86  C   UNL A   1      43.924  28.258  34.804  1.00  0.00     0.064 A 
ATOM     87  C   UNL A   1      45.268  28.647  34.700  1.00  0.00     0.173 A 
ATOM     88  C   UNL A   1      43.632  27.101  35.543  1.00  0.00     0.173 A 
ATOM     89  F   UNL A   1      45.602  29.738  33.993  1.00  0.00    -0.203 F 
ATOM     90  C   UNL A   1      46.278  27.895  35.295  1.00  0.00     0.198 A 
ATOM     91  C   UNL A   1      44.640  26.371  36.166  1.00  0.00     0.198 A 
ATOM     92  F   UNL A   1      42.362  26.688  35.681  1.00  0.00    -0.203 F 
ATOM     93  F   UNL A   1      47.559  28.261  35.145  1.00  0.00    -0.200 F 
ATOM     94  C   UNL A   1      45.963  26.766  36.036  1.00  0.00     0.200 A 
ATOM     95  F   UNL A   1      44.331  25.291  36.896  1.00  0.00    -0.200 F 
ATOM     96  F   UNL A   1      46.936  26.054  36.622  1.00  0.00    -0.200 F 
ENDBRANCH  63  86
ENDBRANCH  37  38
ENDBRANCH  29  32
ENDBRANCH  27  28
ENDBRANCH   1  27
TORSDOF 14
ENDMDL
