MODEL 1
REMARK VINA RESULT:     -12.1      0.000      0.000
REMARK SMILES CC(=O)Oc1ccccc1C(=O)NCCCCNC(=O)c1ccc(-c2c3nc(c(-c4c(F)c(F)c(F)c(F)c4F)c4ccc([nH]4)c(-c4c(F)c(F)c(F)c(F)c4F)c4nc(c(-c5c(F)c(F)c(F)c(F)c5F)c5ccc2[nH]5)C=C4)C=C3)cc1
REMARK SMILES IDX 15 1 14 2 13 3 11 4 12 5 10 7 5 8 6 9 7 10 9 11 8 12 4 13
REMARK SMILES IDX 2 14 1 15 3 16 16 17 17 18 18 19 19 20 20 22 21 23 22 24
REMARK SMILES IDX 83 25 23 26 82 27 24 28 25 29 26 30 76 31 27 32 81 33 75 34
REMARK SMILES IDX 77 35 28 36 80 37 74 38 73 39 29 41 61 42 41 43 60 44 42 45
REMARK SMILES IDX 45 46 59 47 78 48 43 49 44 50 58 52 79 53 46 54 30 55 31 56
REMARK SMILES IDX 39 57 32 58 33 59 37 60 40 61 34 62 35 63 38 64 36 65 62 66
REMARK SMILES IDX 63 67 71 68 64 69 65 70 69 71 72 72 66 73 67 74 70 75 68 76
REMARK SMILES IDX 47 77 48 78 56 79 49 80 50 81 54 82 57 83 51 84 52 85 55 86
REMARK SMILES IDX 53 87
REMARK H PARENT 13 6 18 21 77 40 45 51
REMARK Flexibility Score: inf
ROOT
ATOM      1  C   UNL A   1      31.636  30.909  25.876  1.00  0.00     0.023 C 
ENDROOT
BRANCH   1   2
ATOM      2  C   UNL A   1      32.760  29.884  25.852  1.00  0.00     0.116 C 
BRANCH   2   3
ATOM      3  N   UNL A   1      33.318  29.593  24.554  1.00  0.00    -0.352 N 
ATOM      4  C   UNL A   1      32.780  28.881  23.505  1.00  0.00     0.255 C 
ATOM      5  O   UNL A   1      33.454  28.792  22.477  1.00  0.00    -0.269 OA
ATOM      6  H   UNL A   1      34.219  29.956  24.394  1.00  0.00     0.163 HD
BRANCH   4   7
ATOM      7  C   UNL A   1      31.493  28.131  23.590  1.00  0.00     0.082 A 
ATOM      8  C   UNL A   1      30.327  28.349  22.844  1.00  0.00     0.143 A 
ATOM      9  C   UNL A   1      29.158  27.617  23.101  1.00  0.00     0.048 A 
ATOM     10  C   UNL A   1      29.155  26.612  24.065  1.00  0.00     0.004 A 
ATOM     11  C   UNL A   1      31.477  27.081  24.530  1.00  0.00     0.018 A 
ATOM     12  C   UNL A   1      30.321  26.331  24.769  1.00  0.00     0.001 A 
BRANCH   8  13
ATOM     13  O   UNL A   1      30.175  29.347  21.872  1.00  0.00    -0.426 OA
BRANCH  13  14
ATOM     14  C   UNL A   1      29.005  30.096  21.907  1.00  0.00     0.308 C 
ATOM     15  C   UNL A   1      29.004  30.928  23.159  1.00  0.00     0.139 C 
ATOM     16  O   UNL A   1      28.101  30.075  21.084  1.00  0.00    -0.252 OA
ENDBRANCH  13  14
ENDBRANCH   8  13
ENDBRANCH   4   7
ENDBRANCH   2   3
ENDBRANCH   1   2
BRANCH   1  17
ATOM     17  C   UNL A   1      31.593  31.848  27.082  1.00  0.00     0.023 C 
BRANCH  17  18
ATOM     18  C   UNL A   1      32.757  32.820  27.260  1.00  0.00     0.116 C 
BRANCH  18  19
ATOM     19  N   UNL A   1      32.372  34.166  27.656  1.00  0.00    -0.352 N 
ATOM     20  C   UNL A   1      32.962  35.024  28.559  1.00  0.00     0.251 C 
ATOM     21  H   UNL A   1      31.566  34.518  27.212  1.00  0.00     0.163 HD
ATOM     22  O   UNL A   1      32.475  36.132  28.762  1.00  0.00    -0.269 OA
BRANCH  20  23
ATOM     23  C   UNL A   1      34.143  34.589  29.338  1.00  0.00     0.039 A 
ATOM     24  C   UNL A   1      33.940  34.046  30.611  1.00  0.00     0.014 A 
ATOM     25  C   UNL A   1      35.432  34.654  28.804  1.00  0.00     0.014 A 
ATOM     26  C   UNL A   1      35.009  33.459  31.294  1.00  0.00     0.010 A 
ATOM     27  C   UNL A   1      36.479  33.999  29.449  1.00  0.00     0.010 A 
ATOM     28  C   UNL A   1      36.274  33.373  30.689  1.00  0.00    -0.014 A 
BRANCH  28  29
ATOM     29  C   UNL A   1      37.378  32.600  31.320  1.00  0.00     0.031 A 
ATOM     30  C   UNL A   1      37.883  32.973  32.687  1.00  0.00     0.074 A 
ATOM     31  C   UNL A   1      37.973  31.602  30.634  1.00  0.00     0.049 A 
ATOM     32  N   UNL A   1      38.884  32.471  33.366  1.00  0.00    -0.248 NA
ATOM     33  C   UNL A   1      37.185  34.072  33.373  1.00  0.00     0.031 C 
ATOM     34  C   UNL A   1      37.611  31.171  29.282  1.00  0.00     0.029 A 
ATOM     35  N   UNL A   1      39.016  30.776  30.974  1.00  0.00    -0.354 N 
ATOM     36  C   UNL A   1      38.937  33.192  34.551  1.00  0.00     0.074 A 
ATOM     37  C   UNL A   1      37.906  34.206  34.476  1.00  0.00     0.031 C 
ATOM     38  C   UNL A   1      38.401  30.148  28.918  1.00  0.00     0.029 A 
ATOM     39  C   UNL A   1      39.353  29.876  29.989  1.00  0.00     0.049 A 
ATOM     40  H   UNL A   1      39.480  30.822  31.841  1.00  0.00     0.167 HD
ATOM     41  C   UNL A   1      39.749  33.009  35.618  1.00  0.00     0.037 A 
ATOM     42  C   UNL A   1      40.325  28.944  29.951  1.00  0.00     0.037 A 
ATOM     43  C   UNL A   1      40.765  31.990  35.702  1.00  0.00     0.049 A 
ATOM     44  C   UNL A   1      41.232  28.782  31.144  1.00  0.00     0.074 A 
ATOM     45  C   UNL A   1      41.618  31.707  36.754  1.00  0.00     0.029 A 
ATOM     46  N   UNL A   1      41.061  31.087  34.691  1.00  0.00    -0.354 N 
ATOM     47  N   UNL A   1      41.228  29.430  32.283  1.00  0.00    -0.248 NA
ATOM     48  C   UNL A   1      42.276  27.751  31.046  1.00  0.00     0.031 C 
ATOM     49  C   UNL A   1      42.456  30.657  36.367  1.00  0.00     0.029 A 
ATOM     50  C   UNL A   1      42.094  30.254  35.093  1.00  0.00     0.049 A 
ATOM     51  H   UNL A   1      40.606  31.045  33.820  1.00  0.00     0.167 HD
ATOM     52  C   UNL A   1      42.239  28.862  33.047  1.00  0.00     0.074 A 
ATOM     53  C   UNL A   1      42.825  27.806  32.251  1.00  0.00     0.031 C 
ATOM     54  C   UNL A   1      42.649  29.190  34.298  1.00  0.00     0.037 A 
BRANCH  41  55
ATOM     55  C   UNL A   1      39.565  33.917  36.799  1.00  0.00     0.064 A 
ATOM     56  C   UNL A   1      38.779  33.534  37.897  1.00  0.00     0.173 A 
ATOM     57  C   UNL A   1      40.225  35.152  36.864  1.00  0.00     0.173 A 
ATOM     58  F   UNL A   1      38.119  32.366  37.879  1.00  0.00    -0.203 F 
ATOM     59  C   UNL A   1      38.645  34.363  39.007  1.00  0.00     0.198 A 
ATOM     60  C   UNL A   1      40.113  35.966  37.987  1.00  0.00     0.198 A 
ATOM     61  F   UNL A   1      40.994  35.563  35.843  1.00  0.00    -0.203 F 
ATOM     62  F   UNL A   1      37.858  33.993  40.026  1.00  0.00    -0.200 F 
ATOM     63  C   UNL A   1      39.319  35.574  39.055  1.00  0.00     0.200 A 
ATOM     64  F   UNL A   1      40.775  37.130  38.039  1.00  0.00    -0.200 F 
ATOM     65  F   UNL A   1      39.200  36.364  40.131  1.00  0.00    -0.200 F 
ENDBRANCH  41  55
BRANCH  42  66
ATOM     66  C   UNL A   1      40.496  28.076  28.755  1.00  0.00     0.064 A 
ATOM     67  C   UNL A   1      41.283  28.491  27.671  1.00  0.00     0.173 A 
ATOM     68  C   UNL A   1      39.840  26.841  28.646  1.00  0.00     0.173 A 
ATOM     69  F   UNL A   1      41.914  29.674  27.716  1.00  0.00    -0.203 F 
ATOM     70  C   UNL A   1      41.376  27.724  26.510  1.00  0.00     0.198 A 
ATOM     71  C   UNL A   1      39.961  26.059  27.499  1.00  0.00     0.198 A 
ATOM     72  F   UNL A   1      39.078  26.394  29.655  1.00  0.00    -0.203 F 
ATOM     73  F   UNL A   1      42.081  28.178  25.465  1.00  0.00    -0.200 F 
ATOM     74  C   UNL A   1      40.717  26.507  26.427  1.00  0.00     0.200 A 
ATOM     75  F   UNL A   1      39.333  24.877  27.427  1.00  0.00    -0.200 F 
ATOM     76  F   UNL A   1      40.800  25.774  25.309  1.00  0.00    -0.200 F 
ENDBRANCH  42  66
BRANCH  54  77
ATOM     77  C   UNL A   1      43.747  28.365  34.903  1.00  0.00     0.064 A 
ATOM     78  C   UNL A   1      43.479  27.189  35.618  1.00  0.00     0.173 A 
ATOM     79  C   UNL A   1      45.089  28.737  34.729  1.00  0.00     0.173 A 
ATOM     80  F   UNL A   1      42.213  26.798  35.825  1.00  0.00    -0.203 F 
ATOM     81  C   UNL A   1      44.513  26.431  36.162  1.00  0.00     0.198 A 
ATOM     82  C   UNL A   1      46.121  27.961  35.247  1.00  0.00     0.198 A 
ATOM     83  F   UNL A   1      45.399  29.850  34.046  1.00  0.00    -0.203 F 
ATOM     84  F   UNL A   1      44.232  25.339  36.886  1.00  0.00    -0.200 F 
ATOM     85  C   UNL A   1      45.833  26.813  35.969  1.00  0.00     0.200 A 
ATOM     86  F   UNL A   1      47.395  28.323  35.046  1.00  0.00    -0.200 F 
ATOM     87  F   UNL A   1      46.826  26.078  36.486  1.00  0.00    -0.200 F 
ENDBRANCH  54  77
ENDBRANCH  28  29
ENDBRANCH  20  23
ENDBRANCH  18  19
ENDBRANCH  17  18
ENDBRANCH   1  17
TORSDOF 13
ENDMDL
MODEL 2
REMARK VINA RESULT:     -12.0      0.700      1.519
REMARK SMILES CC(=O)Oc1ccccc1C(=O)NCCCCNC(=O)c1ccc(-c2c3nc(c(-c4c(F)c(F)c(F)c(F)c4F)c4ccc([nH]4)c(-c4c(F)c(F)c(F)c(F)c4F)c4nc(c(-c5c(F)c(F)c(F)c(F)c5F)c5ccc2[nH]5)C=C4)C=C3)cc1
REMARK SMILES IDX 15 1 14 2 13 3 11 4 12 5 10 7 5 8 6 9 7 10 9 11 8 12 4 13
REMARK SMILES IDX 2 14 1 15 3 16 16 17 17 18 18 19 19 20 20 22 21 23 22 24
REMARK SMILES IDX 83 25 23 26 82 27 24 28 25 29 26 30 76 31 27 32 81 33 75 34
REMARK SMILES IDX 77 35 28 36 80 37 74 38 73 39 29 41 61 42 41 43 60 44 42 45
REMARK SMILES IDX 45 46 59 47 78 48 43 49 44 50 58 52 79 53 46 54 30 55 31 56
REMARK SMILES IDX 39 57 32 58 33 59 37 60 40 61 34 62 35 63 38 64 36 65 62 66
REMARK SMILES IDX 63 67 71 68 64 69 65 70 69 71 72 72 66 73 67 74 70 75 68 76
REMARK SMILES IDX 47 77 48 78 56 79 49 80 50 81 54 82 57 83 51 84 52 85 55 86
REMARK SMILES IDX 53 87
REMARK H PARENT 13 6 18 21 77 40 45 51
REMARK Flexibility Score: inf
ROOT
ATOM      1  C   UNL A   1      31.717  30.715  26.055  1.00  0.00     0.023 C 
ENDROOT
BRANCH   1   2
ATOM      2  C   UNL A   1      33.021  29.989  26.352  1.00  0.00     0.116 C 
BRANCH   2   3
ATOM      3  N   UNL A   1      33.720  29.458  25.207  1.00  0.00    -0.352 N 
ATOM      4  C   UNL A   1      33.512  28.286  24.515  1.00  0.00     0.255 C 
ATOM      5  O   UNL A   1      34.237  28.067  23.543  1.00  0.00    -0.269 OA
ATOM      6  H   UNL A   1      34.457  30.018  24.869  1.00  0.00     0.163 HD
BRANCH   4   7
ATOM      7  C   UNL A   1      32.546  27.234  24.945  1.00  0.00     0.082 A 
ATOM      8  C   UNL A   1      31.154  27.237  24.781  1.00  0.00     0.143 A 
ATOM      9  C   UNL A   1      30.362  26.213  25.323  1.00  0.00     0.048 A 
ATOM     10  C   UNL A   1      30.955  25.138  25.981  1.00  0.00     0.004 A 
ATOM     11  C   UNL A   1      33.125  26.116  25.578  1.00  0.00     0.018 A 
ATOM     12  C   UNL A   1      32.340  25.080  26.095  1.00  0.00     0.001 A 
BRANCH   8  13
ATOM     13  O   UNL A   1      30.422  28.266  24.175  1.00  0.00    -0.426 OA
BRANCH  13  14
ATOM     14  C   UNL A   1      30.041  28.081  22.852  1.00  0.00     0.308 C 
ATOM     15  C   UNL A   1      28.714  28.756  22.635  1.00  0.00     0.139 C 
ATOM     16  O   UNL A   1      30.651  27.453  21.998  1.00  0.00    -0.252 OA
ENDBRANCH  13  14
ENDBRANCH   8  13
ENDBRANCH   4   7
ENDBRANCH   2   3
ENDBRANCH   1   2
BRANCH   1  17
ATOM     17  C   UNL A   1      31.433  31.972  26.877  1.00  0.00     0.023 C 
BRANCH  17  18
ATOM     18  C   UNL A   1      32.623  32.853  27.250  1.00  0.00     0.116 C 
BRANCH  18  19
ATOM     19  N   UNL A   1      32.276  34.211  27.644  1.00  0.00    -0.352 N 
ATOM     20  C   UNL A   1      32.901  35.061  28.530  1.00  0.00     0.251 C 
ATOM     21  H   UNL A   1      31.471  34.579  27.210  1.00  0.00     0.163 HD
ATOM     22  O   UNL A   1      32.443  36.182  28.733  1.00  0.00    -0.269 OA
BRANCH  20  23
ATOM     23  C   UNL A   1      34.085  34.604  29.292  1.00  0.00     0.039 A 
ATOM     24  C   UNL A   1      33.893  34.082  30.575  1.00  0.00     0.014 A 
ATOM     25  C   UNL A   1      35.364  34.628  28.733  1.00  0.00     0.014 A 
ATOM     26  C   UNL A   1      34.958  33.475  31.245  1.00  0.00     0.010 A 
ATOM     27  C   UNL A   1      36.407  33.953  29.366  1.00  0.00     0.010 A 
ATOM     28  C   UNL A   1      36.209  33.348  30.617  1.00  0.00    -0.014 A 
BRANCH  28  29
ATOM     29  C   UNL A   1      37.304  32.553  31.237  1.00  0.00     0.031 A 
ATOM     30  C   UNL A   1      37.812  32.900  32.609  1.00  0.00     0.074 A 
ATOM     31  C   UNL A   1      37.887  31.559  30.537  1.00  0.00     0.049 A 
ATOM     32  N   UNL A   1      38.808  32.377  33.281  1.00  0.00    -0.248 NA
ATOM     33  C   UNL A   1      37.127  33.997  33.311  1.00  0.00     0.031 C 
ATOM     34  C   UNL A   1      37.521  31.152  29.178  1.00  0.00     0.029 A 
ATOM     35  N   UNL A   1      38.921  30.716  30.864  1.00  0.00    -0.354 N 
ATOM     36  C   UNL A   1      38.868  33.080  34.477  1.00  0.00     0.074 A 
ATOM     37  C   UNL A   1      37.850  34.106  34.416  1.00  0.00     0.031 C 
ATOM     38  C   UNL A   1      38.299  30.125  28.799  1.00  0.00     0.029 A 
ATOM     39  C   UNL A   1      39.248  29.826  29.866  1.00  0.00     0.049 A 
ATOM     40  H   UNL A   1      39.385  30.744  31.731  1.00  0.00     0.167 HD
ATOM     41  C   UNL A   1      39.679  32.871  35.540  1.00  0.00     0.037 A 
ATOM     42  C   UNL A   1      40.210  28.884  29.814  1.00  0.00     0.037 A 
ATOM     43  C   UNL A   1      40.683  31.840  35.609  1.00  0.00     0.049 A 
ATOM     44  C   UNL A   1      41.114  28.694  31.004  1.00  0.00     0.074 A 
ATOM     45  C   UNL A   1      41.532  31.532  36.657  1.00  0.00     0.029 A 
ATOM     46  N   UNL A   1      40.969  30.949  34.586  1.00  0.00    -0.354 N 
ATOM     47  N   UNL A   1      41.118  29.325  32.153  1.00  0.00    -0.248 NA
ATOM     48  C   UNL A   1      42.147  27.653  30.892  1.00  0.00     0.031 C 
ATOM     49  C   UNL A   1      42.359  30.478  36.254  1.00  0.00     0.029 A 
ATOM     50  C   UNL A   1      41.992  30.098  34.975  1.00  0.00     0.049 A 
ATOM     51  H   UNL A   1      40.514  30.924  33.714  1.00  0.00     0.167 HD
ATOM     52  C   UNL A   1      42.122  28.735  32.909  1.00  0.00     0.074 A 
ATOM     53  C   UNL A   1      42.696  27.685  32.097  1.00  0.00     0.031 C 
ATOM     54  C   UNL A   1      42.535  29.040  34.164  1.00  0.00     0.037 A 
BRANCH  41  55
ATOM     55  C   UNL A   1      39.504  33.764  36.735  1.00  0.00     0.064 A 
ATOM     56  C   UNL A   1      38.703  33.379  37.821  1.00  0.00     0.173 A 
ATOM     57  C   UNL A   1      40.189  34.985  36.824  1.00  0.00     0.173 A 
ATOM     58  F   UNL A   1      38.020  32.226  37.780  1.00  0.00    -0.203 F 
ATOM     59  C   UNL A   1      38.579  34.193  38.943  1.00  0.00     0.198 A 
ATOM     60  C   UNL A   1      40.085  35.783  37.960  1.00  0.00     0.198 A 
ATOM     61  F   UNL A   1      40.973  35.396  35.815  1.00  0.00    -0.203 F 
ATOM     62  F   UNL A   1      37.777  33.823  39.951  1.00  0.00    -0.200 F 
ATOM     63  C   UNL A   1      39.276  35.390  39.015  1.00  0.00     0.200 A 
ATOM     64  F   UNL A   1      40.771  36.932  38.035  1.00  0.00    -0.200 F 
ATOM     65  F   UNL A   1      39.166  36.165  40.103  1.00  0.00    -0.200 F 
ENDBRANCH  41  55
BRANCH  42  66
ATOM     66  C   UNL A   1      40.371  28.032  28.605  1.00  0.00     0.064 A 
ATOM     67  C   UNL A   1      39.764  26.770  28.527  1.00  0.00     0.173 A 
ATOM     68  C   UNL A   1      41.173  28.435  27.527  1.00  0.00     0.173 A 
ATOM     69  F   UNL A   1      39.006  26.328  29.541  1.00  0.00    -0.203 F 
ATOM     70  C   UNL A   1      39.983  25.930  27.436  1.00  0.00     0.198 A 
ATOM     71  C   UNL A   1      41.364  27.608  26.422  1.00  0.00     0.198 A 
ATOM     72  F   UNL A   1      41.773  29.634  27.548  1.00  0.00    -0.203 F 
ATOM     73  F   UNL A   1      39.444  24.703  27.420  1.00  0.00    -0.200 F 
ATOM     74  C   UNL A   1      40.781  26.351  26.383  1.00  0.00     0.200 A 
ATOM     75  F   UNL A   1      42.125  28.024  25.400  1.00  0.00    -0.200 F 
ATOM     76  F   UNL A   1      40.998  25.540  25.339  1.00  0.00    -0.200 F 
ENDBRANCH  42  66
BRANCH  54  77
ATOM     77  C   UNL A   1      43.624  28.193  34.757  1.00  0.00     0.064 A 
ATOM     78  C   UNL A   1      43.345  26.992  35.424  1.00  0.00     0.173 A 
ATOM     79  C   UNL A   1      44.968  28.573  34.619  1.00  0.00     0.173 A 
ATOM     80  F   UNL A   1      42.076  26.594  35.595  1.00  0.00    -0.203 F 
ATOM     81  C   UNL A   1      44.371  26.215  35.957  1.00  0.00     0.198 A 
ATOM     82  C   UNL A   1      45.992  27.778  35.126  1.00  0.00     0.198 A 
ATOM     83  F   UNL A   1      45.289  29.709  33.983  1.00  0.00    -0.203 F 
ATOM     84  F   UNL A   1      44.078  25.097  36.635  1.00  0.00    -0.200 F 
ATOM     85  C   UNL A   1      45.693  26.604  35.800  1.00  0.00     0.200 A 
ATOM     86  F   UNL A   1      47.269  28.148  34.960  1.00  0.00    -0.200 F 
ATOM     87  F   UNL A   1      46.678  25.851  36.307  1.00  0.00    -0.200 F 
ENDBRANCH  54  77
ENDBRANCH  28  29
ENDBRANCH  20  23
ENDBRANCH  18  19
ENDBRANCH  17  18
ENDBRANCH   1  17
TORSDOF 13
ENDMDL
MODEL 3
REMARK VINA RESULT:     -12.0      0.774      2.304
REMARK SMILES CC(=O)Oc1ccccc1C(=O)NCCCCNC(=O)c1ccc(-c2c3nc(c(-c4c(F)c(F)c(F)c(F)c4F)c4ccc([nH]4)c(-c4c(F)c(F)c(F)c(F)c4F)c4nc(c(-c5c(F)c(F)c(F)c(F)c5F)c5ccc2[nH]5)C=C4)C=C3)cc1
REMARK SMILES IDX 15 1 14 2 13 3 11 4 12 5 10 7 5 8 6 9 7 10 9 11 8 12 4 13
REMARK SMILES IDX 2 14 1 15 3 16 16 17 17 18 18 19 19 20 20 22 21 23 22 24
REMARK SMILES IDX 83 25 23 26 82 27 24 28 25 29 26 30 76 31 27 32 81 33 75 34
REMARK SMILES IDX 77 35 28 36 80 37 74 38 73 39 29 41 61 42 41 43 60 44 42 45
REMARK SMILES IDX 45 46 59 47 78 48 43 49 44 50 58 52 79 53 46 54 30 55 31 56
REMARK SMILES IDX 39 57 32 58 33 59 37 60 40 61 34 62 35 63 38 64 36 65 62 66
REMARK SMILES IDX 63 67 71 68 64 69 65 70 69 71 72 72 66 73 67 74 70 75 68 76
REMARK SMILES IDX 47 77 48 78 56 79 49 80 50 81 54 82 57 83 51 84 52 85 55 86
REMARK SMILES IDX 53 87
REMARK H PARENT 13 6 18 21 77 40 45 51
REMARK Flexibility Score: inf
ROOT
ATOM      1  C   UNL A   1      31.768  30.447  26.489  1.00  0.00     0.023 C 
ENDROOT
BRANCH   1   2
ATOM      2  C   UNL A   1      33.222  30.017  26.370  1.00  0.00     0.116 C 
BRANCH   2   3
ATOM      3  N   UNL A   1      33.677  29.701  25.037  1.00  0.00    -0.352 N 
ATOM      4  C   UNL A   1      33.499  28.555  24.295  1.00  0.00     0.255 C 
ATOM      5  O   UNL A   1      33.971  28.539  23.157  1.00  0.00    -0.269 OA
ATOM      6  H   UNL A   1      34.192  30.412  24.591  1.00  0.00     0.163 HD
BRANCH   4   7
ATOM      7  C   UNL A   1      32.875  27.311  24.834  1.00  0.00     0.082 A 
ATOM      8  C   UNL A   1      31.515  26.969  24.831  1.00  0.00     0.143 A 
ATOM      9  C   UNL A   1      31.064  25.799  25.460  1.00  0.00     0.048 A 
ATOM     10  C   UNL A   1      31.972  24.921  26.047  1.00  0.00     0.004 A 
ATOM     11  C   UNL A   1      33.777  26.388  25.399  1.00  0.00     0.018 A 
ATOM     12  C   UNL A   1      33.332  25.207  26.002  1.00  0.00     0.001 A 
BRANCH   8  13
ATOM     13  O   UNL A   1      30.491  27.771  24.311  1.00  0.00    -0.426 OA
BRANCH  13  14
ATOM     14  C   UNL A   1      30.522  28.038  22.948  1.00  0.00     0.308 C 
ATOM     15  C   UNL A   1      30.174  29.485  22.733  1.00  0.00     0.139 C 
ATOM     16  O   UNL A   1      30.761  27.239  22.053  1.00  0.00    -0.252 OA
ENDBRANCH  13  14
ENDBRANCH   8  13
ENDBRANCH   4   7
ENDBRANCH   2   3
ENDBRANCH   1   2
BRANCH   1  17
ATOM     17  C   UNL A   1      31.513  31.936  26.722  1.00  0.00     0.023 C 
BRANCH  17  18
ATOM     18  C   UNL A   1      32.672  32.774  27.256  1.00  0.00     0.116 C 
BRANCH  18  19
ATOM     19  N   UNL A   1      32.311  34.124  27.664  1.00  0.00    -0.352 N 
ATOM     20  C   UNL A   1      32.930  34.973  28.556  1.00  0.00     0.251 C 
ATOM     21  H   UNL A   1      31.500  34.486  27.238  1.00  0.00     0.163 HD
ATOM     22  O   UNL A   1      32.461  36.086  28.772  1.00  0.00    -0.269 OA
BRANCH  20  23
ATOM     23  C   UNL A   1      34.123  34.522  29.308  1.00  0.00     0.039 A 
ATOM     24  C   UNL A   1      33.937  33.921  30.557  1.00  0.00     0.014 A 
ATOM     25  C   UNL A   1      35.407  34.630  28.769  1.00  0.00     0.014 A 
ATOM     26  C   UNL A   1      35.019  33.322  31.207  1.00  0.00     0.010 A 
ATOM     27  C   UNL A   1      36.469  33.962  29.379  1.00  0.00     0.010 A 
ATOM     28  C   UNL A   1      36.281  33.281  30.592  1.00  0.00    -0.014 A 
BRANCH  28  29
ATOM     29  C   UNL A   1      37.401  32.498  31.182  1.00  0.00     0.031 A 
ATOM     30  C   UNL A   1      37.941  32.850  32.540  1.00  0.00     0.074 A 
ATOM     31  C   UNL A   1      37.976  31.510  30.466  1.00  0.00     0.049 A 
ATOM     32  N   UNL A   1      38.960  32.337  33.185  1.00  0.00    -0.248 NA
ATOM     33  C   UNL A   1      37.263  33.939  33.261  1.00  0.00     0.031 C 
ATOM     34  C   UNL A   1      37.578  31.100  29.117  1.00  0.00     0.029 A 
ATOM     35  N   UNL A   1      39.027  30.678  30.765  1.00  0.00    -0.354 N 
ATOM     36  C   UNL A   1      39.044  33.041  34.380  1.00  0.00     0.074 A 
ATOM     37  C   UNL A   1      38.013  34.056  34.346  1.00  0.00     0.031 C 
ATOM     38  C   UNL A   1      38.357  30.081  28.717  1.00  0.00     0.029 A 
ATOM     39  C   UNL A   1      39.337  29.793  29.759  1.00  0.00     0.049 A 
ATOM     40  H   UNL A   1      39.514  30.711  31.620  1.00  0.00     0.167 HD
ATOM     41  C   UNL A   1      39.885  32.840  35.421  1.00  0.00     0.037 A 
ATOM     42  C   UNL A   1      40.307  28.861  29.681  1.00  0.00     0.037 A 
ATOM     43  C   UNL A   1      40.901  31.821  35.463  1.00  0.00     0.049 A 
ATOM     44  C   UNL A   1      41.245  28.681  30.847  1.00  0.00     0.074 A 
ATOM     45  C   UNL A   1      41.781  31.521  36.488  1.00  0.00     0.029 A 
ATOM     46  N   UNL A   1      41.170  30.933  34.432  1.00  0.00    -0.354 N 
ATOM     47  N   UNL A   1      41.272  29.311  31.995  1.00  0.00    -0.248 NA
ATOM     48  C   UNL A   1      42.285  27.651  30.707  1.00  0.00     0.031 C 
ATOM     49  C   UNL A   1      42.608  30.476  36.063  1.00  0.00     0.029 A 
ATOM     50  C   UNL A   1      42.212  30.093  34.793  1.00  0.00     0.049 A 
ATOM     51  H   UNL A   1      40.692  30.903  33.572  1.00  0.00     0.167 HD
ATOM     52  C   UNL A   1      42.302  28.732  32.724  1.00  0.00     0.074 A 
ATOM     53  C   UNL A   1      42.866  27.688  31.897  1.00  0.00     0.031 C 
ATOM     54  C   UNL A   1      42.745  29.040  33.968  1.00  0.00     0.037 A 
BRANCH  41  55
ATOM     55  C   UNL A   1      39.732  33.731  36.620  1.00  0.00     0.064 A 
ATOM     56  C   UNL A   1      40.386  34.970  36.696  1.00  0.00     0.173 A 
ATOM     57  C   UNL A   1      38.879  33.374  37.675  1.00  0.00     0.173 A 
ATOM     58  F   UNL A   1      41.220  35.353  35.718  1.00  0.00    -0.203 F 
ATOM     59  C   UNL A   1      40.208  35.810  37.792  1.00  0.00     0.198 A 
ATOM     60  C   UNL A   1      38.680  34.228  38.756  1.00  0.00     0.198 A 
ATOM     61  F   UNL A   1      38.225  32.202  37.649  1.00  0.00    -0.203 F 
ATOM     62  F   UNL A   1      40.873  36.970  37.860  1.00  0.00    -0.200 F 
ATOM     63  C   UNL A   1      39.349  35.442  38.816  1.00  0.00     0.200 A 
ATOM     64  F   UNL A   1      37.839  33.878  39.739  1.00  0.00    -0.200 F 
ATOM     65  F   UNL A   1      39.167  36.258  39.864  1.00  0.00    -0.200 F 
ENDBRANCH  41  55
BRANCH  42  66
ATOM     66  C   UNL A   1      40.446  28.011  28.468  1.00  0.00     0.064 A 
ATOM     67  C   UNL A   1      39.854  26.741  28.406  1.00  0.00     0.173 A 
ATOM     68  C   UNL A   1      41.211  28.425  27.368  1.00  0.00     0.173 A 
ATOM     69  F   UNL A   1      39.131  26.289  29.441  1.00  0.00    -0.203 F 
ATOM     70  C   UNL A   1      40.054  25.904  27.309  1.00  0.00     0.198 A 
ATOM     71  C   UNL A   1      41.383  27.601  26.258  1.00  0.00     0.198 A 
ATOM     72  F   UNL A   1      41.796  29.632  27.372  1.00  0.00    -0.203 F 
ATOM     73  F   UNL A   1      39.531  24.670  27.308  1.00  0.00    -0.200 F 
ATOM     74  C   UNL A   1      40.815  26.335  26.235  1.00  0.00     0.200 A 
ATOM     75  F   UNL A   1      42.109  28.026  25.215  1.00  0.00    -0.200 F 
ATOM     76  F   UNL A   1      41.014  25.528  25.185  1.00  0.00    -0.200 F 
ENDBRANCH  42  66
BRANCH  54  77
ATOM     77  C   UNL A   1      43.858  28.206  34.532  1.00  0.00     0.064 A 
ATOM     78  C   UNL A   1      45.202  28.592  34.416  1.00  0.00     0.173 A 
ATOM     79  C   UNL A   1      43.571  27.023  35.231  1.00  0.00     0.173 A 
ATOM     80  F   UNL A   1      45.529  29.705  33.744  1.00  0.00    -0.203 F 
ATOM     81  C   UNL A   1      46.219  27.808  34.956  1.00  0.00     0.198 A 
ATOM     82  C   UNL A   1      44.588  26.260  35.796  1.00  0.00     0.198 A 
ATOM     83  F   UNL A   1      42.301  26.614  35.375  1.00  0.00    -0.203 F 
ATOM     84  F   UNL A   1      47.498  28.170  34.790  1.00  0.00    -0.200 F 
ATOM     85  C   UNL A   1      45.911  26.649  35.652  1.00  0.00     0.200 A 
ATOM     86  F   UNL A   1      44.287  25.148  36.480  1.00  0.00    -0.200 F 
ATOM     87  F   UNL A   1      46.892  25.902  36.177  1.00  0.00    -0.200 F 
ENDBRANCH  54  77
ENDBRANCH  28  29
ENDBRANCH  20  23
ENDBRANCH  18  19
ENDBRANCH  17  18
ENDBRANCH   1  17
TORSDOF 13
ENDMDL
