MODEL 1
REMARK VINA RESULT:     -12.2      0.000      0.000
REMARK SMILES CC(=O)N[C@@H](Cc1c(OCC(C)C)ccc2ccccc12)C(=O)NCCCCNC(=O)c1ccc(-c2c3nc(c(-c4c(F)c(F)c(F)c(F)c4F)c4ccc([nH]4)c(-c4c(F)c(F)c(F)c(F)c4F)c4nc(c(-c5c(F)c(F)c(F)c(F)c5F)c5ccc2[nH]5)C=C4)C=C3)cc1
REMARK SMILES IDX 25 1 24 2 22 3 23 4 5 6 4 7 1 8 2 9 3 10 6 12 7 13 8 14
REMARK SMILES IDX 21 15 14 16 16 17 20 18 15 19 17 20 19 21 18 22 9 23 10 24
REMARK SMILES IDX 11 25 12 26 13 27 26 28 27 29 28 30 29 31 30 32 31 34 32 35
REMARK SMILES IDX 33 36 94 37 34 38 93 39 35 40 36 41 37 42 87 43 38 44 92 45
REMARK SMILES IDX 86 46 88 47 39 48 91 49 85 50 84 51 40 53 72 54 52 55 71 56
REMARK SMILES IDX 53 57 56 58 70 59 89 60 54 61 55 62 69 64 90 65 57 66 41 67
REMARK SMILES IDX 42 68 50 69 43 70 44 71 48 72 51 73 45 74 46 75 49 76 47 77
REMARK SMILES IDX 73 78 74 79 82 80 75 81 76 82 80 83 83 84 77 85 78 86 81 87
REMARK SMILES IDX 79 88 58 89 59 90 67 91 60 92 61 93 65 94 68 95 62 96 63 97
REMARK SMILES IDX 66 98 64 99
REMARK H PARENT 24 5 4 11 29 33 88 52 56 63
REMARK Flexibility Score: inf
ROOT
ATOM      1  C   UNL A   1      32.321  29.010  25.580  1.00  0.00     0.116 C 
ENDROOT
BRANCH   1   2
ATOM      2  N   UNL A   1      33.463  29.169  24.704  1.00  0.00    -0.354 N 
ATOM      3  C   UNL A   1      33.929  28.353  23.712  1.00  0.00     0.242 C 
ATOM      4  O   UNL A   1      34.668  28.884  22.872  1.00  0.00    -0.273 OA
ATOM      5  H   UNL A   1      33.984  29.993  24.845  1.00  0.00     0.163 HD
BRANCH   3   6
ATOM      6  C   UNL A   1      33.522  26.863  23.543  1.00  0.00     0.175 C 
BRANCH   6   7
ATOM      7  N   UNL A   1      33.685  26.361  22.177  1.00  0.00    -0.344 N 
ATOM      8  C   UNL A   1      31.357  25.595  21.877  1.00  0.00     0.114 C 
ATOM      9  C   UNL A   1      32.732  25.870  21.335  1.00  0.00     0.217 C 
ATOM     10  O   UNL A   1      33.028  25.636  20.166  1.00  0.00    -0.275 OA
ATOM     11  H   UNL A   1      34.603  26.379  21.821  1.00  0.00     0.164 HD
ENDBRANCH   6   7
BRANCH   6  12
ATOM     12  C   UNL A   1      34.070  25.914  24.636  1.00  0.00     0.075 C 
BRANCH  12  13
ATOM     13  C   UNL A   1      33.569  24.475  24.609  1.00  0.00     0.005 A 
ATOM     14  C   UNL A   1      34.267  23.525  23.831  1.00  0.00     0.123 A 
ATOM     15  C   UNL A   1      32.382  24.079  25.307  1.00  0.00    -0.011 A 
ATOM     16  C   UNL A   1      33.729  22.255  23.639  1.00  0.00     0.047 A 
ATOM     17  C   UNL A   1      31.878  22.768  25.109  1.00  0.00    -0.018 A 
ATOM     18  C   UNL A   1      31.664  24.903  26.210  1.00  0.00     0.009 A 
ATOM     19  C   UNL A   1      32.537  21.887  24.251  1.00  0.00     0.012 A 
ATOM     20  C   UNL A   1      30.723  22.332  25.776  1.00  0.00     0.009 A 
ATOM     21  C   UNL A   1      30.522  24.452  26.881  1.00  0.00     0.001 A 
ATOM     22  C   UNL A   1      30.052  23.166  26.663  1.00  0.00     0.001 A 
BRANCH  14  23
ATOM     23  O   UNL A   1      35.496  23.893  23.345  1.00  0.00    -0.493 OA
BRANCH  23  24
ATOM     24  C   UNL A   1      36.478  22.877  23.137  1.00  0.00     0.232 C 
BRANCH  24  25
ATOM     25  C   UNL A   1      37.325  22.611  24.393  1.00  0.00     0.020 C 
ATOM     26  C   UNL A   1      37.125  23.652  25.495  1.00  0.00     0.011 C 
ATOM     27  C   UNL A   1      36.999  21.223  24.947  1.00  0.00     0.011 C 
ENDBRANCH  24  25
ENDBRANCH  23  24
ENDBRANCH  14  23
ENDBRANCH  12  13
ENDBRANCH   6  12
ENDBRANCH   3   6
ENDBRANCH   1   2
BRANCH   1  28
ATOM     28  C   UNL A   1      32.407  29.791  26.885  1.00  0.00     0.023 C 
BRANCH  28  29
ATOM     29  C   UNL A   1      32.086  31.287  26.794  1.00  0.00     0.023 C 
BRANCH  29  30
ATOM     30  C   UNL A   1      33.054  32.256  27.476  1.00  0.00     0.116 C 
BRANCH  30  31
ATOM     31  N   UNL A   1      32.540  33.604  27.670  1.00  0.00    -0.352 N 
ATOM     32  C   UNL A   1      33.050  34.613  28.461  1.00  0.00     0.251 C 
ATOM     33  H   UNL A   1      31.722  33.826  27.171  1.00  0.00     0.163 HD
ATOM     34  O   UNL A   1      32.505  35.707  28.513  1.00  0.00    -0.269 OA
BRANCH  32  35
ATOM     35  C   UNL A   1      34.245  34.342  29.289  1.00  0.00     0.039 A 
ATOM     36  C   UNL A   1      34.067  33.833  30.577  1.00  0.00     0.014 A 
ATOM     37  C   UNL A   1      35.528  34.513  28.763  1.00  0.00     0.014 A 
ATOM     38  C   UNL A   1      35.175  33.388  31.301  1.00  0.00     0.010 A 
ATOM     39  C   UNL A   1      36.629  34.028  29.468  1.00  0.00     0.010 A 
ATOM     40  C   UNL A   1      36.457  33.427  30.726  1.00  0.00    -0.014 A 
BRANCH  40  41
ATOM     41  C   UNL A   1      37.610  32.752  31.378  1.00  0.00     0.031 A 
ATOM     42  C   UNL A   1      38.257  31.552  30.753  1.00  0.00     0.074 A 
ATOM     43  C   UNL A   1      38.013  33.175  32.593  1.00  0.00     0.049 A 
ATOM     44  N   UNL A   1      39.207  30.786  31.226  1.00  0.00    -0.248 NA
ATOM     45  C   UNL A   1      37.758  31.150  29.430  1.00  0.00     0.031 C 
ATOM     46  C   UNL A   1      37.437  34.302  33.330  1.00  0.00     0.029 A 
ATOM     47  N   UNL A   1      38.988  32.695  33.434  1.00  0.00    -0.354 N 
ATOM     48  C   UNL A   1      39.415  29.806  30.266  1.00  0.00     0.074 A 
ATOM     49  C   UNL A   1      38.466  30.053  29.199  1.00  0.00     0.031 C 
ATOM     50  C   UNL A   1      38.073  34.432  34.505  1.00  0.00     0.029 A 
ATOM     51  C   UNL A   1      39.076  33.377  34.623  1.00  0.00     0.049 A 
ATOM     52  H   UNL A   1      39.570  31.934  33.205  1.00  0.00     0.167 HD
ATOM     53  C   UNL A   1      40.326  28.803  30.268  1.00  0.00     0.037 A 
ATOM     54  C   UNL A   1      39.862  33.168  35.696  1.00  0.00     0.037 A 
ATOM     55  C   UNL A   1      41.282  28.569  31.320  1.00  0.00     0.049 A 
ATOM     56  C   UNL A   1      40.844  32.031  35.683  1.00  0.00     0.074 A 
ATOM     57  C   UNL A   1      42.294  27.626  31.372  1.00  0.00     0.029 A 
ATOM     58  N   UNL A   1      41.339  29.281  32.509  1.00  0.00    -0.354 N 
ATOM     59  N   UNL A   1      41.081  31.156  34.737  1.00  0.00    -0.248 NA
ATOM     60  C   UNL A   1      41.667  31.851  36.888  1.00  0.00     0.031 C 
ATOM     61  C   UNL A   1      42.935  27.737  32.610  1.00  0.00     0.029 A 
ATOM     62  C   UNL A   1      42.348  28.775  33.314  1.00  0.00     0.049 A 
ATOM     63  H   UNL A   1      40.750  30.032  32.747  1.00  0.00     0.167 HD
ATOM     64  C   UNL A   1      42.089  30.334  35.223  1.00  0.00     0.074 A 
ATOM     65  C   UNL A   1      42.430  30.823  36.542  1.00  0.00     0.031 C 
ATOM     66  C   UNL A   1      42.676  29.268  34.627  1.00  0.00     0.037 A 
BRANCH  53  67
ATOM     67  C   UNL A   1      40.338  27.876  29.089  1.00  0.00     0.064 A 
ATOM     68  C   UNL A   1      39.592  26.690  29.084  1.00  0.00     0.173 A 
ATOM     69  C   UNL A   1      41.064  28.204  27.934  1.00  0.00     0.173 A 
ATOM     70  F   UNL A   1      38.889  26.329  30.168  1.00  0.00    -0.203 F 
ATOM     71  C   UNL A   1      39.591  25.850  27.973  1.00  0.00     0.198 A 
ATOM     72  C   UNL A   1      41.041  27.374  26.816  1.00  0.00     0.198 A 
ATOM     73  F   UNL A   1      41.788  29.332  27.887  1.00  0.00    -0.203 F 
ATOM     74  F   UNL A   1      38.901  24.702  28.004  1.00  0.00    -0.200 F 
ATOM     75  C   UNL A   1      40.310  26.196  26.838  1.00  0.00     0.200 A 
ATOM     76  F   UNL A   1      41.727  27.715  25.716  1.00  0.00    -0.200 F 
ATOM     77  F   UNL A   1      40.301  25.391  25.768  1.00  0.00    -0.200 F 
ENDBRANCH  53  67
BRANCH  54  78
ATOM     78  C   UNL A   1      39.755  34.062  36.876  1.00  0.00     0.064 A 
ATOM     79  C   UNL A   1      40.463  35.271  36.927  1.00  0.00     0.173 A 
ATOM     80  C   UNL A   1      38.949  33.730  37.975  1.00  0.00     0.173 A 
ATOM     81  F   UNL A   1      41.264  35.619  35.909  1.00  0.00    -0.203 F 
ATOM     82  C   UNL A   1      40.380  36.107  38.037  1.00  0.00     0.198 A 
ATOM     83  C   UNL A   1      38.848  34.579  39.074  1.00  0.00     0.198 A 
ATOM     84  F   UNL A   1      38.249  32.586  37.972  1.00  0.00    -0.203 F 
ATOM     85  F   UNL A   1      41.097  37.239  38.077  1.00  0.00    -0.200 F 
ATOM     86  C   UNL A   1      39.568  35.763  39.108  1.00  0.00     0.200 A 
ATOM     87  F   UNL A   1      38.053  34.249  40.101  1.00  0.00    -0.200 F 
ATOM     88  F   UNL A   1      39.486  36.570  40.175  1.00  0.00    -0.200 F 
ENDBRANCH  54  78
BRANCH  66  89
ATOM     89  C   UNL A   1      43.758  28.563  35.391  1.00  0.00     0.064 A 
ATOM     90  C   UNL A   1      45.108  28.905  35.230  1.00  0.00     0.173 A 
ATOM     91  C   UNL A   1      43.436  27.565  36.323  1.00  0.00     0.173 A 
ATOM     92  F   UNL A   1      45.464  29.840  34.336  1.00  0.00    -0.203 F 
ATOM     93  C   UNL A   1      46.100  28.263  35.965  1.00  0.00     0.198 A 
ATOM     94  C   UNL A   1      44.430  26.942  37.074  1.00  0.00     0.198 A 
ATOM     95  F   UNL A   1      42.160  27.203  36.515  1.00  0.00    -0.203 F 
ATOM     96  F   UNL A   1      47.388  28.580  35.769  1.00  0.00    -0.200 F 
ATOM     97  C   UNL A   1      45.760  27.288  36.891  1.00  0.00     0.200 A 
ATOM     98  F   UNL A   1      44.099  26.007  37.975  1.00  0.00    -0.200 F 
ATOM     99  F   UNL A   1      46.717  26.677  37.604  1.00  0.00    -0.200 F 
ENDBRANCH  66  89
ENDBRANCH  40  41
ENDBRANCH  32  35
ENDBRANCH  30  31
ENDBRANCH  29  30
ENDBRANCH  28  29
ENDBRANCH   1  28
TORSDOF 17
ENDMDL
MODEL 2
REMARK VINA RESULT:     -12.0      5.521     10.871
REMARK SMILES CC(=O)N[C@@H](Cc1c(OCC(C)C)ccc2ccccc12)C(=O)NCCCCNC(=O)c1ccc(-c2c3nc(c(-c4c(F)c(F)c(F)c(F)c4F)c4ccc([nH]4)c(-c4c(F)c(F)c(F)c(F)c4F)c4nc(c(-c5c(F)c(F)c(F)c(F)c5F)c5ccc2[nH]5)C=C4)C=C3)cc1
REMARK SMILES IDX 25 1 24 2 22 3 23 4 5 6 4 7 1 8 2 9 3 10 6 12 7 13 8 14
REMARK SMILES IDX 21 15 14 16 16 17 20 18 15 19 17 20 19 21 18 22 9 23 10 24
REMARK SMILES IDX 11 25 12 26 13 27 26 28 27 29 28 30 29 31 30 32 31 34 32 35
REMARK SMILES IDX 33 36 94 37 34 38 93 39 35 40 36 41 37 42 87 43 38 44 92 45
REMARK SMILES IDX 86 46 88 47 39 48 91 49 85 50 84 51 40 53 72 54 52 55 71 56
REMARK SMILES IDX 53 57 56 58 70 59 89 60 54 61 55 62 69 64 90 65 57 66 41 67
REMARK SMILES IDX 42 68 50 69 43 70 44 71 48 72 51 73 45 74 46 75 49 76 47 77
REMARK SMILES IDX 73 78 74 79 82 80 75 81 76 82 80 83 83 84 77 85 78 86 81 87
REMARK SMILES IDX 79 88 58 89 59 90 67 91 60 92 61 93 65 94 68 95 62 96 63 97
REMARK SMILES IDX 66 98 64 99
REMARK H PARENT 24 5 4 11 29 33 88 52 56 63
REMARK Flexibility Score: inf
ROOT
ATOM      1  C   UNL A   1      35.711  21.987  24.972  1.00  0.00     0.116 C 
ENDROOT
BRANCH   1   2
ATOM      2  N   UNL A   1      35.322  22.133  26.359  1.00  0.00    -0.354 N 
ATOM      3  C   UNL A   1      34.287  22.832  26.912  1.00  0.00     0.242 C 
ATOM      4  O   UNL A   1      33.945  22.490  28.051  1.00  0.00    -0.273 OA
ATOM      5  H   UNL A   1      35.892  21.654  27.004  1.00  0.00     0.163 HD
BRANCH   3   6
ATOM      6  C   UNL A   1      33.488  23.942  26.173  1.00  0.00     0.175 C 
BRANCH   6   7
ATOM      7  N   UNL A   1      32.156  24.178  26.732  1.00  0.00    -0.344 N 
ATOM      8  C   UNL A   1      31.153  22.047  25.990  1.00  0.00     0.114 C 
ATOM      9  C   UNL A   1      31.091  23.330  26.773  1.00  0.00     0.217 C 
ATOM     10  O   UNL A   1      30.096  23.646  27.421  1.00  0.00    -0.275 OA
ATOM     11  H   UNL A   1      32.011  25.067  27.131  1.00  0.00     0.164 HD
ENDBRANCH   6   7
BRANCH   6  12
ATOM     12  C   UNL A   1      34.291  25.232  25.880  1.00  0.00     0.075 C 
BRANCH  12  13
ATOM     13  C   UNL A   1      33.636  26.254  24.959  1.00  0.00     0.005 A 
ATOM     14  C   UNL A   1      33.708  26.056  23.562  1.00  0.00     0.123 A 
ATOM     15  C   UNL A   1      33.002  27.432  25.472  1.00  0.00    -0.011 A 
ATOM     16  C   UNL A   1      33.284  27.061  22.696  1.00  0.00     0.047 A 
ATOM     17  C   UNL A   1      32.558  28.423  24.559  1.00  0.00    -0.018 A 
ATOM     18  C   UNL A   1      32.763  27.685  26.846  1.00  0.00     0.009 A 
ATOM     19  C   UNL A   1      32.738  28.241  23.188  1.00  0.00     0.012 A 
ATOM     20  C   UNL A   1      31.925  29.589  25.013  1.00  0.00     0.009 A 
ATOM     21  C   UNL A   1      32.117  28.846  27.286  1.00  0.00     0.001 A 
ATOM     22  C   UNL A   1      31.698  29.797  26.369  1.00  0.00     0.001 A 
BRANCH  14  23
ATOM     23  O   UNL A   1      34.142  24.832  23.123  1.00  0.00    -0.493 OA
BRANCH  23  24
ATOM     24  C   UNL A   1      33.296  24.080  22.253  1.00  0.00     0.232 C 
BRANCH  24  25
ATOM     25  C   UNL A   1      32.248  23.254  23.020  1.00  0.00     0.020 C 
ATOM     26  C   UNL A   1      30.863  23.902  23.048  1.00  0.00     0.011 C 
ATOM     27  C   UNL A   1      32.138  21.860  22.398  1.00  0.00     0.011 C 
ENDBRANCH  24  25
ENDBRANCH  23  24
ENDBRANCH  14  23
ENDBRANCH  12  13
ENDBRANCH   6  12
ENDBRANCH   3   6
ENDBRANCH   1   2
BRANCH   1  28
ATOM     28  C   UNL A   1      37.214  21.936  24.734  1.00  0.00     0.023 C 
BRANCH  28  29
ATOM     29  C   UNL A   1      37.911  20.628  25.125  1.00  0.00     0.023 C 
BRANCH  29  30
ATOM     30  C   UNL A   1      39.272  20.735  25.816  1.00  0.00     0.116 C 
BRANCH  30  31
ATOM     31  N   UNL A   1      40.074  19.520  25.789  1.00  0.00    -0.352 N 
ATOM     32  C   UNL A   1      41.403  19.359  26.121  1.00  0.00     0.251 C 
ATOM     33  H   UNL A   1      39.606  18.705  25.496  1.00  0.00     0.163 HD
ATOM     34  O   UNL A   1      41.939  18.261  26.056  1.00  0.00    -0.269 OA
BRANCH  32  35
ATOM     35  C   UNL A   1      42.193  20.545  26.516  1.00  0.00     0.039 A 
ATOM     36  C   UNL A   1      42.907  21.232  25.532  1.00  0.00     0.014 A 
ATOM     37  C   UNL A   1      42.159  21.018  27.830  1.00  0.00     0.014 A 
ATOM     38  C   UNL A   1      43.499  22.460  25.840  1.00  0.00     0.010 A 
ATOM     39  C   UNL A   1      42.711  22.264  28.126  1.00  0.00     0.010 A 
ATOM     40  C   UNL A   1      43.352  23.013  27.124  1.00  0.00    -0.014 A 
BRANCH  40  41
ATOM     41  C   UNL A   1      43.770  24.410  27.409  1.00  0.00     0.031 A 
ATOM     42  C   UNL A   1      42.778  25.429  27.888  1.00  0.00     0.074 A 
ATOM     43  C   UNL A   1      45.038  24.781  27.143  1.00  0.00     0.049 A 
ATOM     44  N   UNL A   1      42.947  26.711  28.094  1.00  0.00    -0.248 NA
ATOM     45  C   UNL A   1      41.414  24.949  28.151  1.00  0.00     0.031 C 
ATOM     46  C   UNL A   1      46.086  23.897  26.631  1.00  0.00     0.029 A 
ATOM     47  N   UNL A   1      45.657  26.003  27.245  1.00  0.00    -0.354 N 
ATOM     48  C   UNL A   1      41.711  27.193  28.503  1.00  0.00     0.074 A 
ATOM     49  C   UNL A   1      40.793  26.073  28.479  1.00  0.00     0.031 C 
ATOM     50  C   UNL A   1      47.219  24.601  26.473  1.00  0.00     0.029 A 
ATOM     51  C   UNL A   1      46.968  25.993  26.835  1.00  0.00     0.049 A 
ATOM     52  H   UNL A   1      45.204  26.810  27.580  1.00  0.00     0.167 HD
ATOM     53  C   UNL A   1      41.380  28.452  28.879  1.00  0.00     0.037 A 
ATOM     54  C   UNL A   1      47.864  26.993  26.744  1.00  0.00     0.037 A 
ATOM     55  C   UNL A   1      42.298  29.562  28.921  1.00  0.00     0.049 A 
ATOM     56  C   UNL A   1      47.462  28.386  27.142  1.00  0.00     0.074 A 
ATOM     57  C   UNL A   1      42.070  30.853  29.363  1.00  0.00     0.029 A 
ATOM     58  N   UNL A   1      43.618  29.512  28.497  1.00  0.00    -0.354 N 
ATOM     59  N   UNL A   1      46.309  28.814  27.596  1.00  0.00    -0.248 NA
ATOM     60  C   UNL A   1      48.483  29.435  27.011  1.00  0.00     0.031 C 
ATOM     61  C   UNL A   1      43.238  31.597  29.166  1.00  0.00     0.029 A 
ATOM     62  C   UNL A   1      44.206  30.759  28.638  1.00  0.00     0.049 A 
ATOM     63  H   UNL A   1      44.070  28.711  28.148  1.00  0.00     0.167 HD
ATOM     64  C   UNL A   1      46.471  30.173  27.822  1.00  0.00     0.074 A 
ATOM     65  C   UNL A   1      47.837  30.498  27.469  1.00  0.00     0.031 C 
ATOM     66  C   UNL A   1      45.565  31.071  28.279  1.00  0.00     0.037 A 
BRANCH  53  67
ATOM     67  C   UNL A   1      39.958  28.702  29.282  1.00  0.00     0.064 A 
ATOM     68  C   UNL A   1      39.001  29.138  28.356  1.00  0.00     0.173 A 
ATOM     69  C   UNL A   1      39.537  28.454  30.597  1.00  0.00     0.173 A 
ATOM     70  F   UNL A   1      39.356  29.396  27.088  1.00  0.00    -0.203 F 
ATOM     71  C   UNL A   1      37.676  29.341  28.736  1.00  0.00     0.198 A 
ATOM     72  C   UNL A   1      38.207  28.636  30.969  1.00  0.00     0.198 A 
ATOM     73  F   UNL A   1      40.413  28.029  31.520  1.00  0.00    -0.203 F 
ATOM     74  F   UNL A   1      36.787  29.795  27.843  1.00  0.00    -0.200 F 
ATOM     75  C   UNL A   1      37.280  29.084  30.040  1.00  0.00     0.200 A 
ATOM     76  F   UNL A   1      37.823  28.376  32.227  1.00  0.00    -0.200 F 
ATOM     77  F   UNL A   1      36.004  29.273  30.403  1.00  0.00    -0.200 F 
ENDBRANCH  53  67
BRANCH  54  78
ATOM     78  C   UNL A   1      49.239  26.713  26.258  1.00  0.00     0.064 A 
ATOM     79  C   UNL A   1      49.574  26.895  24.909  1.00  0.00     0.173 A 
ATOM     80  C   UNL A   1      50.243  26.258  27.126  1.00  0.00     0.173 A 
ATOM     81  F   UNL A   1      48.641  27.306  24.039  1.00  0.00    -0.203 F 
ATOM     82  C   UNL A   1      50.857  26.619  24.444  1.00  0.00     0.198 A 
ATOM     83  C   UNL A   1      51.532  26.005  26.663  1.00  0.00     0.198 A 
ATOM     84  F   UNL A   1      49.972  26.071  28.426  1.00  0.00    -0.203 F 
ATOM     85  F   UNL A   1      51.142  26.764  23.142  1.00  0.00    -0.200 F 
ATOM     86  C   UNL A   1      51.837  26.179  25.323  1.00  0.00     0.200 A 
ATOM     87  F   UNL A   1      52.478  25.593  27.518  1.00  0.00    -0.200 F 
ATOM     88  F   UNL A   1      53.072  25.918  24.874  1.00  0.00    -0.200 F 
ENDBRANCH  54  78
BRANCH  66  89
ATOM     89  C   UNL A   1      46.024  32.491  28.437  1.00  0.00     0.064 A 
ATOM     90  C   UNL A   1      46.634  32.935  29.618  1.00  0.00     0.173 A 
ATOM     91  C   UNL A   1      45.890  33.404  27.380  1.00  0.00     0.173 A 
ATOM     92  F   UNL A   1      46.766  32.103  30.663  1.00  0.00    -0.203 F 
ATOM     93  C   UNL A   1      47.080  34.248  29.742  1.00  0.00     0.198 A 
ATOM     94  C   UNL A   1      46.360  34.709  27.498  1.00  0.00     0.198 A 
ATOM     95  F   UNL A   1      45.315  33.027  26.229  1.00  0.00    -0.203 F 
ATOM     96  F   UNL A   1      47.627  34.662  30.894  1.00  0.00    -0.200 F 
ATOM     97  C   UNL A   1      46.950  35.131  28.680  1.00  0.00     0.200 A 
ATOM     98  F   UNL A   1      46.242  35.559  26.469  1.00  0.00    -0.200 F 
ATOM     99  F   UNL A   1      47.389  36.392  28.799  1.00  0.00    -0.200 F 
ENDBRANCH  66  89
ENDBRANCH  40  41
ENDBRANCH  32  35
ENDBRANCH  30  31
ENDBRANCH  29  30
ENDBRANCH  28  29
ENDBRANCH   1  28
TORSDOF 17
ENDMDL
MODEL 3
REMARK VINA RESULT:     -12.0      1.064      7.369
REMARK SMILES CC(=O)N[C@@H](Cc1c(OCC(C)C)ccc2ccccc12)C(=O)NCCCCNC(=O)c1ccc(-c2c3nc(c(-c4c(F)c(F)c(F)c(F)c4F)c4ccc([nH]4)c(-c4c(F)c(F)c(F)c(F)c4F)c4nc(c(-c5c(F)c(F)c(F)c(F)c5F)c5ccc2[nH]5)C=C4)C=C3)cc1
REMARK SMILES IDX 25 1 24 2 22 3 23 4 5 6 4 7 1 8 2 9 3 10 6 12 7 13 8 14
REMARK SMILES IDX 21 15 14 16 16 17 20 18 15 19 17 20 19 21 18 22 9 23 10 24
REMARK SMILES IDX 11 25 12 26 13 27 26 28 27 29 28 30 29 31 30 32 31 34 32 35
REMARK SMILES IDX 33 36 94 37 34 38 93 39 35 40 36 41 37 42 87 43 38 44 92 45
REMARK SMILES IDX 86 46 88 47 39 48 91 49 85 50 84 51 40 53 72 54 52 55 71 56
REMARK SMILES IDX 53 57 56 58 70 59 89 60 54 61 55 62 69 64 90 65 57 66 41 67
REMARK SMILES IDX 42 68 50 69 43 70 44 71 48 72 51 73 45 74 46 75 49 76 47 77
REMARK SMILES IDX 73 78 74 79 82 80 75 81 76 82 80 83 83 84 77 85 78 86 81 87
REMARK SMILES IDX 79 88 58 89 59 90 67 91 60 92 61 93 65 94 68 95 62 96 63 97
REMARK SMILES IDX 66 98 64 99
REMARK H PARENT 24 5 4 11 29 33 88 52 56 63
REMARK Flexibility Score: inf
ROOT
ATOM      1  C   UNL A   1      32.822  29.465  25.949  1.00  0.00     0.116 C 
ENDROOT
BRANCH   1   2
ATOM      2  N   UNL A   1      33.712  29.407  24.808  1.00  0.00    -0.354 N 
ATOM      3  C   UNL A   1      33.928  28.397  23.914  1.00  0.00     0.242 C 
ATOM      4  O   UNL A   1      34.431  28.726  22.832  1.00  0.00    -0.273 OA
ATOM      5  H   UNL A   1      34.242  30.223  24.652  1.00  0.00     0.163 HD
BRANCH   3   6
ATOM      6  C   UNL A   1      33.511  26.919  24.148  1.00  0.00     0.175 C 
BRANCH   6   7
ATOM      7  N   UNL A   1      33.683  26.067  22.969  1.00  0.00    -0.344 N 
ATOM      8  C   UNL A   1      31.687  26.861  21.751  1.00  0.00     0.114 C 
ATOM      9  C   UNL A   1      32.958  26.060  21.815  1.00  0.00     0.217 C 
ATOM     10  O   UNL A   1      33.343  25.377  20.868  1.00  0.00    -0.275 OA
ATOM     11  H   UNL A   1      34.417  25.413  23.017  1.00  0.00     0.164 HD
ENDBRANCH   6   7
BRANCH   6  12
ATOM     12  C   UNL A   1      34.039  26.296  25.462  1.00  0.00     0.075 C 
BRANCH  12  13
ATOM     13  C   UNL A   1      33.636  24.855  25.750  1.00  0.00     0.005 A 
ATOM     14  C   UNL A   1      32.413  24.610  26.413  1.00  0.00     0.123 A 
ATOM     15  C   UNL A   1      34.489  23.754  25.414  1.00  0.00    -0.011 A 
ATOM     16  C   UNL A   1      32.109  23.324  26.853  1.00  0.00     0.047 A 
ATOM     17  C   UNL A   1      34.133  22.454  25.856  1.00  0.00    -0.018 A 
ATOM     18  C   UNL A   1      35.677  23.859  24.648  1.00  0.00     0.009 A 
ATOM     19  C   UNL A   1      32.969  22.262  26.599  1.00  0.00     0.012 A 
ATOM     20  C   UNL A   1      34.933  21.344  25.545  1.00  0.00     0.009 A 
ATOM     21  C   UNL A   1      36.459  22.742  24.332  1.00  0.00     0.001 A 
ATOM     22  C   UNL A   1      36.086  21.485  24.782  1.00  0.00     0.001 A 
BRANCH  14  23
ATOM     23  O   UNL A   1      31.543  25.663  26.537  1.00  0.00    -0.493 OA
BRANCH  23  24
ATOM     24  C   UNL A   1      30.217  25.514  26.029  1.00  0.00     0.232 C 
BRANCH  24  25
ATOM     25  C   UNL A   1      30.152  25.663  24.499  1.00  0.00     0.020 C 
ATOM     26  C   UNL A   1      30.304  24.338  23.751  1.00  0.00     0.011 C 
ATOM     27  C   UNL A   1      28.827  26.315  24.102  1.00  0.00     0.011 C 
ENDBRANCH  24  25
ENDBRANCH  23  24
ENDBRANCH  14  23
ENDBRANCH  12  13
ENDBRANCH   6  12
ENDBRANCH   3   6
ENDBRANCH   1   2
BRANCH   1  28
ATOM     28  C   UNL A   1      31.823  30.614  25.920  1.00  0.00     0.023 C 
BRANCH  28  29
ATOM     29  C   UNL A   1      31.801  31.516  27.159  1.00  0.00     0.023 C 
BRANCH  29  30
ATOM     30  C   UNL A   1      32.905  32.568  27.283  1.00  0.00     0.116 C 
BRANCH  30  31
ATOM     31  N   UNL A   1      32.441  33.915  27.584  1.00  0.00    -0.352 N 
ATOM     32  C   UNL A   1      32.971  34.829  28.470  1.00  0.00     0.251 C 
ATOM     33  H   UNL A   1      31.645  34.213  27.089  1.00  0.00     0.163 HD
ATOM     34  O   UNL A   1      32.470  35.936  28.607  1.00  0.00    -0.269 OA
BRANCH  32  35
ATOM     35  C   UNL A   1      34.134  34.437  29.296  1.00  0.00     0.039 A 
ATOM     36  C   UNL A   1      33.906  33.913  30.570  1.00  0.00     0.014 A 
ATOM     37  C   UNL A   1      35.431  34.513  28.780  1.00  0.00     0.014 A 
ATOM     38  C   UNL A   1      34.968  33.357  31.287  1.00  0.00     0.010 A 
ATOM     39  C   UNL A   1      36.482  33.918  29.477  1.00  0.00     0.010 A 
ATOM     40  C   UNL A   1      36.252  33.302  30.719  1.00  0.00    -0.014 A 
BRANCH  40  41
ATOM     41  C   UNL A   1      37.340  32.516  31.358  1.00  0.00     0.031 A 
ATOM     42  C   UNL A   1      37.873  32.893  32.709  1.00  0.00     0.074 A 
ATOM     43  C   UNL A   1      37.912  31.510  30.667  1.00  0.00     0.049 A 
ATOM     44  N   UNL A   1      38.878  32.379  33.372  1.00  0.00    -0.248 NA
ATOM     45  C   UNL A   1      37.200  34.004  33.396  1.00  0.00     0.031 C 
ATOM     46  C   UNL A   1      37.517  31.073  29.327  1.00  0.00     0.029 A 
ATOM     47  N   UNL A   1      38.962  30.684  30.987  1.00  0.00    -0.354 N 
ATOM     48  C   UNL A   1      38.965  33.108  34.550  1.00  0.00     0.074 A 
ATOM     49  C   UNL A   1      37.934  34.125  34.493  1.00  0.00     0.031 C 
ATOM     50  C   UNL A   1      38.306  30.057  28.943  1.00  0.00     0.029 A 
ATOM     51  C   UNL A   1      39.287  29.794  29.993  1.00  0.00     0.049 A 
ATOM     52  H   UNL A   1      39.438  30.726  31.849  1.00  0.00     0.167 HD
ATOM     53  C   UNL A   1      39.816  32.934  35.588  1.00  0.00     0.037 A 
ATOM     54  C   UNL A   1      40.272  28.879  29.924  1.00  0.00     0.037 A 
ATOM     55  C   UNL A   1      40.830  31.911  35.653  1.00  0.00     0.049 A 
ATOM     56  C   UNL A   1      41.221  28.726  31.080  1.00  0.00     0.074 A 
ATOM     57  C   UNL A   1      41.686  31.610  36.697  1.00  0.00     0.029 A 
ATOM     58  N   UNL A   1      41.128  31.029  34.625  1.00  0.00    -0.354 N 
ATOM     59  N   UNL A   1      41.246  29.373  32.219  1.00  0.00    -0.248 NA
ATOM     60  C   UNL A   1      42.280  27.716  30.939  1.00  0.00     0.031 C 
ATOM     61  C   UNL A   1      42.532  30.574  36.287  1.00  0.00     0.029 A 
ATOM     62  C   UNL A   1      42.178  30.204  35.000  1.00  0.00     0.049 A 
ATOM     63  H   UNL A   1      40.665  30.994  33.757  1.00  0.00     0.167 HD
ATOM     64  C   UNL A   1      42.307  28.839  32.936  1.00  0.00     0.074 A 
ATOM     65  C   UNL A   1      42.894  27.804  32.111  1.00  0.00     0.031 C 
ATOM     66  C   UNL A   1      42.755  29.180  34.169  1.00  0.00     0.037 A 
BRANCH  53  67
ATOM     67  C   UNL A   1      39.690  33.870  36.752  1.00  0.00     0.064 A 
ATOM     68  C   UNL A   1      38.905  33.549  37.868  1.00  0.00     0.173 A 
ATOM     69  C   UNL A   1      40.402  35.079  36.774  1.00  0.00     0.173 A 
ATOM     70  F   UNL A   1      38.199  32.408  37.892  1.00  0.00    -0.203 F 
ATOM     71  C   UNL A   1      38.817  34.415  38.955  1.00  0.00     0.198 A 
ATOM     72  C   UNL A   1      40.331  35.932  37.872  1.00  0.00     0.198 A 
ATOM     73  F   UNL A   1      41.173  35.429  35.733  1.00  0.00    -0.203 F 
ATOM     74  F   UNL A   1      38.030  34.106  39.994  1.00  0.00    -0.200 F 
ATOM     75  C   UNL A   1      39.534  35.602  38.959  1.00  0.00     0.200 A 
ATOM     76  F   UNL A   1      41.033  37.073  37.879  1.00  0.00    -0.200 F 
ATOM     77  F   UNL A   1      39.454  36.431  40.008  1.00  0.00    -0.200 F 
ENDBRANCH  53  67
BRANCH  54  78
ATOM     78  C   UNL A   1      40.410  28.030  28.714  1.00  0.00     0.064 A 
ATOM     79  C   UNL A   1      41.188  28.452  27.626  1.00  0.00     0.173 A 
ATOM     80  C   UNL A   1      39.771  26.786  28.616  1.00  0.00     0.173 A 
ATOM     81  F   UNL A   1      41.799  29.645  27.666  1.00  0.00    -0.203 F 
ATOM     82  C   UNL A   1      41.309  27.668  26.482  1.00  0.00     0.198 A 
ATOM     83  C   UNL A   1      39.913  25.992  27.481  1.00  0.00     0.198 A 
ATOM     84  F   UNL A   1      39.018  26.337  29.632  1.00  0.00    -0.203 F 
ATOM     85  F   UNL A   1      42.028  28.112  25.441  1.00  0.00    -0.200 F 
ATOM     86  C   UNL A   1      40.675  26.436  26.412  1.00  0.00     0.200 A 
ATOM     87  F   UNL A   1      39.309  24.797  27.422  1.00  0.00    -0.200 F 
ATOM     88  F   UNL A   1      40.796  25.681  25.312  1.00  0.00    -0.200 F 
ENDBRANCH  54  78
BRANCH  66  89
ATOM     89  C   UNL A   1      43.931  28.420  34.708  1.00  0.00     0.064 A 
ATOM     90  C   UNL A   1      45.243  28.880  34.526  1.00  0.00     0.173 A 
ATOM     91  C   UNL A   1      43.740  27.244  35.447  1.00  0.00     0.173 A 
ATOM     92  F   UNL A   1      45.476  29.990  33.809  1.00  0.00    -0.203 F 
ATOM     93  C   UNL A   1      46.325  28.180  35.055  1.00  0.00     0.198 A 
ATOM     94  C   UNL A   1      44.822  26.560  35.996  1.00  0.00     0.198 A 
ATOM     95  F   UNL A   1      42.505  26.764  35.650  1.00  0.00    -0.203 F 
ATOM     96  F   UNL A   1      47.573  28.618  34.839  1.00  0.00    -0.200 F 
ATOM     97  C   UNL A   1      46.113  27.026  35.795  1.00  0.00     0.200 A 
ATOM     98  F   UNL A   1      44.617  25.451  36.718  1.00  0.00    -0.200 F 
ATOM     99  F   UNL A   1      47.156  26.360  36.310  1.00  0.00    -0.200 F 
ENDBRANCH  66  89
ENDBRANCH  40  41
ENDBRANCH  32  35
ENDBRANCH  30  31
ENDBRANCH  29  30
ENDBRANCH  28  29
ENDBRANCH   1  28
TORSDOF 17
ENDMDL
