MODEL 1
REMARK VINA RESULT:     -13.5      0.000      0.000
REMARK SMILES Cc1ncc(CO)c([C@H]2[NH2+][C@@H](C(=O)NCCCCNC(=O)c3ccc(-c4c5nc(c(-c6c(F)c(F)c(F)c(F)c6F)c6ccc([nH]6)c(-c6c(F)c(F)c(F)c(F)c6F)c6nc(c(-c7c(F)c(F)c(F)c(F)c7F)c7ccc4[nH]7)C=C6)C=C5)cc3)Cc3[nH]cnc32)c1O
REMARK SMILES IDX 16 1 15 2 14 3 12 4 13 5 11 7 9 8 10 9 90 10 86 13 89 14
REMARK SMILES IDX 85 15 87 16 88 17 8 19 1 20 2 21 3 22 91 23 4 24 5 25 92 26
REMARK SMILES IDX 6 28 7 29 17 31 18 32 19 33 20 34 21 36 22 37 23 38 84 39
REMARK SMILES IDX 24 40 83 41 25 42 26 43 27 44 77 45 28 46 82 47 76 48 78 49
REMARK SMILES IDX 29 50 81 51 75 52 74 53 30 55 62 56 42 57 61 58 43 59 46 60
REMARK SMILES IDX 60 61 79 62 44 63 45 64 59 66 80 67 47 68 31 69 32 70 40 71
REMARK SMILES IDX 33 72 34 73 38 74 41 75 35 76 36 77 39 78 37 79 63 80 64 81
REMARK SMILES IDX 72 82 65 83 66 84 70 85 73 86 67 87 68 88 71 89 69 90 48 91
REMARK SMILES IDX 49 92 57 93 50 94 51 95 55 96 58 97 52 98 53 99 56 100
REMARK SMILES IDX 54 101
REMARK H PARENT 14 6 10 11 10 12 87 18 92 27 7 30 19 35 78 54 46 65
REMARK Flexibility Score: inf
ROOT
ATOM      1  C   UNL A   1      38.002  20.826  25.485  1.00  0.00     0.023 C 
ENDROOT
BRANCH   1   2
ATOM      2  C   UNL A   1      36.593  21.411  25.356  1.00  0.00     0.116 C 
BRANCH   2   3
ATOM      3  N   UNL A   1      36.569  22.866  25.303  1.00  0.00    -0.351 N 
ATOM      4  C   UNL A   1      35.572  23.750  25.637  1.00  0.00     0.278 C 
ATOM      5  O   UNL A   1      35.832  24.952  25.607  1.00  0.00    -0.268 OA
ATOM      6  H   UNL A   1      37.400  23.281  24.977  1.00  0.00     0.163 HD
BRANCH   4   7
ATOM      7  C   UNL A   1      34.179  23.202  25.961  1.00  0.00     0.279 C 
ATOM      8  C   UNL A   1      32.635  21.460  25.419  1.00  0.00     0.270 C 
ATOM      9  N   UNL A   1      33.692  22.339  24.849  1.00  0.00    -0.324 N 
ATOM     10  C   UNL A   1      31.505  22.332  25.883  1.00  0.00     0.124 A 
ATOM     11  H   UNL A   1      33.305  22.914  24.101  1.00  0.00     0.347 HD
ATOM     12  H   UNL A   1      34.452  21.786  24.453  1.00  0.00     0.347 HD
ATOM     13  C   UNL A   1      31.781  23.612  26.359  1.00  0.00     0.051 A 
ATOM     14  N   UNL A   1      30.247  21.954  26.283  1.00  0.00    -0.235 NA
ATOM     15  C   UNL A   1      33.125  24.285  26.304  1.00  0.00     0.131 C 
ATOM     16  N   UNL A   1      30.650  24.039  26.984  1.00  0.00    -0.348 N 
ATOM     17  C   UNL A   1      29.753  23.005  26.911  1.00  0.00     0.197 A 
ATOM     18  H   UNL A   1      30.505  24.917  27.404  1.00  0.00     0.167 HD
BRANCH   8  19
ATOM     19  C   UNL A   1      32.469  20.218  24.582  1.00  0.00     0.066 A 
ATOM     20  C   UNL A   1      33.176  16.545  25.493  1.00  0.00     0.071 C 
ATOM     21  C   UNL A   1      32.784  17.770  24.718  1.00  0.00     0.079 A 
ATOM     22  N   UNL A   1      32.551  17.624  23.404  1.00  0.00    -0.257 NA
ATOM     23  C   UNL A   1      32.707  19.018  25.323  1.00  0.00     0.146 A 
ATOM     24  C   UNL A   1      32.302  18.755  22.696  1.00  0.00     0.118 A 
ATOM     25  C   UNL A   1      32.279  20.068  23.204  1.00  0.00     0.009 A 
BRANCH  23  26
ATOM     26  O   UNL A   1      32.944  19.090  26.680  1.00  0.00    -0.505 OA
ATOM     27  H   UNL A   1      33.816  19.220  26.996  1.00  0.00     0.293 HD
ENDBRANCH  23  26
BRANCH  25  28
ATOM     28  C   UNL A   1      32.072  21.168  22.205  1.00  0.00     0.194 C 
BRANCH  28  29
ATOM     29  O   UNL A   1      31.399  20.648  21.059  1.00  0.00    -0.392 OA
ATOM     30  H   UNL A   1      31.315  21.344  20.389  1.00  0.00     0.211 HD
ENDBRANCH  28  29
ENDBRANCH  25  28
ENDBRANCH   8  19
ENDBRANCH   4   7
ENDBRANCH   2   3
ENDBRANCH   1   2
BRANCH   1  31
ATOM     31  C   UNL A   1      39.108  21.820  25.865  1.00  0.00     0.023 C 
BRANCH  31  32
ATOM     32  C   UNL A   1      40.271  21.222  26.649  1.00  0.00     0.116 C 
BRANCH  32  33
ATOM     33  N   UNL A   1      41.554  21.325  25.956  1.00  0.00    -0.352 N 
ATOM     34  C   UNL A   1      42.299  22.472  25.725  1.00  0.00     0.251 C 
ATOM     35  H   UNL A   1      41.935  20.483  25.615  1.00  0.00     0.163 HD
ATOM     36  O   UNL A   1      43.122  22.529  24.831  1.00  0.00    -0.269 OA
BRANCH  34  37
ATOM     37  C   UNL A   1      42.078  23.629  26.611  1.00  0.00     0.039 A 
ATOM     38  C   UNL A   1      42.668  23.716  27.874  1.00  0.00     0.014 A 
ATOM     39  C   UNL A   1      41.290  24.663  26.116  1.00  0.00     0.014 A 
ATOM     40  C   UNL A   1      42.530  24.900  28.597  1.00  0.00     0.010 A 
ATOM     41  C   UNL A   1      41.289  25.876  26.751  1.00  0.00     0.010 A 
ATOM     42  C   UNL A   1      41.855  25.986  28.017  1.00  0.00    -0.014 A 
BRANCH  42  43
ATOM     43  C   UNL A   1      41.819  27.293  28.666  1.00  0.00     0.031 A 
ATOM     44  C   UNL A   1      42.926  28.215  28.281  1.00  0.00     0.074 A 
ATOM     45  C   UNL A   1      40.737  27.718  29.355  1.00  0.00     0.049 A 
ATOM     46  N   UNL A   1      43.826  28.737  29.046  1.00  0.00    -0.248 NA
ATOM     47  C   UNL A   1      43.122  28.511  26.851  1.00  0.00     0.031 C 
ATOM     48  C   UNL A   1      39.447  27.036  29.532  1.00  0.00     0.029 A 
ATOM     49  N   UNL A   1      40.514  28.922  29.948  1.00  0.00    -0.354 N 
ATOM     50  C   UNL A   1      44.591  29.573  28.235  1.00  0.00     0.074 A 
ATOM     51  C   UNL A   1      44.223  29.265  26.879  1.00  0.00     0.031 C 
ATOM     52  C   UNL A   1      38.519  27.921  29.956  1.00  0.00     0.029 A 
ATOM     53  C   UNL A   1      39.182  29.176  30.252  1.00  0.00     0.049 A 
ATOM     54  H   UNL A   1      41.236  29.561  30.144  1.00  0.00     0.167 HD
ATOM     55  C   UNL A   1      45.288  30.619  28.765  1.00  0.00     0.037 A 
ATOM     56  C   UNL A   1      38.655  30.347  30.690  1.00  0.00     0.037 A 
ATOM     57  C   UNL A   1      45.439  30.465  30.189  1.00  0.00     0.049 A 
ATOM     58  C   UNL A   1      39.775  31.160  31.220  1.00  0.00     0.074 A 
ATOM     59  C   UNL A   1      46.024  29.519  31.008  1.00  0.00     0.029 A 
ATOM     60  N   UNL A   1      44.607  31.194  31.002  1.00  0.00    -0.354 N 
ATOM     61  N   UNL A   1      40.454  30.848  32.289  1.00  0.00    -0.248 NA
ATOM     62  C   UNL A   1      40.443  32.066  30.297  1.00  0.00     0.031 C 
ATOM     63  C   UNL A   1      45.145  29.409  32.126  1.00  0.00     0.029 A 
ATOM     64  C   UNL A   1      44.124  30.346  31.963  1.00  0.00     0.049 A 
ATOM     65  H   UNL A   1      44.396  32.151  30.912  1.00  0.00     0.167 HD
ATOM     66  C   UNL A   1      41.769  31.148  31.969  1.00  0.00     0.074 A 
ATOM     67  C   UNL A   1      41.690  31.976  30.767  1.00  0.00     0.031 C 
ATOM     68  C   UNL A   1      42.802  30.455  32.533  1.00  0.00     0.037 A 
BRANCH  55  69
ATOM     69  C   UNL A   1      45.490  31.957  28.087  1.00  0.00     0.064 A 
ATOM     70  C   UNL A   1      44.356  32.722  27.739  1.00  0.00     0.173 A 
ATOM     71  C   UNL A   1      46.700  32.364  27.484  1.00  0.00     0.173 A 
ATOM     72  F   UNL A   1      43.149  32.426  28.247  1.00  0.00    -0.203 F 
ATOM     73  C   UNL A   1      44.412  33.739  26.781  1.00  0.00     0.198 A 
ATOM     74  C   UNL A   1      46.761  33.415  26.569  1.00  0.00     0.198 A 
ATOM     75  F   UNL A   1      47.846  31.699  27.658  1.00  0.00    -0.203 F 
ATOM     76  F   UNL A   1      43.283  34.336  26.379  1.00  0.00    -0.200 F 
ATOM     77  C   UNL A   1      45.614  34.077  26.188  1.00  0.00     0.200 A 
ATOM     78  F   UNL A   1      47.935  33.718  25.994  1.00  0.00    -0.200 F 
ATOM     79  F   UNL A   1      45.660  34.999  25.219  1.00  0.00    -0.200 F 
ENDBRANCH  55  69
BRANCH  56  80
ATOM     80  C   UNL A   1      37.319  30.921  30.406  1.00  0.00     0.064 A 
ATOM     81  C   UNL A   1      36.440  31.268  31.444  1.00  0.00     0.173 A 
ATOM     82  C   UNL A   1      36.989  31.396  29.121  1.00  0.00     0.173 A 
ATOM     83  F   UNL A   1      36.705  30.891  32.703  1.00  0.00    -0.203 F 
ATOM     84  C   UNL A   1      35.313  32.066  31.216  1.00  0.00     0.198 A 
ATOM     85  C   UNL A   1      35.861  32.188  28.893  1.00  0.00     0.198 A 
ATOM     86  F   UNL A   1      37.804  31.180  28.079  1.00  0.00    -0.203 F 
ATOM     87  F   UNL A   1      34.530  32.426  32.243  1.00  0.00    -0.200 F 
ATOM     88  C   UNL A   1      35.031  32.534  29.943  1.00  0.00     0.200 A 
ATOM     89  F   UNL A   1      35.619  32.662  27.663  1.00  0.00    -0.200 F 
ATOM     90  F   UNL A   1      33.986  33.347  29.734  1.00  0.00    -0.200 F 
ENDBRANCH  56  80
BRANCH  68  91
ATOM     91  C   UNL A   1      42.498  29.561  33.702  1.00  0.00     0.064 A 
ATOM     92  C   UNL A   1      42.103  28.215  33.590  1.00  0.00     0.173 A 
ATOM     93  C   UNL A   1      42.768  30.045  34.988  1.00  0.00     0.173 A 
ATOM     94  F   UNL A   1      41.919  27.646  32.393  1.00  0.00    -0.203 F 
ATOM     95  C   UNL A   1      41.953  27.409  34.717  1.00  0.00     0.198 A 
ATOM     96  C   UNL A   1      42.654  29.228  36.109  1.00  0.00     0.198 A 
ATOM     97  F   UNL A   1      43.200  31.306  35.152  1.00  0.00    -0.203 F 
ATOM     98  F   UNL A   1      41.569  26.131  34.583  1.00  0.00    -0.200 F 
ATOM     99  C   UNL A   1      42.238  27.914  35.974  1.00  0.00     0.200 A 
ATOM    100  F   UNL A   1      42.978  29.708  37.317  1.00  0.00    -0.200 F 
ATOM    101  F   UNL A   1      42.137  27.127  37.055  1.00  0.00    -0.200 F 
ENDBRANCH  68  91
ENDBRANCH  42  43
ENDBRANCH  34  37
ENDBRANCH  32  33
ENDBRANCH  31  32
ENDBRANCH   1  31
TORSDOF 15
ENDMDL
MODEL 2
REMARK VINA RESULT:     -13.4      2.212      3.634
REMARK SMILES Cc1ncc(CO)c([C@H]2[NH2+][C@@H](C(=O)NCCCCNC(=O)c3ccc(-c4c5nc(c(-c6c(F)c(F)c(F)c(F)c6F)c6ccc([nH]6)c(-c6c(F)c(F)c(F)c(F)c6F)c6nc(c(-c7c(F)c(F)c(F)c(F)c7F)c7ccc4[nH]7)C=C6)C=C5)cc3)Cc3[nH]cnc32)c1O
REMARK SMILES IDX 16 1 15 2 14 3 12 4 13 5 11 7 9 8 10 9 90 10 86 13 89 14
REMARK SMILES IDX 85 15 87 16 88 17 8 19 1 20 2 21 3 22 91 23 4 24 5 25 92 26
REMARK SMILES IDX 6 28 7 29 17 31 18 32 19 33 20 34 21 36 22 37 23 38 84 39
REMARK SMILES IDX 24 40 83 41 25 42 26 43 27 44 77 45 28 46 82 47 76 48 78 49
REMARK SMILES IDX 29 50 81 51 75 52 74 53 30 55 62 56 42 57 61 58 43 59 46 60
REMARK SMILES IDX 60 61 79 62 44 63 45 64 59 66 80 67 47 68 31 69 32 70 40 71
REMARK SMILES IDX 33 72 34 73 38 74 41 75 35 76 36 77 39 78 37 79 63 80 64 81
REMARK SMILES IDX 72 82 65 83 66 84 70 85 73 86 67 87 68 88 71 89 69 90 48 91
REMARK SMILES IDX 49 92 57 93 50 94 51 95 55 96 58 97 52 98 53 99 56 100
REMARK SMILES IDX 54 101
REMARK H PARENT 14 6 10 11 10 12 87 18 92 27 7 30 19 35 78 54 46 65
REMARK Flexibility Score: inf
ROOT
ATOM      1  C   UNL A   1      40.232  21.138  26.491  1.00  0.00     0.023 C 
ENDROOT
BRANCH   1   2
ATOM      2  C   UNL A   1      38.971  21.411  25.667  1.00  0.00     0.116 C 
BRANCH   2   3
ATOM      3  N   UNL A   1      38.473  22.773  25.799  1.00  0.00    -0.351 N 
ATOM      4  C   UNL A   1      37.208  23.276  25.621  1.00  0.00     0.278 C 
ATOM      5  O   UNL A   1      37.012  24.459  25.899  1.00  0.00    -0.268 OA
ATOM      6  H   UNL A   1      39.152  23.439  26.056  1.00  0.00     0.163 HD
BRANCH   4   7
ATOM      7  C   UNL A   1      36.128  22.365  25.028  1.00  0.00     0.279 C 
ATOM      8  C   UNL A   1      33.872  22.335  24.242  1.00  0.00     0.270 C 
ATOM      9  N   UNL A   1      34.778  22.956  25.245  1.00  0.00    -0.324 N 
ATOM     10  C   UNL A   1      33.804  20.863  24.523  1.00  0.00     0.124 A 
ATOM     11  H   UNL A   1      34.451  22.749  26.188  1.00  0.00     0.347 HD
ATOM     12  H   UNL A   1      34.800  23.970  25.139  1.00  0.00     0.347 HD
ATOM     13  C   UNL A   1      34.918  20.218  25.058  1.00  0.00     0.051 A 
ATOM     14  N   UNL A   1      32.946  19.932  23.991  1.00  0.00    -0.235 NA
ATOM     15  C   UNL A   1      36.166  20.904  25.543  1.00  0.00     0.131 C 
ATOM     16  N   UNL A   1      34.691  18.884  24.916  1.00  0.00    -0.348 N 
ATOM     17  C   UNL A   1      33.489  18.762  24.268  1.00  0.00     0.197 A 
ATOM     18  H   UNL A   1      35.275  18.152  25.219  1.00  0.00     0.167 HD
BRANCH   8  19
ATOM     19  C   UNL A   1      32.673  23.214  23.992  1.00  0.00     0.066 A 
ATOM     20  C   UNL A   1      32.141  25.919  21.305  1.00  0.00     0.071 C 
ATOM     21  C   UNL A   1      31.906  25.010  22.477  1.00  0.00     0.079 A 
ATOM     22  N   UNL A   1      30.812  25.232  23.224  1.00  0.00    -0.257 NA
ATOM     23  C   UNL A   1      32.804  24.003  22.807  1.00  0.00     0.146 A 
ATOM     24  C   UNL A   1      30.667  24.472  24.339  1.00  0.00     0.118 A 
ATOM     25  C   UNL A   1      31.561  23.484  24.796  1.00  0.00     0.009 A 
BRANCH  23  26
ATOM     26  O   UNL A   1      33.897  23.824  21.985  1.00  0.00    -0.505 OA
ATOM     27  H   UNL A   1      33.988  24.338  21.208  1.00  0.00     0.293 HD
ENDBRANCH  23  26
BRANCH  25  28
ATOM     28  C   UNL A   1      31.230  22.840  26.111  1.00  0.00     0.194 C 
BRANCH  28  29
ATOM     29  O   UNL A   1      30.870  21.476  25.894  1.00  0.00    -0.392 OA
ATOM     30  H   UNL A   1      31.196  20.935  26.630  1.00  0.00     0.211 HD
ENDBRANCH  28  29
ENDBRANCH  25  28
ENDBRANCH   8  19
ENDBRANCH   4   7
ENDBRANCH   2   3
ENDBRANCH   1   2
BRANCH   1  31
ATOM     31  C   UNL A   1      40.994  19.851  26.145  1.00  0.00     0.023 C 
BRANCH  31  32
ATOM     32  C   UNL A   1      42.374  19.728  26.780  1.00  0.00     0.116 C 
BRANCH  32  33
ATOM     33  N   UNL A   1      43.446  19.520  25.808  1.00  0.00    -0.352 N 
ATOM     34  C   UNL A   1      44.061  20.476  25.013  1.00  0.00     0.251 C 
ATOM     35  H   UNL A   1      43.769  18.595  25.706  1.00  0.00     0.163 HD
ATOM     36  O   UNL A   1      44.640  20.175  23.986  1.00  0.00    -0.269 OA
BRANCH  34  37
ATOM     37  C   UNL A   1      44.010  21.881  25.457  1.00  0.00     0.039 A 
ATOM     38  C   UNL A   1      43.079  22.785  24.941  1.00  0.00     0.014 A 
ATOM     39  C   UNL A   1      44.901  22.262  26.454  1.00  0.00     0.014 A 
ATOM     40  C   UNL A   1      42.995  24.056  25.508  1.00  0.00     0.010 A 
ATOM     41  C   UNL A   1      44.711  23.445  27.115  1.00  0.00     0.010 A 
ATOM     42  C   UNL A   1      43.803  24.371  26.612  1.00  0.00    -0.014 A 
BRANCH  42  43
ATOM     43  C   UNL A   1      43.641  25.628  27.337  1.00  0.00     0.031 A 
ATOM     44  C   UNL A   1      44.612  26.697  26.965  1.00  0.00     0.074 A 
ATOM     45  C   UNL A   1      42.546  25.882  28.088  1.00  0.00     0.049 A 
ATOM     46  N   UNL A   1      45.476  27.282  27.726  1.00  0.00    -0.248 NA
ATOM     47  C   UNL A   1      44.710  27.089  25.548  1.00  0.00     0.031 C 
ATOM     48  C   UNL A   1      41.355  25.041  28.272  1.00  0.00     0.029 A 
ATOM     49  N   UNL A   1      42.208  27.017  28.756  1.00  0.00    -0.354 N 
ATOM     50  C   UNL A   1      46.101  28.247  26.936  1.00  0.00     0.074 A 
ATOM     51  C   UNL A   1      45.714  27.968  25.579  1.00  0.00     0.031 C 
ATOM     52  C   UNL A   1      40.347  25.783  28.781  1.00  0.00     0.029 A 
ATOM     53  C   UNL A   1      40.869  27.092  29.124  1.00  0.00     0.049 A 
ATOM     54  H   UNL A   1      42.856  27.728  28.963  1.00  0.00     0.167 HD
ATOM     55  C   UNL A   1      46.691  29.340  27.500  1.00  0.00     0.037 A 
ATOM     56  C   UNL A   1      40.226  28.165  29.647  1.00  0.00     0.037 A 
ATOM     57  C   UNL A   1      46.920  29.130  28.907  1.00  0.00     0.049 A 
ATOM     58  C   UNL A   1      41.264  29.079  30.182  1.00  0.00     0.074 A 
ATOM     59  C   UNL A   1      47.648  28.220  29.648  1.00  0.00     0.029 A 
ATOM     60  N   UNL A   1      46.044  29.709  29.790  1.00  0.00    -0.354 N 
ATOM     61  N   UNL A   1      42.020  28.796  31.206  1.00  0.00    -0.248 NA
ATOM     62  C   UNL A   1      41.778  30.107  29.289  1.00  0.00     0.031 C 
ATOM     63  C   UNL A   1      46.838  27.946  30.789  1.00  0.00     0.029 A 
ATOM     64  C   UNL A   1      45.706  28.759  30.717  1.00  0.00     0.049 A 
ATOM     65  H   UNL A   1      45.717  30.637  29.763  1.00  0.00     0.167 HD
ATOM     66  C   UNL A   1      43.275  29.269  30.855  1.00  0.00     0.074 A 
ATOM     67  C   UNL A   1      43.046  30.144  29.707  1.00  0.00     0.031 C 
ATOM     68  C   UNL A   1      44.406  28.678  31.340  1.00  0.00     0.037 A 
BRANCH  55  69
ATOM     69  C   UNL A   1      46.703  30.726  26.893  1.00  0.00     0.064 A 
ATOM     70  C   UNL A   1      47.910  31.460  26.898  1.00  0.00     0.173 A 
ATOM     71  C   UNL A   1      45.542  31.477  26.609  1.00  0.00     0.173 A 
ATOM     72  F   UNL A   1      49.078  30.854  27.160  1.00  0.00    -0.203 F 
ATOM     73  C   UNL A   1      47.933  32.849  26.742  1.00  0.00     0.198 A 
ATOM     74  C   UNL A   1      45.577  32.855  26.399  1.00  0.00     0.198 A 
ATOM     75  F   UNL A   1      44.318  30.940  26.636  1.00  0.00    -0.203 F 
ATOM     76  F   UNL A   1      49.084  33.516  26.901  1.00  0.00    -0.200 F 
ATOM     77  C   UNL A   1      46.764  33.547  26.504  1.00  0.00     0.200 A 
ATOM     78  F   UNL A   1      44.430  33.516  26.184  1.00  0.00    -0.200 F 
ATOM     79  F   UNL A   1      46.773  34.884  26.425  1.00  0.00    -0.200 F 
ENDBRANCH  55  69
BRANCH  56  80
ATOM     80  C   UNL A   1      38.820  28.588  29.445  1.00  0.00     0.064 A 
ATOM     81  C   UNL A   1      37.966  28.817  30.535  1.00  0.00     0.173 A 
ATOM     82  C   UNL A   1      38.369  29.042  28.190  1.00  0.00     0.173 A 
ATOM     83  F   UNL A   1      38.339  28.453  31.771  1.00  0.00    -0.203 F 
ATOM     84  C   UNL A   1      36.745  29.485  30.384  1.00  0.00     0.198 A 
ATOM     85  C   UNL A   1      37.149  29.704  28.038  1.00  0.00     0.198 A 
ATOM     86  F   UNL A   1      39.146  28.937  27.102  1.00  0.00    -0.203 F 
ATOM     87  F   UNL A   1      35.983  29.737  31.457  1.00  0.00    -0.200 F 
ATOM     88  C   UNL A   1      36.343  29.937  29.137  1.00  0.00     0.200 A 
ATOM     89  F   UNL A   1      36.789  30.166  26.833  1.00  0.00    -0.200 F 
ATOM     90  F   UNL A   1      35.203  30.629  29.001  1.00  0.00    -0.200 F 
ENDBRANCH  56  80
BRANCH  68  91
ATOM     91  C   UNL A   1      44.261  27.693  32.466  1.00  0.00     0.064 A 
ATOM     92  C   UNL A   1      44.133  26.302  32.293  1.00  0.00     0.173 A 
ATOM     93  C   UNL A   1      44.415  28.164  33.776  1.00  0.00     0.173 A 
ATOM     94  F   UNL A   1      44.078  25.760  31.071  1.00  0.00    -0.203 F 
ATOM     95  C   UNL A   1      44.123  25.435  33.384  1.00  0.00     0.198 A 
ATOM     96  C   UNL A   1      44.442  27.293  34.861  1.00  0.00     0.198 A 
ATOM     97  F   UNL A   1      44.595  29.476  34.000  1.00  0.00    -0.203 F 
ATOM     98  F   UNL A   1      43.992  24.114  33.191  1.00  0.00    -0.200 F 
ATOM     99  C   UNL A   1      44.287  25.930  34.666  1.00  0.00     0.200 A 
ATOM    100  F   UNL A   1      44.651  27.773  36.095  1.00  0.00    -0.200 F 
ATOM    101  F   UNL A   1      44.322  25.093  35.712  1.00  0.00    -0.200 F 
ENDBRANCH  68  91
ENDBRANCH  42  43
ENDBRANCH  34  37
ENDBRANCH  32  33
ENDBRANCH  31  32
ENDBRANCH   1  31
TORSDOF 15
ENDMDL
MODEL 3
REMARK VINA RESULT:     -13.3      2.857      8.250
REMARK SMILES Cc1ncc(CO)c([C@H]2[NH2+][C@@H](C(=O)NCCCCNC(=O)c3ccc(-c4c5nc(c(-c6c(F)c(F)c(F)c(F)c6F)c6ccc([nH]6)c(-c6c(F)c(F)c(F)c(F)c6F)c6nc(c(-c7c(F)c(F)c(F)c(F)c7F)c7ccc4[nH]7)C=C6)C=C5)cc3)Cc3[nH]cnc32)c1O
REMARK SMILES IDX 16 1 15 2 14 3 12 4 13 5 11 7 9 8 10 9 90 10 86 13 89 14
REMARK SMILES IDX 85 15 87 16 88 17 8 19 1 20 2 21 3 22 91 23 4 24 5 25 92 26
REMARK SMILES IDX 6 28 7 29 17 31 18 32 19 33 20 34 21 36 22 37 23 38 84 39
REMARK SMILES IDX 24 40 83 41 25 42 26 43 27 44 77 45 28 46 82 47 76 48 78 49
REMARK SMILES IDX 29 50 81 51 75 52 74 53 30 55 62 56 42 57 61 58 43 59 46 60
REMARK SMILES IDX 60 61 79 62 44 63 45 64 59 66 80 67 47 68 31 69 32 70 40 71
REMARK SMILES IDX 33 72 34 73 38 74 41 75 35 76 36 77 39 78 37 79 63 80 64 81
REMARK SMILES IDX 72 82 65 83 66 84 70 85 73 86 67 87 68 88 71 89 69 90 48 91
REMARK SMILES IDX 49 92 57 93 50 94 51 95 55 96 58 97 52 98 53 99 56 100
REMARK SMILES IDX 54 101
REMARK H PARENT 14 6 10 11 10 12 87 18 92 27 7 30 19 35 78 54 46 65
REMARK Flexibility Score: inf
ROOT
ATOM      1  C   UNL A   1      31.819  27.603  26.924  1.00  0.00     0.023 C 
ENDROOT
BRANCH   1   2
ATOM      2  C   UNL A   1      31.542  26.445  25.961  1.00  0.00     0.116 C 
BRANCH   2   3
ATOM      3  N   UNL A   1      30.657  25.428  26.513  1.00  0.00    -0.351 N 
ATOM      4  C   UNL A   1      30.882  24.097  26.761  1.00  0.00     0.278 C 
ATOM      5  O   UNL A   1      30.002  23.459  27.338  1.00  0.00    -0.268 OA
ATOM      6  H   UNL A   1      29.754  25.747  26.744  1.00  0.00     0.163 HD
BRANCH   4   7
ATOM      7  C   UNL A   1      32.179  23.460  26.252  1.00  0.00     0.279 C 
ATOM      8  C   UNL A   1      33.049  21.565  25.086  1.00  0.00     0.270 C 
ATOM      9  N   UNL A   1      31.985  22.000  26.028  1.00  0.00    -0.324 N 
ATOM     10  C   UNL A   1      34.378  21.778  25.751  1.00  0.00     0.124 A 
ATOM     11  H   UNL A   1      32.069  21.495  26.911  1.00  0.00     0.347 HD
ATOM     12  H   UNL A   1      31.058  21.807  25.648  1.00  0.00     0.347 HD
ATOM     13  C   UNL A   1      34.529  22.832  26.651  1.00  0.00     0.051 A 
ATOM     14  N   UNL A   1      35.613  21.337  25.348  1.00  0.00    -0.235 NA
ATOM     15  C   UNL A   1      33.414  23.708  27.154  1.00  0.00     0.131 C 
ATOM     16  N   UNL A   1      35.867  22.974  26.849  1.00  0.00    -0.348 N 
ATOM     17  C   UNL A   1      36.480  22.050  26.043  1.00  0.00     0.197 A 
ATOM     18  H   UNL A   1      36.308  23.614  27.453  1.00  0.00     0.167 HD
BRANCH   8  19
ATOM     19  C   UNL A   1      32.644  20.301  24.373  1.00  0.00     0.066 A 
ATOM     20  C   UNL A   1      33.000  16.636  25.498  1.00  0.00     0.071 C 
ATOM     21  C   UNL A   1      32.676  17.846  24.672  1.00  0.00     0.079 A 
ATOM     22  N   UNL A   1      32.284  17.644  23.403  1.00  0.00    -0.257 NA
ATOM     23  C   UNL A   1      32.816  19.132  25.179  1.00  0.00     0.146 A 
ATOM     24  C   UNL A   1      32.097  18.748  22.636  1.00  0.00     0.118 A 
ATOM     25  C   UNL A   1      32.288  20.084  23.037  1.00  0.00     0.009 A 
BRANCH  23  26
ATOM     26  O   UNL A   1      33.208  19.263  26.495  1.00  0.00    -0.505 OA
ATOM     27  H   UNL A   1      33.623  18.548  26.934  1.00  0.00     0.293 HD
ENDBRANCH  23  26
BRANCH  25  28
ATOM     28  C   UNL A   1      32.106  21.133  21.978  1.00  0.00     0.194 C 
BRANCH  28  29
ATOM     29  O   UNL A   1      31.349  20.589  20.898  1.00  0.00    -0.392 OA
ATOM     30  H   UNL A   1      30.403  20.657  21.099  1.00  0.00     0.211 HD
ENDBRANCH  28  29
ENDBRANCH  25  28
ENDBRANCH   8  19
ENDBRANCH   4   7
ENDBRANCH   2   3
ENDBRANCH   1   2
BRANCH   1  31
ATOM     31  C   UNL A   1      32.844  28.641  26.447  1.00  0.00     0.023 C 
BRANCH  31  32
ATOM     32  C   UNL A   1      33.555  29.405  27.558  1.00  0.00     0.116 C 
BRANCH  32  33
ATOM     33  N   UNL A   1      33.923  30.769  27.184  1.00  0.00    -0.352 N 
ATOM     34  C   UNL A   1      35.018  31.499  27.623  1.00  0.00     0.251 C 
ATOM     35  H   UNL A   1      33.325  31.222  26.545  1.00  0.00     0.163 HD
ATOM     36  O   UNL A   1      35.034  32.714  27.578  1.00  0.00    -0.269 OA
BRANCH  34  37
ATOM     37  C   UNL A   1      36.182  30.755  28.137  1.00  0.00     0.039 A 
ATOM     38  C   UNL A   1      36.342  29.386  27.911  1.00  0.00     0.014 A 
ATOM     39  C   UNL A   1      37.148  31.485  28.820  1.00  0.00     0.014 A 
ATOM     40  C   UNL A   1      37.534  28.778  28.303  1.00  0.00     0.010 A 
ATOM     41  C   UNL A   1      38.375  30.928  29.057  1.00  0.00     0.010 A 
ATOM     42  C   UNL A   1      38.557  29.564  28.858  1.00  0.00    -0.014 A 
BRANCH  42  43
ATOM     43  C   UNL A   1      39.876  29.005  29.138  1.00  0.00     0.031 A 
ATOM     44  C   UNL A   1      40.195  28.841  30.585  1.00  0.00     0.074 A 
ATOM     45  C   UNL A   1      40.634  28.445  28.169  1.00  0.00     0.049 A 
ATOM     46  N   UNL A   1      41.154  29.389  31.253  1.00  0.00    -0.248 NA
ATOM     47  C   UNL A   1      39.268  28.055  31.419  1.00  0.00     0.031 C 
ATOM     48  C   UNL A   1      40.296  28.243  26.753  1.00  0.00     0.029 A 
ATOM     49  N   UNL A   1      41.837  27.819  28.272  1.00  0.00    -0.354 N 
ATOM     50  C   UNL A   1      41.072  28.878  32.547  1.00  0.00     0.074 A 
ATOM     51  C   UNL A   1      39.804  28.203  32.633  1.00  0.00     0.031 C 
ATOM     52  C   UNL A   1      41.139  27.340  26.207  1.00  0.00     0.029 A 
ATOM     53  C   UNL A   1      42.178  27.040  27.172  1.00  0.00     0.049 A 
ATOM     54  H   UNL A   1      42.418  27.908  29.061  1.00  0.00     0.167 HD
ATOM     55  C   UNL A   1      42.165  28.849  33.362  1.00  0.00     0.037 A 
ATOM     56  C   UNL A   1      43.226  26.185  27.072  1.00  0.00     0.037 A 
ATOM     57  C   UNL A   1      43.190  29.738  32.875  1.00  0.00     0.049 A 
ATOM     58  C   UNL A   1      44.193  26.552  28.135  1.00  0.00     0.074 A 
ATOM     59  C   UNL A   1      43.266  31.096  32.637  1.00  0.00     0.029 A 
ATOM     60  N   UNL A   1      44.245  29.184  32.193  1.00  0.00    -0.354 N 
ATOM     61  N   UNL A   1      44.864  27.671  28.149  1.00  0.00    -0.248 NA
ATOM     62  C   UNL A   1      44.062  25.884  29.421  1.00  0.00     0.031 C 
ATOM     63  C   UNL A   1      44.036  31.216  31.443  1.00  0.00     0.029 A 
ATOM     64  C   UNL A   1      44.448  29.937  31.068  1.00  0.00     0.049 A 
ATOM     65  H   UNL A   1      44.761  28.390  32.462  1.00  0.00     0.167 HD
ATOM     66  C   UNL A   1      44.854  28.068  29.477  1.00  0.00     0.074 A 
ATOM     67  C   UNL A   1      44.426  26.887  30.225  1.00  0.00     0.031 C 
ATOM     68  C   UNL A   1      44.907  29.390  29.813  1.00  0.00     0.037 A 
BRANCH  55  69
ATOM     69  C   UNL A   1      42.475  27.753  34.358  1.00  0.00     0.064 A 
ATOM     70  C   UNL A   1      43.075  26.562  33.893  1.00  0.00     0.173 A 
ATOM     71  C   UNL A   1      41.928  27.685  35.656  1.00  0.00     0.173 A 
ATOM     72  F   UNL A   1      43.626  26.505  32.671  1.00  0.00    -0.203 F 
ATOM     73  C   UNL A   1      43.030  25.373  34.628  1.00  0.00     0.198 A 
ATOM     74  C   UNL A   1      41.934  26.511  36.409  1.00  0.00     0.198 A 
ATOM     75  F   UNL A   1      41.266  28.707  36.209  1.00  0.00    -0.203 F 
ATOM     76  F   UNL A   1      43.483  24.237  34.082  1.00  0.00    -0.200 F 
ATOM     77  C   UNL A   1      42.449  25.346  35.881  1.00  0.00     0.200 A 
ATOM     78  F   UNL A   1      41.351  26.502  37.617  1.00  0.00    -0.200 F 
ATOM     79  F   UNL A   1      42.339  24.196  36.557  1.00  0.00    -0.200 F 
ENDBRANCH  55  69
BRANCH  56  80
ATOM     80  C   UNL A   1      43.305  24.905  26.330  1.00  0.00     0.064 A 
ATOM     81  C   UNL A   1      44.216  24.730  25.277  1.00  0.00     0.173 A 
ATOM     82  C   UNL A   1      42.684  23.740  26.821  1.00  0.00     0.173 A 
ATOM     83  F   UNL A   1      44.882  25.783  24.780  1.00  0.00    -0.203 F 
ATOM     84  C   UNL A   1      44.508  23.461  24.762  1.00  0.00     0.198 A 
ATOM     85  C   UNL A   1      42.972  22.475  26.304  1.00  0.00     0.198 A 
ATOM     86  F   UNL A   1      41.856  23.795  27.875  1.00  0.00    -0.203 F 
ATOM     87  F   UNL A   1      45.427  23.328  23.795  1.00  0.00    -0.200 F 
ATOM     88  C   UNL A   1      43.894  22.334  25.284  1.00  0.00     0.200 A 
ATOM     89  F   UNL A   1      42.397  21.390  26.841  1.00  0.00    -0.200 F 
ATOM     90  F   UNL A   1      44.218  21.114  24.832  1.00  0.00    -0.200 F 
ENDBRANCH  56  80
BRANCH  68  91
ATOM     91  C   UNL A   1      45.253  30.379  28.735  1.00  0.00     0.064 A 
ATOM     92  C   UNL A   1      44.313  30.980  27.878  1.00  0.00     0.173 A 
ATOM     93  C   UNL A   1      46.570  30.851  28.674  1.00  0.00     0.173 A 
ATOM     94  F   UNL A   1      43.016  30.656  27.939  1.00  0.00    -0.203 F 
ATOM     95  C   UNL A   1      44.686  31.978  26.980  1.00  0.00     0.198 A 
ATOM     96  C   UNL A   1      46.933  31.874  27.803  1.00  0.00     0.198 A 
ATOM     97  F   UNL A   1      47.500  30.353  29.505  1.00  0.00    -0.203 F 
ATOM     98  F   UNL A   1      43.771  32.529  26.169  1.00  0.00    -0.200 F 
ATOM     99  C   UNL A   1      45.994  32.431  26.950  1.00  0.00     0.200 A 
ATOM    100  F   UNL A   1      48.189  32.342  27.813  1.00  0.00    -0.200 F 
ATOM    101  F   UNL A   1      46.345  33.422  26.119  1.00  0.00    -0.200 F 
ENDBRANCH  68  91
ENDBRANCH  42  43
ENDBRANCH  34  37
ENDBRANCH  32  33
ENDBRANCH  31  32
ENDBRANCH   1  31
TORSDOF 15
ENDMDL
