MODEL 1
REMARK VINA RESULT:     -13.9      0.000      0.000
REMARK SMILES CN1C(=O)C[C@@H](C(=O)NCCCCNC(=O)c2ccc(-c3c4nc(c(-c5c(F)c(F)c(F)c(F)c5F)c5ccc([nH]5)c(-c5c(F)c(F)c(F)c(F)c5F)c5nc(c(-c6c(F)c(F)c(F)c(F)c6F)c6ccc3[nH]6)C=C5)C=C4)cc2)C12CCN(c1ccc(Cl)cn1)CC2
REMARK SMILES IDX 12 1 11 2 10 3 9 4 7 5 8 6 6 8 1 9 2 10 3 11 80 12 4 13 5 14
REMARK SMILES IDX 81 15 92 16 82 17 91 18 83 19 84 20 85 21 90 22 86 23 89 24
REMARK SMILES IDX 87 25 88 26 13 27 14 28 15 29 16 31 17 32 18 33 79 34 19 35
REMARK SMILES IDX 78 36 20 37 21 38 22 39 72 40 23 41 77 42 71 43 73 44 24 45
REMARK SMILES IDX 76 46 70 47 69 48 25 50 57 51 37 52 56 53 38 54 41 55 55 56
REMARK SMILES IDX 74 57 39 58 40 59 54 61 75 62 42 63 26 64 27 65 35 66 28 67
REMARK SMILES IDX 29 68 33 69 36 70 30 71 31 72 34 73 32 74 58 75 59 76 67 77
REMARK SMILES IDX 60 78 61 79 65 80 68 81 62 82 63 83 66 84 64 85 43 86 44 87
REMARK SMILES IDX 52 88 45 89 46 90 50 91 53 92 47 93 48 94 51 95 49 96
REMARK H PARENT 9 7 14 30 73 49 41 60
REMARK Flexibility Score: inf
ROOT
ATOM      1  C   UNL A   1      31.698  31.879  26.726  1.00  0.00     0.023 C 
ENDROOT
BRANCH   1   2
ATOM      2  C   UNL A   1      31.926  30.372  26.673  1.00  0.00     0.023 C 
BRANCH   2   3
ATOM      3  C   UNL A   1      31.693  29.744  25.296  1.00  0.00     0.116 C 
BRANCH   3   4
ATOM      4  N   UNL A   1      32.912  29.519  24.539  1.00  0.00    -0.356 N 
ATOM      5  C   UNL A   1      33.252  28.659  23.547  1.00  0.00     0.226 C 
ATOM      6  O   UNL A   1      34.403  28.773  23.107  1.00  0.00    -0.275 OA
ATOM      7  H   UNL A   1      33.647  30.120  24.800  1.00  0.00     0.163 HD
BRANCH   5   8
ATOM      8  C   UNL A   1      32.350  27.566  22.964  1.00  0.00     0.113 C 
ATOM      9  C   UNL A   1      29.878  26.059  25.342  1.00  0.00     0.147 C 
ATOM     10  N   UNL A   1      30.622  26.709  24.282  1.00  0.00    -0.339 N 
ATOM     11  C   UNL A   1      30.006  27.622  23.436  1.00  0.00     0.223 C 
ATOM     12  C   UNL A   1      31.988  26.356  23.862  1.00  0.00     0.058 C 
ATOM     13  O   UNL A   1      28.848  28.000  23.499  1.00  0.00    -0.275 OA
ATOM     14  C   UNL A   1      31.021  28.116  22.444  1.00  0.00     0.116 C 
ATOM     15  C   UNL A   1      32.970  26.151  25.036  1.00  0.00     0.051 C 
ATOM     16  C   UNL A   1      31.901  25.043  23.017  1.00  0.00     0.051 C 
ATOM     17  C   UNL A   1      34.299  25.570  24.592  1.00  0.00     0.120 C 
ATOM     18  C   UNL A   1      33.261  24.396  22.706  1.00  0.00     0.120 C 
ATOM     19  N   UNL A   1      33.999  24.308  23.952  1.00  0.00    -0.356 N 
BRANCH  19  20
ATOM     20  C   UNL A   1      34.823  23.236  24.220  1.00  0.00     0.128 A 
ATOM     21  C   UNL A   1      36.175  23.311  23.866  1.00  0.00     0.048 A 
ATOM     22  N   UNL A   1      34.320  22.144  24.826  1.00  0.00    -0.238 NA
ATOM     23  C   UNL A   1      37.028  22.238  24.111  1.00  0.00     0.026 A 
ATOM     24  C   UNL A   1      35.162  21.098  25.035  1.00  0.00     0.134 A 
ATOM     25  C   UNL A   1      36.506  21.100  24.699  1.00  0.00     0.059 A 
ATOM     26  Cl  UNL A   1      37.504  19.740  25.001  1.00  0.00    -0.083 Cl
ENDBRANCH  19  20
ENDBRANCH   5   8
ENDBRANCH   3   4
ENDBRANCH   2   3
ENDBRANCH   1   2
BRANCH   1  27
ATOM     27  C   UNL A   1      32.847  32.648  27.357  1.00  0.00     0.116 C 
BRANCH  27  28
ATOM     28  N   UNL A   1      32.514  34.045  27.608  1.00  0.00    -0.352 N 
ATOM     29  C   UNL A   1      33.023  34.891  28.559  1.00  0.00     0.251 C 
ATOM     30  H   UNL A   1      31.831  34.434  27.016  1.00  0.00     0.163 HD
ATOM     31  O   UNL A   1      32.529  35.995  28.753  1.00  0.00    -0.269 OA
BRANCH  29  32
ATOM     32  C   UNL A   1      34.165  34.431  29.367  1.00  0.00     0.039 A 
ATOM     33  C   UNL A   1      33.926  33.828  30.601  1.00  0.00     0.014 A 
ATOM     34  C   UNL A   1      35.462  34.542  28.858  1.00  0.00     0.014 A 
ATOM     35  C   UNL A   1      34.993  33.267  31.301  1.00  0.00     0.010 A 
ATOM     36  C   UNL A   1      36.504  33.903  29.510  1.00  0.00     0.010 A 
ATOM     37  C   UNL A   1      36.281  33.268  30.740  1.00  0.00    -0.014 A 
BRANCH  37  38
ATOM     38  C   UNL A   1      37.423  32.626  31.430  1.00  0.00     0.031 A 
ATOM     39  C   UNL A   1      38.135  31.481  30.769  1.00  0.00     0.074 A 
ATOM     40  C   UNL A   1      37.757  33.017  32.674  1.00  0.00     0.049 A 
ATOM     41  N   UNL A   1      39.087  30.716  31.239  1.00  0.00    -0.248 NA
ATOM     42  C   UNL A   1      37.689  31.120  29.413  1.00  0.00     0.031 C 
ATOM     43  C   UNL A   1      37.095  34.077  33.436  1.00  0.00     0.029 A 
ATOM     44  N   UNL A   1      38.732  32.558  33.522  1.00  0.00    -0.354 N 
ATOM     45  C   UNL A   1      39.333  29.774  30.249  1.00  0.00     0.074 A 
ATOM     46  C   UNL A   1      38.393  30.023  29.180  1.00  0.00     0.031 C 
ATOM     47  C   UNL A   1      37.698  34.203  34.629  1.00  0.00     0.029 A 
ATOM     48  C   UNL A   1      38.764  33.211  34.729  1.00  0.00     0.049 A 
ATOM     49  H   UNL A   1      39.350  31.827  33.288  1.00  0.00     0.167 HD
ATOM     50  C   UNL A   1      40.278  28.806  30.225  1.00  0.00     0.037 A 
ATOM     51  C   UNL A   1      39.565  33.025  35.795  1.00  0.00     0.037 A 
ATOM     52  C   UNL A   1      41.236  28.594  31.274  1.00  0.00     0.049 A 
ATOM     53  C   UNL A   1      40.626  31.959  35.730  1.00  0.00     0.074 A 
ATOM     54  C   UNL A   1      42.283  27.691  31.320  1.00  0.00     0.029 A 
ATOM     55  N   UNL A   1      41.266  29.304  32.466  1.00  0.00    -0.354 N 
ATOM     56  N   UNL A   1      40.897  31.120  34.762  1.00  0.00    -0.248 NA
ATOM     57  C   UNL A   1      41.495  31.821  36.907  1.00  0.00     0.031 C 
ATOM     58  C   UNL A   1      42.924  27.830  32.556  1.00  0.00     0.029 A 
ATOM     59  C   UNL A   1      42.304  28.849  33.261  1.00  0.00     0.049 A 
ATOM     60  H   UNL A   1      40.642  30.026  32.710  1.00  0.00     0.167 HD
ATOM     61  C   UNL A   1      41.983  30.373  35.196  1.00  0.00     0.074 A 
ATOM     62  C   UNL A   1      42.329  30.870  36.512  1.00  0.00     0.031 C 
ATOM     63  C   UNL A   1      42.636  29.368  34.563  1.00  0.00     0.037 A 
BRANCH  50  64
ATOM     64  C   UNL A   1      40.326  27.917  29.017  1.00  0.00     0.064 A 
ATOM     65  C   UNL A   1      41.074  28.259  27.881  1.00  0.00     0.173 A 
ATOM     66  C   UNL A   1      39.632  26.698  29.003  1.00  0.00     0.173 A 
ATOM     67  F   UNL A   1      41.742  29.422  27.837  1.00  0.00    -0.203 F 
ATOM     68  C   UNL A   1      41.101  27.429  26.763  1.00  0.00     0.198 A 
ATOM     69  C   UNL A   1      39.686  25.855  27.896  1.00  0.00     0.198 A 
ATOM     70  F   UNL A   1      38.903  26.321  30.065  1.00  0.00    -0.203 F 
ATOM     71  F   UNL A   1      41.778  27.804  25.669  1.00  0.00    -0.200 F 
ATOM     72  C   UNL A   1      40.413  26.226  26.774  1.00  0.00     0.200 A 
ATOM     73  F   UNL A   1      39.029  24.687  27.912  1.00  0.00    -0.200 F 
ATOM     74  F   UNL A   1      40.443  25.425  25.700  1.00  0.00    -0.200 F 
ENDBRANCH  50  64
BRANCH  51  75
ATOM     75  C   UNL A   1      39.418  33.888  36.995  1.00  0.00     0.064 A 
ATOM     76  C   UNL A   1      40.027  35.150  37.048  1.00  0.00     0.173 A 
ATOM     77  C   UNL A   1      38.669  33.477  38.107  1.00  0.00     0.173 A 
ATOM     78  F   UNL A   1      40.767  35.579  36.015  1.00  0.00    -0.203 F 
ATOM     79  C   UNL A   1      39.912  35.959  38.175  1.00  0.00     0.198 A 
ATOM     80  C   UNL A   1      38.533  34.299  39.224  1.00  0.00     0.198 A 
ATOM     81  F   UNL A   1      38.060  32.283  38.102  1.00  0.00    -0.203 F 
ATOM     82  F   UNL A   1      40.539  37.142  38.216  1.00  0.00    -0.200 F 
ATOM     83  C   UNL A   1      39.160  35.534  39.261  1.00  0.00     0.200 A 
ATOM     84  F   UNL A   1      37.794  33.891  40.265  1.00  0.00    -0.200 F 
ATOM     85  F   UNL A   1      39.046  36.315  40.344  1.00  0.00    -0.200 F 
ENDBRANCH  51  75
BRANCH  63  86
ATOM     86  C   UNL A   1      43.811  28.762  35.271  1.00  0.00     0.064 A 
ATOM     87  C   UNL A   1      45.118  29.217  35.049  1.00  0.00     0.173 A 
ATOM     88  C   UNL A   1      43.618  27.747  36.219  1.00  0.00     0.173 A 
ATOM     89  F   UNL A   1      45.353  30.176  34.140  1.00  0.00    -0.203 F 
ATOM     90  C   UNL A   1      46.194  28.661  35.734  1.00  0.00     0.198 A 
ATOM     91  C   UNL A   1      44.692  27.213  36.924  1.00  0.00     0.198 A 
ATOM     92  F   UNL A   1      42.385  27.283  36.474  1.00  0.00    -0.203 F 
ATOM     93  F   UNL A   1      47.440  29.080  35.475  1.00  0.00    -0.200 F 
ATOM     94  C   UNL A   1      45.980  27.666  36.676  1.00  0.00     0.200 A 
ATOM     95  F   UNL A   1      44.483  26.260  37.844  1.00  0.00    -0.200 F 
ATOM     96  F   UNL A   1      47.015  27.137  37.342  1.00  0.00    -0.200 F 
ENDBRANCH  63  86
ENDBRANCH  37  38
ENDBRANCH  29  32
ENDBRANCH  27  28
ENDBRANCH   1  27
TORSDOF 12
ENDMDL
MODEL 2
REMARK VINA RESULT:     -13.9      0.181      1.576
REMARK SMILES CN1C(=O)C[C@@H](C(=O)NCCCCNC(=O)c2ccc(-c3c4nc(c(-c5c(F)c(F)c(F)c(F)c5F)c5ccc([nH]5)c(-c5c(F)c(F)c(F)c(F)c5F)c5nc(c(-c6c(F)c(F)c(F)c(F)c6F)c6ccc3[nH]6)C=C5)C=C4)cc2)C12CCN(c1ccc(Cl)cn1)CC2
REMARK SMILES IDX 12 1 11 2 10 3 9 4 7 5 8 6 6 8 1 9 2 10 3 11 80 12 4 13 5 14
REMARK SMILES IDX 81 15 92 16 82 17 91 18 83 19 84 20 85 21 90 22 86 23 89 24
REMARK SMILES IDX 87 25 88 26 13 27 14 28 15 29 16 31 17 32 18 33 79 34 19 35
REMARK SMILES IDX 78 36 20 37 21 38 22 39 72 40 23 41 77 42 71 43 73 44 24 45
REMARK SMILES IDX 76 46 70 47 69 48 25 50 57 51 37 52 56 53 38 54 41 55 55 56
REMARK SMILES IDX 74 57 39 58 40 59 54 61 75 62 42 63 26 64 27 65 35 66 28 67
REMARK SMILES IDX 29 68 33 69 36 70 30 71 31 72 34 73 32 74 58 75 59 76 67 77
REMARK SMILES IDX 60 78 61 79 65 80 68 81 62 82 63 83 66 84 64 85 43 86 44 87
REMARK SMILES IDX 52 88 45 89 46 90 50 91 53 92 47 93 48 94 51 95 49 96
REMARK H PARENT 9 7 14 30 73 49 41 60
REMARK Flexibility Score: inf
ROOT
ATOM      1  C   UNL A   1      31.687  31.823  26.772  1.00  0.00     0.023 C 
ENDROOT
BRANCH   1   2
ATOM      2  C   UNL A   1      31.989  30.335  26.633  1.00  0.00     0.023 C 
BRANCH   2   3
ATOM      3  C   UNL A   1      31.716  29.761  25.239  1.00  0.00     0.116 C 
BRANCH   3   4
ATOM      4  N   UNL A   1      32.915  29.552  24.446  1.00  0.00    -0.356 N 
ATOM      5  C   UNL A   1      33.230  28.707  23.433  1.00  0.00     0.226 C 
ATOM      6  O   UNL A   1      34.368  28.832  22.964  1.00  0.00    -0.275 OA
ATOM      7  H   UNL A   1      33.655  30.151  24.696  1.00  0.00     0.163 HD
BRANCH   5   8
ATOM      8  C   UNL A   1      32.317  27.619  22.859  1.00  0.00     0.113 C 
ATOM      9  C   UNL A   1      29.838  26.149  25.253  1.00  0.00     0.147 C 
ATOM     10  N   UNL A   1      30.584  26.786  24.187  1.00  0.00    -0.339 N 
ATOM     11  C   UNL A   1      29.975  27.700  23.337  1.00  0.00     0.223 C 
ATOM     12  C   UNL A   1      31.947  26.418  23.765  1.00  0.00     0.058 C 
ATOM     13  O   UNL A   1      28.821  28.090  23.401  1.00  0.00    -0.275 OA
ATOM     14  C   UNL A   1      30.992  28.179  22.339  1.00  0.00     0.116 C 
ATOM     15  C   UNL A   1      32.930  26.210  24.937  1.00  0.00     0.051 C 
ATOM     16  C   UNL A   1      31.844  25.101  22.928  1.00  0.00     0.051 C 
ATOM     17  C   UNL A   1      34.252  25.615  24.493  1.00  0.00     0.120 C 
ATOM     18  C   UNL A   1      33.197  24.439  22.617  1.00  0.00     0.120 C 
ATOM     19  N   UNL A   1      33.938  24.352  23.861  1.00  0.00    -0.356 N 
BRANCH  19  20
ATOM     20  C   UNL A   1      34.753  23.274  24.133  1.00  0.00     0.128 A 
ATOM     21  C   UNL A   1      36.120  23.364  23.848  1.00  0.00     0.048 A 
ATOM     22  N   UNL A   1      34.226  22.160  24.677  1.00  0.00    -0.238 NA
ATOM     23  C   UNL A   1      36.965  22.286  24.098  1.00  0.00     0.026 A 
ATOM     24  C   UNL A   1      35.062  21.111  24.892  1.00  0.00     0.134 A 
ATOM     25  C   UNL A   1      36.420  21.127  24.621  1.00  0.00     0.059 A 
ATOM     26  Cl  UNL A   1      37.408  19.760  24.926  1.00  0.00    -0.083 Cl
ENDBRANCH  19  20
ENDBRANCH   5   8
ENDBRANCH   3   4
ENDBRANCH   2   3
ENDBRANCH   1   2
BRANCH   1  27
ATOM     27  C   UNL A   1      32.853  32.635  27.311  1.00  0.00     0.116 C 
BRANCH  27  28
ATOM     28  N   UNL A   1      32.491  34.020  27.586  1.00  0.00    -0.352 N 
ATOM     29  C   UNL A   1      32.986  34.862  28.549  1.00  0.00     0.251 C 
ATOM     30  H   UNL A   1      31.797  34.404  27.003  1.00  0.00     0.163 HD
ATOM     31  O   UNL A   1      32.468  35.952  28.762  1.00  0.00    -0.269 OA
BRANCH  29  32
ATOM     32  C   UNL A   1      34.140  34.414  29.345  1.00  0.00     0.039 A 
ATOM     33  C   UNL A   1      33.919  33.765  30.559  1.00  0.00     0.014 A 
ATOM     34  C   UNL A   1      35.433  34.581  28.843  1.00  0.00     0.014 A 
ATOM     35  C   UNL A   1      35.002  33.216  31.244  1.00  0.00     0.010 A 
ATOM     36  C   UNL A   1      36.495  33.956  29.478  1.00  0.00     0.010 A 
ATOM     37  C   UNL A   1      36.290  33.276  30.686  1.00  0.00    -0.014 A 
BRANCH  37  38
ATOM     38  C   UNL A   1      37.451  32.650  31.358  1.00  0.00     0.031 A 
ATOM     39  C   UNL A   1      38.169  31.514  30.687  1.00  0.00     0.074 A 
ATOM     40  C   UNL A   1      37.799  33.046  32.597  1.00  0.00     0.049 A 
ATOM     41  N   UNL A   1      39.138  30.763  31.142  1.00  0.00    -0.248 NA
ATOM     42  C   UNL A   1      37.708  31.148  29.338  1.00  0.00     0.031 C 
ATOM     43  C   UNL A   1      37.134  34.096  33.370  1.00  0.00     0.029 A 
ATOM     44  N   UNL A   1      38.792  32.599  33.431  1.00  0.00    -0.354 N 
ATOM     45  C   UNL A   1      39.382  29.825  30.148  1.00  0.00     0.074 A 
ATOM     46  C   UNL A   1      38.423  30.061  29.093  1.00  0.00     0.031 C 
ATOM     47  C   UNL A   1      37.753  34.230  34.554  1.00  0.00     0.029 A 
ATOM     48  C   UNL A   1      38.833  33.253  34.637  1.00  0.00     0.049 A 
ATOM     49  H   UNL A   1      39.417  31.878  33.187  1.00  0.00     0.167 HD
ATOM     50  C   UNL A   1      40.340  28.870  30.110  1.00  0.00     0.037 A 
ATOM     51  C   UNL A   1      39.653  33.077  35.691  1.00  0.00     0.037 A 
ATOM     52  C   UNL A   1      41.317  28.671  31.144  1.00  0.00     0.049 A 
ATOM     53  C   UNL A   1      40.727  32.026  35.610  1.00  0.00     0.074 A 
ATOM     54  C   UNL A   1      42.376  27.783  31.174  1.00  0.00     0.029 A 
ATOM     55  N   UNL A   1      41.354  29.381  32.336  1.00  0.00    -0.354 N 
ATOM     56  N   UNL A   1      40.995  31.191  34.637  1.00  0.00    -0.248 NA
ATOM     57  C   UNL A   1      41.616  31.900  36.773  1.00  0.00     0.031 C 
ATOM     58  C   UNL A   1      43.033  27.930  32.400  1.00  0.00     0.029 A 
ATOM     59  C   UNL A   1      42.411  28.940  33.115  1.00  0.00     0.049 A 
ATOM     60  H   UNL A   1      40.724  30.094  32.590  1.00  0.00     0.167 HD
ATOM     61  C   UNL A   1      42.098  30.460  35.055  1.00  0.00     0.074 A 
ATOM     62  C   UNL A   1      42.457  30.961  36.366  1.00  0.00     0.031 C 
ATOM     63  C   UNL A   1      42.755  29.463  34.412  1.00  0.00     0.037 A 
BRANCH  50  64
ATOM     64  C   UNL A   1      40.382  27.981  28.901  1.00  0.00     0.064 A 
ATOM     65  C   UNL A   1      41.130  28.321  27.764  1.00  0.00     0.173 A 
ATOM     66  C   UNL A   1      39.682  26.766  28.887  1.00  0.00     0.173 A 
ATOM     67  F   UNL A   1      41.804  29.480  27.720  1.00  0.00    -0.203 F 
ATOM     68  C   UNL A   1      41.151  27.492  26.645  1.00  0.00     0.198 A 
ATOM     69  C   UNL A   1      39.730  25.924  27.779  1.00  0.00     0.198 A 
ATOM     70  F   UNL A   1      38.953  26.392  29.949  1.00  0.00    -0.203 F 
ATOM     71  F   UNL A   1      41.829  27.864  25.551  1.00  0.00    -0.200 F 
ATOM     72  C   UNL A   1      40.458  26.292  26.656  1.00  0.00     0.200 A 
ATOM     73  F   UNL A   1      39.068  24.759  27.794  1.00  0.00    -0.200 F 
ATOM     74  F   UNL A   1      40.483  25.492  25.581  1.00  0.00    -0.200 F 
ENDBRANCH  50  64
BRANCH  51  75
ATOM     75  C   UNL A   1      39.512  33.939  36.893  1.00  0.00     0.064 A 
ATOM     76  C   UNL A   1      38.762  33.510  37.997  1.00  0.00     0.173 A 
ATOM     77  C   UNL A   1      40.120  35.200  36.968  1.00  0.00     0.173 A 
ATOM     78  F   UNL A   1      38.147  32.318  37.966  1.00  0.00    -0.203 F 
ATOM     79  C   UNL A   1      38.607  34.317  39.121  1.00  0.00     0.198 A 
ATOM     80  C   UNL A   1      39.987  35.996  38.103  1.00  0.00     0.198 A 
ATOM     81  F   UNL A   1      40.855  35.652  35.941  1.00  0.00    -0.203 F 
ATOM     82  F   UNL A   1      37.849  33.900  40.144  1.00  0.00    -0.200 F 
ATOM     83  C   UNL A   1      39.225  35.558  39.175  1.00  0.00     0.200 A 
ATOM     84  F   UNL A   1      40.596  37.188  38.158  1.00  0.00    -0.200 F 
ATOM     85  F   UNL A   1      39.079  36.334  40.258  1.00  0.00    -0.200 F 
ENDBRANCH  51  75
BRANCH  63  86
ATOM     86  C   UNL A   1      43.948  28.874  35.102  1.00  0.00     0.064 A 
ATOM     87  C   UNL A   1      43.829  27.780  35.971  1.00  0.00     0.173 A 
ATOM     88  C   UNL A   1      45.232  29.381  34.853  1.00  0.00     0.173 A 
ATOM     89  F   UNL A   1      42.620  27.270  36.252  1.00  0.00    -0.203 F 
ATOM     90  C   UNL A   1      44.950  27.229  36.583  1.00  0.00     0.198 A 
ATOM     91  C   UNL A   1      46.354  28.809  35.444  1.00  0.00     0.198 A 
ATOM     92  F   UNL A   1      45.399  30.422  34.024  1.00  0.00    -0.203 F 
ATOM     93  F   UNL A   1      44.809  26.211  37.444  1.00  0.00    -0.200 F 
ATOM     94  C   UNL A   1      46.212  27.738  36.313  1.00  0.00     0.200 A 
ATOM     95  F   UNL A   1      47.575  29.294  35.172  1.00  0.00    -0.200 F 
ATOM     96  F   UNL A   1      47.292  27.201  36.897  1.00  0.00    -0.200 F 
ENDBRANCH  63  86
ENDBRANCH  37  38
ENDBRANCH  29  32
ENDBRANCH  27  28
ENDBRANCH   1  27
TORSDOF 12
ENDMDL
MODEL 3
REMARK VINA RESULT:     -13.8      5.760     11.231
REMARK SMILES CN1C(=O)C[C@@H](C(=O)NCCCCNC(=O)c2ccc(-c3c4nc(c(-c5c(F)c(F)c(F)c(F)c5F)c5ccc([nH]5)c(-c5c(F)c(F)c(F)c(F)c5F)c5nc(c(-c6c(F)c(F)c(F)c(F)c6F)c6ccc3[nH]6)C=C5)C=C4)cc2)C12CCN(c1ccc(Cl)cn1)CC2
REMARK SMILES IDX 12 1 11 2 10 3 9 4 7 5 8 6 6 8 1 9 2 10 3 11 80 12 4 13 5 14
REMARK SMILES IDX 81 15 92 16 82 17 91 18 83 19 84 20 85 21 90 22 86 23 89 24
REMARK SMILES IDX 87 25 88 26 13 27 14 28 15 29 16 31 17 32 18 33 79 34 19 35
REMARK SMILES IDX 78 36 20 37 21 38 22 39 72 40 23 41 77 42 71 43 73 44 24 45
REMARK SMILES IDX 76 46 70 47 69 48 25 50 57 51 37 52 56 53 38 54 41 55 55 56
REMARK SMILES IDX 74 57 39 58 40 59 54 61 75 62 42 63 26 64 27 65 35 66 28 67
REMARK SMILES IDX 29 68 33 69 36 70 30 71 31 72 34 73 32 74 58 75 59 76 67 77
REMARK SMILES IDX 60 78 61 79 65 80 68 81 62 82 63 83 66 84 64 85 43 86 44 87
REMARK SMILES IDX 52 88 45 89 46 90 50 91 53 92 47 93 48 94 51 95 49 96
REMARK H PARENT 9 7 14 30 73 49 41 60
REMARK Flexibility Score: inf
ROOT
ATOM      1  C   UNL A   1      38.001  20.031  24.998  1.00  0.00     0.023 C 
ENDROOT
BRANCH   1   2
ATOM      2  C   UNL A   1      37.057  21.217  24.829  1.00  0.00     0.023 C 
BRANCH   2   3
ATOM      3  C   UNL A   1      35.600  20.925  25.200  1.00  0.00     0.116 C 
BRANCH   3   4
ATOM      4  N   UNL A   1      35.183  21.522  26.457  1.00  0.00    -0.356 N 
ATOM      5  C   UNL A   1      34.010  22.034  26.906  1.00  0.00     0.226 C 
ATOM      6  O   UNL A   1      34.014  22.442  28.074  1.00  0.00    -0.275 OA
ATOM      7  H   UNL A   1      35.905  21.562  27.126  1.00  0.00     0.163 HD
BRANCH   5   8
ATOM      8  C   UNL A   1      32.723  22.169  26.087  1.00  0.00     0.113 C 
ATOM      9  C   UNL A   1      33.185  22.743  22.413  1.00  0.00     0.147 C 
ATOM     10  N   UNL A   1      32.876  22.305  23.759  1.00  0.00    -0.339 N 
ATOM     11  C   UNL A   1      32.534  20.984  24.019  1.00  0.00     0.223 C 
ATOM     12  C   UNL A   1      32.697  23.191  24.922  1.00  0.00     0.058 C 
ATOM     13  O   UNL A   1      32.494  20.075  23.207  1.00  0.00    -0.275 OA
ATOM     14  C   UNL A   1      32.264  20.839  25.490  1.00  0.00     0.116 C 
ATOM     15  C   UNL A   1      33.778  24.287  25.045  1.00  0.00     0.051 C 
ATOM     16  C   UNL A   1      31.287  23.857  24.798  1.00  0.00     0.051 C 
ATOM     17  C   UNL A   1      33.446  25.317  26.108  1.00  0.00     0.120 C 
ATOM     18  C   UNL A   1      31.035  25.000  25.795  1.00  0.00     0.120 C 
ATOM     19  N   UNL A   1      32.175  25.896  25.733  1.00  0.00    -0.356 N 
BRANCH  19  20
ATOM     20  C   UNL A   1      32.021  27.258  25.867  1.00  0.00     0.128 A 
ATOM     21  C   UNL A   1      32.427  27.876  27.056  1.00  0.00     0.048 A 
ATOM     22  N   UNL A   1      31.496  27.973  24.854  1.00  0.00    -0.238 NA
ATOM     23  C   UNL A   1      32.270  29.249  27.226  1.00  0.00     0.026 A 
ATOM     24  C   UNL A   1      31.328  29.308  25.047  1.00  0.00     0.134 A 
ATOM     25  C   UNL A   1      31.696  29.981  26.202  1.00  0.00     0.059 A 
ATOM     26  Cl  UNL A   1      31.455  31.669  26.366  1.00  0.00    -0.083 Cl
ENDBRANCH  19  20
ENDBRANCH   5   8
ENDBRANCH   3   4
ENDBRANCH   2   3
ENDBRANCH   1   2
BRANCH   1  27
ATOM     27  C   UNL A   1      39.244  20.352  25.810  1.00  0.00     0.116 C 
BRANCH  27  28
ATOM     28  N   UNL A   1      40.157  19.219  25.909  1.00  0.00    -0.352 N 
ATOM     29  C   UNL A   1      41.516  19.225  26.086  1.00  0.00     0.251 C 
ATOM     30  H   UNL A   1      39.741  18.330  25.838  1.00  0.00     0.163 HD
ATOM     31  O   UNL A   1      42.170  18.193  25.989  1.00  0.00    -0.269 OA
BRANCH  29  32
ATOM     32  C   UNL A   1      42.181  20.507  26.368  1.00  0.00     0.039 A 
ATOM     33  C   UNL A   1      42.619  21.295  25.304  1.00  0.00     0.014 A 
ATOM     34  C   UNL A   1      42.300  20.949  27.688  1.00  0.00     0.014 A 
ATOM     35  C   UNL A   1      43.120  22.570  25.564  1.00  0.00     0.010 A 
ATOM     36  C   UNL A   1      42.711  22.250  27.935  1.00  0.00     0.010 A 
ATOM     37  C   UNL A   1      43.132  23.067  26.877  1.00  0.00    -0.014 A 
BRANCH  37  38
ATOM     38  C   UNL A   1      43.600  24.439  27.178  1.00  0.00     0.031 A 
ATOM     39  C   UNL A   1      42.627  25.449  27.717  1.00  0.00     0.074 A 
ATOM     40  C   UNL A   1      44.866  24.791  26.888  1.00  0.00     0.049 A 
ATOM     41  N   UNL A   1      42.803  26.724  27.950  1.00  0.00    -0.248 NA
ATOM     42  C   UNL A   1      41.263  24.970  27.992  1.00  0.00     0.031 C 
ATOM     43  C   UNL A   1      45.879  23.910  26.304  1.00  0.00     0.029 A 
ATOM     44  N   UNL A   1      45.514  25.991  27.032  1.00  0.00    -0.354 N 
ATOM     45  C   UNL A   1      41.569  27.200  28.373  1.00  0.00     0.074 A 
ATOM     46  C   UNL A   1      40.640  26.095  28.308  1.00  0.00     0.031 C 
ATOM     47  C   UNL A   1      47.026  24.593  26.163  1.00  0.00     0.029 A 
ATOM     48  C   UNL A   1      46.821  25.966  26.612  1.00  0.00     0.049 A 
ATOM     49  H   UNL A   1      45.082  26.796  27.401  1.00  0.00     0.167 HD
ATOM     50  C   UNL A   1      41.249  28.442  28.804  1.00  0.00     0.037 A 
ATOM     51  C   UNL A   1      47.744  26.945  26.592  1.00  0.00     0.037 A 
ATOM     52  C   UNL A   1      42.190  29.523  28.907  1.00  0.00     0.049 A 
ATOM     53  C   UNL A   1      47.369  28.310  27.103  1.00  0.00     0.074 A 
ATOM     54  C   UNL A   1      41.990  30.800  29.399  1.00  0.00     0.029 A 
ATOM     55  N   UNL A   1      43.518  29.448  28.512  1.00  0.00    -0.354 N 
ATOM     56  N   UNL A   1      46.219  28.732  27.567  1.00  0.00    -0.248 NA
ATOM     57  C   UNL A   1      48.424  29.332  27.092  1.00  0.00     0.031 C 
ATOM     58  C   UNL A   1      43.188  31.509  29.268  1.00  0.00     0.029 A 
ATOM     59  C   UNL A   1      44.146  30.662  28.736  1.00  0.00     0.049 A 
ATOM     60  H   UNL A   1      43.951  28.650  28.130  1.00  0.00     0.167 HD
ATOM     61  C   UNL A   1      46.416  30.056  27.930  1.00  0.00     0.074 A 
ATOM     62  C   UNL A   1      47.802  30.364  27.643  1.00  0.00     0.031 C 
ATOM     63  C   UNL A   1      45.531  30.940  28.453  1.00  0.00     0.037 A 
BRANCH  50  64
ATOM     64  C   UNL A   1      39.825  28.688  29.209  1.00  0.00     0.064 A 
ATOM     65  C   UNL A   1      39.384  28.462  30.522  1.00  0.00     0.173 A 
ATOM     66  C   UNL A   1      38.895  29.173  28.280  1.00  0.00     0.173 A 
ATOM     67  F   UNL A   1      40.231  27.982  31.446  1.00  0.00    -0.203 F 
ATOM     68  C   UNL A   1      38.057  28.684  30.882  1.00  0.00     0.198 A 
ATOM     69  C   UNL A   1      37.576  29.424  28.650  1.00  0.00     0.198 A 
ATOM     70  F   UNL A   1      39.264  29.408  27.011  1.00  0.00    -0.203 F 
ATOM     71  F   UNL A   1      37.648  28.409  32.128  1.00  0.00    -0.200 F 
ATOM     72  C   UNL A   1      37.157  29.171  29.948  1.00  0.00     0.200 A 
ATOM     73  F   UNL A   1      36.708  29.905  27.749  1.00  0.00    -0.200 F 
ATOM     74  F   UNL A   1      35.881  29.390  30.296  1.00  0.00    -0.200 F 
ENDBRANCH  50  64
BRANCH  51  75
ATOM     75  C   UNL A   1      49.119  26.659  26.106  1.00  0.00     0.064 A 
ATOM     76  C   UNL A   1      49.494  26.977  24.793  1.00  0.00     0.173 A 
ATOM     77  C   UNL A   1      50.083  26.069  26.936  1.00  0.00     0.173 A 
ATOM     78  F   UNL A   1      48.602  27.528  23.957  1.00  0.00    -0.203 F 
ATOM     79  C   UNL A   1      50.774  26.696  24.321  1.00  0.00     0.198 A 
ATOM     80  C   UNL A   1      51.371  25.812  26.471  1.00  0.00     0.198 A 
ATOM     81  F   UNL A   1      49.776  25.753  28.202  1.00  0.00    -0.203 F 
ATOM     82  F   UNL A   1      51.092  26.971  23.050  1.00  0.00    -0.200 F 
ATOM     83  C   UNL A   1      51.713  26.118  25.163  1.00  0.00     0.200 A 
ATOM     84  F   UNL A   1      52.280  25.267  27.291  1.00  0.00    -0.200 F 
ATOM     85  F   UNL A   1      52.946  25.851  24.710  1.00  0.00    -0.200 F 
ENDBRANCH  51  75
BRANCH  63  86
ATOM     86  C   UNL A   1      46.043  32.310  28.781  1.00  0.00     0.064 A 
ATOM     87  C   UNL A   1      46.616  32.603  30.027  1.00  0.00     0.173 A 
ATOM     88  C   UNL A   1      46.003  33.329  27.818  1.00  0.00     0.173 A 
ATOM     89  F   UNL A   1      46.663  31.664  30.985  1.00  0.00    -0.203 F 
ATOM     90  C   UNL A   1      47.110  33.873  30.305  1.00  0.00     0.198 A 
ATOM     91  C   UNL A   1      46.525  34.590  28.089  1.00  0.00     0.198 A 
ATOM     92  F   UNL A   1      45.472  33.096  26.608  1.00  0.00    -0.203 F 
ATOM     93  F   UNL A   1      47.614  34.144  31.517  1.00  0.00    -0.200 F 
ATOM     94  C   UNL A   1      47.071  34.863  29.334  1.00  0.00     0.200 A 
ATOM     95  F   UNL A   1      46.498  35.542  27.145  1.00  0.00    -0.200 F 
ATOM     96  F   UNL A   1      47.555  36.084  29.600  1.00  0.00    -0.200 F 
ENDBRANCH  63  86
ENDBRANCH  37  38
ENDBRANCH  29  32
ENDBRANCH  27  28
ENDBRANCH   1  27
TORSDOF 12
ENDMDL
