MODEL 1
REMARK VINA RESULT:     -13.5      0.000      0.000
REMARK SMILES Cc1[nH]c2ccccc2c1/N=N\c1ccccc1C(=O)NCCCCNC(=O)c1ccc(-c2c3nc(c(-c4c(F)c(F)c(F)c(F)c4F)c4ccc([nH]4)c(-c4c(F)c(F)c(F)c(F)c4F)c4nc(c(-c5c(F)c(F)c(F)c(F)c5F)c5ccc2[nH]5)C=C4)C=C3)cc1
REMARK SMILES IDX 23 1 22 2 21 3 19 4 20 5 18 7 13 8 14 9 15 10 17 11 16 12
REMARK SMILES IDX 12 13 11 14 10 15 1 16 2 17 3 18 4 19 9 21 5 22 8 23 6 24
REMARK SMILES IDX 7 25 24 26 25 27 26 28 27 29 28 31 29 32 30 33 91 34 31 35
REMARK SMILES IDX 90 36 32 37 33 38 34 39 84 40 35 41 89 42 83 43 85 44 36 45
REMARK SMILES IDX 88 46 82 47 81 48 37 50 69 51 49 52 68 53 50 54 53 55 67 56
REMARK SMILES IDX 86 57 51 58 52 59 66 61 87 62 54 63 38 64 39 65 47 66 40 67
REMARK SMILES IDX 41 68 45 69 48 70 42 71 43 72 46 73 44 74 70 75 71 76 79 77
REMARK SMILES IDX 72 78 73 79 77 80 80 81 74 82 75 83 78 84 76 85 55 86 56 87
REMARK SMILES IDX 64 88 57 89 58 90 62 91 65 92 59 93 60 94 63 95 61 96
REMARK H PARENT 21 6 3 20 26 30 85 49 53 60
REMARK Flexibility Score: inf
ROOT
ATOM      1  C   UNL A   1      31.457  30.934  25.868  1.00  0.00     0.023 C 
ENDROOT
BRANCH   1   2
ATOM      2  C   UNL A   1      32.621  29.953  25.918  1.00  0.00     0.116 C 
BRANCH   2   3
ATOM      3  N   UNL A   1      33.235  29.700  24.629  1.00  0.00    -0.352 N 
ATOM      4  C   UNL A   1      32.765  28.946  23.582  1.00  0.00     0.253 C 
ATOM      5  O   UNL A   1      33.454  28.831  22.568  1.00  0.00    -0.269 OA
ATOM      6  H   UNL A   1      34.110  30.129  24.486  1.00  0.00     0.163 HD
BRANCH   4   7
ATOM      7  C   UNL A   1      31.492  28.192  23.672  1.00  0.00     0.067 A 
ATOM      8  C   UNL A   1      31.354  26.968  24.352  1.00  0.00     0.098 A 
ATOM      9  C   UNL A   1      30.102  26.329  24.324  1.00  0.00     0.031 A 
ATOM     10  C   UNL A   1      28.994  26.931  23.719  1.00  0.00     0.002 A 
ATOM     11  C   UNL A   1      30.366  28.812  23.101  1.00  0.00     0.016 A 
ATOM     12  C   UNL A   1      29.121  28.184  23.127  1.00  0.00     0.001 A 
BRANCH   8  13
ATOM     13  N   UNL A   1      32.427  26.348  25.037  1.00  0.00    -0.150 NA
ATOM     14  N   UNL A   1      33.315  25.867  24.294  1.00  0.00    -0.148 NA
BRANCH  14  15
ATOM     15  C   UNL A   1      32.955  24.688  23.618  1.00  0.00     0.114 A 
ATOM     16  C   UNL A   1      32.792  25.629  21.190  1.00  0.00     0.067 C 
ATOM     17  C   UNL A   1      32.727  24.610  22.261  1.00  0.00     0.041 A 
ATOM     18  N   UNL A   1      32.360  23.313  22.002  1.00  0.00    -0.357 N 
ATOM     19  C   UNL A   1      32.497  22.535  23.131  1.00  0.00     0.048 A 
ATOM     20  H   UNL A   1      32.044  22.984  21.130  1.00  0.00     0.166 HD
ATOM     21  C   UNL A   1      32.862  23.384  24.181  1.00  0.00     0.027 A 
ATOM     22  C   UNL A   1      32.331  21.154  23.289  1.00  0.00     0.027 A 
ATOM     23  C   UNL A   1      33.065  22.816  25.457  1.00  0.00     0.012 A 
ATOM     24  C   UNL A   1      32.561  20.615  24.555  1.00  0.00     0.002 A 
ATOM     25  C   UNL A   1      32.921  21.430  25.627  1.00  0.00     0.001 A 
ENDBRANCH  14  15
ENDBRANCH   8  13
ENDBRANCH   4   7
ENDBRANCH   2   3
ENDBRANCH   1   2
BRANCH   1  26
ATOM     26  C   UNL A   1      31.400  31.949  27.009  1.00  0.00     0.023 C 
BRANCH  26  27
ATOM     27  C   UNL A   1      32.650  32.797  27.221  1.00  0.00     0.116 C 
BRANCH  27  28
ATOM     28  N   UNL A   1      32.369  34.172  27.610  1.00  0.00    -0.352 N 
ATOM     29  C   UNL A   1      32.992  34.970  28.544  1.00  0.00     0.251 C 
ATOM     30  H   UNL A   1      31.620  34.596  27.133  1.00  0.00     0.163 HD
ATOM     31  O   UNL A   1      32.559  36.084  28.798  1.00  0.00    -0.269 OA
BRANCH  29  32
ATOM     32  C   UNL A   1      34.168  34.454  29.278  1.00  0.00     0.039 A 
ATOM     33  C   UNL A   1      33.966  33.816  30.505  1.00  0.00     0.014 A 
ATOM     34  C   UNL A   1      35.455  34.566  28.746  1.00  0.00     0.014 A 
ATOM     35  C   UNL A   1      35.042  33.204  31.149  1.00  0.00     0.010 A 
ATOM     36  C   UNL A   1      36.512  33.891  29.351  1.00  0.00     0.010 A 
ATOM     37  C   UNL A   1      36.314  33.192  30.552  1.00  0.00    -0.014 A 
BRANCH  37  38
ATOM     38  C   UNL A   1      37.439  32.432  31.155  1.00  0.00     0.031 A 
ATOM     39  C   UNL A   1      37.944  32.785  32.525  1.00  0.00     0.074 A 
ATOM     40  C   UNL A   1      38.051  31.470  30.437  1.00  0.00     0.049 A 
ATOM     41  N   UNL A   1      38.955  32.282  33.189  1.00  0.00    -0.248 NA
ATOM     42  C   UNL A   1      37.240  33.865  33.230  1.00  0.00     0.031 C 
ATOM     43  C   UNL A   1      37.693  31.071  29.075  1.00  0.00     0.029 A 
ATOM     44  N   UNL A   1      39.114  30.658  30.750  1.00  0.00    -0.354 N 
ATOM     45  C   UNL A   1      39.014  32.993  34.380  1.00  0.00     0.074 A 
ATOM     46  C   UNL A   1      37.973  33.996  34.326  1.00  0.00     0.031 C 
ATOM     47  C   UNL A   1      38.505  30.078  28.678  1.00  0.00     0.029 A 
ATOM     48  C   UNL A   1      39.462  29.791  29.742  1.00  0.00     0.049 A 
ATOM     49  H   UNL A   1      39.583  30.694  31.615  1.00  0.00     0.167 HD
ATOM     50  C   UNL A   1      39.845  32.809  35.433  1.00  0.00     0.037 A 
ATOM     51  C   UNL A   1      40.444  28.872  29.683  1.00  0.00     0.037 A 
ATOM     52  C   UNL A   1      40.863  31.792  35.497  1.00  0.00     0.049 A 
ATOM     53  C   UNL A   1      41.347  28.682  30.871  1.00  0.00     0.074 A 
ATOM     54  C   UNL A   1      41.715  31.489  36.544  1.00  0.00     0.029 A 
ATOM     55  N   UNL A   1      41.164  30.912  34.469  1.00  0.00    -0.354 N 
ATOM     56  N   UNL A   1      41.347  29.312  32.021  1.00  0.00    -0.248 NA
ATOM     57  C   UNL A   1      42.384  27.646  30.756  1.00  0.00     0.031 C 
ATOM     58  C   UNL A   1      42.559  30.451  36.136  1.00  0.00     0.029 A 
ATOM     59  C   UNL A   1      42.201  30.076  34.851  1.00  0.00     0.049 A 
ATOM     60  H   UNL A   1      40.709  30.885  33.596  1.00  0.00     0.167 HD
ATOM     61  C   UNL A   1      42.357  28.730  32.775  1.00  0.00     0.074 A 
ATOM     62  C   UNL A   1      42.941  27.687  31.958  1.00  0.00     0.031 C 
ATOM     63  C   UNL A   1      42.763  29.033  34.031  1.00  0.00     0.037 A 
BRANCH  50  64
ATOM     64  C   UNL A   1      39.682  33.724  36.611  1.00  0.00     0.064 A 
ATOM     65  C   UNL A   1      40.329  34.968  36.667  1.00  0.00     0.173 A 
ATOM     66  C   UNL A   1      38.844  33.372  37.679  1.00  0.00     0.173 A 
ATOM     67  F   UNL A   1      41.150  35.348  35.677  1.00  0.00    -0.203 F 
ATOM     68  C   UNL A   1      40.165  35.812  37.762  1.00  0.00     0.198 A 
ATOM     69  C   UNL A   1      38.659  34.230  38.759  1.00  0.00     0.198 A 
ATOM     70  F   UNL A   1      38.198  32.195  37.672  1.00  0.00    -0.203 F 
ATOM     71  F   UNL A   1      40.830  36.975  37.817  1.00  0.00    -0.200 F 
ATOM     72  C   UNL A   1      39.325  35.445  38.804  1.00  0.00     0.200 A 
ATOM     73  F   UNL A   1      37.837  33.881  39.759  1.00  0.00    -0.200 F 
ATOM     74  F   UNL A   1      39.162  36.262  39.854  1.00  0.00    -0.200 F 
ENDBRANCH  50  64
BRANCH  51  75
ATOM     75  C   UNL A   1      40.606  28.035  28.466  1.00  0.00     0.064 A 
ATOM     76  C   UNL A   1      40.001  26.773  28.377  1.00  0.00     0.173 A 
ATOM     77  C   UNL A   1      41.377  28.467  27.377  1.00  0.00     0.173 A 
ATOM     78  F   UNL A   1      39.271  26.307  29.402  1.00  0.00    -0.203 F 
ATOM     79  C   UNL A   1      40.177  25.967  27.254  1.00  0.00     0.198 A 
ATOM     80  C   UNL A   1      41.531  27.671  26.244  1.00  0.00     0.198 A 
ATOM     81  F   UNL A   1      41.975  29.667  27.411  1.00  0.00    -0.203 F 
ATOM     82  F   UNL A   1      39.626  24.747  27.215  1.00  0.00    -0.200 F 
ATOM     83  C   UNL A   1      40.938  26.418  26.186  1.00  0.00     0.200 A 
ATOM     84  F   UNL A   1      42.257  28.116  25.209  1.00  0.00    -0.200 F 
ATOM     85  F   UNL A   1      41.108  25.642  25.107  1.00  0.00    -0.200 F 
ENDBRANCH  51  75
BRANCH  63  86
ATOM     86  C   UNL A   1      43.865  28.201  34.618  1.00  0.00     0.064 A 
ATOM     87  C   UNL A   1      45.207  28.604  34.552  1.00  0.00     0.173 A 
ATOM     88  C   UNL A   1      43.569  27.003  35.288  1.00  0.00     0.173 A 
ATOM     89  F   UNL A   1      45.542  29.732  33.910  1.00  0.00    -0.203 F 
ATOM     90  C   UNL A   1      46.215  27.825  35.115  1.00  0.00     0.198 A 
ATOM     91  C   UNL A   1      44.576  26.242  35.873  1.00  0.00     0.198 A 
ATOM     92  F   UNL A   1      42.300  26.578  35.383  1.00  0.00    -0.203 F 
ATOM     93  F   UNL A   1      47.495  28.205  35.002  1.00  0.00    -0.200 F 
ATOM     94  C   UNL A   1      45.898  26.649  35.782  1.00  0.00     0.200 A 
ATOM     95  F   UNL A   1      44.267  25.114  36.527  1.00  0.00    -0.200 F 
ATOM     96  F   UNL A   1      46.869  25.905  36.328  1.00  0.00    -0.200 F 
ENDBRANCH  63  86
ENDBRANCH  37  38
ENDBRANCH  29  32
ENDBRANCH  27  28
ENDBRANCH  26  27
ENDBRANCH   1  26
TORSDOF 13
ENDMDL
MODEL 2
REMARK VINA RESULT:     -13.4      0.058      1.116
REMARK SMILES Cc1[nH]c2ccccc2c1/N=N\c1ccccc1C(=O)NCCCCNC(=O)c1ccc(-c2c3nc(c(-c4c(F)c(F)c(F)c(F)c4F)c4ccc([nH]4)c(-c4c(F)c(F)c(F)c(F)c4F)c4nc(c(-c5c(F)c(F)c(F)c(F)c5F)c5ccc2[nH]5)C=C4)C=C3)cc1
REMARK SMILES IDX 23 1 22 2 21 3 19 4 20 5 18 7 13 8 14 9 15 10 17 11 16 12
REMARK SMILES IDX 12 13 11 14 10 15 1 16 2 17 3 18 4 19 9 21 5 22 8 23 6 24
REMARK SMILES IDX 7 25 24 26 25 27 26 28 27 29 28 31 29 32 30 33 91 34 31 35
REMARK SMILES IDX 90 36 32 37 33 38 34 39 84 40 35 41 89 42 83 43 85 44 36 45
REMARK SMILES IDX 88 46 82 47 81 48 37 50 69 51 49 52 68 53 50 54 53 55 67 56
REMARK SMILES IDX 86 57 51 58 52 59 66 61 87 62 54 63 38 64 39 65 47 66 40 67
REMARK SMILES IDX 41 68 45 69 48 70 42 71 43 72 46 73 44 74 70 75 71 76 79 77
REMARK SMILES IDX 72 78 73 79 77 80 80 81 74 82 75 83 78 84 76 85 55 86 56 87
REMARK SMILES IDX 64 88 57 89 58 90 62 91 65 92 59 93 60 94 63 95 61 96
REMARK H PARENT 21 6 3 20 26 30 85 49 53 60
REMARK Flexibility Score: inf
ROOT
ATOM      1  C   UNL A   1      31.450  30.901  25.865  1.00  0.00     0.023 C 
ENDROOT
BRANCH   1   2
ATOM      2  C   UNL A   1      32.645  29.959  25.935  1.00  0.00     0.116 C 
BRANCH   2   3
ATOM      3  N   UNL A   1      33.268  29.699  24.652  1.00  0.00    -0.352 N 
ATOM      4  C   UNL A   1      32.806  28.937  23.606  1.00  0.00     0.253 C 
ATOM      5  O   UNL A   1      33.501  28.817  22.598  1.00  0.00    -0.269 OA
ATOM      6  H   UNL A   1      34.143  30.128  24.511  1.00  0.00     0.163 HD
BRANCH   4   7
ATOM      7  C   UNL A   1      31.533  28.182  23.693  1.00  0.00     0.067 A 
ATOM      8  C   UNL A   1      31.390  26.966  24.386  1.00  0.00     0.098 A 
ATOM      9  C   UNL A   1      30.140  26.324  24.354  1.00  0.00     0.031 A 
ATOM     10  C   UNL A   1      29.037  26.917  23.730  1.00  0.00     0.002 A 
ATOM     11  C   UNL A   1      30.411  28.792  23.103  1.00  0.00     0.016 A 
ATOM     12  C   UNL A   1      29.168  28.163  23.125  1.00  0.00     0.001 A 
BRANCH   8  13
ATOM     13  N   UNL A   1      32.458  26.356  25.090  1.00  0.00    -0.150 NA
ATOM     14  N   UNL A   1      33.354  25.867  24.361  1.00  0.00    -0.148 NA
BRANCH  14  15
ATOM     15  C   UNL A   1      33.001  24.679  23.697  1.00  0.00     0.114 A 
ATOM     16  C   UNL A   1      32.827  25.596  21.260  1.00  0.00     0.067 C 
ATOM     17  C   UNL A   1      32.773  24.587  22.341  1.00  0.00     0.041 A 
ATOM     18  N   UNL A   1      32.415  23.284  22.095  1.00  0.00    -0.357 N 
ATOM     19  C   UNL A   1      32.560  22.519  23.231  1.00  0.00     0.048 A 
ATOM     20  H   UNL A   1      32.100  22.945  21.226  1.00  0.00     0.166 HD
ATOM     21  C   UNL A   1      32.919  23.380  24.272  1.00  0.00     0.027 A 
ATOM     22  C   UNL A   1      32.404  21.138  23.401  1.00  0.00     0.027 A 
ATOM     23  C   UNL A   1      33.129  22.825  25.553  1.00  0.00     0.012 A 
ATOM     24  C   UNL A   1      32.641  20.612  24.673  1.00  0.00     0.002 A 
ATOM     25  C   UNL A   1      32.996  21.440  25.736  1.00  0.00     0.001 A 
ENDBRANCH  14  15
ENDBRANCH   8  13
ENDBRANCH   4   7
ENDBRANCH   2   3
ENDBRANCH   1   2
BRANCH   1  26
ATOM     26  C   UNL A   1      31.374  31.954  26.969  1.00  0.00     0.023 C 
BRANCH  26  27
ATOM     27  C   UNL A   1      32.626  32.798  27.185  1.00  0.00     0.116 C 
BRANCH  27  28
ATOM     28  N   UNL A   1      32.348  34.175  27.569  1.00  0.00    -0.352 N 
ATOM     29  C   UNL A   1      32.971  34.975  28.501  1.00  0.00     0.251 C 
ATOM     30  H   UNL A   1      31.600  34.599  27.089  1.00  0.00     0.163 HD
ATOM     31  O   UNL A   1      32.540  36.090  28.751  1.00  0.00    -0.269 OA
BRANCH  29  32
ATOM     32  C   UNL A   1      34.144  34.459  29.239  1.00  0.00     0.039 A 
ATOM     33  C   UNL A   1      33.938  33.819  30.464  1.00  0.00     0.014 A 
ATOM     34  C   UNL A   1      35.433  34.571  28.713  1.00  0.00     0.014 A 
ATOM     35  C   UNL A   1      35.011  33.206  31.112  1.00  0.00     0.010 A 
ATOM     36  C   UNL A   1      36.488  33.896  29.321  1.00  0.00     0.010 A 
ATOM     37  C   UNL A   1      36.286  33.196  30.520  1.00  0.00    -0.014 A 
BRANCH  37  38
ATOM     38  C   UNL A   1      37.408  32.435  31.126  1.00  0.00     0.031 A 
ATOM     39  C   UNL A   1      37.908  32.786  32.499  1.00  0.00     0.074 A 
ATOM     40  C   UNL A   1      38.023  31.474  30.410  1.00  0.00     0.049 A 
ATOM     41  N   UNL A   1      38.916  32.283  33.167  1.00  0.00    -0.248 NA
ATOM     42  C   UNL A   1      37.201  33.866  33.203  1.00  0.00     0.031 C 
ATOM     43  C   UNL A   1      37.671  31.077  29.046  1.00  0.00     0.029 A 
ATOM     44  N   UNL A   1      39.085  30.662  30.726  1.00  0.00    -0.354 N 
ATOM     45  C   UNL A   1      38.970  32.993  34.358  1.00  0.00     0.074 A 
ATOM     46  C   UNL A   1      37.929  33.995  34.302  1.00  0.00     0.031 C 
ATOM     47  C   UNL A   1      38.484  30.084  28.651  1.00  0.00     0.029 A 
ATOM     48  C   UNL A   1      39.437  29.796  29.719  1.00  0.00     0.049 A 
ATOM     49  H   UNL A   1      39.551  30.698  31.593  1.00  0.00     0.167 HD
ATOM     50  C   UNL A   1      39.797  32.808  35.414  1.00  0.00     0.037 A 
ATOM     51  C   UNL A   1      40.420  28.878  29.663  1.00  0.00     0.037 A 
ATOM     52  C   UNL A   1      40.815  31.791  35.481  1.00  0.00     0.049 A 
ATOM     53  C   UNL A   1      41.318  28.686  30.853  1.00  0.00     0.074 A 
ATOM     54  C   UNL A   1      41.663  31.487  36.532  1.00  0.00     0.029 A 
ATOM     55  N   UNL A   1      41.120  30.913  34.454  1.00  0.00    -0.354 N 
ATOM     56  N   UNL A   1      41.314  29.315  32.004  1.00  0.00    -0.248 NA
ATOM     57  C   UNL A   1      42.356  27.651  30.742  1.00  0.00     0.031 C 
ATOM     58  C   UNL A   1      42.509  30.450  36.125  1.00  0.00     0.029 A 
ATOM     59  C   UNL A   1      42.156  30.076  34.839  1.00  0.00     0.049 A 
ATOM     60  H   UNL A   1      40.669  30.886  33.579  1.00  0.00     0.167 HD
ATOM     61  C   UNL A   1      42.320  28.733  32.762  1.00  0.00     0.074 A 
ATOM     62  C   UNL A   1      42.909  27.691  31.946  1.00  0.00     0.031 C 
ATOM     63  C   UNL A   1      42.722  29.034  34.020  1.00  0.00     0.037 A 
BRANCH  50  64
ATOM     64  C   UNL A   1      39.630  33.722  36.593  1.00  0.00     0.064 A 
ATOM     65  C   UNL A   1      38.827  33.366  37.688  1.00  0.00     0.173 A 
ATOM     66  C   UNL A   1      40.304  34.950  36.646  1.00  0.00     0.173 A 
ATOM     67  F   UNL A   1      38.152  32.207  37.682  1.00  0.00    -0.203 F 
ATOM     68  C   UNL A   1      38.685  34.219  38.779  1.00  0.00     0.198 A 
ATOM     69  C   UNL A   1      40.183  35.788  37.750  1.00  0.00     0.198 A 
ATOM     70  F   UNL A   1      41.088  35.336  35.626  1.00  0.00    -0.203 F 
ATOM     71  F   UNL A   1      37.876  33.880  39.792  1.00  0.00    -0.200 F 
ATOM     72  C   UNL A   1      39.368  35.426  38.812  1.00  0.00     0.200 A 
ATOM     73  F   UNL A   1      40.853  36.949  37.787  1.00  0.00    -0.200 F 
ATOM     74  F   UNL A   1      39.236  36.244  39.866  1.00  0.00    -0.200 F 
ENDBRANCH  50  64
BRANCH  51  75
ATOM     75  C   UNL A   1      40.587  28.042  28.445  1.00  0.00     0.064 A 
ATOM     76  C   UNL A   1      39.990  26.776  28.356  1.00  0.00     0.173 A 
ATOM     77  C   UNL A   1      41.354  28.480  27.356  1.00  0.00     0.173 A 
ATOM     78  F   UNL A   1      39.265  26.305  29.381  1.00  0.00    -0.203 F 
ATOM     79  C   UNL A   1      40.171  25.971  27.233  1.00  0.00     0.198 A 
ATOM     80  C   UNL A   1      41.513  27.685  26.222  1.00  0.00     0.198 A 
ATOM     81  F   UNL A   1      41.944  29.684  27.390  1.00  0.00    -0.203 F 
ATOM     82  F   UNL A   1      39.630  24.747  27.195  1.00  0.00    -0.200 F 
ATOM     83  C   UNL A   1      40.929  26.428  26.165  1.00  0.00     0.200 A 
ATOM     84  F   UNL A   1      42.235  28.135  25.187  1.00  0.00    -0.200 F 
ATOM     85  F   UNL A   1      41.104  25.654  25.085  1.00  0.00    -0.200 F 
ENDBRANCH  51  75
BRANCH  63  86
ATOM     86  C   UNL A   1      43.821  28.202  34.610  1.00  0.00     0.064 A 
ATOM     87  C   UNL A   1      45.166  28.594  34.531  1.00  0.00     0.173 A 
ATOM     88  C   UNL A   1      43.521  27.015  35.297  1.00  0.00     0.173 A 
ATOM     89  F   UNL A   1      45.505  29.712  33.871  1.00  0.00    -0.203 F 
ATOM     90  C   UNL A   1      46.172  27.815  35.097  1.00  0.00     0.198 A 
ATOM     91  C   UNL A   1      44.527  26.254  35.886  1.00  0.00     0.198 A 
ATOM     92  F   UNL A   1      42.251  26.600  35.406  1.00  0.00    -0.203 F 
ATOM     93  F   UNL A   1      47.454  28.185  34.970  1.00  0.00    -0.200 F 
ATOM     94  C   UNL A   1      45.851  26.651  35.780  1.00  0.00     0.200 A 
ATOM     95  F   UNL A   1      44.214  25.137  36.556  1.00  0.00    -0.200 F 
ATOM     96  F   UNL A   1      46.821  25.907  36.330  1.00  0.00    -0.200 F 
ENDBRANCH  63  86
ENDBRANCH  37  38
ENDBRANCH  29  32
ENDBRANCH  27  28
ENDBRANCH  26  27
ENDBRANCH   1  26
TORSDOF 13
ENDMDL
MODEL 3
REMARK VINA RESULT:     -13.4      0.528      7.156
REMARK SMILES Cc1[nH]c2ccccc2c1/N=N\c1ccccc1C(=O)NCCCCNC(=O)c1ccc(-c2c3nc(c(-c4c(F)c(F)c(F)c(F)c4F)c4ccc([nH]4)c(-c4c(F)c(F)c(F)c(F)c4F)c4nc(c(-c5c(F)c(F)c(F)c(F)c5F)c5ccc2[nH]5)C=C4)C=C3)cc1
REMARK SMILES IDX 23 1 22 2 21 3 19 4 20 5 18 7 13 8 14 9 15 10 17 11 16 12
REMARK SMILES IDX 12 13 11 14 10 15 1 16 2 17 3 18 4 19 9 21 5 22 8 23 6 24
REMARK SMILES IDX 7 25 24 26 25 27 26 28 27 29 28 31 29 32 30 33 91 34 31 35
REMARK SMILES IDX 90 36 32 37 33 38 34 39 84 40 35 41 89 42 83 43 85 44 36 45
REMARK SMILES IDX 88 46 82 47 81 48 37 50 69 51 49 52 68 53 50 54 53 55 67 56
REMARK SMILES IDX 86 57 51 58 52 59 66 61 87 62 54 63 38 64 39 65 47 66 40 67
REMARK SMILES IDX 41 68 45 69 48 70 42 71 43 72 46 73 44 74 70 75 71 76 79 77
REMARK SMILES IDX 72 78 73 79 77 80 80 81 74 82 75 83 78 84 76 85 55 86 56 87
REMARK SMILES IDX 64 88 57 89 58 90 62 91 65 92 59 93 60 94 63 95 61 96
REMARK H PARENT 21 6 3 20 26 30 85 49 53 60
REMARK Flexibility Score: inf
ROOT
ATOM      1  C   UNL A   1      31.582  30.851  25.962  1.00  0.00     0.023 C 
ENDROOT
BRANCH   1   2
ATOM      2  C   UNL A   1      32.731  29.853  25.912  1.00  0.00     0.116 C 
BRANCH   2   3
ATOM      3  N   UNL A   1      33.281  29.652  24.585  1.00  0.00    -0.352 N 
ATOM      4  C   UNL A   1      32.759  28.941  23.532  1.00  0.00     0.253 C 
ATOM      5  O   UNL A   1      33.397  28.868  22.483  1.00  0.00    -0.269 OA
ATOM      6  H   UNL A   1      34.148  30.087  24.417  1.00  0.00     0.163 HD
BRANCH   4   7
ATOM      7  C   UNL A   1      31.490  28.184  23.654  1.00  0.00     0.067 A 
ATOM      8  C   UNL A   1      31.370  26.962  24.339  1.00  0.00     0.098 A 
ATOM      9  C   UNL A   1      30.120  26.319  24.342  1.00  0.00     0.031 A 
ATOM     10  C   UNL A   1      28.997  26.917  23.761  1.00  0.00     0.002 A 
ATOM     11  C   UNL A   1      30.349  28.800  23.108  1.00  0.00     0.016 A 
ATOM     12  C   UNL A   1      29.107  28.169  23.165  1.00  0.00     0.001 A 
BRANCH   8  13
ATOM     13  N   UNL A   1      32.461  26.345  25.000  1.00  0.00    -0.150 NA
ATOM     14  N   UNL A   1      33.334  25.868  24.237  1.00  0.00    -0.148 NA
BRANCH  14  15
ATOM     15  C   UNL A   1      32.963  24.687  23.570  1.00  0.00     0.114 A 
ATOM     16  C   UNL A   1      32.781  25.619  21.139  1.00  0.00     0.067 C 
ATOM     17  C   UNL A   1      32.723  24.605  22.215  1.00  0.00     0.041 A 
ATOM     18  N   UNL A   1      32.349  23.308  21.965  1.00  0.00    -0.357 N 
ATOM     19  C   UNL A   1      32.493  22.534  23.096  1.00  0.00     0.048 A 
ATOM     20  H   UNL A   1      32.023  22.976  21.097  1.00  0.00     0.166 HD
ATOM     21  C   UNL A   1      32.870  23.386  24.138  1.00  0.00     0.027 A 
ATOM     22  C   UNL A   1      32.323  21.154  23.260  1.00  0.00     0.027 A 
ATOM     23  C   UNL A   1      33.084  22.822  25.414  1.00  0.00     0.012 A 
ATOM     24  C   UNL A   1      32.563  20.619  24.527  1.00  0.00     0.002 A 
ATOM     25  C   UNL A   1      32.936  21.438  25.591  1.00  0.00     0.001 A 
ENDBRANCH  14  15
ENDBRANCH   8  13
ENDBRANCH   4   7
ENDBRANCH   2   3
ENDBRANCH   1   2
BRANCH   1  26
ATOM     26  C   UNL A   1      31.583  31.798  27.161  1.00  0.00     0.023 C 
BRANCH  26  27
ATOM     27  C   UNL A   1      32.779  32.736  27.280  1.00  0.00     0.116 C 
BRANCH  27  28
ATOM     28  N   UNL A   1      32.421  34.108  27.611  1.00  0.00    -0.352 N 
ATOM     29  C   UNL A   1      32.981  34.971  28.526  1.00  0.00     0.251 C 
ATOM     30  H   UNL A   1      31.663  34.476  27.102  1.00  0.00     0.163 HD
ATOM     31  O   UNL A   1      32.487  36.070  28.728  1.00  0.00    -0.269 OA
BRANCH  29  32
ATOM     32  C   UNL A   1      34.164  34.543  29.305  1.00  0.00     0.039 A 
ATOM     33  C   UNL A   1      33.972  34.041  30.594  1.00  0.00     0.014 A 
ATOM     34  C   UNL A   1      35.447  34.603  28.757  1.00  0.00     0.014 A 
ATOM     35  C   UNL A   1      35.055  33.506  31.295  1.00  0.00     0.010 A 
ATOM     36  C   UNL A   1      36.511  34.003  29.425  1.00  0.00     0.010 A 
ATOM     37  C   UNL A   1      36.324  33.437  30.695  1.00  0.00    -0.014 A 
BRANCH  37  38
ATOM     38  C   UNL A   1      37.455  32.752  31.370  1.00  0.00     0.031 A 
ATOM     39  C   UNL A   1      38.146  31.594  30.707  1.00  0.00     0.074 A 
ATOM     40  C   UNL A   1      37.815  33.129  32.612  1.00  0.00     0.049 A 
ATOM     41  N   UNL A   1      39.106  30.830  31.165  1.00  0.00    -0.248 NA
ATOM     42  C   UNL A   1      37.676  31.227  29.363  1.00  0.00     0.031 C 
ATOM     43  C   UNL A   1      37.187  34.200  33.388  1.00  0.00     0.029 A 
ATOM     44  N   UNL A   1      38.790  32.644  33.450  1.00  0.00    -0.354 N 
ATOM     45  C   UNL A   1      39.343  29.887  30.174  1.00  0.00     0.074 A 
ATOM     46  C   UNL A   1      38.393  30.142  29.113  1.00  0.00     0.031 C 
ATOM     47  C   UNL A   1      37.805  34.307  34.574  1.00  0.00     0.029 A 
ATOM     48  C   UNL A   1      38.851  33.292  34.660  1.00  0.00     0.049 A 
ATOM     49  H   UNL A   1      39.389  31.902  33.205  1.00  0.00     0.167 HD
ATOM     50  C   UNL A   1      40.284  28.914  30.141  1.00  0.00     0.037 A 
ATOM     51  C   UNL A   1      39.656  33.086  35.720  1.00  0.00     0.037 A 
ATOM     52  C   UNL A   1      41.247  28.680  31.185  1.00  0.00     0.049 A 
ATOM     53  C   UNL A   1      40.699  32.005  35.653  1.00  0.00     0.074 A 
ATOM     54  C   UNL A   1      42.278  27.757  31.217  1.00  0.00     0.029 A 
ATOM     55  N   UNL A   1      41.297  29.377  32.383  1.00  0.00    -0.354 N 
ATOM     56  N   UNL A   1      40.962  31.166  34.679  1.00  0.00    -0.248 NA
ATOM     57  C   UNL A   1      41.565  31.846  36.830  1.00  0.00     0.031 C 
ATOM     58  C   UNL A   1      42.927  27.869  32.451  1.00  0.00     0.029 A 
ATOM     59  C   UNL A   1      42.331  28.894  33.168  1.00  0.00     0.049 A 
ATOM     60  H   UNL A   1      40.688  30.108  32.637  1.00  0.00     0.167 HD
ATOM     61  C   UNL A   1      42.038  30.404  35.112  1.00  0.00     0.074 A 
ATOM     62  C   UNL A   1      42.390  30.888  36.431  1.00  0.00     0.031 C 
ATOM     63  C   UNL A   1      42.678  29.395  34.474  1.00  0.00     0.037 A 
BRANCH  50  64
ATOM     64  C   UNL A   1      40.325  28.032  28.928  1.00  0.00     0.064 A 
ATOM     65  C   UNL A   1      41.078  28.377  27.795  1.00  0.00     0.173 A 
ATOM     66  C   UNL A   1      39.632  26.812  28.909  1.00  0.00     0.173 A 
ATOM     67  F   UNL A   1      41.749  29.537  27.759  1.00  0.00    -0.203 F 
ATOM     68  C   UNL A   1      41.113  27.546  26.679  1.00  0.00     0.198 A 
ATOM     69  C   UNL A   1      39.694  25.970  27.802  1.00  0.00     0.198 A 
ATOM     70  F   UNL A   1      38.901  26.432  29.969  1.00  0.00    -0.203 F 
ATOM     71  F   UNL A   1      41.801  27.919  25.590  1.00  0.00    -0.200 F 
ATOM     72  C   UNL A   1      40.427  26.340  26.686  1.00  0.00     0.200 A 
ATOM     73  F   UNL A   1      39.040  24.799  27.814  1.00  0.00    -0.200 F 
ATOM     74  F   UNL A   1      40.468  25.539  25.612  1.00  0.00    -0.200 F 
ENDBRANCH  50  64
BRANCH  51  75
ATOM     75  C   UNL A   1      39.532  33.946  36.925  1.00  0.00     0.064 A 
ATOM     76  C   UNL A   1      38.749  33.542  38.017  1.00  0.00     0.173 A 
ATOM     77  C   UNL A   1      40.177  35.189  37.009  1.00  0.00     0.173 A 
ATOM     78  F   UNL A   1      38.096  32.372  37.976  1.00  0.00    -0.203 F 
ATOM     79  C   UNL A   1      38.599  34.358  39.136  1.00  0.00     0.198 A 
ATOM     80  C   UNL A   1      40.047  35.992  38.140  1.00  0.00     0.198 A 
ATOM     81  F   UNL A   1      40.939  35.619  35.993  1.00  0.00    -0.203 F 
ATOM     82  F   UNL A   1      37.807  33.970  40.144  1.00  0.00    -0.200 F 
ATOM     83  C   UNL A   1      39.252  35.581  39.199  1.00  0.00     0.200 A 
ATOM     84  F   UNL A   1      40.689  37.166  38.202  1.00  0.00    -0.200 F 
ATOM     85  F   UNL A   1      39.106  36.365  40.276  1.00  0.00    -0.200 F 
ENDBRANCH  51  75
BRANCH  63  86
ATOM     86  C   UNL A   1      43.850  28.772  35.173  1.00  0.00     0.064 A 
ATOM     87  C   UNL A   1      45.154  29.259  35.000  1.00  0.00     0.173 A 
ATOM     88  C   UNL A   1      43.660  27.698  36.056  1.00  0.00     0.173 A 
ATOM     89  F   UNL A   1      45.390  30.273  34.156  1.00  0.00    -0.203 F 
ATOM     90  C   UNL A   1      46.228  28.676  35.669  1.00  0.00     0.198 A 
ATOM     91  C   UNL A   1      44.731  27.136  36.743  1.00  0.00     0.198 A 
ATOM     92  F   UNL A   1      42.431  27.200  36.259  1.00  0.00    -0.203 F 
ATOM     93  F   UNL A   1      47.472  29.127  35.455  1.00  0.00    -0.200 F 
ATOM     94  C   UNL A   1      46.015  27.621  36.545  1.00  0.00     0.200 A 
ATOM     95  F   UNL A   1      44.522  26.126  37.598  1.00  0.00    -0.200 F 
ATOM     96  F   UNL A   1      47.050  27.066  37.191  1.00  0.00    -0.200 F 
ENDBRANCH  63  86
ENDBRANCH  37  38
ENDBRANCH  29  32
ENDBRANCH  27  28
ENDBRANCH  26  27
ENDBRANCH   1  26
TORSDOF 13
ENDMDL
