MODEL 1
REMARK VINA RESULT:     -11.6      0.000      0.000
REMARK SMILES CC[C@H](O)C[C@]1(C(=O)NCCCCNC(=O)c2ccc(-c3c4nc(c(-c5c(F)c(F)c(F)c(F)c5F)c5ccc([nH]5)c(-c5c(F)c(F)c(F)c(F)c5F)c5nc(c(-c6c(F)c(F)c(F)c(F)c6F)c6ccc3[nH]6)C=C5)C=C4)cc2)CC[C@H](CC)CC1
REMARK SMILES IDX 11 1 10 2 9 3 7 4 8 5 6 7 82 8 85 9 81 10 86 11 80 12 83 13
REMARK SMILES IDX 84 14 5 15 3 16 4 17 2 19 1 20 12 21 13 22 14 23 15 24 16 26
REMARK SMILES IDX 17 27 18 28 79 29 19 30 78 31 20 32 21 33 22 34 72 35 23 36
REMARK SMILES IDX 77 37 71 38 73 39 24 40 76 41 70 42 69 43 25 45 57 46 37 47
REMARK SMILES IDX 56 48 38 49 41 50 55 51 74 52 39 53 40 54 54 56 75 57 42 58
REMARK SMILES IDX 26 59 27 60 35 61 28 62 29 63 33 64 36 65 30 66 31 67 34 68
REMARK SMILES IDX 32 69 58 70 59 71 67 72 60 73 61 74 65 75 68 76 62 77 63 78
REMARK SMILES IDX 66 79 64 80 43 81 44 82 52 83 45 84 46 85 50 86 53 87 47 88
REMARK SMILES IDX 48 89 51 90 49 91
REMARK H PARENT 9 6 4 18 14 25 73 44 41 55
REMARK Flexibility Score: inf
ROOT
ATOM      1  C   UNL A   1      32.806  29.955  26.544  1.00  0.00     0.023 C 
ENDROOT
BRANCH   1   2
ATOM      2  C   UNL A   1      32.231  29.751  25.152  1.00  0.00     0.116 C 
BRANCH   2   3
ATOM      3  N   UNL A   1      33.238  29.486  24.143  1.00  0.00    -0.356 N 
ATOM      4  C   UNL A   1      33.594  28.351  23.483  1.00  0.00     0.226 C 
ATOM      5  O   UNL A   1      34.257  28.528  22.454  1.00  0.00    -0.274 OA
ATOM      6  H   UNL A   1      33.764  30.278  23.887  1.00  0.00     0.163 HD
BRANCH   4   7
ATOM      7  C   UNL A   1      33.183  26.919  23.922  1.00  0.00     0.052 C 
ATOM      8  C   UNL A   1      31.933  25.194  26.121  1.00  0.00    -0.011 C 
ATOM      9  C   UNL A   1      33.453  25.349  25.990  1.00  0.00     0.005 C 
ATOM     10  C   UNL A   1      31.211  25.506  24.810  1.00  0.00     0.005 C 
ATOM     11  C   UNL A   1      33.846  26.677  25.331  1.00  0.00     0.017 C 
ATOM     12  C   UNL A   1      31.660  26.820  24.184  1.00  0.00     0.017 C 
BRANCH   8  13
ATOM     13  C   UNL A   1      31.519  23.819  26.679  1.00  0.00    -0.000 C 
ATOM     14  C   UNL A   1      31.169  22.759  25.639  1.00  0.00     0.004 C 
ENDBRANCH   8  13
BRANCH   7  15
ATOM     15  C   UNL A   1      33.784  25.823  22.977  1.00  0.00     0.048 C 
BRANCH  15  16
ATOM     16  C   UNL A   1      32.890  25.125  21.948  1.00  0.00     0.115 C 
BRANCH  16  17
ATOM     17  O   UNL A   1      33.185  25.576  20.627  1.00  0.00    -0.393 OA
ATOM     18  H   UNL A   1      33.966  26.150  20.648  1.00  0.00     0.210 HD
ENDBRANCH  16  17
BRANCH  16  19
ATOM     19  C   UNL A   1      33.057  23.598  21.934  1.00  0.00     0.028 C 
ATOM     20  C   UNL A   1      33.889  23.070  23.094  1.00  0.00     0.006 C 
ENDBRANCH  16  19
ENDBRANCH  15  16
ENDBRANCH   7  15
ENDBRANCH   4   7
ENDBRANCH   2   3
ENDBRANCH   1   2
BRANCH   1  21
ATOM     21  C   UNL A   1      32.297  31.208  27.252  1.00  0.00     0.023 C 
BRANCH  21  22
ATOM     22  C   UNL A   1      33.334  32.309  27.464  1.00  0.00     0.116 C 
BRANCH  22  23
ATOM     23  N   UNL A   1      32.757  33.637  27.644  1.00  0.00    -0.352 N 
ATOM     24  C   UNL A   1      33.139  34.638  28.508  1.00  0.00     0.251 C 
ATOM     25  H   UNL A   1      31.987  33.846  27.067  1.00  0.00     0.163 HD
ATOM     26  O   UNL A   1      32.504  35.679  28.597  1.00  0.00    -0.269 OA
BRANCH  24  27
ATOM     27  C   UNL A   1      34.310  34.404  29.370  1.00  0.00     0.039 A 
ATOM     28  C   UNL A   1      34.112  33.849  30.636  1.00  0.00     0.014 A 
ATOM     29  C   UNL A   1      35.596  34.612  28.870  1.00  0.00     0.014 A 
ATOM     30  C   UNL A   1      35.212  33.388  31.357  1.00  0.00     0.010 A 
ATOM     31  C   UNL A   1      36.683  34.086  29.555  1.00  0.00     0.010 A 
ATOM     32  C   UNL A   1      36.496  33.445  30.791  1.00  0.00    -0.014 A 
BRANCH  32  33
ATOM     33  C   UNL A   1      37.656  32.788  31.440  1.00  0.00     0.031 A 
ATOM     34  C   UNL A   1      38.315  31.613  30.783  1.00  0.00     0.074 A 
ATOM     35  C   UNL A   1      38.041  33.186  32.668  1.00  0.00     0.049 A 
ATOM     36  N   UNL A   1      39.251  30.825  31.245  1.00  0.00    -0.248 NA
ATOM     37  C   UNL A   1      37.836  31.260  29.439  1.00  0.00     0.031 C 
ATOM     38  C   UNL A   1      37.447  34.288  33.428  1.00  0.00     0.029 A 
ATOM     39  N   UNL A   1      39.016  32.697  33.502  1.00  0.00    -0.354 N 
ATOM     40  C   UNL A   1      39.461  29.874  30.258  1.00  0.00     0.074 A 
ATOM     41  C   UNL A   1      38.522  30.154  29.192  1.00  0.00     0.031 C 
ATOM     42  C   UNL A   1      38.084  34.405  34.604  1.00  0.00     0.029 A 
ATOM     43  C   UNL A   1      39.098  33.361  34.701  1.00  0.00     0.049 A 
ATOM     44  H   UNL A   1      39.600  31.941  33.262  1.00  0.00     0.167 HD
ATOM     45  C   UNL A   1      40.370  28.873  30.234  1.00  0.00     0.037 A 
ATOM     46  C   UNL A   1      39.892  33.141  35.766  1.00  0.00     0.037 A 
ATOM     47  C   UNL A   1      41.319  28.615  31.284  1.00  0.00     0.049 A 
ATOM     48  C   UNL A   1      40.868  31.998  35.729  1.00  0.00     0.074 A 
ATOM     49  C   UNL A   1      42.336  27.679  31.317  1.00  0.00     0.029 A 
ATOM     50  N   UNL A   1      41.362  29.300  32.490  1.00  0.00    -0.354 N 
ATOM     51  N   UNL A   1      41.103  31.144  34.764  1.00  0.00    -0.248 NA
ATOM     52  C   UNL A   1      41.680  31.783  36.935  1.00  0.00     0.031 C 
ATOM     53  C   UNL A   1      42.971  27.769  32.562  1.00  0.00     0.029 A 
ATOM     54  C   UNL A   1      42.369  28.784  33.290  1.00  0.00     0.049 A 
ATOM     55  H   UNL A   1      40.765  30.040  32.742  1.00  0.00     0.167 HD
ATOM     56  C   UNL A   1      42.098  30.299  35.237  1.00  0.00     0.074 A 
ATOM     57  C   UNL A   1      42.432  30.751  36.572  1.00  0.00     0.031 C 
ATOM     58  C   UNL A   1      42.681  29.243  34.619  1.00  0.00     0.037 A 
BRANCH  45  59
ATOM     59  C   UNL A   1      40.379  27.984  29.027  1.00  0.00     0.064 A 
ATOM     60  C   UNL A   1      41.137  28.301  27.890  1.00  0.00     0.173 A 
ATOM     61  C   UNL A   1      39.630  26.799  29.009  1.00  0.00     0.173 A 
ATOM     62  F   UNL A   1      41.858  29.432  27.853  1.00  0.00    -0.203 F 
ATOM     63  C   UNL A   1      41.119  27.482  26.765  1.00  0.00     0.198 A 
ATOM     64  C   UNL A   1      39.636  25.967  27.892  1.00  0.00     0.198 A 
ATOM     65  F   UNL A   1      38.891  26.448  30.072  1.00  0.00    -0.203 F 
ATOM     66  F   UNL A   1      41.809  27.832  25.671  1.00  0.00    -0.200 F 
ATOM     67  C   UNL A   1      40.373  26.313  26.769  1.00  0.00     0.200 A 
ATOM     68  F   UNL A   1      38.921  24.833  27.900  1.00  0.00    -0.200 F 
ATOM     69  F   UNL A   1      40.356  25.524  25.686  1.00  0.00    -0.200 F 
ENDBRANCH  45  59
BRANCH  46  70
ATOM     70  C   UNL A   1      39.806  34.032  36.949  1.00  0.00     0.064 A 
ATOM     71  C   UNL A   1      40.557  35.214  37.006  1.00  0.00     0.173 A 
ATOM     72  C   UNL A   1      38.972  33.734  38.036  1.00  0.00     0.173 A 
ATOM     73  F   UNL A   1      41.386  35.529  36.000  1.00  0.00    -0.203 F 
ATOM     74  C   UNL A   1      40.481  36.062  38.109  1.00  0.00     0.198 A 
ATOM     75  C   UNL A   1      38.880  34.593  39.128  1.00  0.00     0.198 A 
ATOM     76  F   UNL A   1      38.233  32.614  38.027  1.00  0.00    -0.203 F 
ATOM     77  F   UNL A   1      41.231  37.171  38.151  1.00  0.00    -0.200 F 
ATOM     78  C   UNL A   1      39.638  35.753  39.166  1.00  0.00     0.200 A 
ATOM     79  F   UNL A   1      38.057  34.298  40.143  1.00  0.00    -0.200 F 
ATOM     80  F   UNL A   1      39.560  36.573  40.223  1.00  0.00    -0.200 F 
ENDBRANCH  46  70
BRANCH  58  81
ATOM     81  C   UNL A   1      43.743  28.508  35.377  1.00  0.00     0.064 A 
ATOM     82  C   UNL A   1      43.422  27.460  36.250  1.00  0.00     0.173 A 
ATOM     83  C   UNL A   1      45.098  28.822  35.191  1.00  0.00     0.173 A 
ATOM     84  F   UNL A   1      42.139  27.137  36.474  1.00  0.00    -0.203 F 
ATOM     85  C   UNL A   1      44.420  26.757  36.919  1.00  0.00     0.198 A 
ATOM     86  C   UNL A   1      46.094  28.101  35.844  1.00  0.00     0.198 A 
ATOM     87  F   UNL A   1      45.454  29.815  34.364  1.00  0.00    -0.203 F 
ATOM     88  F   UNL A   1      44.090  25.778  37.774  1.00  0.00    -0.200 F 
ATOM     89  C   UNL A   1      45.754  27.072  36.709  1.00  0.00     0.200 A 
ATOM     90  F   UNL A   1      47.383  28.401  35.634  1.00  0.00    -0.200 F 
ATOM     91  F   UNL A   1      46.714  26.388  37.347  1.00  0.00    -0.200 F 
ENDBRANCH  58  81
ENDBRANCH  32  33
ENDBRANCH  24  27
ENDBRANCH  22  23
ENDBRANCH  21  22
ENDBRANCH   1  21
TORSDOF 16
ENDMDL
MODEL 2
REMARK VINA RESULT:     -11.5      0.506      7.536
REMARK SMILES CC[C@H](O)C[C@]1(C(=O)NCCCCNC(=O)c2ccc(-c3c4nc(c(-c5c(F)c(F)c(F)c(F)c5F)c5ccc([nH]5)c(-c5c(F)c(F)c(F)c(F)c5F)c5nc(c(-c6c(F)c(F)c(F)c(F)c6F)c6ccc3[nH]6)C=C5)C=C4)cc2)CC[C@H](CC)CC1
REMARK SMILES IDX 11 1 10 2 9 3 7 4 8 5 6 7 82 8 85 9 81 10 86 11 80 12 83 13
REMARK SMILES IDX 84 14 5 15 3 16 4 17 2 19 1 20 12 21 13 22 14 23 15 24 16 26
REMARK SMILES IDX 17 27 18 28 79 29 19 30 78 31 20 32 21 33 22 34 72 35 23 36
REMARK SMILES IDX 77 37 71 38 73 39 24 40 76 41 70 42 69 43 25 45 57 46 37 47
REMARK SMILES IDX 56 48 38 49 41 50 55 51 74 52 39 53 40 54 54 56 75 57 42 58
REMARK SMILES IDX 26 59 27 60 35 61 28 62 29 63 33 64 36 65 30 66 31 67 34 68
REMARK SMILES IDX 32 69 58 70 59 71 67 72 60 73 61 74 65 75 68 76 62 77 63 78
REMARK SMILES IDX 66 79 64 80 43 81 44 82 52 83 45 84 46 85 50 86 53 87 47 88
REMARK SMILES IDX 48 89 51 90 49 91
REMARK H PARENT 9 6 4 18 14 25 73 44 41 55
REMARK Flexibility Score: inf
ROOT
ATOM      1  C   UNL A   1      32.159  30.465  26.706  1.00  0.00     0.023 C 
ENDROOT
BRANCH   1   2
ATOM      2  C   UNL A   1      31.674  29.846  25.405  1.00  0.00     0.116 C 
BRANCH   2   3
ATOM      3  N   UNL A   1      32.717  29.705  24.407  1.00  0.00    -0.356 N 
ATOM      4  C   UNL A   1      33.176  28.630  23.712  1.00  0.00     0.226 C 
ATOM      5  O   UNL A   1      33.840  28.901  22.704  1.00  0.00    -0.274 OA
ATOM      6  H   UNL A   1      33.179  30.547  24.192  1.00  0.00     0.163 HD
BRANCH   4   7
ATOM      7  C   UNL A   1      32.878  27.152  24.088  1.00  0.00     0.052 C 
ATOM      8  C   UNL A   1      31.668  25.251  26.159  1.00  0.00    -0.011 C 
ATOM      9  C   UNL A   1      33.171  25.551  26.128  1.00  0.00     0.005 C 
ATOM     10  C   UNL A   1      31.000  25.534  24.814  1.00  0.00     0.005 C 
ATOM     11  C   UNL A   1      33.475  26.930  25.529  1.00  0.00     0.017 C 
ATOM     12  C   UNL A   1      31.359  26.904  24.250  1.00  0.00     0.017 C 
BRANCH   8  13
ATOM     13  C   UNL A   1      31.354  23.826  26.655  1.00  0.00    -0.000 C 
ATOM     14  C   UNL A   1      32.561  22.918  26.869  1.00  0.00     0.004 C 
ENDBRANCH   8  13
BRANCH   7  15
ATOM     15  C   UNL A   1      33.637  26.148  23.155  1.00  0.00     0.048 C 
BRANCH  15  16
ATOM     16  C   UNL A   1      32.903  25.484  21.986  1.00  0.00     0.115 C 
BRANCH  16  17
ATOM     17  O   UNL A   1      33.277  26.080  20.745  1.00  0.00    -0.393 OA
ATOM     18  H   UNL A   1      34.146  25.745  20.474  1.00  0.00     0.210 HD
ENDBRANCH  16  17
BRANCH  16  19
ATOM     19  C   UNL A   1      33.200  23.983  21.856  1.00  0.00     0.028 C 
ATOM     20  C   UNL A   1      33.575  23.324  23.175  1.00  0.00     0.006 C 
ENDBRANCH  16  19
ENDBRANCH  15  16
ENDBRANCH   7  15
ENDBRANCH   4   7
ENDBRANCH   2   3
ENDBRANCH   1   2
BRANCH   1  21
ATOM     21  C   UNL A   1      31.818  31.944  26.859  1.00  0.00     0.023 C 
BRANCH  21  22
ATOM     22  C   UNL A   1      32.912  32.808  27.484  1.00  0.00     0.116 C 
BRANCH  22  23
ATOM     23  N   UNL A   1      32.507  34.190  27.724  1.00  0.00    -0.352 N 
ATOM     24  C   UNL A   1      33.029  35.104  28.611  1.00  0.00     0.251 C 
ATOM     25  H   UNL A   1      31.757  34.513  27.175  1.00  0.00     0.163 HD
ATOM     26  O   UNL A   1      32.530  36.211  28.752  1.00  0.00    -0.269 OA
BRANCH  24  27
ATOM     27  C   UNL A   1      34.180  34.696  29.435  1.00  0.00     0.039 A 
ATOM     28  C   UNL A   1      33.947  34.230  30.731  1.00  0.00     0.014 A 
ATOM     29  C   UNL A   1      35.457  34.654  28.874  1.00  0.00     0.014 A 
ATOM     30  C   UNL A   1      34.982  33.606  31.425  1.00  0.00     0.010 A 
ATOM     31  C   UNL A   1      36.466  33.967  29.537  1.00  0.00     0.010 A 
ATOM     32  C   UNL A   1      36.228  33.414  30.806  1.00  0.00    -0.014 A 
BRANCH  32  33
ATOM     33  C   UNL A   1      37.283  32.585  31.435  1.00  0.00     0.031 A 
ATOM     34  C   UNL A   1      37.793  32.932  32.801  1.00  0.00     0.074 A 
ATOM     35  C   UNL A   1      37.852  31.589  30.729  1.00  0.00     0.049 A 
ATOM     36  N   UNL A   1      38.794  32.416  33.466  1.00  0.00    -0.248 NA
ATOM     37  C   UNL A   1      37.103  34.026  33.500  1.00  0.00     0.031 C 
ATOM     38  C   UNL A   1      37.472  31.185  29.373  1.00  0.00     0.029 A 
ATOM     39  N   UNL A   1      38.885  30.742  31.049  1.00  0.00    -0.354 N 
ATOM     40  C   UNL A   1      38.865  33.132  34.651  1.00  0.00     0.074 A 
ATOM     41  C   UNL A   1      37.838  34.149  34.595  1.00  0.00     0.031 C 
ATOM     42  C   UNL A   1      38.245  30.157  28.987  1.00  0.00     0.029 A 
ATOM     43  C   UNL A   1      39.202  29.858  30.047  1.00  0.00     0.049 A 
ATOM     44  H   UNL A   1      39.353  30.768  31.914  1.00  0.00     0.167 HD
ATOM     45  C   UNL A   1      39.697  32.942  35.701  1.00  0.00     0.037 A 
ATOM     46  C   UNL A   1      40.168  28.922  29.985  1.00  0.00     0.037 A 
ATOM     47  C   UNL A   1      40.700  31.911  35.763  1.00  0.00     0.049 A 
ATOM     48  C   UNL A   1      41.104  28.756  31.149  1.00  0.00     0.074 A 
ATOM     49  C   UNL A   1      41.535  31.582  36.815  1.00  0.00     0.029 A 
ATOM     50  N   UNL A   1      41.002  31.044  34.723  1.00  0.00    -0.354 N 
ATOM     51  N   UNL A   1      41.121  29.396  32.293  1.00  0.00    -0.248 NA
ATOM     52  C   UNL A   1      42.162  27.746  31.008  1.00  0.00     0.031 C 
ATOM     53  C   UNL A   1      42.373  30.541  36.397  1.00  0.00     0.029 A 
ATOM     54  C   UNL A   1      42.035  30.200  35.097  1.00  0.00     0.049 A 
ATOM     55  H   UNL A   1      40.551  31.031  33.849  1.00  0.00     0.167 HD
ATOM     56  C   UNL A   1      42.179  28.858  33.014  1.00  0.00     0.074 A 
ATOM     57  C   UNL A   1      42.772  27.830  32.184  1.00  0.00     0.031 C 
ATOM     58  C   UNL A   1      42.617  29.188  34.253  1.00  0.00     0.037 A 
BRANCH  45  59
ATOM     59  C   UNL A   1      39.552  33.870  36.868  1.00  0.00     0.064 A 
ATOM     60  C   UNL A   1      38.771  33.529  37.982  1.00  0.00     0.173 A 
ATOM     61  C   UNL A   1      40.207  35.110  36.878  1.00  0.00     0.173 A 
ATOM     62  F   UNL A   1      38.113  32.360  38.013  1.00  0.00    -0.203 F 
ATOM     63  C   UNL A   1      38.623  34.409  39.051  1.00  0.00     0.198 A 
ATOM     64  C   UNL A   1      40.079  35.977  37.961  1.00  0.00     0.198 A 
ATOM     65  F   UNL A   1      40.968  35.483  35.839  1.00  0.00    -0.203 F 
ATOM     66  F   UNL A   1      37.829  34.083  40.080  1.00  0.00    -0.200 F 
ATOM     67  C   UNL A   1      39.280  35.630  39.041  1.00  0.00     0.200 A 
ATOM     68  F   UNL A   1      40.721  37.154  37.955  1.00  0.00    -0.200 F 
ATOM     69  F   UNL A   1      39.137  36.477  40.069  1.00  0.00    -0.200 F 
ENDBRANCH  45  59
BRANCH  46  70
ATOM     70  C   UNL A   1      40.287  28.061  28.783  1.00  0.00     0.064 A 
ATOM     71  C   UNL A   1      41.039  28.481  27.678  1.00  0.00     0.173 A 
ATOM     72  C   UNL A   1      39.669  26.804  28.715  1.00  0.00     0.173 A 
ATOM     73  F   UNL A   1      41.629  29.685  27.688  1.00  0.00    -0.203 F 
ATOM     74  C   UNL A   1      41.163  27.678  26.545  1.00  0.00     0.198 A 
ATOM     75  C   UNL A   1      39.812  25.993  27.591  1.00  0.00     0.198 A 
ATOM     76  F   UNL A   1      38.940  26.357  29.748  1.00  0.00    -0.203 F 
ATOM     77  F   UNL A   1      41.863  28.116  25.490  1.00  0.00    -0.200 F 
ATOM     78  C   UNL A   1      40.554  26.433  26.506  1.00  0.00     0.200 A 
ATOM     79  F   UNL A   1      39.231  24.786  27.560  1.00  0.00    -0.200 F 
ATOM     80  F   UNL A   1      40.680  25.659  25.419  1.00  0.00    -0.200 F 
ENDBRANCH  46  70
BRANCH  58  81
ATOM     81  C   UNL A   1      43.791  28.427  34.788  1.00  0.00     0.064 A 
ATOM     82  C   UNL A   1      45.098  28.915  34.651  1.00  0.00     0.173 A 
ATOM     83  C   UNL A   1      43.603  27.226  35.488  1.00  0.00     0.173 A 
ATOM     84  F   UNL A   1      45.328  30.049  33.973  1.00  0.00    -0.203 F 
ATOM     85  C   UNL A   1      46.178  28.220  35.187  1.00  0.00     0.198 A 
ATOM     86  C   UNL A   1      44.684  26.547  36.043  1.00  0.00     0.198 A 
ATOM     87  F   UNL A   1      42.371  26.723  35.647  1.00  0.00    -0.203 F 
ATOM     88  F   UNL A   1      47.424  28.686  35.018  1.00  0.00    -0.200 F 
ATOM     89  C   UNL A   1      45.970  27.042  35.890  1.00  0.00     0.200 A 
ATOM     90  F   UNL A   1      44.480  25.413  36.729  1.00  0.00    -0.200 F 
ATOM     91  F   UNL A   1      47.011  26.379  36.414  1.00  0.00    -0.200 F 
ENDBRANCH  58  81
ENDBRANCH  32  33
ENDBRANCH  24  27
ENDBRANCH  22  23
ENDBRANCH  21  22
ENDBRANCH   1  21
TORSDOF 16
ENDMDL
MODEL 3
REMARK VINA RESULT:     -11.5      0.586      7.540
REMARK SMILES CC[C@H](O)C[C@]1(C(=O)NCCCCNC(=O)c2ccc(-c3c4nc(c(-c5c(F)c(F)c(F)c(F)c5F)c5ccc([nH]5)c(-c5c(F)c(F)c(F)c(F)c5F)c5nc(c(-c6c(F)c(F)c(F)c(F)c6F)c6ccc3[nH]6)C=C5)C=C4)cc2)CC[C@H](CC)CC1
REMARK SMILES IDX 11 1 10 2 9 3 7 4 8 5 6 7 82 8 85 9 81 10 86 11 80 12 83 13
REMARK SMILES IDX 84 14 5 15 3 16 4 17 2 19 1 20 12 21 13 22 14 23 15 24 16 26
REMARK SMILES IDX 17 27 18 28 79 29 19 30 78 31 20 32 21 33 22 34 72 35 23 36
REMARK SMILES IDX 77 37 71 38 73 39 24 40 76 41 70 42 69 43 25 45 57 46 37 47
REMARK SMILES IDX 56 48 38 49 41 50 55 51 74 52 39 53 40 54 54 56 75 57 42 58
REMARK SMILES IDX 26 59 27 60 35 61 28 62 29 63 33 64 36 65 30 66 31 67 34 68
REMARK SMILES IDX 32 69 58 70 59 71 67 72 60 73 61 74 65 75 68 76 62 77 63 78
REMARK SMILES IDX 66 79 64 80 43 81 44 82 52 83 45 84 46 85 50 86 53 87 47 88
REMARK SMILES IDX 48 89 51 90 49 91
REMARK H PARENT 9 6 4 18 14 25 73 44 41 55
REMARK Flexibility Score: inf
ROOT
ATOM      1  C   UNL A   1      32.028  30.177  26.887  1.00  0.00     0.023 C 
ENDROOT
BRANCH   1   2
ATOM      2  C   UNL A   1      33.399  29.678  26.460  1.00  0.00     0.116 C 
BRANCH   2   3
ATOM      3  N   UNL A   1      33.600  29.697  25.024  1.00  0.00    -0.356 N 
ATOM      4  C   UNL A   1      33.341  28.781  24.053  1.00  0.00     0.226 C 
ATOM      5  O   UNL A   1      33.319  29.229  22.900  1.00  0.00    -0.274 OA
ATOM      6  H   UNL A   1      33.999  30.532  24.689  1.00  0.00     0.163 HD
BRANCH   4   7
ATOM      7  C   UNL A   1      33.042  27.281  24.323  1.00  0.00     0.052 C 
ATOM      8  C   UNL A   1      31.974  25.221  26.321  1.00  0.00    -0.011 C 
ATOM      9  C   UNL A   1      33.475  25.499  26.181  1.00  0.00     0.005 C 
ATOM     10  C   UNL A   1      31.196  25.635  25.071  1.00  0.00     0.005 C 
ATOM     11  C   UNL A   1      33.758  26.921  25.680  1.00  0.00     0.017 C 
ATOM     12  C   UNL A   1      31.537  27.043  24.600  1.00  0.00     0.017 C 
BRANCH   8  13
ATOM     13  C   UNL A   1      31.671  23.763  26.717  1.00  0.00    -0.000 C 
ATOM     14  C   UNL A   1      30.846  22.962  25.714  1.00  0.00     0.004 C 
ENDBRANCH   8  13
BRANCH   7  15
ATOM     15  C   UNL A   1      33.691  26.351  23.242  1.00  0.00     0.048 C 
BRANCH  15  16
ATOM     16  C   UNL A   1      32.845  25.820  22.081  1.00  0.00     0.115 C 
BRANCH  16  17
ATOM     17  O   UNL A   1      33.295  26.352  20.836  1.00  0.00    -0.393 OA
ATOM     18  H   UNL A   1      33.252  27.320  20.864  1.00  0.00     0.210 HD
ENDBRANCH  16  17
BRANCH  16  19
ATOM     19  C   UNL A   1      32.893  24.291  21.944  1.00  0.00     0.028 C 
ATOM     20  C   UNL A   1      33.659  23.607  23.066  1.00  0.00     0.006 C 
ENDBRANCH  16  19
ENDBRANCH  15  16
ENDBRANCH   7  15
ENDBRANCH   4   7
ENDBRANCH   2   3
ENDBRANCH   1   2
BRANCH   1  21
ATOM     21  C   UNL A   1      31.842  31.686  26.751  1.00  0.00     0.023 C 
BRANCH  21  22
ATOM     22  C   UNL A   1      32.884  32.543  27.468  1.00  0.00     0.116 C 
BRANCH  22  23
ATOM     23  N   UNL A   1      32.471  33.927  27.670  1.00  0.00    -0.352 N 
ATOM     24  C   UNL A   1      32.984  34.867  28.535  1.00  0.00     0.251 C 
ATOM     25  H   UNL A   1      31.721  34.232  27.109  1.00  0.00     0.163 HD
ATOM     26  O   UNL A   1      32.478  35.975  28.644  1.00  0.00    -0.269 OA
BRANCH  24  27
ATOM     27  C   UNL A   1      34.133  34.487  29.374  1.00  0.00     0.039 A 
ATOM     28  C   UNL A   1      33.892  33.949  30.640  1.00  0.00     0.014 A 
ATOM     29  C   UNL A   1      35.426  34.544  28.851  1.00  0.00     0.014 A 
ATOM     30  C   UNL A   1      34.941  33.353  31.337  1.00  0.00     0.010 A 
ATOM     31  C   UNL A   1      36.454  33.886  29.513  1.00  0.00     0.010 A 
ATOM     32  C   UNL A   1      36.213  33.261  30.748  1.00  0.00    -0.014 A 
BRANCH  32  33
ATOM     33  C   UNL A   1      37.297  32.465  31.371  1.00  0.00     0.031 A 
ATOM     34  C   UNL A   1      37.811  32.833  32.730  1.00  0.00     0.074 A 
ATOM     35  C   UNL A   1      37.885  31.480  30.665  1.00  0.00     0.049 A 
ATOM     36  N   UNL A   1      38.833  32.349  33.387  1.00  0.00    -0.248 NA
ATOM     37  C   UNL A   1      37.098  33.913  33.430  1.00  0.00     0.031 C 
ATOM     38  C   UNL A   1      37.503  31.058  29.315  1.00  0.00     0.029 A 
ATOM     39  N   UNL A   1      38.944  30.664  30.979  1.00  0.00    -0.354 N 
ATOM     40  C   UNL A   1      38.896  33.074  34.568  1.00  0.00     0.074 A 
ATOM     41  C   UNL A   1      37.840  34.063  34.516  1.00  0.00     0.031 C 
ATOM     42  C   UNL A   1      38.299  30.049  28.928  1.00  0.00     0.029 A 
ATOM     43  C   UNL A   1      39.275  29.782  29.979  1.00  0.00     0.049 A 
ATOM     44  H   UNL A   1      39.420  30.707  31.840  1.00  0.00     0.167 HD
ATOM     45  C   UNL A   1      39.744  32.913  35.609  1.00  0.00     0.037 A 
ATOM     46  C   UNL A   1      40.265  28.872  29.913  1.00  0.00     0.037 A 
ATOM     47  C   UNL A   1      40.774  31.910  35.667  1.00  0.00     0.049 A 
ATOM     48  C   UNL A   1      41.217  28.739  31.068  1.00  0.00     0.074 A 
ATOM     49  C   UNL A   1      41.629  31.610  36.712  1.00  0.00     0.029 A 
ATOM     50  N   UNL A   1      41.089  31.045  34.629  1.00  0.00    -0.354 N 
ATOM     51  N   UNL A   1      41.228  29.386  32.208  1.00  0.00    -0.248 NA
ATOM     52  C   UNL A   1      42.301  27.757  30.922  1.00  0.00     0.031 C 
ATOM     53  C   UNL A   1      42.490  30.589  36.292  1.00  0.00     0.029 A 
ATOM     54  C   UNL A   1      42.148  30.231  34.997  1.00  0.00     0.049 A 
ATOM     55  H   UNL A   1      40.630  31.015  33.760  1.00  0.00     0.167 HD
ATOM     56  C   UNL A   1      42.307  28.882  32.921  1.00  0.00     0.074 A 
ATOM     57  C   UNL A   1      42.920  27.865  32.091  1.00  0.00     0.031 C 
ATOM     58  C   UNL A   1      42.749  29.231  34.153  1.00  0.00     0.037 A 
BRANCH  45  59
ATOM     59  C   UNL A   1      39.585  33.844  36.773  1.00  0.00     0.064 A 
ATOM     60  C   UNL A   1      40.197  35.106  36.789  1.00  0.00     0.173 A 
ATOM     61  C   UNL A   1      38.808  33.475  37.881  1.00  0.00     0.173 A 
ATOM     62  F   UNL A   1      40.962  35.499  35.759  1.00  0.00    -0.203 F 
ATOM     63  C   UNL A   1      40.064  35.954  37.885  1.00  0.00     0.198 A 
ATOM     64  C   UNL A   1      38.655  34.336  38.964  1.00  0.00     0.198 A 
ATOM     65  F   UNL A   1      38.201  32.280  37.914  1.00  0.00    -0.203 F 
ATOM     66  F   UNL A   1      40.700  37.133  37.900  1.00  0.00    -0.200 F 
ATOM     67  C   UNL A   1      39.289  35.570  38.969  1.00  0.00     0.200 A 
ATOM     68  F   UNL A   1      37.900  33.968  40.009  1.00  0.00    -0.200 F 
ATOM     69  F   UNL A   1      39.161  36.386  40.025  1.00  0.00    -0.200 F 
ENDBRANCH  45  59
BRANCH  46  70
ATOM     70  C   UNL A   1      40.395  28.007  28.715  1.00  0.00     0.064 A 
ATOM     71  C   UNL A   1      39.753  26.762  28.663  1.00  0.00     0.173 A 
ATOM     72  C   UNL A   1      41.145  28.404  27.598  1.00  0.00     0.173 A 
ATOM     73  F   UNL A   1      39.043  26.331  29.715  1.00  0.00    -0.203 F 
ATOM     74  C   UNL A   1      39.863  25.943  27.541  1.00  0.00     0.198 A 
ATOM     75  C   UNL A   1      41.236  27.594  26.469  1.00  0.00     0.198 A 
ATOM     76  F   UNL A   1      41.776  29.587  27.600  1.00  0.00    -0.203 F 
ATOM     77  F   UNL A   1      39.264  24.744  27.528  1.00  0.00    -0.200 F 
ATOM     78  C   UNL A   1      40.599  26.362  26.443  1.00  0.00     0.200 A 
ATOM     79  F   UNL A   1      41.939  28.006  25.405  1.00  0.00    -0.200 F 
ATOM     80  F   UNL A   1      40.698  25.577  25.361  1.00  0.00    -0.200 F 
ENDBRANCH  46  70
BRANCH  58  81
ATOM     81  C   UNL A   1      43.949  28.505  34.681  1.00  0.00     0.064 A 
ATOM     82  C   UNL A   1      45.241  29.026  34.525  1.00  0.00     0.173 A 
ATOM     83  C   UNL A   1      43.800  27.305  35.393  1.00  0.00     0.173 A 
ATOM     84  F   UNL A   1      45.434  30.160  33.836  1.00  0.00    -0.203 F 
ATOM     85  C   UNL A   1      46.345  28.364  35.054  1.00  0.00     0.198 A 
ATOM     86  C   UNL A   1      44.905  26.659  35.940  1.00  0.00     0.198 A 
ATOM     87  F   UNL A   1      42.584  26.771  35.569  1.00  0.00    -0.203 F 
ATOM     88  F   UNL A   1      47.576  28.861  34.867  1.00  0.00    -0.200 F 
ATOM     89  C   UNL A   1      46.175  27.186  35.768  1.00  0.00     0.200 A 
ATOM     90  F   UNL A   1      44.738  25.526  36.637  1.00  0.00    -0.200 F 
ATOM     91  F   UNL A   1      47.239  26.555  36.285  1.00  0.00    -0.200 F 
ENDBRANCH  58  81
ENDBRANCH  32  33
ENDBRANCH  24  27
ENDBRANCH  22  23
ENDBRANCH  21  22
ENDBRANCH   1  21
TORSDOF 16
ENDMDL
