MODEL 1
REMARK VINA RESULT:     -12.5      0.000      0.000
REMARK SMILES CC(=O)N[C@H](CC(=O)NCC(=O)NCCCCNC(=O)c1ccc(-c2c3nc(c(-c4c(F)c(F)c(F)c(F)c4F)c4ccc([nH]4)c(-c4c(F)c(F)c(F)c(F)c4F)c4nc(c(-c5c(F)c(F)c(F)c(F)c5F)c5ccc2[nH]5)C=C4)C=C3)cc1)c1cccs1
REMARK SMILES IDX 14 1 13 2 11 3 12 4 10 6 9 7 7 8 8 9 6 11 5 12 4 13 1 14
REMARK SMILES IDX 2 15 3 16 84 18 85 19 88 20 86 21 87 22 15 23 16 24 17 25
REMARK SMILES IDX 18 26 19 27 20 29 21 30 22 31 83 32 23 33 82 34 24 35 25 36
REMARK SMILES IDX 26 37 76 38 27 39 81 40 75 41 77 42 28 43 80 44 74 45 73 46
REMARK SMILES IDX 29 48 61 49 41 50 60 51 42 52 45 53 59 54 78 55 43 56 44 57
REMARK SMILES IDX 58 59 79 60 46 61 30 62 31 63 39 64 32 65 33 66 37 67 40 68
REMARK SMILES IDX 34 69 35 70 38 71 36 72 62 73 63 74 71 75 64 76 65 77 69 78
REMARK SMILES IDX 72 79 66 80 67 81 70 82 68 83 47 84 48 85 56 86 49 87 50 88
REMARK SMILES IDX 54 89 57 90 51 91 52 92 55 93 53 94
REMARK H PARENT 13 5 9 10 4 17 18 28 77 47 45 58
REMARK Flexibility Score: inf
ROOT
ATOM      1  C   UNL A   1      32.578  29.454  25.503  1.00  0.00     0.116 C 
ENDROOT
BRANCH   1   2
ATOM      2  N   UNL A   1      31.572  28.456  24.656  1.00  0.00    -0.355 N 
ATOM      3  C   UNL A   1      30.565  26.730  24.857  1.00  0.00     0.239 C 
ATOM      4  O   UNL A   1      29.776  26.135  24.042  1.00  0.00    -0.273 OA
ATOM      5  H   UNL A   1      31.414  28.831  23.760  1.00  0.00     0.163 HD
BRANCH   3   6
ATOM      6  C   UNL A   1      30.394  25.739  26.378  1.00  0.00     0.216 C 
BRANCH   6   7
ATOM      7  N   UNL A   1      29.699  24.468  26.648  1.00  0.00    -0.347 N 
ATOM      8  C   UNL A   1      30.249  23.225  26.780  1.00  0.00     0.222 C 
ATOM      9  O   UNL A   1      29.527  22.237  26.646  1.00  0.00    -0.275 OA
ATOM     10  H   UNL A   1      28.721  24.522  26.744  1.00  0.00     0.164 HD
BRANCH   8  11
ATOM     11  C   UNL A   1      31.724  23.086  27.084  1.00  0.00     0.130 C 
BRANCH  11  12
ATOM     12  C   UNL A   1      32.596  22.466  25.996  1.00  0.00     0.131 C 
BRANCH  12  13
ATOM     13  N   UNL A   1      32.129  21.140  25.610  1.00  0.00    -0.348 N 
ATOM     14  C   UNL A   1      34.302  20.175  24.924  1.00  0.00     0.114 C 
ATOM     15  C   UNL A   1      32.801  20.156  24.948  1.00  0.00     0.217 C 
ATOM     16  O   UNL A   1      32.152  19.275  24.384  1.00  0.00    -0.275 OA
ATOM     17  H   UNL A   1      31.202  20.927  25.861  1.00  0.00     0.164 HD
ENDBRANCH  12  13
BRANCH  12  18
ATOM     18  C   UNL A   1      32.684  23.319  24.752  1.00  0.00     0.027 A 
ATOM     19  C   UNL A   1      31.950  23.287  23.062  1.00  0.00     0.017 A 
ATOM     20  S   UNL A   1      34.141  25.137  24.955  1.00  0.00    -0.147 S 
ATOM     21  C   UNL A   1      32.554  24.758  21.958  1.00  0.00     0.012 A 
ATOM     22  C   UNL A   1      33.711  25.809  22.755  1.00  0.00     0.065 A 
ENDBRANCH  12  18
ENDBRANCH  11  12
ENDBRANCH   8  11
ENDBRANCH   6   7
ENDBRANCH   3   6
ENDBRANCH   1   2
BRANCH   1  23
ATOM     23  C   UNL A   1      31.984  30.098  26.741  1.00  0.00     0.023 C 
BRANCH  23  24
ATOM     24  C   UNL A   1      31.813  31.597  26.652  1.00  0.00     0.023 C 
BRANCH  24  25
ATOM     25  C   UNL A   1      32.887  32.401  27.371  1.00  0.00     0.116 C 
BRANCH  25  26
ATOM     26  N   UNL A   1      32.540  33.809  27.586  1.00  0.00    -0.352 N 
ATOM     27  C   UNL A   1      33.050  34.696  28.501  1.00  0.00     0.251 C 
ATOM     28  H   UNL A   1      31.844  34.169  26.990  1.00  0.00     0.163 HD
ATOM     29  O   UNL A   1      32.551  35.800  28.678  1.00  0.00    -0.269 OA
BRANCH  27  30
ATOM     30  C   UNL A   1      34.202  34.265  29.299  1.00  0.00     0.039 A 
ATOM     31  C   UNL A   1      33.984  33.487  30.434  1.00  0.00     0.014 A 
ATOM     32  C   UNL A   1      35.492  34.527  28.833  1.00  0.00     0.014 A 
ATOM     33  C   UNL A   1      35.076  32.890  31.055  1.00  0.00     0.010 A 
ATOM     34  C   UNL A   1      36.553  33.819  29.366  1.00  0.00     0.010 A 
ATOM     35  C   UNL A   1      36.359  33.005  30.491  1.00  0.00    -0.014 A 
BRANCH  35  36
ATOM     36  C   UNL A   1      37.516  32.291  31.074  1.00  0.00     0.031 A 
ATOM     37  C   UNL A   1      38.006  32.669  32.443  1.00  0.00     0.074 A 
ATOM     38  C   UNL A   1      38.146  31.342  30.356  1.00  0.00     0.049 A 
ATOM     39  N   UNL A   1      39.020  32.192  33.116  1.00  0.00    -0.248 NA
ATOM     40  C   UNL A   1      37.281  33.748  33.134  1.00  0.00     0.031 C 
ATOM     41  C   UNL A   1      37.790  30.931  28.996  1.00  0.00     0.029 A 
ATOM     42  N   UNL A   1      39.220  30.550  30.669  1.00  0.00    -0.354 N 
ATOM     43  C   UNL A   1      39.056  32.916  34.300  1.00  0.00     0.074 A 
ATOM     44  C   UNL A   1      38.017  33.916  34.221  1.00  0.00     0.031 C 
ATOM     45  C   UNL A   1      38.599  29.932  28.612  1.00  0.00     0.029 A 
ATOM     46  C   UNL A   1      39.568  29.673  29.672  1.00  0.00     0.049 A 
ATOM     47  H   UNL A   1      39.698  30.604  31.529  1.00  0.00     0.167 HD
ATOM     48  C   UNL A   1      39.861  32.737  35.372  1.00  0.00     0.037 A 
ATOM     49  C   UNL A   1      40.565  28.769  29.617  1.00  0.00     0.037 A 
ATOM     50  C   UNL A   1      40.886  31.732  35.441  1.00  0.00     0.049 A 
ATOM     51  C   UNL A   1      41.475  28.622  30.807  1.00  0.00     0.074 A 
ATOM     52  C   UNL A   1      41.730  31.435  36.497  1.00  0.00     0.029 A 
ATOM     53  N   UNL A   1      41.219  30.869  34.407  1.00  0.00    -0.354 N 
ATOM     54  N   UNL A   1      41.451  29.258  31.954  1.00  0.00    -0.248 NA
ATOM     55  C   UNL A   1      42.548  27.625  30.698  1.00  0.00     0.031 C 
ATOM     56  C   UNL A   1      42.624  30.449  36.074  1.00  0.00     0.029 A 
ATOM     57  C   UNL A   1      42.281  30.066  34.786  1.00  0.00     0.049 A 
ATOM     58  H   UNL A   1      40.766  30.833  33.533  1.00  0.00     0.167 HD
ATOM     59  C   UNL A   1      42.479  28.716  32.714  1.00  0.00     0.074 A 
ATOM     60  C   UNL A   1      43.096  27.685  31.903  1.00  0.00     0.031 C 
ATOM     61  C   UNL A   1      42.878  29.040  33.969  1.00  0.00     0.037 A 
BRANCH  48  62
ATOM     62  C   UNL A   1      39.671  33.657  36.545  1.00  0.00     0.064 A 
ATOM     63  C   UNL A   1      40.296  34.913  36.612  1.00  0.00     0.173 A 
ATOM     64  C   UNL A   1      38.830  33.287  37.604  1.00  0.00     0.173 A 
ATOM     65  F   UNL A   1      41.121  35.312  35.633  1.00  0.00    -0.203 F 
ATOM     66  C   UNL A   1      40.114  35.746  37.713  1.00  0.00     0.198 A 
ATOM     67  C   UNL A   1      38.617  34.140  38.684  1.00  0.00     0.198 A 
ATOM     68  F   UNL A   1      38.205  32.100  37.592  1.00  0.00    -0.203 F 
ATOM     69  F   UNL A   1      40.772  36.911  37.785  1.00  0.00    -0.200 F 
ATOM     70  C   UNL A   1      39.268  35.363  38.743  1.00  0.00     0.200 A 
ATOM     71  F   UNL A   1      37.785  33.777  39.669  1.00  0.00    -0.200 F 
ATOM     72  F   UNL A   1      39.086  36.171  39.797  1.00  0.00    -0.200 F 
ENDBRANCH  48  62
BRANCH  49  73
ATOM     73  C   UNL A   1      40.749  27.931  28.402  1.00  0.00     0.064 A 
ATOM     74  C   UNL A   1      41.524  28.380  27.322  1.00  0.00     0.173 A 
ATOM     75  C   UNL A   1      40.139  26.673  28.283  1.00  0.00     0.173 A 
ATOM     76  F   UNL A   1      42.117  29.583  27.376  1.00  0.00    -0.203 F 
ATOM     77  C   UNL A   1      41.652  27.620  26.161  1.00  0.00     0.198 A 
ATOM     78  C   UNL A   1      40.300  25.898  27.139  1.00  0.00     0.198 A 
ATOM     79  F   UNL A   1      39.392  26.192  29.288  1.00  0.00    -0.203 F 
ATOM     80  F   UNL A   1      42.346  28.102  25.121  1.00  0.00    -0.200 F 
ATOM     81  C   UNL A   1      41.045  26.377  26.072  1.00  0.00     0.200 A 
ATOM     82  F   UNL A   1      39.728  24.688  27.066  1.00  0.00    -0.200 F 
ATOM     83  F   UNL A   1      41.169  25.646  24.956  1.00  0.00    -0.200 F 
ENDBRANCH  49  73
BRANCH  61  84
ATOM     84  C   UNL A   1      44.002  28.240  34.566  1.00  0.00     0.064 A 
ATOM     85  C   UNL A   1      45.338  28.660  34.491  1.00  0.00     0.173 A 
ATOM     86  C   UNL A   1      43.730  27.051  35.262  1.00  0.00     0.173 A 
ATOM     87  F   UNL A   1      45.657  29.784  33.829  1.00  0.00    -0.203 F 
ATOM     88  C   UNL A   1      46.361  27.904  35.056  1.00  0.00     0.198 A 
ATOM     89  C   UNL A   1      44.749  26.320  35.864  1.00  0.00     0.198 A 
ATOM     90  F   UNL A   1      42.468  26.606  35.375  1.00  0.00    -0.203 F 
ATOM     91  F   UNL A   1      47.636  28.293  34.915  1.00  0.00    -0.200 F 
ATOM     92  C   UNL A   1      46.065  26.740  35.750  1.00  0.00     0.200 A 
ATOM     93  F   UNL A   1      44.456  25.210  36.554  1.00  0.00    -0.200 F 
ATOM     94  F   UNL A   1      47.049  26.019  36.303  1.00  0.00    -0.200 F 
ENDBRANCH  61  84
ENDBRANCH  35  36
ENDBRANCH  27  30
ENDBRANCH  25  26
ENDBRANCH  24  25
ENDBRANCH  23  24
ENDBRANCH   1  23
TORSDOF 16
ENDMDL
MODEL 2
REMARK VINA RESULT:     -12.5      1.352      7.710
REMARK SMILES CC(=O)N[C@H](CC(=O)NCC(=O)NCCCCNC(=O)c1ccc(-c2c3nc(c(-c4c(F)c(F)c(F)c(F)c4F)c4ccc([nH]4)c(-c4c(F)c(F)c(F)c(F)c4F)c4nc(c(-c5c(F)c(F)c(F)c(F)c5F)c5ccc2[nH]5)C=C4)C=C3)cc1)c1cccs1
REMARK SMILES IDX 14 1 13 2 11 3 12 4 10 6 9 7 7 8 8 9 6 11 5 12 4 13 1 14
REMARK SMILES IDX 2 15 3 16 84 18 85 19 88 20 86 21 87 22 15 23 16 24 17 25
REMARK SMILES IDX 18 26 19 27 20 29 21 30 22 31 83 32 23 33 82 34 24 35 25 36
REMARK SMILES IDX 26 37 76 38 27 39 81 40 75 41 77 42 28 43 80 44 74 45 73 46
REMARK SMILES IDX 29 48 61 49 41 50 60 51 42 52 45 53 59 54 78 55 43 56 44 57
REMARK SMILES IDX 58 59 79 60 46 61 30 62 31 63 39 64 32 65 33 66 37 67 40 68
REMARK SMILES IDX 34 69 35 70 38 71 36 72 62 73 63 74 71 75 64 76 65 77 69 78
REMARK SMILES IDX 72 79 66 80 67 81 70 82 68 83 47 84 48 85 56 86 49 87 50 88
REMARK SMILES IDX 54 89 57 90 51 91 52 92 55 93 53 94
REMARK H PARENT 13 5 9 10 4 17 18 28 77 47 45 58
REMARK Flexibility Score: inf
ROOT
ATOM      1  C   UNL A   1      32.465  29.706  25.490  1.00  0.00     0.116 C 
ENDROOT
BRANCH   1   2
ATOM      2  N   UNL A   1      31.219  29.903  24.425  1.00  0.00    -0.355 N 
ATOM      3  C   UNL A   1      30.322  28.965  22.893  1.00  0.00     0.239 C 
ATOM      4  O   UNL A   1      29.296  29.303  22.204  1.00  0.00    -0.273 OA
ATOM      5  H   UNL A   1      30.769  30.761  24.599  1.00  0.00     0.163 HD
BRANCH   3   6
ATOM      6  C   UNL A   1      30.670  27.277  22.295  1.00  0.00     0.216 C 
BRANCH   6   7
ATOM      7  N   UNL A   1      31.790  26.725  21.512  1.00  0.00    -0.347 N 
ATOM      8  C   UNL A   1      32.528  25.607  21.779  1.00  0.00     0.222 C 
ATOM      9  O   UNL A   1      33.630  25.481  21.247  1.00  0.00    -0.275 OA
ATOM     10  H   UNL A   1      32.035  27.223  20.698  1.00  0.00     0.164 HD
BRANCH   8  11
ATOM     11  C   UNL A   1      31.982  24.556  22.718  1.00  0.00     0.130 C 
BRANCH  11  12
ATOM     12  C   UNL A   1      32.296  24.728  24.202  1.00  0.00     0.131 C 
BRANCH  12  13
ATOM     13  N   UNL A   1      31.192  24.291  25.049  1.00  0.00    -0.348 N 
ATOM     14  C   UNL A   1      30.664  26.465  26.108  1.00  0.00     0.114 C 
ATOM     15  C   UNL A   1      30.564  24.967  26.052  1.00  0.00     0.217 C 
ATOM     16  O   UNL A   1      29.930  24.326  26.889  1.00  0.00    -0.275 OA
ATOM     17  H   UNL A   1      30.854  23.384  24.872  1.00  0.00     0.164 HD
ENDBRANCH  12  13
BRANCH  12  18
ATOM     18  C   UNL A   1      33.542  23.990  24.631  1.00  0.00     0.027 A 
ATOM     19  C   UNL A   1      35.171  24.443  25.363  1.00  0.00     0.017 A 
ATOM     20  S   UNL A   1      33.452  21.684  24.252  1.00  0.00    -0.147 S 
ATOM     21  C   UNL A   1      36.318  22.907  25.640  1.00  0.00     0.012 A 
ATOM     22  C   UNL A   1      35.612  21.394  25.104  1.00  0.00     0.065 A 
ENDBRANCH  12  18
ENDBRANCH  11  12
ENDBRANCH   8  11
ENDBRANCH   6   7
ENDBRANCH   3   6
ENDBRANCH   1   2
BRANCH   1  23
ATOM     23  C   UNL A   1      32.252  30.288  26.874  1.00  0.00     0.023 C 
BRANCH  23  24
ATOM     24  C   UNL A   1      31.912  31.761  26.894  1.00  0.00     0.023 C 
BRANCH  24  25
ATOM     25  C   UNL A   1      32.977  32.648  27.524  1.00  0.00     0.116 C 
BRANCH  25  26
ATOM     26  N   UNL A   1      32.572  34.046  27.691  1.00  0.00    -0.352 N 
ATOM     27  C   UNL A   1      33.016  34.974  28.599  1.00  0.00     0.251 C 
ATOM     28  H   UNL A   1      31.885  34.365  27.062  1.00  0.00     0.163 HD
ATOM     29  O   UNL A   1      32.471  36.063  28.731  1.00  0.00    -0.269 OA
BRANCH  27  30
ATOM     30  C   UNL A   1      34.154  34.606  29.448  1.00  0.00     0.039 A 
ATOM     31  C   UNL A   1      33.910  34.065  30.708  1.00  0.00     0.014 A 
ATOM     32  C   UNL A   1      35.447  34.679  28.926  1.00  0.00     0.014 A 
ATOM     33  C   UNL A   1      34.971  33.506  31.413  1.00  0.00     0.010 A 
ATOM     34  C   UNL A   1      36.467  33.998  29.564  1.00  0.00     0.010 A 
ATOM     35  C   UNL A   1      36.244  33.418  30.820  1.00  0.00    -0.014 A 
BRANCH  35  36
ATOM     36  C   UNL A   1      37.360  32.733  31.509  1.00  0.00     0.031 A 
ATOM     37  C   UNL A   1      38.030  31.562  30.848  1.00  0.00     0.074 A 
ATOM     38  C   UNL A   1      37.732  33.136  32.738  1.00  0.00     0.049 A 
ATOM     39  N   UNL A   1      38.998  30.806  31.296  1.00  0.00    -0.248 NA
ATOM     40  C   UNL A   1      37.524  31.167  29.523  1.00  0.00     0.031 C 
ATOM     41  C   UNL A   1      37.118  34.226  33.497  1.00  0.00     0.029 A 
ATOM     42  N   UNL A   1      38.721  32.673  33.568  1.00  0.00    -0.354 N 
ATOM     43  C   UNL A   1      39.209  29.849  30.313  1.00  0.00     0.074 A 
ATOM     44  C   UNL A   1      38.218  30.066  29.284  1.00  0.00     0.031 C 
ATOM     45  C   UNL A   1      37.772  34.379  34.659  1.00  0.00     0.029 A 
ATOM     46  C   UNL A   1      38.813  33.361  34.753  1.00  0.00     0.049 A 
ATOM     47  H   UNL A   1      39.311  31.919  33.336  1.00  0.00     0.167 HD
ATOM     48  C   UNL A   1      40.167  28.896  30.259  1.00  0.00     0.037 A 
ATOM     49  C   UNL A   1      39.638  33.181  35.801  1.00  0.00     0.037 A 
ATOM     50  C   UNL A   1      41.153  28.695  31.285  1.00  0.00     0.049 A 
ATOM     51  C   UNL A   1      40.667  32.084  35.733  1.00  0.00     0.074 A 
ATOM     52  C   UNL A   1      42.197  27.788  31.310  1.00  0.00     0.029 A 
ATOM     53  N   UNL A   1      41.208  29.402  32.477  1.00  0.00    -0.354 N 
ATOM     54  N   UNL A   1      40.910  31.233  34.765  1.00  0.00    -0.248 NA
ATOM     55  C   UNL A   1      41.543  31.925  36.902  1.00  0.00     0.031 C 
ATOM     56  C   UNL A   1      42.833  27.891  32.549  1.00  0.00     0.029 A 
ATOM     57  C   UNL A   1      42.245  28.925  33.262  1.00  0.00     0.049 A 
ATOM     58  H   UNL A   1      40.600  30.136  32.729  1.00  0.00     0.167 HD
ATOM     59  C   UNL A   1      41.985  30.464  35.191  1.00  0.00     0.074 A 
ATOM     60  C   UNL A   1      42.359  30.962  36.499  1.00  0.00     0.031 C 
ATOM     61  C   UNL A   1      42.607  29.438  34.559  1.00  0.00     0.037 A 
BRANCH  48  62
ATOM     62  C   UNL A   1      40.183  27.995  29.056  1.00  0.00     0.064 A 
ATOM     63  C   UNL A   1      40.892  28.325  27.890  1.00  0.00     0.173 A 
ATOM     64  C   UNL A   1      39.499  26.770  29.081  1.00  0.00     0.173 A 
ATOM     65  F   UNL A   1      41.552  29.490  27.807  1.00  0.00    -0.203 F 
ATOM     66  C   UNL A   1      40.885  27.481  26.783  1.00  0.00     0.198 A 
ATOM     67  C   UNL A   1      39.530  25.909  27.988  1.00  0.00     0.198 A 
ATOM     68  F   UNL A   1      38.807  26.402  30.169  1.00  0.00    -0.203 F 
ATOM     69  F   UNL A   1      41.516  27.848  25.659  1.00  0.00    -0.200 F 
ATOM     70  C   UNL A   1      40.213  26.270  26.836  1.00  0.00     0.200 A 
ATOM     71  F   UNL A   1      38.895  24.731  28.048  1.00  0.00    -0.200 F 
ATOM     72  F   UNL A   1      40.217  25.453  25.774  1.00  0.00    -0.200 F 
ENDBRANCH  48  62
BRANCH  49  73
ATOM     73  C   UNL A   1      39.534  34.060  36.997  1.00  0.00     0.064 A 
ATOM     74  C   UNL A   1      40.196  35.295  37.049  1.00  0.00     0.173 A 
ATOM     75  C   UNL A   1      38.787  33.676  38.121  1.00  0.00     0.173 A 
ATOM     76  F   UNL A   1      40.937  35.703  36.007  1.00  0.00    -0.203 F 
ATOM     77  C   UNL A   1      40.143  36.094  38.190  1.00  0.00     0.198 A 
ATOM     78  C   UNL A   1      38.703  34.493  39.245  1.00  0.00     0.198 A 
ATOM     79  F   UNL A   1      38.127  32.508  38.123  1.00  0.00    -0.203 F 
ATOM     80  F   UNL A   1      40.839  37.238  38.235  1.00  0.00    -0.200 F 
ATOM     81  C   UNL A   1      39.393  35.695  39.284  1.00  0.00     0.200 A 
ATOM     82  F   UNL A   1      37.959  34.113  40.292  1.00  0.00    -0.200 F 
ATOM     83  F   UNL A   1      39.342  36.464  40.380  1.00  0.00    -0.200 F 
ENDBRANCH  49  73
BRANCH  61  84
ATOM     84  C   UNL A   1      43.791  28.816  35.248  1.00  0.00     0.064 A 
ATOM     85  C   UNL A   1      43.664  27.693  36.077  1.00  0.00     0.173 A 
ATOM     86  C   UNL A   1      45.079  29.332  35.038  1.00  0.00     0.173 A 
ATOM     87  F   UNL A   1      42.454  27.164  36.320  1.00  0.00    -0.203 F 
ATOM     88  C   UNL A   1      44.776  27.133  36.700  1.00  0.00     0.198 A 
ATOM     89  C   UNL A   1      46.194  28.743  35.626  1.00  0.00     0.198 A 
ATOM     90  F   UNL A   1      45.261  30.399  34.244  1.00  0.00    -0.203 F 
ATOM     91  F   UNL A   1      44.622  26.100  37.540  1.00  0.00    -0.200 F 
ATOM     92  C   UNL A   1      46.041  27.652  36.466  1.00  0.00     0.200 A 
ATOM     93  F   UNL A   1      47.417  29.233  35.378  1.00  0.00    -0.200 F 
ATOM     94  F   UNL A   1      47.111  27.106  37.058  1.00  0.00    -0.200 F 
ENDBRANCH  61  84
ENDBRANCH  35  36
ENDBRANCH  27  30
ENDBRANCH  25  26
ENDBRANCH  24  25
ENDBRANCH  23  24
ENDBRANCH   1  23
TORSDOF 16
ENDMDL
MODEL 3
REMARK VINA RESULT:     -12.5      5.404      9.964
REMARK SMILES CC(=O)N[C@H](CC(=O)NCC(=O)NCCCCNC(=O)c1ccc(-c2c3nc(c(-c4c(F)c(F)c(F)c(F)c4F)c4ccc([nH]4)c(-c4c(F)c(F)c(F)c(F)c4F)c4nc(c(-c5c(F)c(F)c(F)c(F)c5F)c5ccc2[nH]5)C=C4)C=C3)cc1)c1cccs1
REMARK SMILES IDX 14 1 13 2 11 3 12 4 10 6 9 7 7 8 8 9 6 11 5 12 4 13 1 14
REMARK SMILES IDX 2 15 3 16 84 18 85 19 88 20 86 21 87 22 15 23 16 24 17 25
REMARK SMILES IDX 18 26 19 27 20 29 21 30 22 31 83 32 23 33 82 34 24 35 25 36
REMARK SMILES IDX 26 37 76 38 27 39 81 40 75 41 77 42 28 43 80 44 74 45 73 46
REMARK SMILES IDX 29 48 61 49 41 50 60 51 42 52 45 53 59 54 78 55 43 56 44 57
REMARK SMILES IDX 58 59 79 60 46 61 30 62 31 63 39 64 32 65 33 66 37 67 40 68
REMARK SMILES IDX 34 69 35 70 38 71 36 72 62 73 63 74 71 75 64 76 65 77 69 78
REMARK SMILES IDX 72 79 66 80 67 81 70 82 68 83 47 84 48 85 56 86 49 87 50 88
REMARK SMILES IDX 54 89 57 90 51 91 52 92 55 93 53 94
REMARK H PARENT 13 5 9 10 4 17 18 28 77 47 45 58
REMARK Flexibility Score: inf
ROOT
ATOM      1  C   UNL A   1      36.258  21.839  25.508  1.00  0.00     0.116 C 
ENDROOT
BRANCH   1   2
ATOM      2  N   UNL A   1      35.078  20.690  25.403  1.00  0.00    -0.355 N 
ATOM      3  C   UNL A   1      33.079  20.520  25.319  1.00  0.00     0.239 C 
ATOM      4  O   UNL A   1      32.343  19.479  25.194  1.00  0.00    -0.273 OA
ATOM      5  H   UNL A   1      35.489  19.796  25.371  1.00  0.00     0.163 HD
BRANCH   3   6
ATOM      6  C   UNL A   1      31.874  21.883  25.177  1.00  0.00     0.216 C 
BRANCH   6   7
ATOM      7  N   UNL A   1      30.634  22.177  25.917  1.00  0.00    -0.347 N 
ATOM      8  C   UNL A   1      30.431  23.145  26.858  1.00  0.00     0.222 C 
ATOM      9  O   UNL A   1      29.476  23.036  27.627  1.00  0.00    -0.275 OA
ATOM     10  H   UNL A   1      29.860  21.606  25.706  1.00  0.00     0.164 HD
BRANCH   8  11
ATOM     11  C   UNL A   1      31.377  24.321  26.940  1.00  0.00     0.130 C 
BRANCH  11  12
ATOM     12  C   UNL A   1      31.313  25.337  25.803  1.00  0.00     0.131 C 
BRANCH  12  13
ATOM     13  N   UNL A   1      29.951  25.537  25.323  1.00  0.00    -0.348 N 
ATOM     14  C   UNL A   1      30.468  26.036  22.955  1.00  0.00     0.114 C 
ATOM     15  C   UNL A   1      29.530  26.038  24.128  1.00  0.00     0.217 C 
ATOM     16  O   UNL A   1      28.384  26.481  24.044  1.00  0.00    -0.275 OA
ATOM     17  H   UNL A   1      29.237  25.275  25.949  1.00  0.00     0.164 HD
ENDBRANCH  12  13
BRANCH  12  18
ATOM     18  C   UNL A   1      31.885  26.683  26.181  1.00  0.00     0.027 A 
ATOM     19  C   UNL A   1      31.568  27.944  27.487  1.00  0.00     0.017 A 
ATOM     20  S   UNL A   1      33.582  27.424  24.752  1.00  0.00    -0.147 S 
ATOM     21  C   UNL A   1      32.730  29.486  27.334  1.00  0.00     0.012 A 
ATOM     22  C   UNL A   1      33.825  29.411  25.964  1.00  0.00     0.065 A 
ENDBRANCH  12  18
ENDBRANCH  11  12
ENDBRANCH   8  11
ENDBRANCH   6   7
ENDBRANCH   3   6
ENDBRANCH   1   2
BRANCH   1  23
ATOM     23  C   UNL A   1      37.561  21.517  24.801  1.00  0.00     0.023 C 
BRANCH  23  24
ATOM     24  C   UNL A   1      38.242  20.254  25.275  1.00  0.00     0.023 C 
BRANCH  24  25
ATOM     25  C   UNL A   1      39.595  20.475  25.936  1.00  0.00     0.116 C 
BRANCH  25  26
ATOM     26  N   UNL A   1      40.452  19.286  25.962  1.00  0.00    -0.352 N 
ATOM     27  C   UNL A   1      41.817  19.205  26.075  1.00  0.00     0.251 C 
ATOM     28  H   UNL A   1      39.981  18.424  25.889  1.00  0.00     0.163 HD
ATOM     29  O   UNL A   1      42.418  18.149  25.918  1.00  0.00    -0.269 OA
BRANCH  27  30
ATOM     30  C   UNL A   1      42.552  20.443  26.354  1.00  0.00     0.039 A 
ATOM     31  C   UNL A   1      43.098  21.158  25.292  1.00  0.00     0.014 A 
ATOM     32  C   UNL A   1      42.574  20.945  27.657  1.00  0.00     0.014 A 
ATOM     33  C   UNL A   1      43.590  22.438  25.529  1.00  0.00     0.010 A 
ATOM     34  C   UNL A   1      42.931  22.265  27.860  1.00  0.00     0.010 A 
ATOM     35  C   UNL A   1      43.456  23.020  26.802  1.00  0.00    -0.014 A 
BRANCH  35  36
ATOM     36  C   UNL A   1      43.875  24.417  27.050  1.00  0.00     0.031 A 
ATOM     37  C   UNL A   1      42.860  25.424  27.510  1.00  0.00     0.074 A 
ATOM     38  C   UNL A   1      45.150  24.783  26.816  1.00  0.00     0.049 A 
ATOM     39  N   UNL A   1      43.014  26.700  27.749  1.00  0.00    -0.248 NA
ATOM     40  C   UNL A   1      41.481  24.941  27.696  1.00  0.00     0.031 C 
ATOM     41  C   UNL A   1      46.207  23.902  26.317  1.00  0.00     0.029 A 
ATOM     42  N   UNL A   1      45.773  25.995  26.967  1.00  0.00    -0.354 N 
ATOM     43  C   UNL A   1      41.756  27.168  28.105  1.00  0.00     0.074 A 
ATOM     44  C   UNL A   1      40.836  26.062  27.973  1.00  0.00     0.031 C 
ATOM     45  C   UNL A   1      47.358  24.590  26.249  1.00  0.00     0.029 A 
ATOM     46  C   UNL A   1      47.107  25.972  26.642  1.00  0.00     0.049 A 
ATOM     47  H   UNL A   1      45.309  26.805  27.282  1.00  0.00     0.167 HD
ATOM     48  C   UNL A   1      41.408  28.401  28.537  1.00  0.00     0.037 A 
ATOM     49  C   UNL A   1      48.021  26.961  26.649  1.00  0.00     0.037 A 
ATOM     50  C   UNL A   1      42.336  29.491  28.671  1.00  0.00     0.049 A 
ATOM     51  C   UNL A   1      47.596  28.336  27.092  1.00  0.00     0.074 A 
ATOM     52  C   UNL A   1      42.098  30.770  29.143  1.00  0.00     0.029 A 
ATOM     53  N   UNL A   1      43.677  29.436  28.320  1.00  0.00    -0.354 N 
ATOM     54  N   UNL A   1      46.421  28.750  27.502  1.00  0.00    -0.248 NA
ATOM     55  C   UNL A   1      48.628  29.382  27.081  1.00  0.00     0.031 C 
ATOM     56  C   UNL A   1      43.274  31.510  29.002  1.00  0.00     0.029 A 
ATOM     57  C   UNL A   1      44.270  30.670  28.528  1.00  0.00     0.049 A 
ATOM     58  H   UNL A   1      44.139  28.637  27.975  1.00  0.00     0.167 HD
ATOM     59  C   UNL A   1      46.579  30.090  27.829  1.00  0.00     0.074 A 
ATOM     60  C   UNL A   1      47.970  30.415  27.587  1.00  0.00     0.031 C 
ATOM     61  C   UNL A   1      45.658  30.974  28.288  1.00  0.00     0.037 A 
BRANCH  48  62
ATOM     62  C   UNL A   1      39.964  28.635  28.880  1.00  0.00     0.064 A 
ATOM     63  C   UNL A   1      39.461  28.402  30.170  1.00  0.00     0.173 A 
ATOM     64  C   UNL A   1      39.077  29.125  27.910  1.00  0.00     0.173 A 
ATOM     65  F   UNL A   1      40.262  27.921  31.132  1.00  0.00    -0.203 F 
ATOM     66  C   UNL A   1      38.117  28.616  30.465  1.00  0.00     0.198 A 
ATOM     67  C   UNL A   1      37.743  29.378  28.220  1.00  0.00     0.198 A 
ATOM     68  F   UNL A   1      39.503  29.368  26.662  1.00  0.00    -0.203 F 
ATOM     69  F   UNL A   1      37.646  28.325  31.685  1.00  0.00    -0.200 F 
ATOM     70  C   UNL A   1      37.263  29.112  29.493  1.00  0.00     0.200 A 
ATOM     71  F   UNL A   1      36.923  29.875  27.285  1.00  0.00    -0.200 F 
ATOM     72  F   UNL A   1      35.971  29.329  29.781  1.00  0.00    -0.200 F 
ENDBRANCH  48  62
BRANCH  49  73
ATOM     73  C   UNL A   1      49.423  26.689  26.233  1.00  0.00     0.064 A 
ATOM     74  C   UNL A   1      50.373  26.217  27.151  1.00  0.00     0.173 A 
ATOM     75  C   UNL A   1      49.850  26.913  24.915  1.00  0.00     0.173 A 
ATOM     76  F   UNL A   1      50.022  26.002  28.428  1.00  0.00    -0.203 F 
ATOM     77  C   UNL A   1      51.699  26.015  26.775  1.00  0.00     0.198 A 
ATOM     78  C   UNL A   1      51.166  26.673  24.532  1.00  0.00     0.198 A 
ATOM     79  F   UNL A   1      48.981  27.357  23.994  1.00  0.00    -0.203 F 
ATOM     80  F   UNL A   1      52.599  25.625  27.689  1.00  0.00    -0.200 F 
ATOM     81  C   UNL A   1      52.094  26.237  25.465  1.00  0.00     0.200 A 
ATOM     82  F   UNL A   1      51.537  26.869  23.260  1.00  0.00    -0.200 F 
ATOM     83  F   UNL A   1      53.369  26.041  25.105  1.00  0.00    -0.200 F 
ENDBRANCH  49  73
BRANCH  61  84
ATOM     84  C   UNL A   1      46.133  32.364  28.610  1.00  0.00     0.064 A 
ATOM     85  C   UNL A   1      46.153  33.385  27.648  1.00  0.00     0.173 A 
ATOM     86  C   UNL A   1      46.536  32.687  29.915  1.00  0.00     0.173 A 
ATOM     87  F   UNL A   1      45.788  33.129  26.382  1.00  0.00    -0.203 F 
ATOM     88  C   UNL A   1      46.592  34.665  27.972  1.00  0.00     0.198 A 
ATOM     89  C   UNL A   1      46.931  33.979  30.246  1.00  0.00     0.198 A 
ATOM     90  F   UNL A   1      46.526  31.752  30.879  1.00  0.00    -0.203 F 
ATOM     91  F   UNL A   1      46.664  35.608  27.021  1.00  0.00    -0.200 F 
ATOM     92  C   UNL A   1      46.972  34.964  29.272  1.00  0.00     0.200 A 
ATOM     93  F   UNL A   1      47.274  34.269  31.509  1.00  0.00    -0.200 F 
ATOM     94  F   UNL A   1      47.384  36.199  29.585  1.00  0.00    -0.200 F 
ENDBRANCH  61  84
ENDBRANCH  35  36
ENDBRANCH  27  30
ENDBRANCH  25  26
ENDBRANCH  24  25
ENDBRANCH  23  24
ENDBRANCH   1  23
TORSDOF 16
ENDMDL
