MODEL 1
REMARK VINA RESULT:     -12.0      0.000      0.000
REMARK SMILES CC(C)CS(=O)(=O)Cc1c(C(=O)NCCCCNC(=O)c2ccc(-c3c4nc(c(-c5c(F)c(F)c(F)c(F)c5F)c5ccc([nH]5)c(-c5c(F)c(F)c(F)c(F)c5F)c5nc(c(-c6c(F)c(F)c(F)c(F)c6F)c6ccc3[nH]6)C=C5)C=C4)cc2)oc2ccccc12
REMARK SMILES IDX 14 1 13 2 11 3 12 4 10 6 9 7 90 8 84 9 85 10 89 11 86 12
REMARK SMILES IDX 88 13 87 14 8 15 5 16 6 17 7 18 4 19 2 20 1 21 3 22 15 23
REMARK SMILES IDX 16 24 17 25 18 26 19 27 20 29 21 30 22 31 83 32 23 33 82 34
REMARK SMILES IDX 24 35 25 36 26 37 76 38 27 39 81 40 75 41 77 42 28 43 80 44
REMARK SMILES IDX 74 45 73 46 29 48 61 49 41 50 60 51 42 52 45 53 59 54 78 55
REMARK SMILES IDX 43 56 44 57 58 59 79 60 46 61 30 62 31 63 39 64 32 65 33 66
REMARK SMILES IDX 37 67 40 68 34 69 35 70 38 71 36 72 62 73 63 74 71 75 64 76
REMARK SMILES IDX 65 77 69 78 72 79 66 80 67 81 70 82 68 83 47 84 48 85 56 86
REMARK SMILES IDX 49 87 50 88 54 89 57 90 51 91 52 92 55 93 53 94
REMARK H PARENT 13 5 18 28 77 47 45 58
REMARK Flexibility Score: inf
ROOT
ATOM      1  C   UNL A   1      32.992  30.000  26.319  1.00  0.00     0.116 C 
ENDROOT
BRANCH   1   2
ATOM      2  N   UNL A   1      33.384  29.638  24.969  1.00  0.00    -0.349 N 
ATOM      3  C   UNL A   1      33.630  28.430  24.369  1.00  0.00     0.287 C 
ATOM      4  O   UNL A   1      34.115  28.491  23.239  1.00  0.00    -0.266 OA
ATOM      5  H   UNL A   1      33.495  30.410  24.368  1.00  0.00     0.163 HD
BRANCH   3   6
ATOM      6  C   UNL A   1      33.269  27.163  24.975  1.00  0.00     0.196 A 
ATOM      7  C   UNL A   1      32.028  26.636  25.347  1.00  0.00     0.027 A 
ATOM      8  C   UNL A   1      32.316  25.331  25.896  1.00  0.00     0.025 A 
ATOM      9  O   UNL A   1      34.253  26.273  25.286  1.00  0.00    -0.451 OA
ATOM     10  C   UNL A   1      33.689  25.170  25.819  1.00  0.00     0.135 A 
ATOM     11  C   UNL A   1      31.562  24.257  26.412  1.00  0.00     0.012 A 
ATOM     12  C   UNL A   1      34.385  24.030  26.213  1.00  0.00     0.048 A 
ATOM     13  C   UNL A   1      32.230  23.089  26.818  1.00  0.00     0.001 A 
ATOM     14  C   UNL A   1      33.618  22.979  26.717  1.00  0.00     0.004 A 
BRANCH   7  15
ATOM     15  C   UNL A   1      30.640  27.159  25.104  1.00  0.00     0.177 C 
BRANCH  15  16
ATOM     16  S   UNL A   1      30.028  27.621  23.481  1.00  0.00     0.154 S 
ATOM     17  O   UNL A   1      28.615  27.273  23.451  1.00  0.00    -0.228 OA
ATOM     18  O   UNL A   1      30.897  27.000  22.495  1.00  0.00    -0.228 OA
BRANCH  16  19
ATOM     19  C   UNL A   1      30.148  29.399  23.261  1.00  0.00     0.140 C 
BRANCH  19  20
ATOM     20  C   UNL A   1      28.811  30.131  23.127  1.00  0.00    -0.002 C 
ATOM     21  C   UNL A   1      28.855  31.530  23.740  1.00  0.00     0.008 C 
ATOM     22  C   UNL A   1      28.438  30.230  21.644  1.00  0.00     0.008 C 
ENDBRANCH  19  20
ENDBRANCH  16  19
ENDBRANCH  15  16
ENDBRANCH   7  15
ENDBRANCH   3   6
ENDBRANCH   1   2
BRANCH   1  23
ATOM     23  C   UNL A   1      31.541  30.477  26.344  1.00  0.00     0.023 C 
BRANCH  23  24
ATOM     24  C   UNL A   1      31.371  31.950  26.737  1.00  0.00     0.023 C 
BRANCH  24  25
ATOM     25  C   UNL A   1      32.670  32.731  26.912  1.00  0.00     0.116 C 
BRANCH  25  26
ATOM     26  N   UNL A   1      32.466  34.038  27.511  1.00  0.00    -0.352 N 
ATOM     27  C   UNL A   1      33.137  34.626  28.552  1.00  0.00     0.251 C 
ATOM     28  H   UNL A   1      31.745  34.578  27.112  1.00  0.00     0.163 HD
ATOM     29  O   UNL A   1      32.750  35.698  29.007  1.00  0.00    -0.269 OA
BRANCH  27  30
ATOM     30  C   UNL A   1      34.311  33.955  29.147  1.00  0.00     0.039 A 
ATOM     31  C   UNL A   1      34.097  32.925  30.064  1.00  0.00     0.014 A 
ATOM     32  C   UNL A   1      35.612  34.354  28.824  1.00  0.00     0.014 A 
ATOM     33  C   UNL A   1      35.187  32.268  30.636  1.00  0.00     0.010 A 
ATOM     34  C   UNL A   1      36.699  33.657  29.348  1.00  0.00     0.010 A 
ATOM     35  C   UNL A   1      36.496  32.620  30.271  1.00  0.00    -0.014 A 
BRANCH  35  36
ATOM     36  C   UNL A   1      37.664  31.944  30.885  1.00  0.00     0.031 A 
ATOM     37  C   UNL A   1      38.096  32.314  32.277  1.00  0.00     0.074 A 
ATOM     38  C   UNL A   1      38.359  31.032  30.180  1.00  0.00     0.049 A 
ATOM     39  N   UNL A   1      39.111  31.873  32.976  1.00  0.00    -0.248 NA
ATOM     40  C   UNL A   1      37.294  33.338  32.965  1.00  0.00     0.031 C 
ATOM     41  C   UNL A   1      38.067  30.625  28.805  1.00  0.00     0.029 A 
ATOM     42  N   UNL A   1      39.459  30.288  30.523  1.00  0.00    -0.354 N 
ATOM     43  C   UNL A   1      39.082  32.578  34.171  1.00  0.00     0.074 A 
ATOM     44  C   UNL A   1      37.978  33.510  34.086  1.00  0.00     0.031 C 
ATOM     45  C   UNL A   1      38.953  29.688  28.428  1.00  0.00     0.029 A 
ATOM     46  C   UNL A   1      39.886  29.447  29.524  1.00  0.00     0.049 A 
ATOM     47  H   UNL A   1      39.900  30.349  31.401  1.00  0.00     0.167 HD
ATOM     48  C   UNL A   1      39.886  32.444  35.252  1.00  0.00     0.037 A 
ATOM     49  C   UNL A   1      40.913  28.576  29.504  1.00  0.00     0.037 A 
ATOM     50  C   UNL A   1      40.959  31.492  35.348  1.00  0.00     0.049 A 
ATOM     51  C   UNL A   1      41.765  28.415  30.733  1.00  0.00     0.074 A 
ATOM     52  C   UNL A   1      41.806  31.246  36.415  1.00  0.00     0.029 A 
ATOM     53  N   UNL A   1      41.328  30.618  34.335  1.00  0.00    -0.354 N 
ATOM     54  N   UNL A   1      41.692  29.047  31.880  1.00  0.00    -0.248 NA
ATOM     55  C   UNL A   1      42.832  27.407  30.671  1.00  0.00     0.031 C 
ATOM     56  C   UNL A   1      42.704  30.241  36.037  1.00  0.00     0.029 A 
ATOM     57  C   UNL A   1      42.390  29.832  34.751  1.00  0.00     0.049 A 
ATOM     58  H   UNL A   1      40.897  30.564  33.451  1.00  0.00     0.167 HD
ATOM     59  C   UNL A   1      42.675  28.489  32.685  1.00  0.00     0.074 A 
ATOM     60  C   UNL A   1      43.326  27.462  31.899  1.00  0.00     0.031 C 
ATOM     61  C   UNL A   1      43.008  28.800  33.962  1.00  0.00     0.037 A 
BRANCH  48  62
ATOM     62  C   UNL A   1      39.626  33.350  36.421  1.00  0.00     0.064 A 
ATOM     63  C   UNL A   1      40.251  34.601  36.532  1.00  0.00     0.173 A 
ATOM     64  C   UNL A   1      38.728  32.972  37.430  1.00  0.00     0.173 A 
ATOM     65  F   UNL A   1      41.129  35.002  35.601  1.00  0.00    -0.203 F 
ATOM     66  C   UNL A   1      40.012  35.426  37.627  1.00  0.00     0.198 A 
ATOM     67  C   UNL A   1      38.470  33.813  38.509  1.00  0.00     0.198 A 
ATOM     68  F   UNL A   1      38.100  31.788  37.370  1.00  0.00    -0.203 F 
ATOM     69  F   UNL A   1      40.661  36.593  37.740  1.00  0.00    -0.200 F 
ATOM     70  C   UNL A   1      39.117  35.035  38.612  1.00  0.00     0.200 A 
ATOM     71  F   UNL A   1      37.597  33.438  39.455  1.00  0.00    -0.200 F 
ATOM     72  F   UNL A   1      38.887  35.831  39.665  1.00  0.00    -0.200 F 
ENDBRANCH  48  62
BRANCH  49  73
ATOM     73  C   UNL A   1      41.159  27.750  28.295  1.00  0.00     0.064 A 
ATOM     74  C   UNL A   1      40.534  26.504  28.138  1.00  0.00     0.173 A 
ATOM     75  C   UNL A   1      42.021  28.182  27.277  1.00  0.00     0.173 A 
ATOM     76  F   UNL A   1      39.716  26.042  29.094  1.00  0.00    -0.203 F 
ATOM     77  C   UNL A   1      40.780  25.712  27.019  1.00  0.00     0.198 A 
ATOM     78  C   UNL A   1      42.247  27.399  26.147  1.00  0.00     0.198 A 
ATOM     79  F   UNL A   1      42.637  29.369  27.377  1.00  0.00    -0.203 F 
ATOM     80  F   UNL A   1      40.204  24.507  26.915  1.00  0.00    -0.200 F 
ATOM     81  C   UNL A   1      41.632  26.162  26.022  1.00  0.00     0.200 A 
ATOM     82  F   UNL A   1      43.061  27.843  25.179  1.00  0.00    -0.200 F 
ATOM     83  F   UNL A   1      41.867  25.400  24.946  1.00  0.00    -0.200 F 
ENDBRANCH  49  73
BRANCH  61  84
ATOM     84  C   UNL A   1      44.087  27.981  34.606  1.00  0.00     0.064 A 
ATOM     85  C   UNL A   1      45.432  28.377  34.576  1.00  0.00     0.173 A 
ATOM     86  C   UNL A   1      43.764  26.799  35.289  1.00  0.00     0.173 A 
ATOM     87  F   UNL A   1      45.792  29.492  33.924  1.00  0.00    -0.203 F 
ATOM     88  C   UNL A   1      46.418  27.603  35.182  1.00  0.00     0.198 A 
ATOM     89  C   UNL A   1      44.748  26.042  35.916  1.00  0.00     0.198 A 
ATOM     90  F   UNL A   1      42.490  26.381  35.352  1.00  0.00    -0.203 F 
ATOM     91  F   UNL A   1      47.703  27.975  35.100  1.00  0.00    -0.200 F 
ATOM     92  C   UNL A   1      46.075  26.440  35.855  1.00  0.00     0.200 A 
ATOM     93  F   UNL A   1      44.414  24.924  36.576  1.00  0.00    -0.200 F 
ATOM     94  F   UNL A   1      47.026  25.697  36.440  1.00  0.00    -0.200 F 
ENDBRANCH  61  84
ENDBRANCH  35  36
ENDBRANCH  27  30
ENDBRANCH  25  26
ENDBRANCH  24  25
ENDBRANCH  23  24
ENDBRANCH   1  23
TORSDOF 15
ENDMDL
MODEL 2
REMARK VINA RESULT:     -12.0      0.159      1.592
REMARK SMILES CC(C)CS(=O)(=O)Cc1c(C(=O)NCCCCNC(=O)c2ccc(-c3c4nc(c(-c5c(F)c(F)c(F)c(F)c5F)c5ccc([nH]5)c(-c5c(F)c(F)c(F)c(F)c5F)c5nc(c(-c6c(F)c(F)c(F)c(F)c6F)c6ccc3[nH]6)C=C5)C=C4)cc2)oc2ccccc12
REMARK SMILES IDX 14 1 13 2 11 3 12 4 10 6 9 7 90 8 84 9 85 10 89 11 86 12
REMARK SMILES IDX 88 13 87 14 8 15 5 16 6 17 7 18 4 19 2 20 1 21 3 22 15 23
REMARK SMILES IDX 16 24 17 25 18 26 19 27 20 29 21 30 22 31 83 32 23 33 82 34
REMARK SMILES IDX 24 35 25 36 26 37 76 38 27 39 81 40 75 41 77 42 28 43 80 44
REMARK SMILES IDX 74 45 73 46 29 48 61 49 41 50 60 51 42 52 45 53 59 54 78 55
REMARK SMILES IDX 43 56 44 57 58 59 79 60 46 61 30 62 31 63 39 64 32 65 33 66
REMARK SMILES IDX 37 67 40 68 34 69 35 70 38 71 36 72 62 73 63 74 71 75 64 76
REMARK SMILES IDX 65 77 69 78 72 79 66 80 67 81 70 82 68 83 47 84 48 85 56 86
REMARK SMILES IDX 49 87 50 88 54 89 57 90 51 91 52 92 55 93 53 94
REMARK H PARENT 13 5 18 28 77 47 45 58
REMARK Flexibility Score: inf
ROOT
ATOM      1  C   UNL A   1      32.869  30.098  26.019  1.00  0.00     0.116 C 
ENDROOT
BRANCH   1   2
ATOM      2  N   UNL A   1      33.268  29.684  24.687  1.00  0.00    -0.349 N 
ATOM      3  C   UNL A   1      33.538  28.456  24.141  1.00  0.00     0.287 C 
ATOM      4  O   UNL A   1      34.023  28.476  23.009  1.00  0.00    -0.266 OA
ATOM      5  H   UNL A   1      33.365  30.431  24.052  1.00  0.00     0.163 HD
BRANCH   3   6
ATOM      6  C   UNL A   1      33.202  27.211  24.803  1.00  0.00     0.196 A 
ATOM      7  C   UNL A   1      31.976  26.696  25.238  1.00  0.00     0.027 A 
ATOM      8  C   UNL A   1      32.286  25.410  25.821  1.00  0.00     0.025 A 
ATOM      9  O   UNL A   1      34.198  26.331  25.107  1.00  0.00    -0.451 OA
ATOM     10  C   UNL A   1      33.655  25.247  25.698  1.00  0.00     0.135 A 
ATOM     11  C   UNL A   1      31.553  24.355  26.401  1.00  0.00     0.012 A 
ATOM     12  C   UNL A   1      34.367  24.121  26.104  1.00  0.00     0.048 A 
ATOM     13  C   UNL A   1      32.237  23.201  26.820  1.00  0.00     0.001 A 
ATOM     14  C   UNL A   1      33.621  23.088  26.672  1.00  0.00     0.004 A 
BRANCH   7  15
ATOM     15  C   UNL A   1      30.579  27.211  25.030  1.00  0.00     0.177 C 
BRANCH  15  16
ATOM     16  S   UNL A   1      29.881  27.547  23.410  1.00  0.00     0.154 S 
ATOM     17  O   UNL A   1      28.478  27.165  23.471  1.00  0.00    -0.228 OA
ATOM     18  O   UNL A   1      30.719  26.880  22.428  1.00  0.00    -0.228 OA
BRANCH  16  19
ATOM     19  C   UNL A   1      29.946  29.308  23.066  1.00  0.00     0.140 C 
BRANCH  19  20
ATOM     20  C   UNL A   1      28.591  30.019  23.056  1.00  0.00    -0.002 C 
ATOM     21  C   UNL A   1      28.667  31.412  23.680  1.00  0.00     0.008 C 
ATOM     22  C   UNL A   1      28.090  30.130  21.612  1.00  0.00     0.008 C 
ENDBRANCH  19  20
ENDBRANCH  16  19
ENDBRANCH  15  16
ENDBRANCH   7  15
ENDBRANCH   3   6
ENDBRANCH   1   2
BRANCH   1  23
ATOM     23  C   UNL A   1      31.456  30.676  25.998  1.00  0.00     0.023 C 
BRANCH  23  24
ATOM     24  C   UNL A   1      31.361  32.122  26.502  1.00  0.00     0.023 C 
BRANCH  24  25
ATOM     25  C   UNL A   1      32.653  32.697  27.078  1.00  0.00     0.116 C 
BRANCH  25  26
ATOM     26  N   UNL A   1      32.478  34.025  27.638  1.00  0.00    -0.352 N 
ATOM     27  C   UNL A   1      33.180  34.637  28.645  1.00  0.00     0.251 C 
ATOM     28  H   UNL A   1      31.755  34.562  27.239  1.00  0.00     0.163 HD
ATOM     29  O   UNL A   1      32.817  35.728  29.074  1.00  0.00    -0.269 OA
BRANCH  27  30
ATOM     30  C   UNL A   1      34.359  33.970  29.234  1.00  0.00     0.039 A 
ATOM     31  C   UNL A   1      34.152  32.963  30.180  1.00  0.00     0.014 A 
ATOM     32  C   UNL A   1      35.658  34.349  28.880  1.00  0.00     0.014 A 
ATOM     33  C   UNL A   1      35.247  32.310  30.748  1.00  0.00     0.010 A 
ATOM     34  C   UNL A   1      36.748  33.655  29.401  1.00  0.00     0.010 A 
ATOM     35  C   UNL A   1      36.552  32.642  30.352  1.00  0.00    -0.014 A 
BRANCH  35  36
ATOM     36  C   UNL A   1      37.725  31.970  30.961  1.00  0.00     0.031 A 
ATOM     37  C   UNL A   1      38.163  32.344  32.350  1.00  0.00     0.074 A 
ATOM     38  C   UNL A   1      38.418  31.058  30.254  1.00  0.00     0.049 A 
ATOM     39  N   UNL A   1      39.183  31.907  33.044  1.00  0.00    -0.248 NA
ATOM     40  C   UNL A   1      37.363  33.368  33.040  1.00  0.00     0.031 C 
ATOM     41  C   UNL A   1      38.120  30.647  28.882  1.00  0.00     0.029 A 
ATOM     42  N   UNL A   1      39.522  30.317  30.593  1.00  0.00    -0.354 N 
ATOM     43  C   UNL A   1      39.158  32.614  34.238  1.00  0.00     0.074 A 
ATOM     44  C   UNL A   1      38.052  33.543  34.157  1.00  0.00     0.031 C 
ATOM     45  C   UNL A   1      39.006  29.712  28.502  1.00  0.00     0.029 A 
ATOM     46  C   UNL A   1      39.946  29.475  29.594  1.00  0.00     0.049 A 
ATOM     47  H   UNL A   1      39.967  30.382  31.468  1.00  0.00     0.167 HD
ATOM     48  C   UNL A   1      39.968  32.485  35.315  1.00  0.00     0.037 A 
ATOM     49  C   UNL A   1      40.975  28.608  29.569  1.00  0.00     0.037 A 
ATOM     50  C   UNL A   1      41.044  31.535  35.407  1.00  0.00     0.049 A 
ATOM     51  C   UNL A   1      41.834  28.451  30.795  1.00  0.00     0.074 A 
ATOM     52  C   UNL A   1      41.898  31.294  36.470  1.00  0.00     0.029 A 
ATOM     53  N   UNL A   1      41.410  30.660  34.395  1.00  0.00    -0.354 N 
ATOM     54  N   UNL A   1      41.765  29.085  31.941  1.00  0.00    -0.248 NA
ATOM     55  C   UNL A   1      42.903  27.445  30.729  1.00  0.00     0.031 C 
ATOM     56  C   UNL A   1      42.797  30.290  36.090  1.00  0.00     0.029 A 
ATOM     57  C   UNL A   1      42.477  29.878  34.807  1.00  0.00     0.049 A 
ATOM     58  H   UNL A   1      40.975  30.603  33.513  1.00  0.00     0.167 HD
ATOM     59  C   UNL A   1      42.754  28.531  32.742  1.00  0.00     0.074 A 
ATOM     60  C   UNL A   1      43.403  27.505  31.954  1.00  0.00     0.031 C 
ATOM     61  C   UNL A   1      43.093  28.845  34.016  1.00  0.00     0.037 A 
BRANCH  48  62
ATOM     62  C   UNL A   1      39.712  33.392  36.483  1.00  0.00     0.064 A 
ATOM     63  C   UNL A   1      38.816  33.040  37.504  1.00  0.00     0.173 A 
ATOM     64  C   UNL A   1      40.385  34.619  36.594  1.00  0.00     0.173 A 
ATOM     65  F   UNL A   1      38.138  31.885  37.437  1.00  0.00    -0.203 F 
ATOM     66  C   UNL A   1      38.578  33.896  38.575  1.00  0.00     0.198 A 
ATOM     67  C   UNL A   1      40.164  35.460  37.682  1.00  0.00     0.198 A 
ATOM     68  F   UNL A   1      41.255  35.002  35.648  1.00  0.00    -0.203 F 
ATOM     69  F   UNL A   1      37.677  33.563  39.509  1.00  0.00    -0.200 F 
ATOM     70  C   UNL A   1      39.256  35.103  38.667  1.00  0.00     0.200 A 
ATOM     71  F   UNL A   1      40.828  36.620  37.774  1.00  0.00    -0.200 F 
ATOM     72  F   UNL A   1      39.026  35.925  39.699  1.00  0.00    -0.200 F 
ENDBRANCH  48  62
BRANCH  49  73
ATOM     73  C   UNL A   1      41.216  27.779  28.361  1.00  0.00     0.064 A 
ATOM     74  C   UNL A   1      40.580  26.540  28.202  1.00  0.00     0.173 A 
ATOM     75  C   UNL A   1      42.086  28.203  27.346  1.00  0.00     0.173 A 
ATOM     76  F   UNL A   1      39.755  26.085  29.155  1.00  0.00    -0.203 F 
ATOM     77  C   UNL A   1      40.822  25.746  27.083  1.00  0.00     0.198 A 
ATOM     78  C   UNL A   1      42.307  27.419  26.216  1.00  0.00     0.198 A 
ATOM     79  F   UNL A   1      42.713  29.385  27.449  1.00  0.00    -0.203 F 
ATOM     80  F   UNL A   1      40.234  24.546  26.977  1.00  0.00    -0.200 F 
ATOM     81  C   UNL A   1      41.681  26.188  26.089  1.00  0.00     0.200 A 
ATOM     82  F   UNL A   1      43.129  27.854  25.251  1.00  0.00    -0.200 F 
ATOM     83  F   UNL A   1      41.913  25.424  25.013  1.00  0.00    -0.200 F 
ENDBRANCH  49  73
BRANCH  61  84
ATOM     84  C   UNL A   1      44.178  28.030  34.656  1.00  0.00     0.064 A 
ATOM     85  C   UNL A   1      43.900  26.833  35.332  1.00  0.00     0.173 A 
ATOM     86  C   UNL A   1      45.516  28.441  34.564  1.00  0.00     0.173 A 
ATOM     87  F   UNL A   1      42.635  26.407  35.458  1.00  0.00    -0.203 F 
ATOM     88  C   UNL A   1      44.922  26.092  35.918  1.00  0.00     0.198 A 
ATOM     89  C   UNL A   1      46.537  27.682  35.128  1.00  0.00     0.198 A 
ATOM     90  F   UNL A   1      45.833  29.576  33.922  1.00  0.00    -0.203 F 
ATOM     91  F   UNL A   1      44.630  24.976  36.600  1.00  0.00    -0.200 F 
ATOM     92  C   UNL A   1      46.239  26.513  35.812  1.00  0.00     0.200 A 
ATOM     93  F   UNL A   1      47.810  28.086  35.015  1.00  0.00    -0.200 F 
ATOM     94  F   UNL A   1      47.222  25.796  36.375  1.00  0.00    -0.200 F 
ENDBRANCH  61  84
ENDBRANCH  35  36
ENDBRANCH  27  30
ENDBRANCH  25  26
ENDBRANCH  24  25
ENDBRANCH  23  24
ENDBRANCH   1  23
TORSDOF 15
ENDMDL
MODEL 3
REMARK VINA RESULT:     -11.9      5.462      9.615
REMARK SMILES CC(C)CS(=O)(=O)Cc1c(C(=O)NCCCCNC(=O)c2ccc(-c3c4nc(c(-c5c(F)c(F)c(F)c(F)c5F)c5ccc([nH]5)c(-c5c(F)c(F)c(F)c(F)c5F)c5nc(c(-c6c(F)c(F)c(F)c(F)c6F)c6ccc3[nH]6)C=C5)C=C4)cc2)oc2ccccc12
REMARK SMILES IDX 14 1 13 2 11 3 12 4 10 6 9 7 90 8 84 9 85 10 89 11 86 12
REMARK SMILES IDX 88 13 87 14 8 15 5 16 6 17 7 18 4 19 2 20 1 21 3 22 15 23
REMARK SMILES IDX 16 24 17 25 18 26 19 27 20 29 21 30 22 31 83 32 23 33 82 34
REMARK SMILES IDX 24 35 25 36 26 37 76 38 27 39 81 40 75 41 77 42 28 43 80 44
REMARK SMILES IDX 74 45 73 46 29 48 61 49 41 50 60 51 42 52 45 53 59 54 78 55
REMARK SMILES IDX 43 56 44 57 58 59 79 60 46 61 30 62 31 63 39 64 32 65 33 66
REMARK SMILES IDX 37 67 40 68 34 69 35 70 38 71 36 72 62 73 63 74 71 75 64 76
REMARK SMILES IDX 65 77 69 78 72 79 66 80 67 81 70 82 68 83 47 84 48 85 56 86
REMARK SMILES IDX 49 87 50 88 54 89 57 90 51 91 52 92 55 93 53 94
REMARK H PARENT 13 5 18 28 77 47 45 58
REMARK Flexibility Score: inf
ROOT
ATOM      1  C   UNL A   1      37.092  21.973  25.579  1.00  0.00     0.116 C 
ENDROOT
BRANCH   1   2
ATOM      2  N   UNL A   1      35.963  21.983  26.491  1.00  0.00    -0.349 N 
ATOM      3  C   UNL A   1      34.861  22.792  26.591  1.00  0.00     0.287 C 
ATOM      4  O   UNL A   1      34.175  22.627  27.601  1.00  0.00    -0.266 OA
ATOM      5  H   UNL A   1      35.996  21.271  27.171  1.00  0.00     0.163 HD
BRANCH   3   6
ATOM      6  C   UNL A   1      34.470  23.720  25.548  1.00  0.00     0.196 A 
ATOM      7  C   UNL A   1      34.088  23.510  24.219  1.00  0.00     0.027 A 
ATOM      8  C   UNL A   1      33.815  24.826  23.688  1.00  0.00     0.025 A 
ATOM      9  O   UNL A   1      34.457  25.055  25.820  1.00  0.00    -0.451 OA
ATOM     10  C   UNL A   1      34.049  25.719  24.719  1.00  0.00     0.135 A 
ATOM     11  C   UNL A   1      33.358  25.351  22.462  1.00  0.00     0.012 A 
ATOM     12  C   UNL A   1      33.871  27.098  24.640  1.00  0.00     0.048 A 
ATOM     13  C   UNL A   1      33.163  26.738  22.345  1.00  0.00     0.001 A 
ATOM     14  C   UNL A   1      33.414  27.595  23.419  1.00  0.00     0.004 A 
BRANCH   7  15
ATOM     15  C   UNL A   1      33.822  22.231  23.477  1.00  0.00     0.177 C 
BRANCH  15  16
ATOM     16  S   UNL A   1      32.682  20.970  24.058  1.00  0.00     0.154 S 
ATOM     17  O   UNL A   1      32.124  20.333  22.874  1.00  0.00    -0.228 OA
ATOM     18  O   UNL A   1      31.758  21.610  24.979  1.00  0.00    -0.228 OA
BRANCH  16  19
ATOM     19  C   UNL A   1      33.574  19.712  24.977  1.00  0.00     0.140 C 
BRANCH  19  20
ATOM     20  C   UNL A   1      33.420  18.285  24.445  1.00  0.00    -0.002 C 
ATOM     21  C   UNL A   1      34.767  17.581  24.285  1.00  0.00     0.008 C 
ATOM     22  C   UNL A   1      32.531  17.483  25.401  1.00  0.00     0.008 C 
ENDBRANCH  19  20
ENDBRANCH  16  19
ENDBRANCH  15  16
ENDBRANCH   7  15
ENDBRANCH   3   6
ENDBRANCH   1   2
BRANCH   1  23
ATOM     23  C   UNL A   1      37.007  20.773  24.637  1.00  0.00     0.023 C 
BRANCH  23  24
ATOM     24  C   UNL A   1      38.010  19.656  24.952  1.00  0.00     0.023 C 
BRANCH  24  25
ATOM     25  C   UNL A   1      39.123  20.036  25.925  1.00  0.00     0.116 C 
BRANCH  25  26
ATOM     26  N   UNL A   1      40.225  19.089  25.918  1.00  0.00    -0.352 N 
ATOM     27  C   UNL A   1      41.567  19.325  26.075  1.00  0.00     0.251 C 
ATOM     28  H   UNL A   1      39.973  18.147  25.783  1.00  0.00     0.163 HD
ATOM     29  O   UNL A   1      42.374  18.413  25.922  1.00  0.00    -0.269 OA
BRANCH  27  30
ATOM     30  C   UNL A   1      42.045  20.684  26.401  1.00  0.00     0.039 A 
ATOM     31  C   UNL A   1      42.290  21.574  25.353  1.00  0.00     0.014 A 
ATOM     32  C   UNL A   1      42.276  21.072  27.724  1.00  0.00     0.014 A 
ATOM     33  C   UNL A   1      42.735  22.867  25.631  1.00  0.00     0.010 A 
ATOM     34  C   UNL A   1      42.660  22.381  28.005  1.00  0.00     0.010 A 
ATOM     35  C   UNL A   1      42.910  23.284  26.960  1.00  0.00    -0.014 A 
BRANCH  35  36
ATOM     36  C   UNL A   1      43.401  24.649  27.269  1.00  0.00     0.031 A 
ATOM     37  C   UNL A   1      42.461  25.667  27.852  1.00  0.00     0.074 A 
ATOM     38  C   UNL A   1      44.674  24.984  26.987  1.00  0.00     0.049 A 
ATOM     39  N   UNL A   1      42.680  26.922  28.154  1.00  0.00    -0.248 NA
ATOM     40  C   UNL A   1      41.081  25.222  28.104  1.00  0.00     0.031 C 
ATOM     41  C   UNL A   1      45.665  24.099  26.376  1.00  0.00     0.029 A 
ATOM     42  N   UNL A   1      45.347  26.164  27.173  1.00  0.00    -0.354 N 
ATOM     43  C   UNL A   1      41.466  27.418  28.610  1.00  0.00     0.074 A 
ATOM     44  C   UNL A   1      40.502  26.345  28.500  1.00  0.00     0.031 C 
ATOM     45  C   UNL A   1      46.828  24.761  26.257  1.00  0.00     0.029 A 
ATOM     46  C   UNL A   1      46.657  26.120  26.761  1.00  0.00     0.049 A 
ATOM     47  H   UNL A   1      44.933  26.966  27.565  1.00  0.00     0.167 HD
ATOM     48  C   UNL A   1      41.186  28.650  29.098  1.00  0.00     0.037 A 
ATOM     49  C   UNL A   1      47.609  27.071  26.794  1.00  0.00     0.037 A 
ATOM     50  C   UNL A   1      42.155  29.703  29.239  1.00  0.00     0.049 A 
ATOM     51  C   UNL A   1      47.284  28.417  27.382  1.00  0.00     0.074 A 
ATOM     52  C   UNL A   1      41.984  30.973  29.762  1.00  0.00     0.029 A 
ATOM     53  N   UNL A   1      43.486  29.603  28.861  1.00  0.00    -0.354 N 
ATOM     54  N   UNL A   1      46.147  28.858  27.863  1.00  0.00    -0.248 NA
ATOM     55  C   UNL A   1      48.381  29.393  27.446  1.00  0.00     0.031 C 
ATOM     56  C   UNL A   1      43.206  31.650  29.676  1.00  0.00     0.029 A 
ATOM     57  C   UNL A   1      44.147  30.788  29.138  1.00  0.00     0.049 A 
ATOM     58  H   UNL A   1      43.900  28.806  28.455  1.00  0.00     0.167 HD
ATOM     59  C   UNL A   1      46.399  30.144  28.320  1.00  0.00     0.074 A 
ATOM     60  C   UNL A   1      47.799  30.410  28.065  1.00  0.00     0.031 C 
ATOM     61  C   UNL A   1      45.547  31.025  28.898  1.00  0.00     0.037 A 
BRANCH  48  62
ATOM     62  C   UNL A   1      39.771  28.917  29.521  1.00  0.00     0.064 A 
ATOM     63  C   UNL A   1      38.819  29.420  28.621  1.00  0.00     0.173 A 
ATOM     64  C   UNL A   1      39.356  28.650  30.834  1.00  0.00     0.173 A 
ATOM     65  F   UNL A   1      39.169  29.705  27.358  1.00  0.00    -0.203 F 
ATOM     66  C   UNL A   1      37.513  29.676  29.029  1.00  0.00     0.198 A 
ATOM     67  C   UNL A   1      38.042  28.881  31.230  1.00  0.00     0.198 A 
ATOM     68  F   UNL A   1      40.226  28.165  31.733  1.00  0.00    -0.203 F 
ATOM     69  F   UNL A   1      36.635  30.207  28.166  1.00  0.00    -0.200 F 
ATOM     70  C   UNL A   1      37.123  29.401  30.331  1.00  0.00     0.200 A 
ATOM     71  F   UNL A   1      37.664  28.606  32.486  1.00  0.00    -0.200 F 
ATOM     72  F   UNL A   1      35.865  29.648  30.722  1.00  0.00    -0.200 F 
ENDBRANCH  48  62
BRANCH  49  73
ATOM     73  C   UNL A   1      48.977  26.765  26.304  1.00  0.00     0.064 A 
ATOM     74  C   UNL A   1      49.943  26.224  27.164  1.00  0.00     0.173 A 
ATOM     75  C   UNL A   1      49.349  27.011  24.974  1.00  0.00     0.173 A 
ATOM     76  F   UNL A   1      49.639  25.990  28.448  1.00  0.00    -0.203 F 
ATOM     77  C   UNL A   1      51.236  25.959  26.718  1.00  0.00     0.198 A 
ATOM     78  C   UNL A   1      50.636  26.723  24.524  1.00  0.00     0.198 A 
ATOM     79  F   UNL A   1      48.459  27.523  24.111  1.00  0.00    -0.203 F 
ATOM     80  F   UNL A   1      52.152  25.482  27.571  1.00  0.00    -0.200 F 
ATOM     81  C   UNL A   1      51.579  26.204  25.397  1.00  0.00     0.200 A 
ATOM     82  F   UNL A   1      50.961  26.949  23.243  1.00  0.00    -0.200 F 
ATOM     83  F   UNL A   1      52.823  25.949  24.968  1.00  0.00    -0.200 F 
ENDBRANCH  49  73
BRANCH  61  84
ATOM     84  C   UNL A   1      46.119  32.337  29.347  1.00  0.00     0.064 A 
ATOM     85  C   UNL A   1      46.137  33.460  28.508  1.00  0.00     0.173 A 
ATOM     86  C   UNL A   1      46.628  32.476  30.647  1.00  0.00     0.173 A 
ATOM     87  F   UNL A   1      45.674  33.372  27.253  1.00  0.00    -0.203 F 
ATOM     88  C   UNL A   1      46.672  34.668  28.946  1.00  0.00     0.198 A 
ATOM     89  C   UNL A   1      47.137  33.693  31.089  1.00  0.00     0.198 A 
ATOM     90  F   UNL A   1      46.627  31.432  31.490  1.00  0.00    -0.203 F 
ATOM     91  F   UNL A   1      46.724  35.716  28.112  1.00  0.00    -0.200 F 
ATOM     92  C   UNL A   1      47.167  34.786  30.236  1.00  0.00     0.200 A 
ATOM     93  F   UNL A   1      47.605  33.808  32.340  1.00  0.00    -0.200 F 
ATOM     94  F   UNL A   1      47.679  35.952  30.656  1.00  0.00    -0.200 F 
ENDBRANCH  61  84
ENDBRANCH  35  36
ENDBRANCH  27  30
ENDBRANCH  25  26
ENDBRANCH  24  25
ENDBRANCH  23  24
ENDBRANCH   1  23
TORSDOF 15
ENDMDL
