MODEL 1
REMARK VINA RESULT:     -13.0      0.000      0.000
REMARK SMILES O=C(C[C@H](Cc1ccc(Cl)cc1)C(=O)Nc1cc(Cl)ccc1Cl)NCCCCNC(=O)c1ccc(-c2c3nc(c(-c4c(F)c(F)c(F)c(F)c4F)c4ccc([nH]4)c(-c4c(F)c(F)c(F)c(F)c4F)c4nc(c(-c5c(F)c(F)c(F)c(F)c5F)c5ccc2[nH]5)C=C4)C=C3)cc1
REMARK SMILES IDX 26 1 25 2 24 3 1 4 2 5 3 7 4 8 13 9 14 10 15 11 16 13 17 14
REMARK SMILES IDX 22 15 18 16 21 17 23 18 19 19 20 20 5 21 6 22 7 23 12 24
REMARK SMILES IDX 8 25 11 26 9 27 10 28 27 29 28 30 29 31 30 32 31 34 32 35
REMARK SMILES IDX 33 36 94 37 34 38 93 39 35 40 36 41 37 42 87 43 38 44 92 45
REMARK SMILES IDX 86 46 88 47 39 48 91 49 85 50 84 51 40 53 72 54 52 55 71 56
REMARK SMILES IDX 53 57 56 58 70 59 89 60 54 61 55 62 69 64 90 65 57 66 41 67
REMARK SMILES IDX 42 68 50 69 43 70 44 71 48 72 51 73 45 74 46 75 49 76 47 77
REMARK SMILES IDX 73 78 74 79 82 80 75 81 76 82 80 83 83 84 77 85 78 86 81 87
REMARK SMILES IDX 79 88 58 89 59 90 67 91 60 92 61 93 65 94 68 95 62 96 63 97
REMARK SMILES IDX 66 98 64 99
REMARK H PARENT 24 6 15 12 29 33 88 52 56 63
REMARK Flexibility Score: inf
ROOT
ATOM      1  C   UNL A   1      31.472  30.592  26.436  1.00  0.00     0.023 C 
ENDROOT
BRANCH   1   2
ATOM      2  C   UNL A   1      32.807  29.914  26.746  1.00  0.00     0.116 C 
BRANCH   2   3
ATOM      3  N   UNL A   1      32.856  28.557  26.236  1.00  0.00    -0.356 N 
ATOM      4  O   UNL A   1      31.743  27.706  28.033  1.00  0.00    -0.275 OA
ATOM      5  C   UNL A   1      32.306  27.531  26.955  1.00  0.00     0.220 C 
ATOM      6  H   UNL A   1      33.287  28.374  25.370  1.00  0.00     0.163 HD
BRANCH   5   7
ATOM      7  C   UNL A   1      32.526  26.144  26.403  1.00  0.00     0.113 C 
BRANCH   7   8
ATOM      8  C   UNL A   1      31.331  25.368  25.803  1.00  0.00     0.092 C 
BRANCH   8   9
ATOM      9  C   UNL A   1      31.404  23.911  26.499  1.00  0.00     0.228 C 
ATOM     10  O   UNL A   1      30.794  23.738  27.562  1.00  0.00    -0.274 OA
ATOM     11  N   UNL A   1      31.957  22.785  25.867  1.00  0.00    -0.324 N 
ATOM     12  H   UNL A   1      31.506  21.920  25.991  1.00  0.00     0.169 HD
BRANCH  11  13
ATOM     13  C   UNL A   1      33.114  22.813  25.069  1.00  0.00     0.061 A 
ATOM     14  C   UNL A   1      34.493  22.258  25.955  1.00  0.00     0.048 A 
ATOM     15  C   UNL A   1      33.396  23.468  23.476  1.00  0.00     0.064 A 
ATOM     16  C   UNL A   1      36.380  22.464  25.276  1.00  0.00     0.043 A 
ATOM     17  C   UNL A   1      35.038  23.655  22.757  1.00  0.00     0.024 A 
ATOM     18  Cl  UNL A   1      32.054  24.101  22.598  1.00  0.00    -0.082 Cl
ATOM     19  Cl  UNL A   1      38.041  22.112  25.871  1.00  0.00    -0.084 Cl
ATOM     20  C   UNL A   1      36.539  23.177  23.609  1.00  0.00     0.022 A 
ENDBRANCH  11  13
ENDBRANCH   8   9
BRANCH   8  21
ATOM     21  C   UNL A   1      29.949  26.164  25.397  1.00  0.00     0.049 C 
BRANCH  21  22
ATOM     22  C   UNL A   1      29.578  26.503  23.811  1.00  0.00    -0.047 A 
ATOM     23  C   UNL A   1      27.836  26.951  23.634  1.00  0.00     0.005 A 
ATOM     24  C   UNL A   1      30.881  27.572  23.365  1.00  0.00     0.005 A 
ATOM     25  C   UNL A   1      27.304  28.613  23.264  1.00  0.00     0.021 A 
ATOM     26  C   UNL A   1      30.503  29.282  23.077  1.00  0.00     0.021 A 
ATOM     27  C   UNL A   1      28.572  29.895  23.030  1.00  0.00     0.041 A 
ATOM     28  Cl  UNL A   1      27.634  31.439  22.820  1.00  0.00    -0.084 Cl
ENDBRANCH  21  22
ENDBRANCH   8  21
ENDBRANCH   7   8
ENDBRANCH   5   7
ENDBRANCH   2   3
ENDBRANCH   1   2
BRANCH   1  29
ATOM     29  C   UNL A   1      31.536  32.120  26.428  1.00  0.00     0.023 C 
BRANCH  29  30
ATOM     30  C   UNL A   1      32.556  32.714  27.390  1.00  0.00     0.116 C 
BRANCH  30  31
ATOM     31  N   UNL A   1      32.335  34.130  27.634  1.00  0.00    -0.352 N 
ATOM     32  C   UNL A   1      32.954  34.957  28.540  1.00  0.00     0.251 C 
ATOM     33  H   UNL A   1      31.647  34.555  27.074  1.00  0.00     0.163 HD
ATOM     34  O   UNL A   1      32.524  36.088  28.742  1.00  0.00    -0.269 OA
BRANCH  32  35
ATOM     35  C   UNL A   1      34.126  34.466  29.296  1.00  0.00     0.039 A 
ATOM     36  C   UNL A   1      33.925  33.892  30.552  1.00  0.00     0.014 A 
ATOM     37  C   UNL A   1      35.414  34.552  28.759  1.00  0.00     0.014 A 
ATOM     38  C   UNL A   1      35.009  33.345  31.240  1.00  0.00     0.010 A 
ATOM     39  C   UNL A   1      36.474  33.920  29.400  1.00  0.00     0.010 A 
ATOM     40  C   UNL A   1      36.285  33.313  30.651  1.00  0.00    -0.014 A 
BRANCH  40  41
ATOM     41  C   UNL A   1      37.425  32.643  31.329  1.00  0.00     0.031 A 
ATOM     42  C   UNL A   1      38.127  31.485  30.675  1.00  0.00     0.074 A 
ATOM     43  C   UNL A   1      37.801  33.050  32.557  1.00  0.00     0.049 A 
ATOM     44  N   UNL A   1      39.111  30.750  31.128  1.00  0.00    -0.248 NA
ATOM     45  C   UNL A   1      37.644  31.084  29.343  1.00  0.00     0.031 C 
ATOM     46  C   UNL A   1      37.175  34.134  33.315  1.00  0.00     0.029 A 
ATOM     47  N   UNL A   1      38.797  32.597  33.387  1.00  0.00    -0.354 N 
ATOM     48  C   UNL A   1      39.362  29.804  30.143  1.00  0.00     0.074 A 
ATOM     49  C   UNL A   1      38.382  30.012  29.100  1.00  0.00     0.031 C 
ATOM     50  C   UNL A   1      37.820  34.284  34.482  1.00  0.00     0.029 A 
ATOM     51  C   UNL A   1      38.867  33.272  34.582  1.00  0.00     0.049 A 
ATOM     52  H   UNL A   1      39.404  31.860  33.148  1.00  0.00     0.167 HD
ATOM     53  C   UNL A   1      40.338  28.866  30.100  1.00  0.00     0.037 A 
ATOM     54  C   UNL A   1      39.670  33.084  35.647  1.00  0.00     0.037 A 
ATOM     55  C   UNL A   1      41.307  28.660  31.146  1.00  0.00     0.049 A 
ATOM     56  C   UNL A   1      40.708  31.995  35.599  1.00  0.00     0.074 A 
ATOM     57  C   UNL A   1      42.356  27.759  31.181  1.00  0.00     0.029 A 
ATOM     58  N   UNL A   1      41.334  29.352  32.349  1.00  0.00    -0.354 N 
ATOM     59  N   UNL A   1      40.980  31.151  34.633  1.00  0.00    -0.248 NA
ATOM     60  C   UNL A   1      41.558  31.838  36.788  1.00  0.00     0.031 C 
ATOM     61  C   UNL A   1      42.967  27.848  32.435  1.00  0.00     0.029 A 
ATOM     62  C   UNL A   1      42.361  28.869  33.147  1.00  0.00     0.049 A 
ATOM     63  H   UNL A   1      40.718  30.078  32.597  1.00  0.00     0.167 HD
ATOM     64  C   UNL A   1      42.050  30.388  35.083  1.00  0.00     0.074 A 
ATOM     65  C   UNL A   1      42.390  30.882  36.400  1.00  0.00     0.031 C 
ATOM     66  C   UNL A   1      42.694  29.370  34.458  1.00  0.00     0.037 A 
BRANCH  53  67
ATOM     67  C   UNL A   1      40.396  27.979  28.888  1.00  0.00     0.064 A 
ATOM     68  C   UNL A   1      39.710  26.755  28.831  1.00  0.00     0.173 A 
ATOM     69  C   UNL A   1      41.121  28.371  27.752  1.00  0.00     0.173 A 
ATOM     70  F   UNL A   1      39.005  26.325  29.889  1.00  0.00    -0.203 F 
ATOM     71  C   UNL A   1      39.784  25.940  27.703  1.00  0.00     0.198 A 
ATOM     72  C   UNL A   1      41.157  27.576  26.610  1.00  0.00     0.198 A 
ATOM     73  F   UNL A   1      41.789  29.535  27.744  1.00  0.00    -0.203 F 
ATOM     74  F   UNL A   1      39.176  24.746  27.701  1.00  0.00    -0.200 F 
ATOM     75  C   UNL A   1      40.500  26.356  26.591  1.00  0.00     0.200 A 
ATOM     76  F   UNL A   1      41.832  27.989  25.528  1.00  0.00    -0.200 F 
ATOM     77  F   UNL A   1      40.564  25.575  25.504  1.00  0.00    -0.200 F 
ENDBRANCH  53  67
BRANCH  54  78
ATOM     78  C   UNL A   1      39.520  33.944  36.853  1.00  0.00     0.064 A 
ATOM     79  C   UNL A   1      40.147  35.195  36.936  1.00  0.00     0.173 A 
ATOM     80  C   UNL A   1      38.759  33.525  37.955  1.00  0.00     0.173 A 
ATOM     81  F   UNL A   1      40.902  35.635  35.918  1.00  0.00    -0.203 F 
ATOM     82  C   UNL A   1      40.047  35.977  38.086  1.00  0.00     0.198 A 
ATOM     83  C   UNL A   1      38.625  34.325  39.086  1.00  0.00     0.198 A 
ATOM     84  F   UNL A   1      38.131  32.339  37.926  1.00  0.00    -0.203 F 
ATOM     85  F   UNL A   1      40.710  37.138  38.163  1.00  0.00    -0.200 F 
ATOM     86  C   UNL A   1      39.280  35.545  39.156  1.00  0.00     0.200 A 
ATOM     87  F   UNL A   1      37.864  33.912  40.109  1.00  0.00    -0.200 F 
ATOM     88  F   UNL A   1      39.179  36.298  40.259  1.00  0.00    -0.200 F 
ENDBRANCH  54  78
BRANCH  66  89
ATOM     89  C   UNL A   1      43.868  28.751  35.167  1.00  0.00     0.064 A 
ATOM     90  C   UNL A   1      45.176  29.234  35.006  1.00  0.00     0.173 A 
ATOM     91  C   UNL A   1      43.673  27.677  36.050  1.00  0.00     0.173 A 
ATOM     92  F   UNL A   1      45.423  30.252  34.167  1.00  0.00    -0.203 F 
ATOM     93  C   UNL A   1      46.246  28.642  35.673  1.00  0.00     0.198 A 
ATOM     94  C   UNL A   1      44.739  27.116  36.748  1.00  0.00     0.198 A 
ATOM     95  F   UNL A   1      42.444  27.180  36.251  1.00  0.00    -0.203 F 
ATOM     96  F   UNL A   1      47.494  29.078  35.452  1.00  0.00    -0.200 F 
ATOM     97  C   UNL A   1      46.025  27.590  36.550  1.00  0.00     0.200 A 
ATOM     98  F   UNL A   1      44.518  26.118  37.614  1.00  0.00    -0.200 F 
ATOM     99  F   UNL A   1      47.055  27.029  37.199  1.00  0.00    -0.200 F 
ENDBRANCH  66  89
ENDBRANCH  40  41
ENDBRANCH  32  35
ENDBRANCH  30  31
ENDBRANCH  29  30
ENDBRANCH   1  29
TORSDOF 16
ENDMDL
MODEL 2
REMARK VINA RESULT:     -12.7      5.516     10.874
REMARK SMILES O=C(C[C@H](Cc1ccc(Cl)cc1)C(=O)Nc1cc(Cl)ccc1Cl)NCCCCNC(=O)c1ccc(-c2c3nc(c(-c4c(F)c(F)c(F)c(F)c4F)c4ccc([nH]4)c(-c4c(F)c(F)c(F)c(F)c4F)c4nc(c(-c5c(F)c(F)c(F)c(F)c5F)c5ccc2[nH]5)C=C4)C=C3)cc1
REMARK SMILES IDX 26 1 25 2 24 3 1 4 2 5 3 7 4 8 13 9 14 10 15 11 16 13 17 14
REMARK SMILES IDX 22 15 18 16 21 17 23 18 19 19 20 20 5 21 6 22 7 23 12 24
REMARK SMILES IDX 8 25 11 26 9 27 10 28 27 29 28 30 29 31 30 32 31 34 32 35
REMARK SMILES IDX 33 36 94 37 34 38 93 39 35 40 36 41 37 42 87 43 38 44 92 45
REMARK SMILES IDX 86 46 88 47 39 48 91 49 85 50 84 51 40 53 72 54 52 55 71 56
REMARK SMILES IDX 53 57 56 58 70 59 89 60 54 61 55 62 69 64 90 65 57 66 41 67
REMARK SMILES IDX 42 68 50 69 43 70 44 71 48 72 51 73 45 74 46 75 49 76 47 77
REMARK SMILES IDX 73 78 74 79 82 80 75 81 76 82 80 83 83 84 77 85 78 86 81 87
REMARK SMILES IDX 79 88 58 89 59 90 67 91 60 92 61 93 65 94 68 95 62 96 63 97
REMARK SMILES IDX 66 98 64 99
REMARK H PARENT 24 6 15 12 29 33 88 52 56 63
REMARK Flexibility Score: inf
ROOT
ATOM      1  C   UNL A   1      36.929  20.847  24.990  1.00  0.00     0.023 C 
ENDROOT
BRANCH   1   2
ATOM      2  C   UNL A   1      35.533  20.225  25.030  1.00  0.00     0.116 C 
BRANCH   2   3
ATOM      3  N   UNL A   1      34.636  20.963  25.898  1.00  0.00    -0.356 N 
ATOM      4  O   UNL A   1      32.824  20.562  24.576  1.00  0.00    -0.275 OA
ATOM      5  C   UNL A   1      33.310  21.079  25.579  1.00  0.00     0.220 C 
ATOM      6  H   UNL A   1      34.982  21.383  26.718  1.00  0.00     0.163 HD
BRANCH   5   7
ATOM      7  C   UNL A   1      32.490  21.976  26.474  1.00  0.00     0.113 C 
BRANCH   7   8
ATOM      8  C   UNL A   1      32.244  23.444  26.055  1.00  0.00     0.092 C 
BRANCH   8   9
ATOM      9  C   UNL A   1      30.697  23.719  26.436  1.00  0.00     0.228 C 
ATOM     10  O   UNL A   1      29.969  22.747  26.670  1.00  0.00    -0.274 OA
ATOM     11  N   UNL A   1      30.189  25.001  26.704  1.00  0.00    -0.324 N 
ATOM     12  H   UNL A   1      29.535  25.093  27.433  1.00  0.00     0.169 HD
BRANCH  11  13
ATOM     13  C   UNL A   1      30.553  26.161  25.998  1.00  0.00     0.061 A 
ATOM     14  C   UNL A   1      31.468  27.234  27.000  1.00  0.00     0.048 A 
ATOM     15  C   UNL A   1      30.087  26.742  24.420  1.00  0.00     0.064 A 
ATOM     16  C   UNL A   1      31.885  29.134  26.467  1.00  0.00     0.043 A 
ATOM     17  C   UNL A   1      30.447  28.405  23.828  1.00  0.00     0.024 A 
ATOM     18  Cl  UNL A   1      29.109  25.726  23.427  1.00  0.00    -0.082 Cl
ATOM     19  Cl  UNL A   1      32.706  30.559  27.198  1.00  0.00    -0.084 Cl
ATOM     20  C   UNL A   1      31.328  29.620  24.805  1.00  0.00     0.022 A 
ENDBRANCH  11  13
ENDBRANCH   8   9
BRANCH   8  21
ATOM     21  C   UNL A   1      33.462  24.546  26.153  1.00  0.00     0.049 C 
BRANCH  21  22
ATOM     22  C   UNL A   1      34.485  24.824  24.871  1.00  0.00    -0.047 A 
ATOM     23  C   UNL A   1      34.245  23.593  23.569  1.00  0.00     0.005 A 
ATOM     24  C   UNL A   1      34.265  26.534  24.610  1.00  0.00     0.005 A 
ATOM     25  C   UNL A   1      33.490  23.987  22.002  1.00  0.00     0.021 A 
ATOM     26  C   UNL A   1      33.426  27.058  23.136  1.00  0.00     0.021 A 
ATOM     27  C   UNL A   1      32.971  25.704  21.699  1.00  0.00     0.041 A 
ATOM     28  Cl  UNL A   1      32.137  25.655  20.083  1.00  0.00    -0.084 Cl
ENDBRANCH  21  22
ENDBRANCH   8  21
ENDBRANCH   7   8
ENDBRANCH   5   7
ENDBRANCH   2   3
ENDBRANCH   1   2
BRANCH   1  29
ATOM     29  C   UNL A   1      38.067  19.825  24.975  1.00  0.00     0.023 C 
BRANCH  29  30
ATOM     30  C   UNL A   1      39.268  20.205  25.830  1.00  0.00     0.116 C 
BRANCH  30  31
ATOM     31  N   UNL A   1      40.247  19.135  25.926  1.00  0.00    -0.352 N 
ATOM     32  C   UNL A   1      41.605  19.221  26.117  1.00  0.00     0.251 C 
ATOM     33  H   UNL A   1      39.888  18.222  25.844  1.00  0.00     0.163 HD
ATOM     34  O   UNL A   1      42.313  18.227  25.995  1.00  0.00    -0.269 OA
BRANCH  32  35
ATOM     35  C   UNL A   1      42.216  20.528  26.439  1.00  0.00     0.039 A 
ATOM     36  C   UNL A   1      42.727  21.308  25.400  1.00  0.00     0.014 A 
ATOM     37  C   UNL A   1      42.266  20.992  27.757  1.00  0.00     0.014 A 
ATOM     38  C   UNL A   1      43.228  22.580  25.678  1.00  0.00     0.010 A 
ATOM     39  C   UNL A   1      42.672  22.296  28.017  1.00  0.00     0.010 A 
ATOM     40  C   UNL A   1      43.163  23.105  26.980  1.00  0.00    -0.014 A 
BRANCH  40  41
ATOM     41  C   UNL A   1      43.599  24.496  27.269  1.00  0.00     0.031 A 
ATOM     42  C   UNL A   1      42.614  25.514  27.772  1.00  0.00     0.074 A 
ATOM     43  C   UNL A   1      44.876  24.855  27.034  1.00  0.00     0.049 A 
ATOM     44  N   UNL A   1      42.797  26.783  28.040  1.00  0.00    -0.248 NA
ATOM     45  C   UNL A   1      41.232  25.051  27.983  1.00  0.00     0.031 C 
ATOM     46  C   UNL A   1      45.918  23.973  26.507  1.00  0.00     0.029 A 
ATOM     47  N   UNL A   1      45.515  26.059  27.202  1.00  0.00    -0.354 N 
ATOM     48  C   UNL A   1      41.561  27.267  28.446  1.00  0.00     0.074 A 
ATOM     49  C   UNL A   1      40.620  26.175  28.322  1.00  0.00     0.031 C 
ATOM     50  C   UNL A   1      47.072  24.653  26.427  1.00  0.00     0.029 A 
ATOM     51  C   UNL A   1      46.840  26.034  26.840  1.00  0.00     0.049 A 
ATOM     52  H   UNL A   1      45.067  26.863  27.551  1.00  0.00     0.167 HD
ATOM     53  C   UNL A   1      41.245  28.501  28.905  1.00  0.00     0.037 A 
ATOM     54  C   UNL A   1      47.761  27.017  26.821  1.00  0.00     0.037 A 
ATOM     55  C   UNL A   1      42.186  29.586  29.020  1.00  0.00     0.049 A 
ATOM     56  C   UNL A   1      47.370  28.396  27.281  1.00  0.00     0.074 A 
ATOM     57  C   UNL A   1      41.972  30.862  29.507  1.00  0.00     0.029 A 
ATOM     58  N   UNL A   1      43.515  29.526  28.626  1.00  0.00    -0.354 N 
ATOM     59  N   UNL A   1      46.214  28.824  27.728  1.00  0.00    -0.248 NA
ATOM     60  C   UNL A   1      48.416  29.428  27.243  1.00  0.00     0.031 C 
ATOM     61  C   UNL A   1      43.146  31.599  29.332  1.00  0.00     0.029 A 
ATOM     62  C   UNL A   1      44.122  30.758  28.825  1.00  0.00     0.049 A 
ATOM     63  H   UNL A   1      43.961  28.728  28.261  1.00  0.00     0.167 HD
ATOM     64  C   UNL A   1      46.402  30.161  28.053  1.00  0.00     0.074 A 
ATOM     65  C   UNL A   1      47.787  30.468  27.772  1.00  0.00     0.031 C 
ATOM     66  C   UNL A   1      45.505  31.053  28.544  1.00  0.00     0.037 A 
BRANCH  53  67
ATOM     67  C   UNL A   1      39.817  28.749  29.305  1.00  0.00     0.064 A 
ATOM     68  C   UNL A   1      39.359  28.504  30.610  1.00  0.00     0.173 A 
ATOM     69  C   UNL A   1      38.899  29.272  28.381  1.00  0.00     0.173 A 
ATOM     70  F   UNL A   1      40.190  27.999  31.535  1.00  0.00    -0.203 F 
ATOM     71  C   UNL A   1      38.029  28.730  30.960  1.00  0.00     0.198 A 
ATOM     72  C   UNL A   1      37.582  29.538  28.745  1.00  0.00     0.198 A 
ATOM     73  F   UNL A   1      39.282  29.536  27.122  1.00  0.00    -0.203 F 
ATOM     74  F   UNL A   1      37.602  28.423  32.192  1.00  0.00    -0.200 F 
ATOM     75  C   UNL A   1      37.145  29.255  30.030  1.00  0.00     0.200 A 
ATOM     76  F   UNL A   1      36.735  30.066  27.851  1.00  0.00    -0.200 F 
ATOM     77  F   UNL A   1      35.868  29.479  30.370  1.00  0.00    -0.200 F 
ENDBRANCH  53  67
BRANCH  54  78
ATOM     78  C   UNL A   1      49.143  26.734  26.345  1.00  0.00     0.064 A 
ATOM     79  C   UNL A   1      49.509  26.946  25.008  1.00  0.00     0.173 A 
ATOM     80  C   UNL A   1      50.122  26.231  27.214  1.00  0.00     0.173 A 
ATOM     81  F   UNL A   1      48.605  27.409  24.131  1.00  0.00    -0.203 F 
ATOM     82  C   UNL A   1      50.789  26.633  24.553  1.00  0.00     0.198 A 
ATOM     83  C   UNL A   1      51.413  25.959  26.768  1.00  0.00     0.198 A 
ATOM     84  F   UNL A   1      49.828  26.016  28.505  1.00  0.00    -0.203 F 
ATOM     85  F   UNL A   1      51.091  26.784  23.257  1.00  0.00    -0.200 F 
ATOM     86  C   UNL A   1      51.741  26.147  25.435  1.00  0.00     0.200 A 
ATOM     87  F   UNL A   1      52.336  25.509  27.629  1.00  0.00    -0.200 F 
ATOM     88  F   UNL A   1      52.973  25.852  24.999  1.00  0.00    -0.200 F 
ENDBRANCH  54  78
BRANCH  66  89
ATOM     89  C   UNL A   1      46.003  32.438  28.859  1.00  0.00     0.064 A 
ATOM     90  C   UNL A   1      45.954  33.480  27.921  1.00  0.00     0.173 A 
ATOM     91  C   UNL A   1      46.505  32.733  30.137  1.00  0.00     0.173 A 
ATOM     92  F   UNL A   1      45.493  33.253  26.682  1.00  0.00    -0.203 F 
ATOM     93  C   UNL A   1      46.423  34.753  28.238  1.00  0.00     0.198 A 
ATOM     94  C   UNL A   1      46.932  34.017  30.464  1.00  0.00     0.198 A 
ATOM     95  F   UNL A   1      46.568  31.779  31.078  1.00  0.00    -0.203 F 
ATOM     96  F   UNL A   1      46.426  35.715  27.305  1.00  0.00    -0.200 F 
ATOM     97  C   UNL A   1      46.902  35.023  29.512  1.00  0.00     0.200 A 
ATOM     98  F   UNL A   1      47.371  34.280  31.703  1.00  0.00    -0.200 F 
ATOM     99  F   UNL A   1      47.343  36.251  29.818  1.00  0.00    -0.200 F 
ENDBRANCH  66  89
ENDBRANCH  40  41
ENDBRANCH  32  35
ENDBRANCH  30  31
ENDBRANCH  29  30
ENDBRANCH   1  29
TORSDOF 16
ENDMDL
MODEL 3
REMARK VINA RESULT:     -12.7      1.534      2.543
REMARK SMILES O=C(C[C@H](Cc1ccc(Cl)cc1)C(=O)Nc1cc(Cl)ccc1Cl)NCCCCNC(=O)c1ccc(-c2c3nc(c(-c4c(F)c(F)c(F)c(F)c4F)c4ccc([nH]4)c(-c4c(F)c(F)c(F)c(F)c4F)c4nc(c(-c5c(F)c(F)c(F)c(F)c5F)c5ccc2[nH]5)C=C4)C=C3)cc1
REMARK SMILES IDX 26 1 25 2 24 3 1 4 2 5 3 7 4 8 13 9 14 10 15 11 16 13 17 14
REMARK SMILES IDX 22 15 18 16 21 17 23 18 19 19 20 20 5 21 6 22 7 23 12 24
REMARK SMILES IDX 8 25 11 26 9 27 10 28 27 29 28 30 29 31 30 32 31 34 32 35
REMARK SMILES IDX 33 36 94 37 34 38 93 39 35 40 36 41 37 42 87 43 38 44 92 45
REMARK SMILES IDX 86 46 88 47 39 48 91 49 85 50 84 51 40 53 72 54 52 55 71 56
REMARK SMILES IDX 53 57 56 58 70 59 89 60 54 61 55 62 69 64 90 65 57 66 41 67
REMARK SMILES IDX 42 68 50 69 43 70 44 71 48 72 51 73 45 74 46 75 49 76 47 77
REMARK SMILES IDX 73 78 74 79 82 80 75 81 76 82 80 83 83 84 77 85 78 86 81 87
REMARK SMILES IDX 79 88 58 89 59 90 67 91 60 92 61 93 65 94 68 95 62 96 63 97
REMARK SMILES IDX 66 98 64 99
REMARK H PARENT 24 6 15 12 29 33 88 52 56 63
REMARK Flexibility Score: inf
ROOT
ATOM      1  C   UNL A   1      31.778  30.193  25.722  1.00  0.00     0.023 C 
ENDROOT
BRANCH   1   2
ATOM      2  C   UNL A   1      31.998  28.916  26.534  1.00  0.00     0.116 C 
BRANCH   2   3
ATOM      3  N   UNL A   1      31.058  27.873  26.169  1.00  0.00    -0.356 N 
ATOM      4  O   UNL A   1      32.574  26.209  26.518  1.00  0.00    -0.275 OA
ATOM      5  C   UNL A   1      31.445  26.561  26.186  1.00  0.00     0.220 C 
ATOM      6  H   UNL A   1      30.140  28.111  25.908  1.00  0.00     0.163 HD
BRANCH   5   7
ATOM      7  C   UNL A   1      30.437  25.567  25.664  1.00  0.00     0.113 C 
BRANCH   7   8
ATOM      8  C   UNL A   1      30.924  24.199  25.135  1.00  0.00     0.092 C 
BRANCH   8   9
ATOM      9  C   UNL A   1      30.706  23.185  26.375  1.00  0.00     0.228 C 
ATOM     10  O   UNL A   1      29.952  23.533  27.291  1.00  0.00    -0.274 OA
ATOM     11  N   UNL A   1      31.172  21.859  26.375  1.00  0.00    -0.324 N 
ATOM     12  H   UNL A   1      30.592  21.168  26.767  1.00  0.00     0.169 HD
BRANCH  11  13
ATOM     13  C   UNL A   1      32.411  21.455  25.848  1.00  0.00     0.061 A 
ATOM     14  C   UNL A   1      32.260  19.966  24.981  1.00  0.00     0.048 A 
ATOM     15  C   UNL A   1      34.022  22.084  26.085  1.00  0.00     0.064 A 
ATOM     16  C   UNL A   1      33.855  18.893  24.370  1.00  0.00     0.043 A 
ATOM     17  C   UNL A   1      35.511  21.228  25.540  1.00  0.00     0.024 A 
ATOM     18  Cl  UNL A   1      34.212  23.526  27.012  1.00  0.00    -0.082 Cl
ATOM     19  Cl  UNL A   1      34.149  17.325  23.539  1.00  0.00    -0.084 Cl
ATOM     20  C   UNL A   1      35.477  19.651  24.693  1.00  0.00     0.022 A 
ENDBRANCH  11  13
ENDBRANCH   8   9
BRANCH   8  21
ATOM     21  C   UNL A   1      30.743  23.815  23.545  1.00  0.00     0.049 C 
BRANCH  21  22
ATOM     22  C   UNL A   1      31.726  24.475  22.376  1.00  0.00    -0.047 A 
ATOM     23  C   UNL A   1      31.243  26.178  22.008  1.00  0.00     0.005 A 
ATOM     24  C   UNL A   1      33.310  24.046  22.964  1.00  0.00     0.005 A 
ATOM     25  C   UNL A   1      32.236  27.582  22.482  1.00  0.00     0.021 A 
ATOM     26  C   UNL A   1      34.360  25.342  23.571  1.00  0.00     0.021 A 
ATOM     27  C   UNL A   1      33.808  27.278  23.345  1.00  0.00     0.041 A 
ATOM     28  Cl  UNL A   1      34.428  28.934  23.770  1.00  0.00    -0.084 Cl
ENDBRANCH  21  22
ENDBRANCH   8  21
ENDBRANCH   7   8
ENDBRANCH   5   7
ENDBRANCH   2   3
ENDBRANCH   1   2
BRANCH   1  29
ATOM     29  C   UNL A   1      31.445  31.421  26.570  1.00  0.00     0.023 C 
BRANCH  29  30
ATOM     30  C   UNL A   1      32.659  32.184  27.080  1.00  0.00     0.116 C 
BRANCH  30  31
ATOM     31  N   UNL A   1      32.371  33.585  27.339  1.00  0.00    -0.352 N 
ATOM     32  C   UNL A   1      32.935  34.427  28.266  1.00  0.00     0.251 C 
ATOM     33  H   UNL A   1      31.674  33.988  26.771  1.00  0.00     0.163 HD
ATOM     34  O   UNL A   1      32.451  35.534  28.476  1.00  0.00    -0.269 OA
BRANCH  32  35
ATOM     35  C   UNL A   1      34.114  33.978  29.037  1.00  0.00     0.039 A 
ATOM     36  C   UNL A   1      33.925  33.115  30.118  1.00  0.00     0.014 A 
ATOM     37  C   UNL A   1      35.402  34.390  28.683  1.00  0.00     0.014 A 
ATOM     38  C   UNL A   1      35.033  32.614  30.801  1.00  0.00     0.010 A 
ATOM     39  C   UNL A   1      36.507  33.812  29.301  1.00  0.00     0.010 A 
ATOM     40  C   UNL A   1      36.335  32.921  30.370  1.00  0.00    -0.014 A 
BRANCH  40  41
ATOM     41  C   UNL A   1      37.522  32.313  31.025  1.00  0.00     0.031 A 
ATOM     42  C   UNL A   1      38.276  31.199  30.354  1.00  0.00     0.074 A 
ATOM     43  C   UNL A   1      37.897  32.735  32.249  1.00  0.00     0.049 A 
ATOM     44  N   UNL A   1      39.307  30.517  30.787  1.00  0.00    -0.248 NA
ATOM     45  C   UNL A   1      37.793  30.777  29.029  1.00  0.00     0.031 C 
ATOM     46  C   UNL A   1      37.225  33.780  33.024  1.00  0.00     0.029 A 
ATOM     47  N   UNL A   1      38.931  32.334  33.060  1.00  0.00    -0.354 N 
ATOM     48  C   UNL A   1      39.593  29.591  29.792  1.00  0.00     0.074 A 
ATOM     49  C   UNL A   1      38.585  29.748  28.767  1.00  0.00     0.031 C 
ATOM     50  C   UNL A   1      37.880  33.961  34.180  1.00  0.00     0.029 A 
ATOM     51  C   UNL A   1      38.984  33.007  34.257  1.00  0.00     0.049 A 
ATOM     52  H   UNL A   1      39.573  31.633  32.806  1.00  0.00     0.167 HD
ATOM     53  C   UNL A   1      40.618  28.708  29.729  1.00  0.00     0.037 A 
ATOM     54  C   UNL A   1      39.813  32.860  35.307  1.00  0.00     0.037 A 
ATOM     55  C   UNL A   1      41.615  28.552  30.756  1.00  0.00     0.049 A 
ATOM     56  C   UNL A   1      40.910  31.830  35.236  1.00  0.00     0.074 A 
ATOM     57  C   UNL A   1      42.713  27.711  30.769  1.00  0.00     0.029 A 
ATOM     58  N   UNL A   1      41.625  29.239  31.962  1.00  0.00    -0.354 N 
ATOM     59  N   UNL A   1      41.211  31.006  34.261  1.00  0.00    -0.248 NA
ATOM     60  C   UNL A   1      41.787  31.715  36.409  1.00  0.00     0.031 C 
ATOM     61  C   UNL A   1      43.339  27.828  32.012  1.00  0.00     0.029 A 
ATOM     62  C   UNL A   1      42.690  28.811  32.741  1.00  0.00     0.049 A 
ATOM     63  H   UNL A   1      40.974  29.929  32.224  1.00  0.00     0.167 HD
ATOM     64  C   UNL A   1      42.329  30.302  34.689  1.00  0.00     0.074 A 
ATOM     65  C   UNL A   1      42.664  30.809  36.002  1.00  0.00     0.031 C 
ATOM     66  C   UNL A   1      43.018  29.325  34.048  1.00  0.00     0.037 A 
BRANCH  53  67
ATOM     67  C   UNL A   1      40.705  27.831  28.511  1.00  0.00     0.064 A 
ATOM     68  C   UNL A   1      40.055  26.587  28.445  1.00  0.00     0.173 A 
ATOM     69  C   UNL A   1      41.420  28.251  27.378  1.00  0.00     0.173 A 
ATOM     70  F   UNL A   1      39.361  26.130  29.499  1.00  0.00    -0.203 F 
ATOM     71  C   UNL A   1      40.154  25.782  27.313  1.00  0.00     0.198 A 
ATOM     72  C   UNL A   1      41.481  27.464  26.232  1.00  0.00     0.198 A 
ATOM     73  F   UNL A   1      42.053  29.435  27.379  1.00  0.00    -0.203 F 
ATOM     74  F   UNL A   1      39.582  24.571  27.302  1.00  0.00    -0.200 F 
ATOM     75  C   UNL A   1      40.860  26.226  26.204  1.00  0.00     0.200 A 
ATOM     76  F   UNL A   1      42.145  27.904  25.154  1.00  0.00    -0.200 F 
ATOM     77  F   UNL A   1      40.948  25.454  25.112  1.00  0.00    -0.200 F 
ENDBRANCH  53  67
BRANCH  54  78
ATOM     78  C   UNL A   1      39.637  33.705  36.520  1.00  0.00     0.064 A 
ATOM     79  C   UNL A   1      38.858  33.270  37.602  1.00  0.00     0.173 A 
ATOM     80  C   UNL A   1      40.232  34.972  36.616  1.00  0.00     0.173 A 
ATOM     81  F   UNL A   1      38.251  32.074  37.554  1.00  0.00    -0.203 F 
ATOM     82  C   UNL A   1      38.653  34.084  38.715  1.00  0.00     0.198 A 
ATOM     83  C   UNL A   1      40.061  35.766  37.746  1.00  0.00     0.198 A 
ATOM     84  F   UNL A   1      40.993  35.434  35.613  1.00  0.00    -0.203 F 
ATOM     85  F   UNL A   1      37.851  33.670  39.705  1.00  0.00    -0.200 F 
ATOM     86  C   UNL A   1      39.261  35.327  38.790  1.00  0.00     0.200 A 
ATOM     87  F   UNL A   1      40.668  36.958  37.822  1.00  0.00    -0.200 F 
ATOM     88  F   UNL A   1      39.068  36.107  39.862  1.00  0.00    -0.200 F 
ENDBRANCH  54  78
BRANCH  66  89
ATOM     89  C   UNL A   1      44.236  28.769  34.733  1.00  0.00     0.064 A 
ATOM     90  C   UNL A   1      44.176  27.637  35.561  1.00  0.00     0.173 A 
ATOM     91  C   UNL A   1      45.493  29.360  34.527  1.00  0.00     0.173 A 
ATOM     92  F   UNL A   1      43.000  27.037  35.801  1.00  0.00    -0.203 F 
ATOM     93  C   UNL A   1      45.319  27.143  36.185  1.00  0.00     0.198 A 
ATOM     94  C   UNL A   1      46.641  28.837  35.117  1.00  0.00     0.198 A 
ATOM     95  F   UNL A   1      45.614  30.438  33.739  1.00  0.00    -0.203 F 
ATOM     96  F   UNL A   1      45.225  26.101  37.023  1.00  0.00    -0.200 F 
ATOM     97  C   UNL A   1      46.551  27.737  35.955  1.00  0.00     0.200 A 
ATOM     98  F   UNL A   1      47.833  29.398  34.873  1.00  0.00    -0.200 F 
ATOM     99  F   UNL A   1      47.652  27.253  36.547  1.00  0.00    -0.200 F 
ENDBRANCH  66  89
ENDBRANCH  40  41
ENDBRANCH  32  35
ENDBRANCH  30  31
ENDBRANCH  29  30
ENDBRANCH   1  29
TORSDOF 16
ENDMDL
