MODEL 1
REMARK VINA RESULT:     -12.6      0.000      0.000
REMARK SMILES O=C(NCCCCNC(=O)[C@@]1(Cc2ccnc3ccccc23)C[C@H]2CC[C@@H]1O2)c1ccc(-c2c3nc(c(-c4c(F)c(F)c(F)c(F)c4F)c4ccc([nH]4)c(-c4c(F)c(F)c(F)c(F)c4F)c4nc(c(-c5c(F)c(F)c(F)c(F)c5F)c5ccc2[nH]5)C=C4)C=C3)cc1
REMARK SMILES IDX 5 1 4 2 3 3 1 4 2 5 29 7 30 8 91 9 31 10 90 11 32 12 33 13
REMARK SMILES IDX 34 14 84 15 35 16 89 17 83 18 85 19 36 20 88 21 82 22 81 23
REMARK SMILES IDX 37 25 69 26 49 27 68 28 50 29 53 30 67 31 86 32 51 33 52 34
REMARK SMILES IDX 66 36 87 37 54 38 38 39 39 40 47 41 40 42 41 43 45 44 48 45
REMARK SMILES IDX 42 46 43 47 46 48 44 49 70 50 71 51 79 52 72 53 73 54 77 55
REMARK SMILES IDX 80 56 74 57 75 58 78 59 76 60 55 61 56 62 64 63 57 64 58 65
REMARK SMILES IDX 62 66 65 67 59 68 60 69 63 70 61 71 6 72 7 73 8 74 9 75
REMARK SMILES IDX 10 77 11 78 23 79 27 80 24 81 26 82 28 83 25 84 12 85 13 86
REMARK SMILES IDX 14 87 22 88 15 89 17 90 21 91 16 92 18 93 20 94 19 95
REMARK H PARENT 3 6 85 24 53 35 8 76
REMARK Flexibility Score: inf
ROOT
ATOM      1  C   UNL A   1      37.666  20.188  24.756  1.00  0.00     0.023 C 
ENDROOT
BRANCH   1   2
ATOM      2  C   UNL A   1      38.773  20.457  25.758  1.00  0.00     0.116 C 
BRANCH   2   3
ATOM      3  N   UNL A   1      39.792  19.421  25.776  1.00  0.00    -0.352 N 
ATOM      4  O   UNL A   1      41.903  18.625  25.961  1.00  0.00    -0.269 OA
ATOM      5  C   UNL A   1      41.123  19.565  26.078  1.00  0.00     0.251 C 
ATOM      6  H   UNL A   1      39.494  18.512  25.545  1.00  0.00     0.163 HD
BRANCH   5   7
ATOM      7  C   UNL A   1      41.606  20.888  26.511  1.00  0.00     0.039 A 
ATOM      8  C   UNL A   1      42.002  21.835  25.564  1.00  0.00     0.014 A 
ATOM      9  C   UNL A   1      41.686  21.165  27.876  1.00  0.00     0.014 A 
ATOM     10  C   UNL A   1      42.570  23.029  25.983  1.00  0.00     0.010 A 
ATOM     11  C   UNL A   1      42.191  22.396  28.297  1.00  0.00     0.010 A 
ATOM     12  C   UNL A   1      42.641  23.331  27.352  1.00  0.00    -0.014 A 
BRANCH  12  13
ATOM     13  C   UNL A   1      43.060  24.686  27.770  1.00  0.00     0.031 A 
ATOM     14  C   UNL A   1      42.055  25.745  28.108  1.00  0.00     0.074 A 
ATOM     15  C   UNL A   1      44.381  24.942  27.820  1.00  0.00     0.049 A 
ATOM     16  N   UNL A   1      42.263  26.991  28.447  1.00  0.00    -0.248 NA
ATOM     17  C   UNL A   1      40.636  25.365  28.052  1.00  0.00     0.031 C 
ATOM     18  C   UNL A   1      45.436  23.980  27.488  1.00  0.00     0.029 A 
ATOM     19  N   UNL A   1      45.065  26.079  28.163  1.00  0.00    -0.354 N 
ATOM     20  C   UNL A   1      41.006  27.552  28.623  1.00  0.00     0.074 A 
ATOM     21  C   UNL A   1      40.037  26.513  28.347  1.00  0.00     0.031 C 
ATOM     22  C   UNL A   1      46.632  24.560  27.658  1.00  0.00     0.029 A 
ATOM     23  C   UNL A   1      46.427  25.949  28.049  1.00  0.00     0.049 A 
ATOM     24  H   UNL A   1      44.624  26.906  28.460  1.00  0.00     0.167 HD
ATOM     25  C   UNL A   1      40.703  28.821  28.985  1.00  0.00     0.037 A 
ATOM     26  C   UNL A   1      47.404  26.859  28.204  1.00  0.00     0.037 A 
ATOM     27  C   UNL A   1      41.683  29.833  29.284  1.00  0.00     0.049 A 
ATOM     28  C   UNL A   1      47.029  28.262  28.580  1.00  0.00     0.074 A 
ATOM     29  C   UNL A   1      41.479  31.120  29.751  1.00  0.00     0.029 A 
ATOM     30  N   UNL A   1      43.053  29.675  29.133  1.00  0.00    -0.354 N 
ATOM     31  N   UNL A   1      45.839  28.762  28.810  1.00  0.00    -0.248 NA
ATOM     32  C   UNL A   1      48.125  29.228  28.706  1.00  0.00     0.031 C 
ATOM     33  C   UNL A   1      42.722  31.758  29.832  1.00  0.00     0.029 A 
ATOM     34  C   UNL A   1      43.703  30.855  29.456  1.00  0.00     0.049 A 
ATOM     35  H   UNL A   1      43.497  28.847  28.840  1.00  0.00     0.167 HD
ATOM     36  C   UNL A   1      46.042  30.100  29.106  1.00  0.00     0.074 A 
ATOM     37  C   UNL A   1      47.472  30.327  29.060  1.00  0.00     0.031 C 
ATOM     38  C   UNL A   1      45.126  31.059  29.383  1.00  0.00     0.037 A 
BRANCH  25  39
ATOM     39  C   UNL A   1      39.257  29.211  29.069  1.00  0.00     0.064 A 
ATOM     40  C   UNL A   1      38.508  29.521  27.926  1.00  0.00     0.173 A 
ATOM     41  C   UNL A   1      38.589  29.169  30.304  1.00  0.00     0.173 A 
ATOM     42  F   UNL A   1      39.103  29.581  26.725  1.00  0.00    -0.203 F 
ATOM     43  C   UNL A   1      37.142  29.779  28.015  1.00  0.00     0.198 A 
ATOM     44  C   UNL A   1      37.219  29.408  30.385  1.00  0.00     0.198 A 
ATOM     45  F   UNL A   1      39.261  28.871  31.426  1.00  0.00    -0.203 F 
ATOM     46  F   UNL A   1      36.447  30.088  26.912  1.00  0.00    -0.200 F 
ATOM     47  C   UNL A   1      36.497  29.712  29.241  1.00  0.00     0.200 A 
ATOM     48  F   UNL A   1      36.597  29.331  31.571  1.00  0.00    -0.200 F 
ATOM     49  F   UNL A   1      35.178  29.940  29.322  1.00  0.00    -0.200 F 
ENDBRANCH  25  39
BRANCH  26  50
ATOM     50  C   UNL A   1      48.817  26.476  27.956  1.00  0.00     0.064 A 
ATOM     51  C   UNL A   1      49.327  26.389  26.655  1.00  0.00     0.173 A 
ATOM     52  C   UNL A   1      49.688  26.198  29.021  1.00  0.00     0.173 A 
ATOM     53  F   UNL A   1      48.528  26.629  25.605  1.00  0.00    -0.203 F 
ATOM     54  C   UNL A   1      50.652  26.023  26.427  1.00  0.00     0.198 A 
ATOM     55  C   UNL A   1      51.019  25.863  28.793  1.00  0.00     0.198 A 
ATOM     56  F   UNL A   1      49.249  26.275  30.286  1.00  0.00    -0.203 F 
ATOM     57  F   UNL A   1      51.105  25.906  25.171  1.00  0.00    -0.200 F 
ATOM     58  C   UNL A   1      51.498  25.767  27.496  1.00  0.00     0.200 A 
ATOM     59  F   UNL A   1      51.838  25.635  29.829  1.00  0.00    -0.200 F 
ATOM     60  F   UNL A   1      52.774  25.421  27.275  1.00  0.00    -0.200 F 
ENDBRANCH  26  50
BRANCH  38  61
ATOM     61  C   UNL A   1      45.652  32.438  29.644  1.00  0.00     0.064 A 
ATOM     62  C   UNL A   1      46.048  32.831  30.931  1.00  0.00     0.173 A 
ATOM     63  C   UNL A   1      45.786  33.363  28.599  1.00  0.00     0.173 A 
ATOM     64  F   UNL A   1      45.918  31.985  31.964  1.00  0.00    -0.203 F 
ATOM     65  C   UNL A   1      46.541  34.110  31.165  1.00  0.00     0.198 A 
ATOM     66  C   UNL A   1      46.304  34.632  28.833  1.00  0.00     0.198 A 
ATOM     67  F   UNL A   1      45.423  33.031  27.351  1.00  0.00    -0.203 F 
ATOM     68  F   UNL A   1      46.871  34.481  32.410  1.00  0.00    -0.200 F 
ATOM     69  C   UNL A   1      46.675  35.007  30.116  1.00  0.00     0.200 A 
ATOM     70  F   UNL A   1      46.442  35.496  27.817  1.00  0.00    -0.200 F 
ATOM     71  F   UNL A   1      47.154  36.238  30.343  1.00  0.00    -0.200 F 
ENDBRANCH  38  61
ENDBRANCH  12  13
ENDBRANCH   5   7
ENDBRANCH   2   3
ENDBRANCH   1   2
BRANCH   1  72
ATOM     72  C   UNL A   1      36.303  20.760  25.151  1.00  0.00     0.023 C 
BRANCH  72  73
ATOM     73  C   UNL A   1      36.115  22.259  24.863  1.00  0.00     0.116 C 
BRANCH  73  74
ATOM     74  N   UNL A   1      35.238  22.450  23.725  1.00  0.00    -0.356 N 
ATOM     75  C   UNL A   1      33.989  22.983  23.633  1.00  0.00     0.229 C 
ATOM     76  H   UNL A   1      35.612  22.139  22.870  1.00  0.00     0.163 HD
ATOM     77  O   UNL A   1      33.346  22.608  22.650  1.00  0.00    -0.274 OA
BRANCH  75  78
ATOM     78  C   UNL A   1      33.410  23.981  24.657  1.00  0.00     0.082 C 
ATOM     79  C   UNL A   1      31.924  24.308  24.385  1.00  0.00     0.052 C 
ATOM     80  C   UNL A   1      33.275  23.304  26.050  1.00  0.00     0.134 C 
ATOM     81  C   UNL A   1      31.247  23.991  25.730  1.00  0.00     0.120 C 
ATOM     82  C   UNL A   1      32.455  22.006  26.126  1.00  0.00     0.036 C 
ATOM     83  O   UNL A   1      32.315  24.196  26.675  1.00  0.00    -0.374 OA
ATOM     84  C   UNL A   1      31.030  22.494  25.889  1.00  0.00     0.035 C 
BRANCH  78  85
ATOM     85  C   UNL A   1      34.318  25.258  24.744  1.00  0.00     0.056 C 
BRANCH  85  86
ATOM     86  C   UNL A   1      33.821  26.613  24.267  1.00  0.00    -0.036 A 
ATOM     87  C   UNL A   1      33.819  26.874  22.889  1.00  0.00     0.024 A 
ATOM     88  C   UNL A   1      33.351  27.620  25.146  1.00  0.00     0.003 A 
ATOM     89  C   UNL A   1      33.307  28.073  22.435  1.00  0.00     0.112 A 
ATOM     90  C   UNL A   1      32.793  28.782  24.566  1.00  0.00     0.070 A 
ATOM     91  C   UNL A   1      33.398  27.526  26.557  1.00  0.00     0.010 A 
ATOM     92  N   UNL A   1      32.782  29.012  23.242  1.00  0.00    -0.256 NA
ATOM     93  C   UNL A   1      32.225  29.737  25.397  1.00  0.00     0.029 A 
ATOM     94  C   UNL A   1      32.822  28.498  27.370  1.00  0.00     0.001 A 
ATOM     95  C   UNL A   1      32.215  29.599  26.787  1.00  0.00     0.002 A 
ENDBRANCH  85  86
ENDBRANCH  78  85
ENDBRANCH  75  78
ENDBRANCH  73  74
ENDBRANCH  72  73
ENDBRANCH   1  72
TORSDOF 13
ENDMDL
MODEL 2
REMARK VINA RESULT:     -12.5      0.325      1.955
REMARK SMILES O=C(NCCCCNC(=O)[C@@]1(Cc2ccnc3ccccc23)C[C@H]2CC[C@@H]1O2)c1ccc(-c2c3nc(c(-c4c(F)c(F)c(F)c(F)c4F)c4ccc([nH]4)c(-c4c(F)c(F)c(F)c(F)c4F)c4nc(c(-c5c(F)c(F)c(F)c(F)c5F)c5ccc2[nH]5)C=C4)C=C3)cc1
REMARK SMILES IDX 5 1 4 2 3 3 1 4 2 5 29 7 30 8 91 9 31 10 90 11 32 12 33 13
REMARK SMILES IDX 34 14 84 15 35 16 89 17 83 18 85 19 36 20 88 21 82 22 81 23
REMARK SMILES IDX 37 25 69 26 49 27 68 28 50 29 53 30 67 31 86 32 51 33 52 34
REMARK SMILES IDX 66 36 87 37 54 38 38 39 39 40 47 41 40 42 41 43 45 44 48 45
REMARK SMILES IDX 42 46 43 47 46 48 44 49 70 50 71 51 79 52 72 53 73 54 77 55
REMARK SMILES IDX 80 56 74 57 75 58 78 59 76 60 55 61 56 62 64 63 57 64 58 65
REMARK SMILES IDX 62 66 65 67 59 68 60 69 63 70 61 71 6 72 7 73 8 74 9 75
REMARK SMILES IDX 10 77 11 78 23 79 27 80 24 81 26 82 28 83 25 84 12 85 13 86
REMARK SMILES IDX 14 87 22 88 15 89 17 90 21 91 16 92 18 93 20 94 19 95
REMARK H PARENT 3 6 85 24 53 35 8 76
REMARK Flexibility Score: inf
ROOT
ATOM      1  C   UNL A   1      37.609  20.201  24.722  1.00  0.00     0.023 C 
ENDROOT
BRANCH   1   2
ATOM      2  C   UNL A   1      38.685  20.448  25.764  1.00  0.00     0.116 C 
BRANCH   2   3
ATOM      3  N   UNL A   1      39.721  19.429  25.768  1.00  0.00    -0.352 N 
ATOM      4  O   UNL A   1      41.843  18.666  25.953  1.00  0.00    -0.269 OA
ATOM      5  C   UNL A   1      41.047  19.589  26.083  1.00  0.00     0.251 C 
ATOM      6  H   UNL A   1      39.440  18.520  25.516  1.00  0.00     0.163 HD
BRANCH   5   7
ATOM      7  C   UNL A   1      41.504  20.911  26.548  1.00  0.00     0.039 A 
ATOM      8  C   UNL A   1      41.899  21.882  25.625  1.00  0.00     0.014 A 
ATOM      9  C   UNL A   1      41.560  21.163  27.920  1.00  0.00     0.014 A 
ATOM     10  C   UNL A   1      42.444  23.075  26.074  1.00  0.00     0.010 A 
ATOM     11  C   UNL A   1      42.040  22.393  28.370  1.00  0.00     0.010 A 
ATOM     12  C   UNL A   1      42.490  23.352  27.450  1.00  0.00    -0.014 A 
BRANCH  12  13
ATOM     13  C   UNL A   1      42.883  24.706  27.899  1.00  0.00     0.031 A 
ATOM     14  C   UNL A   1      41.858  25.745  28.235  1.00  0.00     0.074 A 
ATOM     15  C   UNL A   1      44.199  24.978  27.979  1.00  0.00     0.049 A 
ATOM     16  N   UNL A   1      42.042  26.988  28.600  1.00  0.00    -0.248 NA
ATOM     17  C   UNL A   1      40.444  25.348  28.146  1.00  0.00     0.031 C 
ATOM     18  C   UNL A   1      45.273  24.036  27.650  1.00  0.00     0.029 A 
ATOM     19  N   UNL A   1      44.861  26.118  28.354  1.00  0.00    -0.354 N 
ATOM     20  C   UNL A   1      40.774  27.529  28.762  1.00  0.00     0.074 A 
ATOM     21  C   UNL A   1      39.825  26.482  28.449  1.00  0.00     0.031 C 
ATOM     22  C   UNL A   1      46.457  24.629  27.853  1.00  0.00     0.029 A 
ATOM     23  C   UNL A   1      46.227  26.008  28.264  1.00  0.00     0.049 A 
ATOM     24  H   UNL A   1      44.404  26.934  28.657  1.00  0.00     0.167 HD
ATOM     25  C   UNL A   1      40.448  28.788  29.139  1.00  0.00     0.037 A 
ATOM     26  C   UNL A   1      47.188  26.927  28.453  1.00  0.00     0.037 A 
ATOM     27  C   UNL A   1      41.408  29.807  29.474  1.00  0.00     0.049 A 
ATOM     28  C   UNL A   1      46.787  28.319  28.847  1.00  0.00     0.074 A 
ATOM     29  C   UNL A   1      41.178  31.083  29.959  1.00  0.00     0.029 A 
ATOM     30  N   UNL A   1      42.783  29.670  29.347  1.00  0.00    -0.354 N 
ATOM     31  N   UNL A   1      45.587  28.799  29.062  1.00  0.00    -0.248 NA
ATOM     32  C   UNL A   1      47.868  29.297  29.011  1.00  0.00     0.031 C 
ATOM     33  C   UNL A   1      42.410  31.735  30.075  1.00  0.00     0.029 A 
ATOM     34  C   UNL A   1      43.411  30.852  29.703  1.00  0.00     0.049 A 
ATOM     35  H   UNL A   1      43.244  28.853  29.049  1.00  0.00     0.167 HD
ATOM     36  C   UNL A   1      45.765  30.134  29.385  1.00  0.00     0.074 A 
ATOM     37  C   UNL A   1      47.194  30.380  29.370  1.00  0.00     0.031 C 
ATOM     38  C   UNL A   1      44.832  31.076  29.661  1.00  0.00     0.037 A 
BRANCH  25  39
ATOM     39  C   UNL A   1      38.995  29.156  29.202  1.00  0.00     0.064 A 
ATOM     40  C   UNL A   1      38.298  29.204  30.416  1.00  0.00     0.173 A 
ATOM     41  C   UNL A   1      38.323  29.570  28.040  1.00  0.00     0.173 A 
ATOM     42  F   UNL A   1      38.894  28.811  31.553  1.00  0.00    -0.203 F 
ATOM     43  C   UNL A   1      36.978  29.649  30.467  1.00  0.00     0.198 A 
ATOM     44  C   UNL A   1      37.011  30.033  28.097  1.00  0.00     0.198 A 
ATOM     45  F   UNL A   1      38.950  29.549  26.854  1.00  0.00    -0.203 F 
ATOM     46  F   UNL A   1      36.325  29.673  31.636  1.00  0.00    -0.200 F 
ATOM     47  C   UNL A   1      36.341  30.073  29.310  1.00  0.00     0.200 A 
ATOM     48  F   UNL A   1      36.402  30.453  26.979  1.00  0.00    -0.200 F 
ATOM     49  F   UNL A   1      35.078  30.521  29.364  1.00  0.00    -0.200 F 
ENDBRANCH  25  39
BRANCH  26  50
ATOM     50  C   UNL A   1      48.610  26.567  28.227  1.00  0.00     0.064 A 
ATOM     51  C   UNL A   1      49.444  26.202  29.292  1.00  0.00     0.173 A 
ATOM     52  C   UNL A   1      49.161  26.571  26.936  1.00  0.00     0.173 A 
ATOM     53  F   UNL A   1      48.967  26.200  30.545  1.00  0.00    -0.203 F 
ATOM     54  C   UNL A   1      50.779  25.870  29.076  1.00  0.00     0.198 A 
ATOM     55  C   UNL A   1      50.487  26.210  26.718  1.00  0.00     0.198 A 
ATOM     56  F   UNL A   1      48.401  26.906  25.883  1.00  0.00    -0.203 F 
ATOM     57  F   UNL A   1      51.568  25.565  30.116  1.00  0.00    -0.200 F 
ATOM     58  C   UNL A   1      51.298  25.868  27.789  1.00  0.00     0.200 A 
ATOM     59  F   UNL A   1      50.978  26.190  25.472  1.00  0.00    -0.200 F 
ATOM     60  F   UNL A   1      52.581  25.542  27.582  1.00  0.00    -0.200 F 
ENDBRANCH  26  50
BRANCH  38  61
ATOM     61  C   UNL A   1      45.334  32.457  29.955  1.00  0.00     0.064 A 
ATOM     62  C   UNL A   1      45.456  33.416  28.939  1.00  0.00     0.173 A 
ATOM     63  C   UNL A   1      45.671  32.832  31.264  1.00  0.00     0.173 A 
ATOM     64  F   UNL A   1      45.164  33.095  27.670  1.00  0.00    -0.203 F 
ATOM     65  C   UNL A   1      45.918  34.697  29.221  1.00  0.00     0.198 A 
ATOM     66  C   UNL A   1      46.108  34.122  31.545  1.00  0.00     0.198 A 
ATOM     67  F   UNL A   1      45.569  31.949  32.268  1.00  0.00    -0.203 F 
ATOM     68  F   UNL A   1      46.070  35.585  28.229  1.00  0.00    -0.200 F 
ATOM     69  C   UNL A   1      46.237  35.052  30.524  1.00  0.00     0.200 A 
ATOM     70  F   UNL A   1      46.407  34.467  32.806  1.00  0.00    -0.200 F 
ATOM     71  F   UNL A   1      46.678  36.288  30.793  1.00  0.00    -0.200 F 
ENDBRANCH  38  61
ENDBRANCH  12  13
ENDBRANCH   5   7
ENDBRANCH   2   3
ENDBRANCH   1   2
BRANCH   1  72
ATOM     72  C   UNL A   1      36.266  20.868  25.030  1.00  0.00     0.023 C 
BRANCH  72  73
ATOM     73  C   UNL A   1      36.172  22.354  24.649  1.00  0.00     0.116 C 
BRANCH  73  74
ATOM     74  N   UNL A   1      35.225  22.540  23.567  1.00  0.00    -0.356 N 
ATOM     75  C   UNL A   1      33.961  23.045  23.557  1.00  0.00     0.229 C 
ATOM     76  H   UNL A   1      35.555  22.251  22.687  1.00  0.00     0.163 HD
ATOM     77  O   UNL A   1      33.269  22.669  22.608  1.00  0.00    -0.274 OA
BRANCH  75  78
ATOM     78  C   UNL A   1      33.421  24.015  24.629  1.00  0.00     0.082 C 
ATOM     79  C   UNL A   1      31.930  24.359  24.413  1.00  0.00     0.052 C 
ATOM     80  C   UNL A   1      33.324  23.295  26.004  1.00  0.00     0.134 C 
ATOM     81  C   UNL A   1      31.292  24.005  25.768  1.00  0.00     0.120 C 
ATOM     82  C   UNL A   1      32.498  22.001  26.065  1.00  0.00     0.036 C 
ATOM     83  O   UNL A   1      32.390  24.174  26.686  1.00  0.00    -0.374 OA
ATOM     84  C   UNL A   1      31.069  22.504  25.888  1.00  0.00     0.035 C 
BRANCH  78  85
ATOM     85  C   UNL A   1      34.340  25.282  24.727  1.00  0.00     0.056 C 
BRANCH  85  86
ATOM     86  C   UNL A   1      33.858  26.644  24.254  1.00  0.00    -0.036 A 
ATOM     87  C   UNL A   1      33.767  26.876  22.874  1.00  0.00     0.024 A 
ATOM     88  C   UNL A   1      33.488  27.686  25.140  1.00  0.00     0.003 A 
ATOM     89  C   UNL A   1      33.266  28.083  22.429  1.00  0.00     0.112 A 
ATOM     90  C   UNL A   1      32.931  28.856  24.574  1.00  0.00     0.070 A 
ATOM     91  C   UNL A   1      33.632  27.620  26.547  1.00  0.00     0.010 A 
ATOM     92  N   UNL A   1      32.833  29.057  23.248  1.00  0.00    -0.256 NA
ATOM     93  C   UNL A   1      32.457  29.847  25.420  1.00  0.00     0.029 A 
ATOM     94  C   UNL A   1      33.149  28.630  27.374  1.00  0.00     0.001 A 
ATOM     95  C   UNL A   1      32.542  29.739  26.810  1.00  0.00     0.002 A 
ENDBRANCH  85  86
ENDBRANCH  78  85
ENDBRANCH  75  78
ENDBRANCH  73  74
ENDBRANCH  72  73
ENDBRANCH   1  72
TORSDOF 13
ENDMDL
MODEL 3
REMARK VINA RESULT:     -12.5      4.933     10.232
REMARK SMILES O=C(NCCCCNC(=O)[C@@]1(Cc2ccnc3ccccc23)C[C@H]2CC[C@@H]1O2)c1ccc(-c2c3nc(c(-c4c(F)c(F)c(F)c(F)c4F)c4ccc([nH]4)c(-c4c(F)c(F)c(F)c(F)c4F)c4nc(c(-c5c(F)c(F)c(F)c(F)c5F)c5ccc2[nH]5)C=C4)C=C3)cc1
REMARK SMILES IDX 5 1 4 2 3 3 1 4 2 5 29 7 30 8 91 9 31 10 90 11 32 12 33 13
REMARK SMILES IDX 34 14 84 15 35 16 89 17 83 18 85 19 36 20 88 21 82 22 81 23
REMARK SMILES IDX 37 25 69 26 49 27 68 28 50 29 53 30 67 31 86 32 51 33 52 34
REMARK SMILES IDX 66 36 87 37 54 38 38 39 39 40 47 41 40 42 41 43 45 44 48 45
REMARK SMILES IDX 42 46 43 47 46 48 44 49 70 50 71 51 79 52 72 53 73 54 77 55
REMARK SMILES IDX 80 56 74 57 75 58 78 59 76 60 55 61 56 62 64 63 57 64 58 65
REMARK SMILES IDX 62 66 65 67 59 68 60 69 63 70 61 71 6 72 7 73 8 74 9 75
REMARK SMILES IDX 10 77 11 78 23 79 27 80 24 81 26 82 28 83 25 84 12 85 13 86
REMARK SMILES IDX 14 87 22 88 15 89 17 90 21 91 16 92 18 93 20 94 19 95
REMARK H PARENT 3 6 85 24 53 35 8 76
REMARK Flexibility Score: inf
ROOT
ATOM      1  C   UNL A   1      31.404  31.309  26.499  1.00  0.00     0.023 C 
ENDROOT
BRANCH   1   2
ATOM      2  C   UNL A   1      32.653  32.085  26.876  1.00  0.00     0.116 C 
BRANCH   2   3
ATOM      3  N   UNL A   1      32.377  33.458  27.264  1.00  0.00    -0.352 N 
ATOM      4  O   UNL A   1      32.642  35.328  28.511  1.00  0.00    -0.269 OA
ATOM      5  C   UNL A   1      33.036  34.208  28.205  1.00  0.00     0.251 C 
ATOM      6  H   UNL A   1      31.632  33.902  26.798  1.00  0.00     0.163 HD
BRANCH   5   7
ATOM      7  C   UNL A   1      34.211  33.620  28.873  1.00  0.00     0.039 A 
ATOM      8  C   UNL A   1      34.042  32.689  29.901  1.00  0.00     0.014 A 
ATOM      9  C   UNL A   1      35.486  34.030  28.482  1.00  0.00     0.014 A 
ATOM     10  C   UNL A   1      35.147  32.236  30.606  1.00  0.00     0.010 A 
ATOM     11  C   UNL A   1      36.603  33.518  29.144  1.00  0.00     0.010 A 
ATOM     12  C   UNL A   1      36.438  32.624  30.213  1.00  0.00    -0.014 A 
BRANCH  12  13
ATOM     13  C   UNL A   1      37.608  31.974  30.843  1.00  0.00     0.031 A 
ATOM     14  C   UNL A   1      38.409  30.936  30.119  1.00  0.00     0.074 A 
ATOM     15  C   UNL A   1      37.919  32.336  32.102  1.00  0.00     0.049 A 
ATOM     16  N   UNL A   1      39.433  30.244  30.550  1.00  0.00    -0.248 NA
ATOM     17  C   UNL A   1      38.012  30.625  28.737  1.00  0.00     0.031 C 
ATOM     18  C   UNL A   1      37.183  33.323  32.898  1.00  0.00     0.029 A 
ATOM     19  N   UNL A   1      38.924  31.922  32.936  1.00  0.00    -0.354 N 
ATOM     20  C   UNL A   1      39.789  29.402  29.506  1.00  0.00     0.074 A 
ATOM     21  C   UNL A   1      38.868  29.661  28.420  1.00  0.00     0.031 C 
ATOM     22  C   UNL A   1      37.769  33.450  34.096  1.00  0.00     0.029 A 
ATOM     23  C   UNL A   1      38.880  32.511  34.175  1.00  0.00     0.049 A 
ATOM     24  H   UNL A   1      39.609  31.266  32.673  1.00  0.00     0.167 HD
ATOM     25  C   UNL A   1      40.797  28.498  29.472  1.00  0.00     0.037 A 
ATOM     26  C   UNL A   1      39.628  32.290  35.270  1.00  0.00     0.037 A 
ATOM     27  C   UNL A   1      41.721  28.275  30.554  1.00  0.00     0.049 A 
ATOM     28  C   UNL A   1      40.720  31.264  35.202  1.00  0.00     0.074 A 
ATOM     29  C   UNL A   1      42.833  27.452  30.583  1.00  0.00     0.029 A 
ATOM     30  N   UNL A   1      41.631  28.870  31.804  1.00  0.00    -0.354 N 
ATOM     31  N   UNL A   1      41.089  30.522  34.188  1.00  0.00    -0.248 NA
ATOM     32  C   UNL A   1      41.488  31.034  36.431  1.00  0.00     0.031 C 
ATOM     33  C   UNL A   1      43.385  27.508  31.866  1.00  0.00     0.029 A 
ATOM     34  C   UNL A   1      42.643  28.399  32.625  1.00  0.00     0.049 A 
ATOM     35  H   UNL A   1      40.950  29.530  32.069  1.00  0.00     0.167 HD
ATOM     36  C   UNL A   1      42.132  29.736  34.652  1.00  0.00     0.074 A 
ATOM     37  C   UNL A   1      42.358  30.116  36.033  1.00  0.00     0.031 C 
ATOM     38  C   UNL A   1      42.834  28.779  34.000  1.00  0.00     0.037 A 
BRANCH  25  39
ATOM     39  C   UNL A   1      40.961  27.663  28.237  1.00  0.00     0.064 A 
ATOM     40  C   UNL A   1      41.786  28.066  27.178  1.00  0.00     0.173 A 
ATOM     41  C   UNL A   1      40.366  26.393  28.163  1.00  0.00     0.173 A 
ATOM     42  F   UNL A   1      42.370  29.273  27.199  1.00  0.00    -0.203 F 
ATOM     43  C   UNL A   1      42.007  27.229  26.086  1.00  0.00     0.198 A 
ATOM     44  C   UNL A   1      40.606  25.552  27.079  1.00  0.00     0.198 A 
ATOM     45  F   UNL A   1      39.573  25.960  29.154  1.00  0.00    -0.203 F 
ATOM     46  F   UNL A   1      42.788  27.639  25.078  1.00  0.00    -0.200 F 
ATOM     47  C   UNL A   1      41.427  25.970  26.043  1.00  0.00     0.200 A 
ATOM     48  F   UNL A   1      40.052  24.331  27.046  1.00  0.00    -0.200 F 
ATOM     49  F   UNL A   1      41.658  25.158  25.001  1.00  0.00    -0.200 F 
ENDBRANCH  25  39
BRANCH  26  50
ATOM     50  C   UNL A   1      39.333  33.025  36.526  1.00  0.00     0.064 A 
ATOM     51  C   UNL A   1      38.423  32.520  37.465  1.00  0.00     0.173 A 
ATOM     52  C   UNL A   1      39.965  34.244  36.817  1.00  0.00     0.173 A 
ATOM     53  F   UNL A   1      37.782  31.367  37.222  1.00  0.00    -0.203 F 
ATOM     54  C   UNL A   1      38.145  33.215  38.639  1.00  0.00     0.198 A 
ATOM     55  C   UNL A   1      39.709  34.921  38.005  1.00  0.00     0.198 A 
ATOM     56  F   UNL A   1      40.849  34.765  35.954  1.00  0.00    -0.203 F 
ATOM     57  F   UNL A   1      37.239  32.733  39.501  1.00  0.00    -0.200 F 
ATOM     58  C   UNL A   1      38.793  34.412  38.911  1.00  0.00     0.200 A 
ATOM     59  F   UNL A   1      40.351  36.067  38.273  1.00  0.00    -0.200 F 
ATOM     60  F   UNL A   1      38.528  35.076  40.045  1.00  0.00    -0.200 F 
ENDBRANCH  26  50
BRANCH  38  61
ATOM     61  C   UNL A   1      43.901  28.075  34.782  1.00  0.00     0.064 A 
ATOM     62  C   UNL A   1      45.191  28.613  34.895  1.00  0.00     0.173 A 
ATOM     63  C   UNL A   1      43.626  26.869  35.443  1.00  0.00     0.173 A 
ATOM     64  F   UNL A   1      45.503  29.754  34.262  1.00  0.00    -0.203 F 
ATOM     65  C   UNL A   1      46.175  27.958  35.627  1.00  0.00     0.198 A 
ATOM     66  C   UNL A   1      44.606  26.230  36.196  1.00  0.00     0.198 A 
ATOM     67  F   UNL A   1      42.406  26.318  35.365  1.00  0.00    -0.203 F 
ATOM     68  F   UNL A   1      47.414  28.465  35.686  1.00  0.00    -0.200 F 
ATOM     69  C   UNL A   1      45.881  26.771  36.282  1.00  0.00     0.200 A 
ATOM     70  F   UNL A   1      44.318  25.088  36.836  1.00  0.00    -0.200 F 
ATOM     71  F   UNL A   1      46.829  26.142  36.990  1.00  0.00    -0.200 F 
ENDBRANCH  38  61
ENDBRANCH  12  13
ENDBRANCH   5   7
ENDBRANCH   2   3
ENDBRANCH   1   2
BRANCH   1  72
ATOM     72  C   UNL A   1      31.660  30.096  25.602  1.00  0.00     0.023 C 
BRANCH  72  73
ATOM     73  C   UNL A   1      32.320  28.896  26.298  1.00  0.00     0.116 C 
BRANCH  73  74
ATOM     74  N   UNL A   1      31.396  27.783  26.374  1.00  0.00    -0.356 N 
ATOM     75  C   UNL A   1      31.286  26.653  25.622  1.00  0.00     0.229 C 
ATOM     76  H   UNL A   1      30.731  27.857  27.095  1.00  0.00     0.163 HD
ATOM     77  O   UNL A   1      30.166  26.137  25.637  1.00  0.00    -0.274 OA
BRANCH  75  78
ATOM     78  C   UNL A   1      32.455  26.047  24.817  1.00  0.00     0.082 C 
ATOM     79  C   UNL A   1      31.998  24.897  23.891  1.00  0.00     0.052 C 
ATOM     80  C   UNL A   1      32.952  27.060  23.746  1.00  0.00     0.134 C 
ATOM     81  C   UNL A   1      32.518  25.335  22.511  1.00  0.00     0.120 C 
ATOM     82  C   UNL A   1      31.912  27.601  22.753  1.00  0.00     0.036 C 
ATOM     83  O   UNL A   1      33.652  26.158  22.849  1.00  0.00    -0.374 OA
ATOM     84  C   UNL A   1      31.602  26.381  21.892  1.00  0.00     0.035 C 
BRANCH  78  85
ATOM     85  C   UNL A   1      33.623  25.637  25.781  1.00  0.00     0.056 C 
BRANCH  85  86
ATOM     86  C   UNL A   1      33.886  24.181  26.126  1.00  0.00    -0.036 A 
ATOM     87  C   UNL A   1      33.062  23.562  27.077  1.00  0.00     0.024 A 
ATOM     88  C   UNL A   1      34.919  23.417  25.527  1.00  0.00     0.003 A 
ATOM     89  C   UNL A   1      33.244  22.221  27.350  1.00  0.00     0.112 A 
ATOM     90  C   UNL A   1      34.973  22.039  25.838  1.00  0.00     0.070 A 
ATOM     91  C   UNL A   1      35.883  23.946  24.637  1.00  0.00     0.010 A 
ATOM     92  N   UNL A   1      34.163  21.454  26.738  1.00  0.00    -0.256 NA
ATOM     93  C   UNL A   1      35.901  21.242  25.183  1.00  0.00     0.029 A 
ATOM     94  C   UNL A   1      36.806  23.126  23.994  1.00  0.00     0.001 A 
ATOM     95  C   UNL A   1      36.802  21.765  24.253  1.00  0.00     0.002 A 
ENDBRANCH  85  86
ENDBRANCH  78  85
ENDBRANCH  75  78
ENDBRANCH  73  74
ENDBRANCH  72  73
ENDBRANCH   1  72
TORSDOF 13
ENDMDL
