MODEL 1
REMARK VINA RESULT:     -15.1      0.000      0.000
REMARK SMILES CC1=Nc2c(c(C)nn2-c2ccc(F)cc2)[C@H](c2ccc(C(=O)NCCCCNC(=O)c3ccc(-c4c5nc(c(-c6c(F)c(F)c(F)c(F)c6F)c6ccc([nH]6)c(-c6c(F)c(F)c(F)c(F)c6F)c6nc(c(-c7c(F)c(F)c(F)c(F)c7F)c7ccc4[nH]7)C=C6)C=C5)cc3)cc2)S1
REMARK SMILES IDX 26 1 25 2 24 3 22 4 23 5 21 7 18 8 19 9 96 10 20 11 95 12
REMARK SMILES IDX 17 13 1 14 2 15 3 16 97 17 4 18 5 19 9 20 6 21 8 22 7 23
REMARK SMILES IDX 10 24 11 25 16 26 12 27 15 28 13 29 14 30 27 31 28 32 29 33
REMARK SMILES IDX 30 34 31 36 32 37 33 38 94 39 34 40 93 41 35 42 36 43 37 44
REMARK SMILES IDX 87 45 38 46 92 47 86 48 88 49 39 50 91 51 85 52 84 53 40 55
REMARK SMILES IDX 72 56 52 57 71 58 53 59 56 60 70 61 89 62 54 63 55 64 69 66
REMARK SMILES IDX 90 67 57 68 41 69 42 70 50 71 43 72 44 73 48 74 51 75 45 76
REMARK SMILES IDX 46 77 49 78 47 79 73 80 74 81 82 82 75 83 76 84 80 85 83 86
REMARK SMILES IDX 77 87 78 88 81 89 79 90 58 91 59 92 67 93 60 94 61 95 65 96
REMARK SMILES IDX 68 97 62 98 63 99 66 100 64 101
REMARK H PARENT 24 6 29 35 88 54 56 65
REMARK Flexibility Score: inf
ROOT
ATOM      1  C   UNL A   1      32.281  30.062  25.378  1.00  0.00     0.023 C 
ENDROOT
BRANCH   1   2
ATOM      2  C   UNL A   1      30.852  30.260  24.856  1.00  0.00     0.116 C 
BRANCH   2   3
ATOM      3  N   UNL A   1      30.660  29.614  23.573  1.00  0.00    -0.352 N 
ATOM      4  C   UNL A   1      30.891  28.333  23.143  1.00  0.00     0.251 C 
ATOM      5  O   UNL A   1      30.575  28.056  21.984  1.00  0.00    -0.269 OA
ATOM      6  H   UNL A   1      30.295  30.208  22.879  1.00  0.00     0.163 HD
BRANCH   4   7
ATOM      7  C   UNL A   1      31.444  27.260  24.015  1.00  0.00     0.039 A 
ATOM      8  C   UNL A   1      32.656  25.219  25.574  1.00  0.00    -0.030 A 
ATOM      9  C   UNL A   1      33.316  25.772  24.465  1.00  0.00     0.006 A 
ATOM     10  C   UNL A   1      31.391  25.732  25.901  1.00  0.00     0.006 A 
ATOM     11  C   UNL A   1      32.724  26.786  23.705  1.00  0.00     0.014 A 
ATOM     12  C   UNL A   1      30.799  26.746  25.139  1.00  0.00     0.014 A 
BRANCH   8  13
ATOM     13  C   UNL A   1      33.358  24.153  26.406  1.00  0.00     0.119 C 
ATOM     14  C   UNL A   1      36.794  23.247  24.281  1.00  0.00     0.075 C 
ATOM     15  C   UNL A   1      35.498  23.045  25.022  1.00  0.00     0.074 C 
ATOM     16  N   UNL A   1      34.737  22.068  24.644  1.00  0.00    -0.227 NA
ATOM     17  S   UNL A   1      35.176  24.216  26.294  1.00  0.00    -0.098 SA
ATOM     18  C   UNL A   1      33.508  21.951  25.203  1.00  0.00     0.161 A 
ATOM     19  C   UNL A   1      32.801  22.857  25.960  1.00  0.00     0.038 A 
ATOM     20  N   UNL A   1      32.654  20.885  24.975  1.00  0.00    -0.215 N 
ATOM     21  C   UNL A   1      31.518  22.272  26.126  1.00  0.00     0.067 A 
ATOM     22  N   UNL A   1      31.402  21.128  25.440  1.00  0.00    -0.171 NA
ATOM     23  C   UNL A   1      30.352  22.791  26.885  1.00  0.00     0.069 C 
BRANCH  20  24
ATOM     24  C   UNL A   1      32.973  19.665  24.334  1.00  0.00     0.067 A 
ATOM     25  C   UNL A   1      34.039  18.890  24.815  1.00  0.00     0.031 A 
ATOM     26  C   UNL A   1      32.235  19.255  23.217  1.00  0.00     0.031 A 
ATOM     27  C   UNL A   1      34.373  17.703  24.167  1.00  0.00     0.041 A 
ATOM     28  C   UNL A   1      32.614  18.094  22.542  1.00  0.00     0.041 A 
ATOM     29  C   UNL A   1      33.673  17.328  23.026  1.00  0.00     0.123 A 
ATOM     30  F   UNL A   1      34.027  16.210  22.378  1.00  0.00    -0.207 F 
ENDBRANCH  20  24
ENDBRANCH   8  13
ENDBRANCH   4   7
ENDBRANCH   2   3
ENDBRANCH   1   2
BRANCH   1  31
ATOM     31  C   UNL A   1      32.411  29.860  26.896  1.00  0.00     0.023 C 
BRANCH  31  32
ATOM     32  C   UNL A   1      33.817  30.048  27.454  1.00  0.00     0.116 C 
BRANCH  32  33
ATOM     33  N   UNL A   1      34.347  31.398  27.244  1.00  0.00    -0.352 N 
ATOM     34  C   UNL A   1      35.504  31.958  27.767  1.00  0.00     0.251 C 
ATOM     35  H   UNL A   1      33.815  31.982  26.657  1.00  0.00     0.163 HD
ATOM     36  O   UNL A   1      35.659  33.162  27.841  1.00  0.00    -0.269 OA
BRANCH  34  37
ATOM     37  C   UNL A   1      36.565  31.039  28.209  1.00  0.00     0.039 A 
ATOM     38  C   UNL A   1      36.632  29.708  27.790  1.00  0.00     0.014 A 
ATOM     39  C   UNL A   1      37.553  31.589  29.015  1.00  0.00     0.014 A 
ATOM     40  C   UNL A   1      37.763  28.962  28.124  1.00  0.00     0.010 A 
ATOM     41  C   UNL A   1      38.740  30.930  29.157  1.00  0.00     0.010 A 
ATOM     42  C   UNL A   1      38.822  29.592  28.794  1.00  0.00    -0.014 A 
BRANCH  42  43
ATOM     43  C   UNL A   1      40.073  28.901  29.084  1.00  0.00     0.031 A 
ATOM     44  C   UNL A   1      40.365  28.708  30.529  1.00  0.00     0.074 A 
ATOM     45  C   UNL A   1      40.773  28.267  28.115  1.00  0.00     0.049 A 
ATOM     46  N   UNL A   1      41.344  29.199  31.212  1.00  0.00    -0.248 NA
ATOM     47  C   UNL A   1      39.395  27.956  31.344  1.00  0.00     0.031 C 
ATOM     48  C   UNL A   1      40.392  28.076  26.705  1.00  0.00     0.029 A 
ATOM     49  N   UNL A   1      41.931  27.556  28.204  1.00  0.00    -0.354 N 
ATOM     50  C   UNL A   1      41.229  28.663  32.495  1.00  0.00     0.074 A 
ATOM     51  C   UNL A   1      39.929  28.053  32.565  1.00  0.00     0.031 C 
ATOM     52  C   UNL A   1      41.155  27.112  26.149  1.00  0.00     0.029 A 
ATOM     53  C   UNL A   1      42.211  26.782  27.084  1.00  0.00     0.049 A 
ATOM     54  H   UNL A   1      42.519  27.588  28.993  1.00  0.00     0.167 HD
ATOM     55  C   UNL A   1      42.322  28.543  33.300  1.00  0.00     0.037 A 
ATOM     56  C   UNL A   1      43.252  25.934  26.924  1.00  0.00     0.037 A 
ATOM     57  C   UNL A   1      43.438  29.269  32.754  1.00  0.00     0.049 A 
ATOM     58  C   UNL A   1      44.297  26.336  27.890  1.00  0.00     0.074 A 
ATOM     59  C   UNL A   1      43.868  30.576  32.740  1.00  0.00     0.029 A 
ATOM     60  N   UNL A   1      44.086  28.610  31.743  1.00  0.00    -0.354 N 
ATOM     61  N   UNL A   1      44.920  27.481  27.840  1.00  0.00    -0.248 NA
ATOM     62  C   UNL A   1      44.420  25.607  29.147  1.00  0.00     0.031 C 
ATOM     63  C   UNL A   1      44.674  30.719  31.571  1.00  0.00     0.029 A 
ATOM     64  C   UNL A   1      44.750  29.487  30.925  1.00  0.00     0.049 A 
ATOM     65  H   UNL A   1      44.078  27.634  31.621  1.00  0.00     0.167 HD
ATOM     66  C   UNL A   1      45.153  27.798  29.161  1.00  0.00     0.074 A 
ATOM     67  C   UNL A   1      44.994  26.551  29.898  1.00  0.00     0.031 C 
ATOM     68  C   UNL A   1      45.129  29.092  29.587  1.00  0.00     0.037 A 
BRANCH  55  69
ATOM     69  C   UNL A   1      42.545  27.459  34.330  1.00  0.00     0.064 A 
ATOM     70  C   UNL A   1      41.974  27.482  35.620  1.00  0.00     0.173 A 
ATOM     71  C   UNL A   1      43.091  26.221  33.932  1.00  0.00     0.173 A 
ATOM     72  F   UNL A   1      41.304  28.546  36.077  1.00  0.00    -0.203 F 
ATOM     73  C   UNL A   1      41.968  26.364  36.455  1.00  0.00     0.198 A 
ATOM     74  C   UNL A   1      43.035  25.088  34.750  1.00  0.00     0.198 A 
ATOM     75  F   UNL A   1      43.628  26.072  32.711  1.00  0.00    -0.203 F 
ATOM     76  F   UNL A   1      41.395  26.448  37.664  1.00  0.00    -0.200 F 
ATOM     77  C   UNL A   1      42.475  25.161  36.013  1.00  0.00     0.200 A 
ATOM     78  F   UNL A   1      43.475  23.908  34.290  1.00  0.00    -0.200 F 
ATOM     79  F   UNL A   1      42.381  24.068  36.782  1.00  0.00    -0.200 F 
ENDBRANCH  55  69
BRANCH  56  80
ATOM     80  C   UNL A   1      43.301  24.655  26.186  1.00  0.00     0.064 A 
ATOM     81  C   UNL A   1      42.595  23.532  26.657  1.00  0.00     0.173 A 
ATOM     82  C   UNL A   1      44.271  24.425  25.201  1.00  0.00     0.173 A 
ATOM     83  F   UNL A   1      41.689  23.657  27.638  1.00  0.00    -0.203 F 
ATOM     84  C   UNL A   1      42.881  22.244  26.202  1.00  0.00     0.198 A 
ATOM     85  C   UNL A   1      44.557  23.135  24.746  1.00  0.00     0.198 A 
ATOM     86  F   UNL A   1      45.001  25.444  24.725  1.00  0.00    -0.203 F 
ATOM     87  F   UNL A   1      42.241  21.193  26.734  1.00  0.00    -0.200 F 
ATOM     88  C   UNL A   1      43.874  22.044  25.261  1.00  0.00     0.200 A 
ATOM     89  F   UNL A   1      45.539  22.943  23.855  1.00  0.00    -0.200 F 
ATOM     90  F   UNL A   1      44.203  20.800  24.885  1.00  0.00    -0.200 F 
ENDBRANCH  56  80
BRANCH  68  91
ATOM     91  C   UNL A   1      45.341  30.168  28.568  1.00  0.00     0.064 A 
ATOM     92  C   UNL A   1      46.661  30.541  28.281  1.00  0.00     0.173 A 
ATOM     93  C   UNL A   1      44.314  30.899  27.952  1.00  0.00     0.173 A 
ATOM     94  F   UNL A   1      47.681  29.897  28.869  1.00  0.00    -0.203 F 
ATOM     95  C   UNL A   1      46.943  31.605  27.432  1.00  0.00     0.198 A 
ATOM     96  C   UNL A   1      44.599  31.944  27.073  1.00  0.00     0.198 A 
ATOM     97  F   UNL A   1      43.028  30.646  28.224  1.00  0.00    -0.203 F 
ATOM     98  F   UNL A   1      48.215  31.971  27.226  1.00  0.00    -0.200 F 
ATOM     99  C   UNL A   1      45.913  32.303  26.823  1.00  0.00     0.200 A 
ATOM    100  F   UNL A   1      43.600  32.625  26.491  1.00  0.00    -0.200 F 
ATOM    101  F   UNL A   1      46.189  33.334  26.013  1.00  0.00    -0.200 F 
ENDBRANCH  68  91
ENDBRANCH  42  43
ENDBRANCH  34  37
ENDBRANCH  32  33
ENDBRANCH  31  32
ENDBRANCH   1  31
TORSDOF 13
ENDMDL
MODEL 2
REMARK VINA RESULT:     -14.9      1.702      2.356
REMARK SMILES CC1=Nc2c(c(C)nn2-c2ccc(F)cc2)[C@H](c2ccc(C(=O)NCCCCNC(=O)c3ccc(-c4c5nc(c(-c6c(F)c(F)c(F)c(F)c6F)c6ccc([nH]6)c(-c6c(F)c(F)c(F)c(F)c6F)c6nc(c(-c7c(F)c(F)c(F)c(F)c7F)c7ccc4[nH]7)C=C6)C=C5)cc3)cc2)S1
REMARK SMILES IDX 26 1 25 2 24 3 22 4 23 5 21 7 18 8 19 9 96 10 20 11 95 12
REMARK SMILES IDX 17 13 1 14 2 15 3 16 97 17 4 18 5 19 9 20 6 21 8 22 7 23
REMARK SMILES IDX 10 24 11 25 16 26 12 27 15 28 13 29 14 30 27 31 28 32 29 33
REMARK SMILES IDX 30 34 31 36 32 37 33 38 94 39 34 40 93 41 35 42 36 43 37 44
REMARK SMILES IDX 87 45 38 46 92 47 86 48 88 49 39 50 91 51 85 52 84 53 40 55
REMARK SMILES IDX 72 56 52 57 71 58 53 59 56 60 70 61 89 62 54 63 55 64 69 66
REMARK SMILES IDX 90 67 57 68 41 69 42 70 50 71 43 72 44 73 48 74 51 75 45 76
REMARK SMILES IDX 46 77 49 78 47 79 73 80 74 81 82 82 75 83 76 84 80 85 83 86
REMARK SMILES IDX 77 87 78 88 81 89 79 90 58 91 59 92 67 93 60 94 61 95 65 96
REMARK SMILES IDX 68 97 62 98 63 99 66 100 64 101
REMARK H PARENT 24 6 29 35 88 54 56 65
REMARK Flexibility Score: inf
ROOT
ATOM      1  C   UNL A   1      32.794  29.701  25.094  1.00  0.00     0.023 C 
ENDROOT
BRANCH   1   2
ATOM      2  C   UNL A   1      31.288  29.973  25.204  1.00  0.00     0.116 C 
BRANCH   2   3
ATOM      3  N   UNL A   1      30.650  29.961  23.903  1.00  0.00    -0.352 N 
ATOM      4  C   UNL A   1      30.311  28.941  23.052  1.00  0.00     0.251 C 
ATOM      5  O   UNL A   1      29.717  29.240  22.014  1.00  0.00    -0.269 OA
ATOM      6  H   UNL A   1      30.414  30.856  23.567  1.00  0.00     0.163 HD
BRANCH   4   7
ATOM      7  C   UNL A   1      30.572  27.505  23.345  1.00  0.00     0.039 A 
ATOM      8  C   UNL A   1      31.154  24.753  23.737  1.00  0.00    -0.030 A 
ATOM      9  C   UNL A   1      31.496  25.403  22.540  1.00  0.00     0.006 A 
ATOM     10  C   UNL A   1      30.542  25.519  24.742  1.00  0.00     0.006 A 
ATOM     11  C   UNL A   1      31.221  26.761  22.352  1.00  0.00     0.014 A 
ATOM     12  C   UNL A   1      30.266  26.878  24.552  1.00  0.00     0.014 A 
BRANCH   8  13
ATOM     13  C   UNL A   1      31.519  23.285  23.920  1.00  0.00     0.119 C 
ATOM     14  C   UNL A   1      32.257  22.878  27.974  1.00  0.00     0.075 C 
ATOM     15  C   UNL A   1      32.473  22.798  26.485  1.00  0.00     0.074 C 
ATOM     16  N   UNL A   1      33.686  22.914  26.047  1.00  0.00    -0.227 NA
ATOM     17  S   UNL A   1      31.009  22.599  25.530  1.00  0.00    -0.098 SA
ATOM     18  C   UNL A   1      33.887  22.983  24.709  1.00  0.00     0.161 A 
ATOM     19  C   UNL A   1      32.979  23.198  23.697  1.00  0.00     0.038 A 
ATOM     20  N   UNL A   1      35.138  22.985  24.115  1.00  0.00    -0.215 N 
ATOM     21  C   UNL A   1      33.767  23.343  22.525  1.00  0.00     0.067 A 
ATOM     22  N   UNL A   1      35.077  23.316  22.801  1.00  0.00    -0.171 NA
ATOM     23  C   UNL A   1      33.319  23.561  21.126  1.00  0.00     0.069 C 
BRANCH  20  24
ATOM     24  C   UNL A   1      36.373  22.695  24.740  1.00  0.00     0.067 A 
ATOM     25  C   UNL A   1      36.894  21.394  24.670  1.00  0.00     0.031 A 
ATOM     26  C   UNL A   1      37.051  23.702  25.437  1.00  0.00     0.031 A 
ATOM     27  C   UNL A   1      38.096  21.099  25.310  1.00  0.00     0.041 A 
ATOM     28  C   UNL A   1      38.224  23.382  26.121  1.00  0.00     0.041 A 
ATOM     29  C   UNL A   1      38.737  22.089  26.047  1.00  0.00     0.123 A 
ATOM     30  F   UNL A   1      39.868  21.790  26.700  1.00  0.00    -0.207 F 
ENDBRANCH  20  24
ENDBRANCH   8  13
ENDBRANCH   4   7
ENDBRANCH   2   3
ENDBRANCH   1   2
BRANCH   1  31
ATOM     31  C   UNL A   1      33.415  28.919  26.262  1.00  0.00     0.023 C 
BRANCH  31  32
ATOM     32  C   UNL A   1      33.729  29.749  27.501  1.00  0.00     0.116 C 
BRANCH  32  33
ATOM     33  N   UNL A   1      34.245  31.085  27.186  1.00  0.00    -0.352 N 
ATOM     34  C   UNL A   1      35.411  31.685  27.639  1.00  0.00     0.251 C 
ATOM     35  H   UNL A   1      33.693  31.626  26.577  1.00  0.00     0.163 HD
ATOM     36  O   UNL A   1      35.560  32.891  27.629  1.00  0.00    -0.269 OA
BRANCH  34  37
ATOM     37  C   UNL A   1      36.491  30.802  28.112  1.00  0.00     0.039 A 
ATOM     38  C   UNL A   1      36.580  29.457  27.743  1.00  0.00     0.014 A 
ATOM     39  C   UNL A   1      37.471  31.400  28.892  1.00  0.00     0.014 A 
ATOM     40  C   UNL A   1      37.725  28.745  28.101  1.00  0.00     0.010 A 
ATOM     41  C   UNL A   1      38.670  30.768  29.055  1.00  0.00     0.010 A 
ATOM     42  C   UNL A   1      38.775  29.419  28.743  1.00  0.00    -0.014 A 
BRANCH  42  43
ATOM     43  C   UNL A   1      40.039  28.763  29.054  1.00  0.00     0.031 A 
ATOM     44  C   UNL A   1      40.321  28.595  30.504  1.00  0.00     0.074 A 
ATOM     45  C   UNL A   1      40.764  28.133  28.100  1.00  0.00     0.049 A 
ATOM     46  N   UNL A   1      41.281  29.118  31.191  1.00  0.00    -0.248 NA
ATOM     47  C   UNL A   1      39.361  27.830  31.320  1.00  0.00     0.031 C 
ATOM     48  C   UNL A   1      40.402  27.915  26.689  1.00  0.00     0.029 A 
ATOM     49  N   UNL A   1      41.938  27.452  28.210  1.00  0.00    -0.354 N 
ATOM     50  C   UNL A   1      41.165  28.596  32.479  1.00  0.00     0.074 A 
ATOM     51  C   UNL A   1      39.879  27.955  32.544  1.00  0.00     0.031 C 
ATOM     52  C   UNL A   1      41.194  26.963  26.153  1.00  0.00     0.029 A 
ATOM     53  C   UNL A   1      42.248  26.670  27.103  1.00  0.00     0.049 A 
ATOM     54  H   UNL A   1      42.517  27.508  29.004  1.00  0.00     0.167 HD
ATOM     55  C   UNL A   1      42.252  28.512  33.296  1.00  0.00     0.037 A 
ATOM     56  C   UNL A   1      43.311  25.847  26.964  1.00  0.00     0.037 A 
ATOM     57  C   UNL A   1      43.356  29.258  32.753  1.00  0.00     0.049 A 
ATOM     58  C   UNL A   1      44.336  26.285  27.935  1.00  0.00     0.074 A 
ATOM     59  C   UNL A   1      43.755  30.575  32.727  1.00  0.00     0.029 A 
ATOM     60  N   UNL A   1      44.030  28.602  31.757  1.00  0.00    -0.354 N 
ATOM     61  N   UNL A   1      44.932  27.445  27.877  1.00  0.00    -0.248 NA
ATOM     62  C   UNL A   1      44.463  25.576  29.203  1.00  0.00     0.031 C 
ATOM     63  C   UNL A   1      44.569  30.722  31.564  1.00  0.00     0.029 A 
ATOM     64  C   UNL A   1      44.681  29.485  30.934  1.00  0.00     0.049 A 
ATOM     65  H   UNL A   1      44.047  27.624  31.647  1.00  0.00     0.167 HD
ATOM     66  C   UNL A   1      45.144  27.784  29.196  1.00  0.00     0.074 A 
ATOM     67  C   UNL A   1      45.006  26.543  29.947  1.00  0.00     0.031 C 
ATOM     68  C   UNL A   1      45.083  29.082  29.605  1.00  0.00     0.037 A 
BRANCH  55  69
ATOM     69  C   UNL A   1      42.490  27.447  34.343  1.00  0.00     0.064 A 
ATOM     70  C   UNL A   1      41.903  27.470  35.625  1.00  0.00     0.173 A 
ATOM     71  C   UNL A   1      43.075  26.219  33.967  1.00  0.00     0.173 A 
ATOM     72  F   UNL A   1      41.198  28.521  36.061  1.00  0.00    -0.203 F 
ATOM     73  C   UNL A   1      41.915  26.362  36.473  1.00  0.00     0.198 A 
ATOM     74  C   UNL A   1      43.038  25.095  34.798  1.00  0.00     0.198 A 
ATOM     75  F   UNL A   1      43.631  26.069  32.755  1.00  0.00    -0.203 F 
ATOM     76  F   UNL A   1      41.325  26.446  37.675  1.00  0.00    -0.200 F 
ATOM     77  C   UNL A   1      42.460  25.168  36.053  1.00  0.00     0.200 A 
ATOM     78  F   UNL A   1      43.515  23.922  34.358  1.00  0.00    -0.200 F 
ATOM     79  F   UNL A   1      42.385  24.083  36.834  1.00  0.00    -0.200 F 
ENDBRANCH  55  69
BRANCH  56  80
ATOM     80  C   UNL A   1      43.398  24.560  26.244  1.00  0.00     0.064 A 
ATOM     81  C   UNL A   1      42.824  23.396  26.789  1.00  0.00     0.173 A 
ATOM     82  C   UNL A   1      44.297  24.384  25.182  1.00  0.00     0.173 A 
ATOM     83  F   UNL A   1      41.997  23.471  27.842  1.00  0.00    -0.203 F 
ATOM     84  C   UNL A   1      43.172  22.125  26.330  1.00  0.00     0.198 A 
ATOM     85  C   UNL A   1      44.644  23.111  24.723  1.00  0.00     0.198 A 
ATOM     86  F   UNL A   1      44.902  25.447  24.631  1.00  0.00    -0.203 F 
ATOM     87  F   UNL A   1      42.664  21.038  26.929  1.00  0.00    -0.200 F 
ATOM     88  C   UNL A   1      44.095  21.982  25.310  1.00  0.00     0.200 A 
ATOM     89  F   UNL A   1      45.560  22.977  23.754  1.00  0.00    -0.200 F 
ATOM     90  F   UNL A   1      44.488  20.760  24.925  1.00  0.00    -0.200 F 
ENDBRANCH  56  80
BRANCH  68  91
ATOM     91  C   UNL A   1      45.280  30.150  28.574  1.00  0.00     0.064 A 
ATOM     92  C   UNL A   1      46.583  30.622  28.369  1.00  0.00     0.173 A 
ATOM     93  C   UNL A   1      44.243  30.782  27.871  1.00  0.00     0.173 A 
ATOM     94  F   UNL A   1      47.608  30.076  29.041  1.00  0.00    -0.203 F 
ATOM     95  C   UNL A   1      46.839  31.688  27.512  1.00  0.00     0.198 A 
ATOM     96  C   UNL A   1      44.506  31.828  26.986  1.00  0.00     0.198 A 
ATOM     97  F   UNL A   1      42.966  30.432  28.062  1.00  0.00    -0.203 F 
ATOM     98  F   UNL A   1      48.089  32.151  27.383  1.00  0.00    -0.200 F 
ATOM     99  C   UNL A   1      45.801  32.287  26.817  1.00  0.00     0.200 A 
ATOM    100  F   UNL A   1      43.499  32.414  26.320  1.00  0.00    -0.200 F 
ATOM    101  F   UNL A   1      46.050  33.319  25.999  1.00  0.00    -0.200 F 
ENDBRANCH  68  91
ENDBRANCH  42  43
ENDBRANCH  34  37
ENDBRANCH  32  33
ENDBRANCH  31  32
ENDBRANCH   1  31
TORSDOF 13
ENDMDL
MODEL 3
REMARK VINA RESULT:     -14.8      1.892      2.755
REMARK SMILES CC1=Nc2c(c(C)nn2-c2ccc(F)cc2)[C@H](c2ccc(C(=O)NCCCCNC(=O)c3ccc(-c4c5nc(c(-c6c(F)c(F)c(F)c(F)c6F)c6ccc([nH]6)c(-c6c(F)c(F)c(F)c(F)c6F)c6nc(c(-c7c(F)c(F)c(F)c(F)c7F)c7ccc4[nH]7)C=C6)C=C5)cc3)cc2)S1
REMARK SMILES IDX 26 1 25 2 24 3 22 4 23 5 21 7 18 8 19 9 96 10 20 11 95 12
REMARK SMILES IDX 17 13 1 14 2 15 3 16 97 17 4 18 5 19 9 20 6 21 8 22 7 23
REMARK SMILES IDX 10 24 11 25 16 26 12 27 15 28 13 29 14 30 27 31 28 32 29 33
REMARK SMILES IDX 30 34 31 36 32 37 33 38 94 39 34 40 93 41 35 42 36 43 37 44
REMARK SMILES IDX 87 45 38 46 92 47 86 48 88 49 39 50 91 51 85 52 84 53 40 55
REMARK SMILES IDX 72 56 52 57 71 58 53 59 56 60 70 61 89 62 54 63 55 64 69 66
REMARK SMILES IDX 90 67 57 68 41 69 42 70 50 71 43 72 44 73 48 74 51 75 45 76
REMARK SMILES IDX 46 77 49 78 47 79 73 80 74 81 82 82 75 83 76 84 80 85 83 86
REMARK SMILES IDX 77 87 78 88 81 89 79 90 58 91 59 92 67 93 60 94 61 95 65 96
REMARK SMILES IDX 68 97 62 98 63 99 66 100 64 101
REMARK H PARENT 24 6 29 35 88 54 56 65
REMARK Flexibility Score: inf
ROOT
ATOM      1  C   UNL A   1      32.276  29.603  26.749  1.00  0.00     0.023 C 
ENDROOT
BRANCH   1   2
ATOM      2  C   UNL A   1      32.466  29.894  25.255  1.00  0.00     0.116 C 
BRANCH   2   3
ATOM      3  N   UNL A   1      31.194  30.033  24.574  1.00  0.00    -0.352 N 
ATOM      4  C   UNL A   1      30.371  29.122  23.964  1.00  0.00     0.251 C 
ATOM      5  O   UNL A   1      29.305  29.536  23.506  1.00  0.00    -0.269 OA
ATOM      6  H   UNL A   1      30.857  30.958  24.546  1.00  0.00     0.163 HD
BRANCH   4   7
ATOM      7  C   UNL A   1      30.676  27.667  23.880  1.00  0.00     0.039 A 
ATOM      8  C   UNL A   1      31.250  24.886  23.907  1.00  0.00    -0.030 A 
ATOM      9  C   UNL A   1      31.089  25.604  25.103  1.00  0.00     0.006 A 
ATOM     10  C   UNL A   1      31.088  25.585  22.700  1.00  0.00     0.006 A 
ATOM     11  C   UNL A   1      30.793  26.971  25.089  1.00  0.00     0.014 A 
ATOM     12  C   UNL A   1      30.794  26.953  22.688  1.00  0.00     0.014 A 
BRANCH   8  13
ATOM     13  C   UNL A   1      31.519  23.387  23.967  1.00  0.00     0.119 C 
ATOM     14  C   UNL A   1      32.318  22.615  27.955  1.00  0.00     0.075 C 
ATOM     15  C   UNL A   1      32.495  22.639  26.458  1.00  0.00     0.074 C 
ATOM     16  N   UNL A   1      33.702  22.709  25.998  1.00  0.00    -0.227 NA
ATOM     17  S   UNL A   1      31.000  22.612  25.532  1.00  0.00    -0.098 SA
ATOM     18  C   UNL A   1      33.878  22.870  24.664  1.00  0.00     0.161 A 
ATOM     19  C   UNL A   1      32.965  23.223  23.697  1.00  0.00     0.038 A 
ATOM     20  N   UNL A   1      35.113  22.836  24.038  1.00  0.00    -0.215 N 
ATOM     21  C   UNL A   1      33.734  23.407  22.518  1.00  0.00     0.067 A 
ATOM     22  N   UNL A   1      35.045  23.273  22.755  1.00  0.00    -0.171 NA
ATOM     23  C   UNL A   1      33.271  23.764  21.153  1.00  0.00     0.069 C 
BRANCH  20  24
ATOM     24  C   UNL A   1      36.339  22.417  24.604  1.00  0.00     0.067 A 
ATOM     25  C   UNL A   1      36.725  21.072  24.500  1.00  0.00     0.031 A 
ATOM     26  C   UNL A   1      37.144  23.343  25.279  1.00  0.00     0.031 A 
ATOM     27  C   UNL A   1      37.919  20.652  25.083  1.00  0.00     0.041 A 
ATOM     28  C   UNL A   1      38.308  22.900  25.907  1.00  0.00     0.041 A 
ATOM     29  C   UNL A   1      38.687  21.564  25.799  1.00  0.00     0.123 A 
ATOM     30  F   UNL A   1      39.810  21.146  26.398  1.00  0.00    -0.207 F 
ENDBRANCH  20  24
ENDBRANCH   8  13
ENDBRANCH   4   7
ENDBRANCH   2   3
ENDBRANCH   1   2
BRANCH   1  31
ATOM     31  C   UNL A   1      33.559  29.609  27.595  1.00  0.00     0.023 C 
BRANCH  31  32
ATOM     32  C   UNL A   1      34.417  30.862  27.458  1.00  0.00     0.116 C 
BRANCH  32  33
ATOM     33  N   UNL A   1      34.386  31.718  28.648  1.00  0.00    -0.352 N 
ATOM     34  C   UNL A   1      35.218  31.678  29.757  1.00  0.00     0.251 C 
ATOM     35  H   UNL A   1      33.685  32.408  28.661  1.00  0.00     0.163 HD
ATOM     36  O   UNL A   1      34.891  32.159  30.824  1.00  0.00    -0.269 OA
BRANCH  34  37
ATOM     37  C   UNL A   1      36.541  31.053  29.593  1.00  0.00     0.039 A 
ATOM     38  C   UNL A   1      37.709  31.798  29.416  1.00  0.00     0.014 A 
ATOM     39  C   UNL A   1      36.580  29.669  29.699  1.00  0.00     0.014 A 
ATOM     40  C   UNL A   1      38.933  31.129  29.439  1.00  0.00     0.010 A 
ATOM     41  C   UNL A   1      37.776  29.052  29.931  1.00  0.00     0.010 A 
ATOM     42  C   UNL A   1      38.955  29.754  29.717  1.00  0.00    -0.014 A 
BRANCH  42  43
ATOM     43  C   UNL A   1      40.203  29.013  29.856  1.00  0.00     0.031 A 
ATOM     44  C   UNL A   1      40.693  28.862  31.252  1.00  0.00     0.074 A 
ATOM     45  C   UNL A   1      40.725  28.306  28.827  1.00  0.00     0.049 A 
ATOM     46  N   UNL A   1      41.782  29.329  31.764  1.00  0.00    -0.248 NA
ATOM     47  C   UNL A   1      39.819  28.194  32.232  1.00  0.00     0.031 C 
ATOM     48  C   UNL A   1      40.135  28.079  27.497  1.00  0.00     0.029 A 
ATOM     49  N   UNL A   1      41.851  27.541  28.782  1.00  0.00    -0.354 N 
ATOM     50  C   UNL A   1      41.831  28.851  33.073  1.00  0.00     0.074 A 
ATOM     51  C   UNL A   1      40.528  28.312  33.358  1.00  0.00     0.031 C 
ATOM     52  C   UNL A   1      40.765  27.055  26.883  1.00  0.00     0.029 A 
ATOM     53  C   UNL A   1      41.930  26.709  27.672  1.00  0.00     0.049 A 
ATOM     54  H   UNL A   1      42.548  27.573  29.476  1.00  0.00     0.167 HD
ATOM     55  C   UNL A   1      43.023  28.707  33.718  1.00  0.00     0.037 A 
ATOM     56  C   UNL A   1      42.897  25.804  27.403  1.00  0.00     0.037 A 
ATOM     57  C   UNL A   1      44.079  29.353  32.985  1.00  0.00     0.049 A 
ATOM     58  C   UNL A   1      44.089  26.189  28.190  1.00  0.00     0.074 A 
ATOM     59  C   UNL A   1      44.560  30.635  32.849  1.00  0.00     0.029 A 
ATOM     60  N   UNL A   1      44.543  28.623  31.923  1.00  0.00    -0.354 N 
ATOM     61  N   UNL A   1      44.749  27.299  27.997  1.00  0.00    -0.248 NA
ATOM     62  C   UNL A   1      44.361  25.506  29.449  1.00  0.00     0.031 C 
ATOM     63  C   UNL A   1      45.193  30.690  31.570  1.00  0.00     0.029 A 
ATOM     64  C   UNL A   1      45.119  29.431  30.978  1.00  0.00     0.049 A 
ATOM     65  H   UNL A   1      44.473  27.644  31.849  1.00  0.00     0.167 HD
ATOM     66  C   UNL A   1      45.186  27.656  29.255  1.00  0.00     0.074 A 
ATOM     67  C   UNL A   1      45.079  26.449  30.065  1.00  0.00     0.031 C 
ATOM     68  C   UNL A   1      45.281  28.965  29.620  1.00  0.00     0.037 A 
BRANCH  55  69
ATOM     69  C   UNL A   1      43.344  27.656  34.755  1.00  0.00     0.064 A 
ATOM     70  C   UNL A   1      43.662  26.319  34.436  1.00  0.00     0.173 A 
ATOM     71  C   UNL A   1      43.638  28.048  36.078  1.00  0.00     0.173 A 
ATOM     72  F   UNL A   1      43.562  25.847  33.188  1.00  0.00    -0.203 F 
ATOM     73  C   UNL A   1      44.211  25.438  35.369  1.00  0.00     0.198 A 
ATOM     74  C   UNL A   1      44.238  27.178  36.994  1.00  0.00     0.198 A 
ATOM     75  F   UNL A   1      43.412  29.307  36.484  1.00  0.00    -0.203 F 
ATOM     76  F   UNL A   1      44.504  24.183  34.996  1.00  0.00    -0.200 F 
ATOM     77  C   UNL A   1      44.522  25.872  36.639  1.00  0.00     0.200 A 
ATOM     78  F   UNL A   1      44.592  27.624  38.208  1.00  0.00    -0.200 F 
ATOM     79  F   UNL A   1      45.134  25.048  37.500  1.00  0.00    -0.200 F 
ENDBRANCH  55  69
BRANCH  56  80
ATOM     80  C   UNL A   1      42.781  24.496  26.727  1.00  0.00     0.064 A 
ATOM     81  C   UNL A   1      42.438  23.342  27.456  1.00  0.00     0.173 A 
ATOM     82  C   UNL A   1      43.300  24.298  25.439  1.00  0.00     0.173 A 
ATOM     83  F   UNL A   1      41.987  23.440  28.716  1.00  0.00    -0.203 F 
ATOM     84  C   UNL A   1      42.651  22.062  26.945  1.00  0.00     0.198 A 
ATOM     85  C   UNL A   1      43.512  23.016  24.927  1.00  0.00     0.198 A 
ATOM     86  F   UNL A   1      43.673  25.351  24.696  1.00  0.00    -0.203 F 
ATOM     87  F   UNL A   1      42.385  20.989  27.703  1.00  0.00    -0.200 F 
ATOM     88  C   UNL A   1      43.206  21.899  25.688  1.00  0.00     0.200 A 
ATOM     89  F   UNL A   1      44.076  22.863  23.721  1.00  0.00    -0.200 F 
ATOM     90  F   UNL A   1      43.484  20.671  25.230  1.00  0.00    -0.200 F 
ENDBRANCH  56  80
BRANCH  68  91
ATOM     91  C   UNL A   1      45.391  29.987  28.531  1.00  0.00     0.064 A 
ATOM     92  C   UNL A   1      46.674  30.313  28.073  1.00  0.00     0.173 A 
ATOM     93  C   UNL A   1      44.312  30.715  28.007  1.00  0.00     0.173 A 
ATOM     94  F   UNL A   1      47.745  29.672  28.566  1.00  0.00    -0.203 F 
ATOM     95  C   UNL A   1      46.874  31.330  27.146  1.00  0.00     0.198 A 
ATOM     96  C   UNL A   1      44.510  31.711  27.051  1.00  0.00     0.198 A 
ATOM     97  F   UNL A   1      43.064  30.507  28.442  1.00  0.00    -0.203 F 
ATOM     98  F   UNL A   1      48.119  31.654  26.772  1.00  0.00    -0.200 F 
ATOM     99  C   UNL A   1      45.792  32.025  26.630  1.00  0.00     0.200 A 
ATOM    100  F   UNL A   1      43.463  32.390  26.560  1.00  0.00    -0.200 F 
ATOM    101  F   UNL A   1      45.989  33.011  25.744  1.00  0.00    -0.200 F 
ENDBRANCH  68  91
ENDBRANCH  42  43
ENDBRANCH  34  37
ENDBRANCH  32  33
ENDBRANCH  31  32
ENDBRANCH   1  31
TORSDOF 13
ENDMDL
