MODEL 1
REMARK VINA RESULT:     -11.9      0.000      0.000
REMARK SMILES C/C=C/c1cncc(-c2ccc([C@@H](C)C(=O)NCCCCNC(=O)c3ccc(-c4c5nc(c(-c6c(F)c(F)c(F)c(F)c6F)c6ccc([nH]6)c(-c6c(F)c(F)c(F)c(F)c6F)c6nc(c(-c7c(F)c(F)c(F)c(F)c7F)c7ccc4[nH]7)C=C6)C=C5)cc3)cc2)c1
REMARK SMILES IDX 19 1 18 2 17 3 15 4 16 5 13 7 14 8 12 9 9 10 10 11 89 12
REMARK SMILES IDX 11 13 88 14 8 15 4 16 5 17 90 18 6 19 7 20 3 21 1 22 2 23
REMARK SMILES IDX 20 24 21 25 22 26 23 27 24 29 25 30 26 31 87 32 27 33 86 34
REMARK SMILES IDX 28 35 29 36 30 37 80 38 31 39 85 40 79 41 81 42 32 43 84 44
REMARK SMILES IDX 78 45 77 46 33 48 65 49 45 50 64 51 46 52 49 53 63 54 82 55
REMARK SMILES IDX 47 56 48 57 62 59 83 60 50 61 34 62 35 63 43 64 36 65 37 66
REMARK SMILES IDX 41 67 44 68 38 69 39 70 42 71 40 72 66 73 67 74 75 75 68 76
REMARK SMILES IDX 69 77 73 78 76 79 70 80 71 81 74 82 72 83 51 84 52 85 60 86
REMARK SMILES IDX 53 87 54 88 58 89 61 90 55 91 56 92 59 93 57 94
REMARK H PARENT 17 6 22 28 81 47 49 58
REMARK Flexibility Score: inf
ROOT
ATOM      1  C   UNL A   1      32.933  29.450  24.986  1.00  0.00     0.023 C 
ENDROOT
BRANCH   1   2
ATOM      2  C   UNL A   1      31.412  29.512  24.845  1.00  0.00     0.116 C 
BRANCH   2   3
ATOM      3  N   UNL A   1      31.002  29.819  23.491  1.00  0.00    -0.356 N 
ATOM      4  C   UNL A   1      30.252  29.118  22.596  1.00  0.00     0.227 C 
ATOM      5  O   UNL A   1      30.136  29.615  21.470  1.00  0.00    -0.274 OA
ATOM      6  H   UNL A   1      31.322  30.690  23.158  1.00  0.00     0.163 HD
BRANCH   4   7
ATOM      7  C   UNL A   1      29.556  27.786  22.923  1.00  0.00     0.105 C 
ATOM      8  C   UNL A   1      28.105  27.946  23.379  1.00  0.00     0.023 C 
BRANCH   7   9
ATOM      9  C   UNL A   1      30.418  26.836  23.740  1.00  0.00    -0.036 A 
ATOM     10  C   UNL A   1      31.885  24.921  25.292  1.00  0.00    -0.017 A 
ATOM     11  C   UNL A   1      32.286  25.297  23.998  1.00  0.00     0.009 A 
ATOM     12  C   UNL A   1      30.743  25.562  25.801  1.00  0.00     0.009 A 
ATOM     13  C   UNL A   1      31.591  26.260  23.254  1.00  0.00     0.005 A 
ATOM     14  C   UNL A   1      30.012  26.483  25.036  1.00  0.00     0.005 A 
BRANCH  10  15
ATOM     15  C   UNL A   1      32.634  23.901  26.067  1.00  0.00     0.001 A 
ATOM     16  C   UNL A   1      34.609  22.507  26.469  1.00  0.00    -0.007 A 
ATOM     17  C   UNL A   1      33.954  21.999  27.586  1.00  0.00     0.119 A 
ATOM     18  C   UNL A   1      33.928  23.472  25.712  1.00  0.00     0.020 A 
ATOM     19  N   UNL A   1      32.719  22.373  27.979  1.00  0.00    -0.263 NA
ATOM     20  C   UNL A   1      32.098  23.298  27.209  1.00  0.00     0.119 A 
BRANCH  16  21
ATOM     21  C   UNL A   1      35.919  21.963  26.094  1.00  0.00     0.005 C 
ATOM     22  C   UNL A   1      37.479  20.514  24.790  1.00  0.00     0.035 C 
ATOM     23  C   UNL A   1      36.124  21.039  25.142  1.00  0.00    -0.030 C 
ENDBRANCH  16  21
ENDBRANCH  10  15
ENDBRANCH   7   9
ENDBRANCH   4   7
ENDBRANCH   2   3
ENDBRANCH   1   2
BRANCH   1  24
ATOM     24  C   UNL A   1      33.450  28.340  25.897  1.00  0.00     0.023 C 
BRANCH  24  25
ATOM     25  C   UNL A   1      33.458  28.666  27.386  1.00  0.00     0.116 C 
BRANCH  25  26
ATOM     26  N   UNL A   1      33.528  30.091  27.684  1.00  0.00    -0.352 N 
ATOM     27  C   UNL A   1      34.603  30.816  28.151  1.00  0.00     0.251 C 
ATOM     28  H   UNL A   1      32.701  30.602  27.529  1.00  0.00     0.163 HD
ATOM     29  O   UNL A   1      34.494  32.003  28.415  1.00  0.00    -0.269 OA
BRANCH  27  30
ATOM     30  C   UNL A   1      35.883  30.116  28.382  1.00  0.00     0.039 A 
ATOM     31  C   UNL A   1      36.853  30.139  27.375  1.00  0.00     0.014 A 
ATOM     32  C   UNL A   1      36.153  29.525  29.617  1.00  0.00     0.014 A 
ATOM     33  C   UNL A   1      38.134  29.657  27.647  1.00  0.00     0.010 A 
ATOM     34  C   UNL A   1      37.447  29.112  29.908  1.00  0.00     0.010 A 
ATOM     35  C   UNL A   1      38.454  29.193  28.934  1.00  0.00    -0.014 A 
BRANCH  35  36
ATOM     36  C   UNL A   1      39.843  28.833  29.305  1.00  0.00     0.031 A 
ATOM     37  C   UNL A   1      40.703  29.814  30.044  1.00  0.00     0.074 A 
ATOM     38  C   UNL A   1      40.364  27.669  28.870  1.00  0.00     0.049 A 
ATOM     39  N   UNL A   1      41.976  29.742  30.339  1.00  0.00    -0.248 NA
ATOM     40  C   UNL A   1      40.052  31.059  30.476  1.00  0.00     0.031 C 
ATOM     41  C   UNL A   1      39.647  26.663  28.084  1.00  0.00     0.029 A 
ATOM     42  N   UNL A   1      41.629  27.151  28.999  1.00  0.00    -0.354 N 
ATOM     43  C   UNL A   1      42.282  30.939  30.970  1.00  0.00     0.074 A 
ATOM     44  C   UNL A   1      41.075  31.739  30.973  1.00  0.00     0.031 C 
ATOM     45  C   UNL A   1      40.479  25.649  27.805  1.00  0.00     0.029 A 
ATOM     46  C   UNL A   1      41.796  25.948  28.359  1.00  0.00     0.049 A 
ATOM     47  H   UNL A   1      42.345  27.598  29.504  1.00  0.00     0.167 HD
ATOM     48  C   UNL A   1      43.459  31.326  31.517  1.00  0.00     0.037 A 
ATOM     49  C   UNL A   1      42.895  25.182  28.213  1.00  0.00     0.037 A 
ATOM     50  C   UNL A   1      44.646  30.513  31.539  1.00  0.00     0.049 A 
ATOM     51  C   UNL A   1      44.189  25.629  28.830  1.00  0.00     0.074 A 
ATOM     52  C   UNL A   1      45.854  30.765  32.165  1.00  0.00     0.029 A 
ATOM     53  N   UNL A   1      44.775  29.290  30.897  1.00  0.00    -0.354 N 
ATOM     54  N   UNL A   1      44.447  26.723  29.505  1.00  0.00    -0.248 NA
ATOM     55  C   UNL A   1      45.346  24.739  28.663  1.00  0.00     0.031 C 
ATOM     56  C   UNL A   1      46.730  29.716  31.861  1.00  0.00     0.029 A 
ATOM     57  C   UNL A   1      46.055  28.792  31.079  1.00  0.00     0.049 A 
ATOM     58  H   UNL A   1      44.062  28.842  30.387  1.00  0.00     0.167 HD
ATOM     59  C   UNL A   1      45.790  26.653  29.847  1.00  0.00     0.074 A 
ATOM     60  C   UNL A   1      46.289  25.398  29.323  1.00  0.00     0.031 C 
ATOM     61  C   UNL A   1      46.541  27.551  30.530  1.00  0.00     0.037 A 
BRANCH  48  62
ATOM     62  C   UNL A   1      43.512  32.693  32.134  1.00  0.00     0.064 A 
ATOM     63  C   UNL A   1      43.863  33.825  31.384  1.00  0.00     0.173 A 
ATOM     64  C   UNL A   1      43.208  32.872  33.492  1.00  0.00     0.173 A 
ATOM     65  F   UNL A   1      44.175  33.705  30.084  1.00  0.00    -0.203 F 
ATOM     66  C   UNL A   1      43.948  35.081  31.980  1.00  0.00     0.198 A 
ATOM     67  C   UNL A   1      43.265  34.133  34.077  1.00  0.00     0.198 A 
ATOM     68  F   UNL A   1      42.863  31.822  34.252  1.00  0.00    -0.203 F 
ATOM     69  F   UNL A   1      44.345  36.137  31.258  1.00  0.00    -0.200 F 
ATOM     70  C   UNL A   1      43.646  35.234  33.325  1.00  0.00     0.200 A 
ATOM     71  F   UNL A   1      42.965  34.282  35.375  1.00  0.00    -0.200 F 
ATOM     72  F   UNL A   1      43.733  36.442  33.898  1.00  0.00    -0.200 F 
ENDBRANCH  48  62
BRANCH  49  73
ATOM     73  C   UNL A   1      42.802  23.912  27.452  1.00  0.00     0.064 A 
ATOM     74  C   UNL A   1      43.109  23.871  26.085  1.00  0.00     0.173 A 
ATOM     75  C   UNL A   1      42.446  22.710  28.080  1.00  0.00     0.173 A 
ATOM     76  F   UNL A   1      43.435  24.999  25.438  1.00  0.00    -0.203 F 
ATOM     77  C   UNL A   1      43.060  22.672  25.374  1.00  0.00     0.198 A 
ATOM     78  C   UNL A   1      42.419  21.510  27.375  1.00  0.00     0.198 A 
ATOM     79  F   UNL A   1      42.149  22.699  29.388  1.00  0.00    -0.203 F 
ATOM     80  F   UNL A   1      43.335  22.663  24.063  1.00  0.00    -0.200 F 
ATOM     81  C   UNL A   1      42.723  21.493  26.021  1.00  0.00     0.200 A 
ATOM     82  F   UNL A   1      42.106  20.370  28.005  1.00  0.00    -0.200 F 
ATOM     83  F   UNL A   1      42.691  20.339  25.341  1.00  0.00    -0.200 F 
ENDBRANCH  49  73
BRANCH  61  84
ATOM     84  C   UNL A   1      47.989  27.218  30.735  1.00  0.00     0.064 A 
ATOM     85  C   UNL A   1      48.976  27.702  29.865  1.00  0.00     0.173 A 
ATOM     86  C   UNL A   1      48.398  26.452  31.837  1.00  0.00     0.173 A 
ATOM     87  F   UNL A   1      48.632  28.424  28.788  1.00  0.00    -0.203 F 
ATOM     88  C   UNL A   1      50.321  27.422  30.085  1.00  0.00     0.198 A 
ATOM     89  C   UNL A   1      49.747  26.194  32.067  1.00  0.00     0.198 A 
ATOM     90  F   UNL A   1      47.490  25.968  32.699  1.00  0.00    -0.203 F 
ATOM     91  F   UNL A   1      51.247  27.867  29.224  1.00  0.00    -0.200 F 
ATOM     92  C   UNL A   1      50.706  26.676  31.190  1.00  0.00     0.200 A 
ATOM     93  F   UNL A   1      50.117  25.481  33.140  1.00  0.00    -0.200 F 
ATOM     94  F   UNL A   1      52.003  26.416  31.405  1.00  0.00    -0.200 F 
ENDBRANCH  61  84
ENDBRANCH  35  36
ENDBRANCH  27  30
ENDBRANCH  25  26
ENDBRANCH  24  25
ENDBRANCH   1  24
TORSDOF 14
ENDMDL
MODEL 2
REMARK VINA RESULT:     -11.9      1.015      1.992
REMARK SMILES C/C=C/c1cncc(-c2ccc([C@@H](C)C(=O)NCCCCNC(=O)c3ccc(-c4c5nc(c(-c6c(F)c(F)c(F)c(F)c6F)c6ccc([nH]6)c(-c6c(F)c(F)c(F)c(F)c6F)c6nc(c(-c7c(F)c(F)c(F)c(F)c7F)c7ccc4[nH]7)C=C6)C=C5)cc3)cc2)c1
REMARK SMILES IDX 19 1 18 2 17 3 15 4 16 5 13 7 14 8 12 9 9 10 10 11 89 12
REMARK SMILES IDX 11 13 88 14 8 15 4 16 5 17 90 18 6 19 7 20 3 21 1 22 2 23
REMARK SMILES IDX 20 24 21 25 22 26 23 27 24 29 25 30 26 31 87 32 27 33 86 34
REMARK SMILES IDX 28 35 29 36 30 37 80 38 31 39 85 40 79 41 81 42 32 43 84 44
REMARK SMILES IDX 78 45 77 46 33 48 65 49 45 50 64 51 46 52 49 53 63 54 82 55
REMARK SMILES IDX 47 56 48 57 62 59 83 60 50 61 34 62 35 63 43 64 36 65 37 66
REMARK SMILES IDX 41 67 44 68 38 69 39 70 42 71 40 72 66 73 67 74 75 75 68 76
REMARK SMILES IDX 69 77 73 78 76 79 70 80 71 81 74 82 72 83 51 84 52 85 60 86
REMARK SMILES IDX 53 87 54 88 58 89 61 90 55 91 56 92 59 93 57 94
REMARK H PARENT 17 6 22 28 81 47 49 58
REMARK Flexibility Score: inf
ROOT
ATOM      1  C   UNL A   1      32.614  29.320  25.001  1.00  0.00     0.023 C 
ENDROOT
BRANCH   1   2
ATOM      2  C   UNL A   1      31.118  29.593  24.837  1.00  0.00     0.116 C 
BRANCH   2   3
ATOM      3  N   UNL A   1      30.781  29.991  23.487  1.00  0.00    -0.356 N 
ATOM      4  C   UNL A   1      30.103  29.342  22.499  1.00  0.00     0.227 C 
ATOM      5  O   UNL A   1      30.041  29.918  21.407  1.00  0.00    -0.274 OA
ATOM      6  H   UNL A   1      31.098  30.890  23.237  1.00  0.00     0.163 HD
BRANCH   4   7
ATOM      7  C   UNL A   1      29.423  27.975  22.686  1.00  0.00     0.105 C 
ATOM      8  C   UNL A   1      28.136  28.036  23.510  1.00  0.00     0.023 C 
BRANCH   7   9
ATOM      9  C   UNL A   1      30.394  26.857  23.035  1.00  0.00    -0.036 A 
ATOM     10  C   UNL A   1      32.367  24.887  23.709  1.00  0.00    -0.017 A 
ATOM     11  C   UNL A   1      31.225  25.100  24.501  1.00  0.00     0.009 A 
ATOM     12  C   UNL A   1      32.472  25.668  22.546  1.00  0.00     0.009 A 
ATOM     13  C   UNL A   1      30.242  26.036  24.153  1.00  0.00     0.005 A 
ATOM     14  C   UNL A   1      31.519  26.647  22.226  1.00  0.00     0.005 A 
BRANCH  10  15
ATOM     15  C   UNL A   1      33.396  23.890  24.091  1.00  0.00     0.001 A 
ATOM     16  C   UNL A   1      35.577  23.278  25.027  1.00  0.00    -0.007 A 
ATOM     17  C   UNL A   1      35.249  21.950  24.779  1.00  0.00     0.119 A 
ATOM     18  C   UNL A   1      34.626  24.248  24.676  1.00  0.00     0.020 A 
ATOM     19  N   UNL A   1      34.088  21.544  24.226  1.00  0.00    -0.263 NA
ATOM     20  C   UNL A   1      33.208  22.518  23.892  1.00  0.00     0.119 A 
BRANCH  16  21
ATOM     21  C   UNL A   1      36.906  23.605  25.558  1.00  0.00     0.005 C 
ATOM     22  C   UNL A   1      39.196  23.084  26.402  1.00  0.00     0.035 C 
ATOM     23  C   UNL A   1      37.853  22.706  25.866  1.00  0.00    -0.030 C 
ENDBRANCH  16  21
ENDBRANCH  10  15
ENDBRANCH   7   9
ENDBRANCH   4   7
ENDBRANCH   2   3
ENDBRANCH   1   2
BRANCH   1  24
ATOM     24  C   UNL A   1      32.957  28.140  25.906  1.00  0.00     0.023 C 
BRANCH  24  25
ATOM     25  C   UNL A   1      33.309  28.501  27.345  1.00  0.00     0.116 C 
BRANCH  25  26
ATOM     26  N   UNL A   1      33.299  29.931  27.621  1.00  0.00    -0.352 N 
ATOM     27  C   UNL A   1      34.336  30.726  28.060  1.00  0.00     0.251 C 
ATOM     28  H   UNL A   1      32.440  30.390  27.473  1.00  0.00     0.163 HD
ATOM     29  O   UNL A   1      34.161  31.908  28.308  1.00  0.00    -0.269 OA
BRANCH  27  30
ATOM     30  C   UNL A   1      35.659  30.106  28.278  1.00  0.00     0.039 A 
ATOM     31  C   UNL A   1      36.597  30.141  27.242  1.00  0.00     0.014 A 
ATOM     32  C   UNL A   1      35.996  29.582  29.527  1.00  0.00     0.014 A 
ATOM     33  C   UNL A   1      37.910  29.741  27.493  1.00  0.00     0.010 A 
ATOM     34  C   UNL A   1      37.319  29.252  29.794  1.00  0.00     0.010 A 
ATOM     35  C   UNL A   1      38.292  29.348  28.786  1.00  0.00    -0.014 A 
BRANCH  35  36
ATOM     36  C   UNL A   1      39.709  29.079  29.129  1.00  0.00     0.031 A 
ATOM     37  C   UNL A   1      40.534  30.135  29.802  1.00  0.00     0.074 A 
ATOM     38  C   UNL A   1      40.281  27.929  28.723  1.00  0.00     0.049 A 
ATOM     39  N   UNL A   1      41.816  30.145  30.061  1.00  0.00    -0.248 NA
ATOM     40  C   UNL A   1      39.827  31.360  30.205  1.00  0.00     0.031 C 
ATOM     41  C   UNL A   1      39.599  26.854  28.001  1.00  0.00     0.029 A 
ATOM     42  N   UNL A   1      41.576  27.486  28.835  1.00  0.00    -0.354 N 
ATOM     43  C   UNL A   1      42.073  31.381  30.635  1.00  0.00     0.074 A 
ATOM     44  C   UNL A   1      40.825  32.114  30.643  1.00  0.00     0.031 C 
ATOM     45  C   UNL A   1      40.478  25.876  27.736  1.00  0.00     0.029 A 
ATOM     46  C   UNL A   1      41.792  26.269  28.236  1.00  0.00     0.049 A 
ATOM     47  H   UNL A   1      42.280  27.992  29.299  1.00  0.00     0.167 HD
ATOM     48  C   UNL A   1      43.242  31.854  31.130  1.00  0.00     0.037 A 
ATOM     49  C   UNL A   1      42.926  25.559  28.088  1.00  0.00     0.037 A 
ATOM     50  C   UNL A   1      44.472  31.108  31.148  1.00  0.00     0.049 A 
ATOM     51  C   UNL A   1      44.211  26.100  28.647  1.00  0.00     0.074 A 
ATOM     52  C   UNL A   1      45.682  31.451  31.725  1.00  0.00     0.029 A 
ATOM     53  N   UNL A   1      44.650  29.868  30.550  1.00  0.00    -0.354 N 
ATOM     54  N   UNL A   1      44.427  27.233  29.271  1.00  0.00    -0.248 NA
ATOM     55  C   UNL A   1      45.411  25.268  28.479  1.00  0.00     0.031 C 
ATOM     56  C   UNL A   1      46.606  30.440  31.437  1.00  0.00     0.029 A 
ATOM     57  C   UNL A   1      45.961  29.448  30.712  1.00  0.00     0.049 A 
ATOM     58  H   UNL A   1      43.949  29.362  30.080  1.00  0.00     0.167 HD
ATOM     59  C   UNL A   1      45.781  27.250  29.573  1.00  0.00     0.074 A 
ATOM     60  C   UNL A   1      46.334  26.004  29.083  1.00  0.00     0.031 C 
ATOM     61  C   UNL A   1      46.500  28.215  30.197  1.00  0.00     0.037 A 
BRANCH  48  62
ATOM     62  C   UNL A   1      43.237  33.245  31.691  1.00  0.00     0.064 A 
ATOM     63  C   UNL A   1      42.964  33.491  33.045  1.00  0.00     0.173 A 
ATOM     64  C   UNL A   1      43.507  34.345  30.864  1.00  0.00     0.173 A 
ATOM     65  F   UNL A   1      42.688  32.473  33.875  1.00  0.00    -0.203 F 
ATOM     66  C   UNL A   1      42.923  34.791  33.543  1.00  0.00     0.198 A 
ATOM     67  C   UNL A   1      43.493  35.642  31.372  1.00  0.00     0.198 A 
ATOM     68  F   UNL A   1      43.777  34.164  29.563  1.00  0.00    -0.203 F 
ATOM     69  F   UNL A   1      42.600  35.006  34.825  1.00  0.00    -0.200 F 
ATOM     70  C   UNL A   1      43.190  35.864  32.706  1.00  0.00     0.200 A 
ATOM     71  F   UNL A   1      43.760  36.678  30.565  1.00  0.00    -0.200 F 
ATOM     72  F   UNL A   1      43.144  37.115  33.186  1.00  0.00    -0.200 F 
ENDBRANCH  48  62
BRANCH  49  73
ATOM     73  C   UNL A   1      42.883  24.255  27.379  1.00  0.00     0.064 A 
ATOM     74  C   UNL A   1      43.195  24.169  26.016  1.00  0.00     0.173 A 
ATOM     75  C   UNL A   1      42.570  23.068  28.057  1.00  0.00     0.173 A 
ATOM     76  F   UNL A   1      43.481  25.280  25.323  1.00  0.00    -0.203 F 
ATOM     77  C   UNL A   1      43.192  22.941  25.356  1.00  0.00     0.198 A 
ATOM     78  C   UNL A   1      42.589  21.840  27.402  1.00  0.00     0.198 A 
ATOM     79  F   UNL A   1      42.269  23.101  29.364  1.00  0.00    -0.203 F 
ATOM     80  F   UNL A   1      43.472  22.887  24.047  1.00  0.00    -0.200 F 
ATOM     81  C   UNL A   1      42.897  21.778  26.051  1.00  0.00     0.200 A 
ATOM     82  F   UNL A   1      42.317  20.716  28.079  1.00  0.00    -0.200 F 
ATOM     83  F   UNL A   1      42.910  20.596  25.419  1.00  0.00    -0.200 F 
ENDBRANCH  49  73
BRANCH  61  84
ATOM     84  C   UNL A   1      47.969  27.970  30.371  1.00  0.00     0.064 A 
ATOM     85  C   UNL A   1      48.462  27.279  31.487  1.00  0.00     0.173 A 
ATOM     86  C   UNL A   1      48.885  28.383  29.393  1.00  0.00     0.173 A 
ATOM     87  F   UNL A   1      47.627  26.879  32.457  1.00  0.00    -0.203 F 
ATOM     88  C   UNL A   1      49.823  27.020  31.622  1.00  0.00     0.198 A 
ATOM     89  C   UNL A   1      50.243  28.102  29.520  1.00  0.00     0.198 A 
ATOM     90  F   UNL A   1      48.461  29.047  28.306  1.00  0.00    -0.203 F 
ATOM     91  F   UNL A   1      50.279  26.387  32.712  1.00  0.00    -0.200 F 
ATOM     92  C   UNL A   1      50.711  27.424  30.635  1.00  0.00     0.200 A 
ATOM     93  F   UNL A   1      51.098  28.485  28.561  1.00  0.00    -0.200 F 
ATOM     94  F   UNL A   1      52.019  27.165  30.763  1.00  0.00    -0.200 F 
ENDBRANCH  61  84
ENDBRANCH  35  36
ENDBRANCH  27  30
ENDBRANCH  25  26
ENDBRANCH  24  25
ENDBRANCH   1  24
TORSDOF 14
ENDMDL
MODEL 3
REMARK VINA RESULT:     -11.7      3.729      8.682
REMARK SMILES C/C=C/c1cncc(-c2ccc([C@@H](C)C(=O)NCCCCNC(=O)c3ccc(-c4c5nc(c(-c6c(F)c(F)c(F)c(F)c6F)c6ccc([nH]6)c(-c6c(F)c(F)c(F)c(F)c6F)c6nc(c(-c7c(F)c(F)c(F)c(F)c7F)c7ccc4[nH]7)C=C6)C=C5)cc3)cc2)c1
REMARK SMILES IDX 19 1 18 2 17 3 15 4 16 5 13 7 14 8 12 9 9 10 10 11 89 12
REMARK SMILES IDX 11 13 88 14 8 15 4 16 5 17 90 18 6 19 7 20 3 21 1 22 2 23
REMARK SMILES IDX 20 24 21 25 22 26 23 27 24 29 25 30 26 31 87 32 27 33 86 34
REMARK SMILES IDX 28 35 29 36 30 37 80 38 31 39 85 40 79 41 81 42 32 43 84 44
REMARK SMILES IDX 78 45 77 46 33 48 65 49 45 50 64 51 46 52 49 53 63 54 82 55
REMARK SMILES IDX 47 56 48 57 62 59 83 60 50 61 34 62 35 63 43 64 36 65 37 66
REMARK SMILES IDX 41 67 44 68 38 69 39 70 42 71 40 72 66 73 67 74 75 75 68 76
REMARK SMILES IDX 69 77 73 78 76 79 70 80 71 81 74 82 72 83 51 84 52 85 60 86
REMARK SMILES IDX 53 87 54 88 58 89 61 90 55 91 56 92 59 93 57 94
REMARK H PARENT 17 6 22 28 81 47 49 58
REMARK Flexibility Score: inf
ROOT
ATOM      1  C   UNL A   1      31.734  30.867  25.819  1.00  0.00     0.023 C 
ENDROOT
BRANCH   1   2
ATOM      2  C   UNL A   1      32.333  29.574  25.263  1.00  0.00     0.116 C 
BRANCH   2   3
ATOM      3  N   UNL A   1      31.331  28.726  24.656  1.00  0.00    -0.356 N 
ATOM      4  C   UNL A   1      30.864  27.494  25.002  1.00  0.00     0.227 C 
ATOM      5  O   UNL A   1      30.046  26.980  24.231  1.00  0.00    -0.274 OA
ATOM      6  H   UNL A   1      30.911  29.106  23.849  1.00  0.00     0.163 HD
BRANCH   4   7
ATOM      7  C   UNL A   1      31.288  26.748  26.279  1.00  0.00     0.105 C 
ATOM      8  C   UNL A   1      31.539  27.667  27.475  1.00  0.00     0.023 C 
BRANCH   7   9
ATOM      9  C   UNL A   1      32.329  25.667  26.032  1.00  0.00    -0.036 A 
ATOM     10  C   UNL A   1      34.411  23.722  25.696  1.00  0.00    -0.017 A 
ATOM     11  C   UNL A   1      33.134  23.373  26.169  1.00  0.00     0.009 A 
ATOM     12  C   UNL A   1      34.603  25.073  25.361  1.00  0.00     0.009 A 
ATOM     13  C   UNL A   1      32.106  24.316  26.298  1.00  0.00     0.005 A 
ATOM     14  C   UNL A   1      33.593  26.029  25.544  1.00  0.00     0.005 A 
BRANCH  10  15
ATOM     15  C   UNL A   1      35.488  22.711  25.563  1.00  0.00     0.001 A 
ATOM     16  C   UNL A   1      37.827  22.001  25.742  1.00  0.00    -0.007 A 
ATOM     17  C   UNL A   1      37.424  20.749  25.292  1.00  0.00     0.119 A 
ATOM     18  C   UNL A   1      36.834  22.983  25.877  1.00  0.00     0.020 A 
ATOM     19  N   UNL A   1      36.152  20.426  24.979  1.00  0.00    -0.263 NA
ATOM     20  C   UNL A   1      35.232  21.411  25.114  1.00  0.00     0.119 A 
BRANCH  16  21
ATOM     21  C   UNL A   1      39.253  22.259  25.972  1.00  0.00     0.005 C 
ATOM     22  C   UNL A   1      41.603  21.636  26.541  1.00  0.00     0.035 C 
ATOM     23  C   UNL A   1      40.156  21.329  26.319  1.00  0.00    -0.030 C 
ENDBRANCH  16  21
ENDBRANCH  10  15
ENDBRANCH   7   9
ENDBRANCH   4   7
ENDBRANCH   2   3
ENDBRANCH   1   2
BRANCH   1  24
ATOM     24  C   UNL A   1      32.176  31.224  27.236  1.00  0.00     0.023 C 
BRANCH  24  25
ATOM     25  C   UNL A   1      33.229  32.322  27.335  1.00  0.00     0.116 C 
BRANCH  25  26
ATOM     26  N   UNL A   1      32.683  33.652  27.571  1.00  0.00    -0.352 N 
ATOM     27  C   UNL A   1      33.109  34.606  28.470  1.00  0.00     0.251 C 
ATOM     28  H   UNL A   1      31.909  33.902  27.015  1.00  0.00     0.163 HD
ATOM     29  O   UNL A   1      32.509  35.661  28.599  1.00  0.00    -0.269 OA
BRANCH  27  30
ATOM     30  C   UNL A   1      34.281  34.305  29.318  1.00  0.00     0.039 A 
ATOM     31  C   UNL A   1      34.077  33.670  30.546  1.00  0.00     0.014 A 
ATOM     32  C   UNL A   1      35.572  34.565  28.856  1.00  0.00     0.014 A 
ATOM     33  C   UNL A   1      35.176  33.201  31.266  1.00  0.00     0.010 A 
ATOM     34  C   UNL A   1      36.661  34.036  29.540  1.00  0.00     0.010 A 
ATOM     35  C   UNL A   1      36.471  33.332  30.739  1.00  0.00    -0.014 A 
BRANCH  35  36
ATOM     36  C   UNL A   1      37.642  32.700  31.392  1.00  0.00     0.031 A 
ATOM     37  C   UNL A   1      38.319  31.525  30.751  1.00  0.00     0.074 A 
ATOM     38  C   UNL A   1      38.017  33.110  32.620  1.00  0.00     0.049 A 
ATOM     39  N   UNL A   1      39.265  30.755  31.224  1.00  0.00    -0.248 NA
ATOM     40  C   UNL A   1      37.841  31.145  29.414  1.00  0.00     0.031 C 
ATOM     41  C   UNL A   1      37.392  34.198  33.374  1.00  0.00     0.029 A 
ATOM     42  N   UNL A   1      38.994  32.639  33.461  1.00  0.00    -0.354 N 
ATOM     43  C   UNL A   1      39.478  29.787  30.253  1.00  0.00     0.074 A 
ATOM     44  C   UNL A   1      38.533  30.037  29.187  1.00  0.00     0.031 C 
ATOM     45  C   UNL A   1      38.002  34.314  34.564  1.00  0.00     0.029 A 
ATOM     46  C   UNL A   1      39.034  33.287  34.671  1.00  0.00     0.049 A 
ATOM     47  H   UNL A   1      39.607  31.908  33.220  1.00  0.00     0.167 HD
ATOM     48  C   UNL A   1      40.398  28.792  30.245  1.00  0.00     0.037 A 
ATOM     49  C   UNL A   1      39.801  33.064  35.756  1.00  0.00     0.037 A 
ATOM     50  C   UNL A   1      41.356  28.567  31.293  1.00  0.00     0.049 A 
ATOM     51  C   UNL A   1      40.815  31.956  35.723  1.00  0.00     0.074 A 
ATOM     52  C   UNL A   1      42.400  27.660  31.330  1.00  0.00     0.029 A 
ATOM     53  N   UNL A   1      41.381  29.256  32.498  1.00  0.00    -0.354 N 
ATOM     54  N   UNL A   1      41.073  31.102  34.763  1.00  0.00    -0.248 NA
ATOM     55  C   UNL A   1      41.643  31.779  36.925  1.00  0.00     0.031 C 
ATOM     56  C   UNL A   1      43.028  27.767  32.577  1.00  0.00     0.029 A 
ATOM     57  C   UNL A   1      42.399  28.768  33.302  1.00  0.00     0.049 A 
ATOM     58  H   UNL A   1      40.767  29.985  32.745  1.00  0.00     0.167 HD
ATOM     59  C   UNL A   1      42.092  30.289  35.239  1.00  0.00     0.074 A 
ATOM     60  C   UNL A   1      42.421  30.766  36.567  1.00  0.00     0.031 C 
ATOM     61  C   UNL A   1      42.696  29.240  34.631  1.00  0.00     0.037 A 
BRANCH  48  62
ATOM     62  C   UNL A   1      40.401  27.873  29.059  1.00  0.00     0.064 A 
ATOM     63  C   UNL A   1      41.157  28.156  27.911  1.00  0.00     0.173 A 
ATOM     64  C   UNL A   1      39.640  26.694  29.071  1.00  0.00     0.173 A 
ATOM     65  F   UNL A   1      41.892  29.276  27.846  1.00  0.00    -0.203 F 
ATOM     66  C   UNL A   1      41.119  27.314  26.803  1.00  0.00     0.198 A 
ATOM     67  C   UNL A   1      39.627  25.840  27.972  1.00  0.00     0.198 A 
ATOM     68  F   UNL A   1      38.903  26.375  30.145  1.00  0.00    -0.203 F 
ATOM     69  F   UNL A   1      41.800  27.636  25.695  1.00  0.00    -0.200 F 
ATOM     70  C   UNL A   1      40.356  26.156  26.835  1.00  0.00     0.200 A 
ATOM     71  F   UNL A   1      38.897  24.717  28.007  1.00  0.00    -0.200 F 
ATOM     72  F   UNL A   1      40.316  25.349  25.765  1.00  0.00    -0.200 F 
ENDBRANCH  48  62
BRANCH  49  73
ATOM     73  C   UNL A   1      39.631  33.919  36.957  1.00  0.00     0.064 A 
ATOM     74  C   UNL A   1      40.224  35.186  37.025  1.00  0.00     0.173 A 
ATOM     75  C   UNL A   1      38.843  33.504  38.040  1.00  0.00     0.173 A 
ATOM     76  F   UNL A   1      41.002  35.617  36.021  1.00  0.00    -0.203 F 
ATOM     77  C   UNL A   1      40.035  36.008  38.136  1.00  0.00     0.198 A 
ATOM     78  C   UNL A   1      38.638  34.334  39.139  1.00  0.00     0.198 A 
ATOM     79  F   UNL A   1      38.252  32.300  38.018  1.00  0.00    -0.203 F 
ATOM     80  F   UNL A   1      40.631  37.207  38.187  1.00  0.00    -0.200 F 
ATOM     81  C   UNL A   1      39.237  35.584  39.187  1.00  0.00     0.200 A 
ATOM     82  F   UNL A   1      37.855  33.928  40.148  1.00  0.00    -0.200 F 
ATOM     83  F   UNL A   1      39.044  36.381  40.248  1.00  0.00    -0.200 F 
ENDBRANCH  49  73
BRANCH  61  84
ATOM     84  C   UNL A   1      43.764  28.523  35.402  1.00  0.00     0.064 A 
ATOM     85  C   UNL A   1      45.115  28.878  35.274  1.00  0.00     0.173 A 
ATOM     86  C   UNL A   1      43.432  27.508  36.312  1.00  0.00     0.173 A 
ATOM     87  F   UNL A   1      45.483  29.830  34.404  1.00  0.00    -0.203 F 
ATOM     88  C   UNL A   1      46.096  28.235  36.023  1.00  0.00     0.198 A 
ATOM     89  C   UNL A   1      44.415  26.884  37.076  1.00  0.00     0.198 A 
ATOM     90  F   UNL A   1      42.153  27.134  36.471  1.00  0.00    -0.203 F 
ATOM     91  F   UNL A   1      47.385  28.568  35.862  1.00  0.00    -0.200 F 
ATOM     92  C   UNL A   1      45.745  27.246  36.929  1.00  0.00     0.200 A 
ATOM     93  F   UNL A   1      44.072  25.934  37.958  1.00  0.00    -0.200 F 
ATOM     94  F   UNL A   1      46.690  26.635  37.656  1.00  0.00    -0.200 F 
ENDBRANCH  61  84
ENDBRANCH  35  36
ENDBRANCH  27  30
ENDBRANCH  25  26
ENDBRANCH  24  25
ENDBRANCH   1  24
TORSDOF 14
ENDMDL
