MODEL 1
REMARK VINA RESULT:     -12.9      0.000      0.000
REMARK SMILES Cc1ccc2c(c1C)O[C@@H](C(=O)NCCCCNC(=O)c1ccc(-c3c4nc(c(-c5c(F)c(F)c(F)c(F)c5F)c5ccc([nH]5)c(-c5c(F)c(F)c(F)c(F)c5F)c5nc(c(-c6c(F)c(F)c(F)c(F)c6F)c6ccc3[nH]6)C=C5)C=C4)cc1)CC2=O
REMARK SMILES IDX 16 1 15 2 14 3 13 4 11 5 12 6 10 8 1 9 2 10 3 11 7 12 4 13
REMARK SMILES IDX 6 14 8 15 5 16 9 17 85 18 84 19 86 20 17 21 18 22 19 23
REMARK SMILES IDX 20 25 21 26 22 27 83 28 23 29 82 30 24 31 25 32 26 33 76 34
REMARK SMILES IDX 27 35 81 36 75 37 77 38 28 39 80 40 74 41 73 42 29 44 61 45
REMARK SMILES IDX 41 46 60 47 42 48 45 49 59 50 78 51 43 52 44 53 58 55 79 56
REMARK SMILES IDX 46 57 30 58 31 59 39 60 32 61 33 62 37 63 40 64 34 65 35 66
REMARK SMILES IDX 38 67 36 68 62 69 63 70 71 71 64 72 65 73 69 74 72 75 66 76
REMARK SMILES IDX 67 77 70 78 68 79 47 80 48 81 56 82 49 83 50 84 54 85 57 86
REMARK SMILES IDX 51 87 52 88 55 89 53 90
REMARK H PARENT 13 7 18 24 77 43 45 54
REMARK Flexibility Score: inf
ROOT
ATOM      1  C   UNL A   1      31.610  31.982  26.753  1.00  0.00     0.023 C 
ENDROOT
BRANCH   1   2
ATOM      2  C   UNL A   1      31.828  30.472  26.822  1.00  0.00     0.023 C 
BRANCH   2   3
ATOM      3  C   UNL A   1      33.300  30.060  26.888  1.00  0.00     0.116 C 
BRANCH   3   4
ATOM      4  N   UNL A   1      33.820  29.671  25.596  1.00  0.00    -0.353 N 
ATOM      5  C   UNL A   1      33.756  28.514  24.888  1.00  0.00     0.261 C 
ATOM      6  O   UNL A   1      34.264  28.543  23.760  1.00  0.00    -0.271 OA
ATOM      7  H   UNL A   1      34.317  30.387  25.138  1.00  0.00     0.163 HD
BRANCH   5   8
ATOM      8  C   UNL A   1      33.169  27.187  25.430  1.00  0.00     0.269 C 
ATOM      9  C   UNL A   1      36.551  22.435  23.548  1.00  0.00     0.045 C 
ATOM     10  C   UNL A   1      35.304  23.265  23.705  1.00  0.00    -0.044 A 
ATOM     11  C   UNL A   1      34.281  23.117  22.754  1.00  0.00     0.005 A 
ATOM     12  C   UNL A   1      35.164  24.227  24.729  1.00  0.00    -0.005 A 
ATOM     13  C   UNL A   1      33.139  23.911  22.804  1.00  0.00     0.016 A 
ATOM     14  C   UNL A   1      34.034  25.075  24.728  1.00  0.00     0.134 A 
ATOM     15  C   UNL A   1      36.226  24.444  25.779  1.00  0.00     0.049 C 
ATOM     16  C   UNL A   1      33.028  24.900  23.785  1.00  0.00     0.060 A 
ATOM     17  O   UNL A   1      34.050  26.097  25.631  1.00  0.00    -0.479 OA
ATOM     18  C   UNL A   1      31.885  25.826  23.758  1.00  0.00     0.170 C 
ATOM     19  C   UNL A   1      31.812  26.866  24.828  1.00  0.00     0.136 C 
ATOM     20  O   UNL A   1      31.016  25.719  22.899  1.00  0.00    -0.294 OA
ENDBRANCH   5   8
ENDBRANCH   3   4
ENDBRANCH   2   3
ENDBRANCH   1   2
BRANCH   1  21
ATOM     21  C   UNL A   1      32.711  32.817  27.397  1.00  0.00     0.116 C 
BRANCH  21  22
ATOM     22  N   UNL A   1      32.321  34.188  27.696  1.00  0.00    -0.352 N 
ATOM     23  C   UNL A   1      32.937  35.049  28.578  1.00  0.00     0.251 C 
ATOM     24  H   UNL A   1      31.536  34.537  27.216  1.00  0.00     0.163 HD
ATOM     25  O   UNL A   1      32.510  36.179  28.780  1.00  0.00    -0.269 OA
BRANCH  23  26
ATOM     26  C   UNL A   1      34.113  34.550  29.316  1.00  0.00     0.039 A 
ATOM     27  C   UNL A   1      33.918  33.899  30.536  1.00  0.00     0.014 A 
ATOM     28  C   UNL A   1      35.379  34.609  28.725  1.00  0.00     0.014 A 
ATOM     29  C   UNL A   1      34.990  33.234  31.133  1.00  0.00     0.010 A 
ATOM     30  C   UNL A   1      36.432  33.904  29.299  1.00  0.00     0.010 A 
ATOM     31  C   UNL A   1      36.242  33.200  30.500  1.00  0.00    -0.014 A 
BRANCH  31  32
ATOM     32  C   UNL A   1      37.374  32.439  31.080  1.00  0.00     0.031 A 
ATOM     33  C   UNL A   1      37.888  32.800  32.442  1.00  0.00     0.074 A 
ATOM     34  C   UNL A   1      37.965  31.460  30.366  1.00  0.00     0.049 A 
ATOM     35  N   UNL A   1      38.912  32.312  33.095  1.00  0.00    -0.248 NA
ATOM     36  C   UNL A   1      37.166  33.864  33.157  1.00  0.00     0.031 C 
ATOM     37  C   UNL A   1      37.569  31.031  29.024  1.00  0.00     0.029 A 
ATOM     38  N   UNL A   1      39.030  30.650  30.673  1.00  0.00    -0.354 N 
ATOM     39  C   UNL A   1      38.957  33.010  34.293  1.00  0.00     0.074 A 
ATOM     40  C   UNL A   1      37.891  33.989  34.259  1.00  0.00     0.031 C 
ATOM     41  C   UNL A   1      38.365  30.021  28.633  1.00  0.00     0.029 A 
ATOM     42  C   UNL A   1      39.343  29.751  29.682  1.00  0.00     0.049 A 
ATOM     43  H   UNL A   1      39.522  30.708  31.523  1.00  0.00     0.167 HD
ATOM     44  C   UNL A   1      39.796  32.834  35.340  1.00  0.00     0.037 A 
ATOM     45  C   UNL A   1      40.311  28.816  29.633  1.00  0.00     0.037 A 
ATOM     46  C   UNL A   1      40.841  31.848  35.386  1.00  0.00     0.049 A 
ATOM     47  C   UNL A   1      41.246  28.659  30.801  1.00  0.00     0.074 A 
ATOM     48  C   UNL A   1      41.735  31.585  36.409  1.00  0.00     0.029 A 
ATOM     49  N   UNL A   1      41.124  30.955  34.365  1.00  0.00    -0.354 N 
ATOM     50  N   UNL A   1      41.264  29.310  31.939  1.00  0.00    -0.248 NA
ATOM     51  C   UNL A   1      42.297  27.638  30.679  1.00  0.00     0.031 C 
ATOM     52  C   UNL A   1      42.571  30.542  36.000  1.00  0.00     0.029 A 
ATOM     53  C   UNL A   1      42.180  30.139  34.733  1.00  0.00     0.049 A 
ATOM     54  H   UNL A   1      40.646  30.908  33.505  1.00  0.00     0.167 HD
ATOM     55  C   UNL A   1      42.303  28.760  32.677  1.00  0.00     0.074 A 
ATOM     56  C   UNL A   1      42.891  27.717  31.863  1.00  0.00     0.031 C 
ATOM     57  C   UNL A   1      42.733  29.091  33.917  1.00  0.00     0.037 A 
BRANCH  44  58
ATOM     58  C   UNL A   1      39.600  33.711  36.536  1.00  0.00     0.064 A 
ATOM     59  C   UNL A   1      40.176  34.989  36.597  1.00  0.00     0.173 A 
ATOM     60  C   UNL A   1      38.793  33.298  37.605  1.00  0.00     0.173 A 
ATOM     61  F   UNL A   1      40.967  35.419  35.603  1.00  0.00    -0.203 F 
ATOM     62  C   UNL A   1      39.963  35.816  37.695  1.00  0.00     0.198 A 
ATOM     63  C   UNL A   1      38.566  34.137  38.692  1.00  0.00     0.198 A 
ATOM     64  F   UNL A   1      38.221  32.084  37.591  1.00  0.00    -0.203 F 
ATOM     65  F   UNL A   1      40.548  37.021  37.747  1.00  0.00    -0.200 F 
ATOM     66  C   UNL A   1      39.152  35.393  38.738  1.00  0.00     0.200 A 
ATOM     67  F   UNL A   1      37.776  33.730  39.697  1.00  0.00    -0.200 F 
ATOM     68  F   UNL A   1      38.939  36.196  39.789  1.00  0.00    -0.200 F 
ENDBRANCH  44  58
BRANCH  45  69
ATOM     69  C   UNL A   1      40.432  27.925  28.450  1.00  0.00     0.064 A 
ATOM     70  C   UNL A   1      39.809  26.669  28.439  1.00  0.00     0.173 A 
ATOM     71  C   UNL A   1      41.187  28.292  27.329  1.00  0.00     0.173 A 
ATOM     72  F   UNL A   1      39.096  26.266  29.501  1.00  0.00    -0.203 F 
ATOM     73  C   UNL A   1      39.953  25.805  27.356  1.00  0.00     0.198 A 
ATOM     74  C   UNL A   1      41.314  27.435  26.237  1.00  0.00     0.198 A 
ATOM     75  F   UNL A   1      41.803  29.483  27.294  1.00  0.00    -0.203 F 
ATOM     76  F   UNL A   1      39.382  24.593  27.388  1.00  0.00    -0.200 F 
ATOM     77  C   UNL A   1      40.702  26.190  26.255  1.00  0.00     0.200 A 
ATOM     78  F   UNL A   1      42.034  27.811  25.172  1.00  0.00    -0.200 F 
ATOM     79  F   UNL A   1      40.846  25.356  25.216  1.00  0.00    -0.200 F 
ENDBRANCH  45  69
BRANCH  57  80
ATOM     80  C   UNL A   1      43.867  28.299  34.492  1.00  0.00     0.064 A 
ATOM     81  C   UNL A   1      45.192  28.745  34.392  1.00  0.00     0.173 A 
ATOM     82  C   UNL A   1      43.616  27.124  35.215  1.00  0.00     0.173 A 
ATOM     83  F   UNL A   1      45.480  29.856  33.698  1.00  0.00    -0.203 F 
ATOM     84  C   UNL A   1      46.228  28.036  34.992  1.00  0.00     0.198 A 
ATOM     85  C   UNL A   1      44.653  26.430  35.831  1.00  0.00     0.198 A 
ATOM     86  F   UNL A   1      42.362  26.664  35.343  1.00  0.00    -0.203 F 
ATOM     87  F   UNL A   1      47.491  28.466  34.866  1.00  0.00    -0.200 F 
ATOM     88  C   UNL A   1      45.957  26.886  35.717  1.00  0.00     0.200 A 
ATOM     89  F   UNL A   1      44.388  25.325  36.540  1.00  0.00    -0.200 F 
ATOM     90  F   UNL A   1      46.956  26.214  36.307  1.00  0.00    -0.200 F 
ENDBRANCH  57  80
ENDBRANCH  31  32
ENDBRANCH  23  26
ENDBRANCH  21  22
ENDBRANCH   1  21
TORSDOF 11
ENDMDL
MODEL 2
REMARK VINA RESULT:     -12.7      0.791      2.217
REMARK SMILES Cc1ccc2c(c1C)O[C@@H](C(=O)NCCCCNC(=O)c1ccc(-c3c4nc(c(-c5c(F)c(F)c(F)c(F)c5F)c5ccc([nH]5)c(-c5c(F)c(F)c(F)c(F)c5F)c5nc(c(-c6c(F)c(F)c(F)c(F)c6F)c6ccc3[nH]6)C=C5)C=C4)cc1)CC2=O
REMARK SMILES IDX 16 1 15 2 14 3 13 4 11 5 12 6 10 8 1 9 2 10 3 11 7 12 4 13
REMARK SMILES IDX 6 14 8 15 5 16 9 17 85 18 84 19 86 20 17 21 18 22 19 23
REMARK SMILES IDX 20 25 21 26 22 27 83 28 23 29 82 30 24 31 25 32 26 33 76 34
REMARK SMILES IDX 27 35 81 36 75 37 77 38 28 39 80 40 74 41 73 42 29 44 61 45
REMARK SMILES IDX 41 46 60 47 42 48 45 49 59 50 78 51 43 52 44 53 58 55 79 56
REMARK SMILES IDX 46 57 30 58 31 59 39 60 32 61 33 62 37 63 40 64 34 65 35 66
REMARK SMILES IDX 38 67 36 68 62 69 63 70 71 71 64 72 65 73 69 74 72 75 66 76
REMARK SMILES IDX 67 77 70 78 68 79 47 80 48 81 56 82 49 83 50 84 54 85 57 86
REMARK SMILES IDX 51 87 52 88 55 89 53 90
REMARK H PARENT 13 7 18 24 77 43 45 54
REMARK Flexibility Score: inf
ROOT
ATOM      1  C   UNL A   1      31.650  31.997  26.853  1.00  0.00     0.023 C 
ENDROOT
BRANCH   1   2
ATOM      2  C   UNL A   1      32.013  30.521  26.696  1.00  0.00     0.023 C 
BRANCH   2   3
ATOM      3  C   UNL A   1      31.638  29.931  25.336  1.00  0.00     0.116 C 
BRANCH   3   4
ATOM      4  N   UNL A   1      32.800  29.540  24.568  1.00  0.00    -0.353 N 
ATOM      5  C   UNL A   1      33.040  28.503  23.726  1.00  0.00     0.261 C 
ATOM      6  O   UNL A   1      34.146  28.504  23.171  1.00  0.00    -0.271 OA
ATOM      7  H   UNL A   1      33.567  30.148  24.675  1.00  0.00     0.163 HD
BRANCH   5   8
ATOM      8  C   UNL A   1      32.067  27.321  23.493  1.00  0.00     0.269 C 
ATOM      9  C   UNL A   1      34.289  22.199  26.021  1.00  0.00     0.045 C 
ATOM     10  C   UNL A   1      33.776  23.080  24.913  1.00  0.00    -0.044 A 
ATOM     11  C   UNL A   1      34.162  22.785  23.595  1.00  0.00     0.005 A 
ATOM     12  C   UNL A   1      32.985  24.223  25.164  1.00  0.00    -0.005 A 
ATOM     13  C   UNL A   1      33.782  23.609  22.539  1.00  0.00     0.016 A 
ATOM     14  C   UNL A   1      32.666  25.089  24.095  1.00  0.00     0.134 A 
ATOM     15  C   UNL A   1      32.541  24.602  26.556  1.00  0.00     0.049 C 
ATOM     16  C   UNL A   1      33.047  24.768  22.796  1.00  0.00     0.060 A 
ATOM     17  O   UNL A   1      32.059  26.262  24.434  1.00  0.00    -0.479 OA
ATOM     18  C   UNL A   1      32.759  25.706  21.701  1.00  0.00     0.170 C 
ATOM     19  C   UNL A   1      31.970  26.932  22.027  1.00  0.00     0.136 C 
ATOM     20  O   UNL A   1      33.136  25.465  20.558  1.00  0.00    -0.294 OA
ENDBRANCH   5   8
ENDBRANCH   3   4
ENDBRANCH   2   3
ENDBRANCH   1   2
BRANCH   1  21
ATOM     21  C   UNL A   1      32.763  32.873  27.417  1.00  0.00     0.116 C 
BRANCH  21  22
ATOM     22  N   UNL A   1      32.354  34.237  27.719  1.00  0.00    -0.352 N 
ATOM     23  C   UNL A   1      32.944  35.098  28.618  1.00  0.00     0.251 C 
ATOM     24  H   UNL A   1      31.572  34.580  27.228  1.00  0.00     0.163 HD
ATOM     25  O   UNL A   1      32.501  36.222  28.820  1.00  0.00    -0.269 OA
BRANCH  23  26
ATOM     26  C   UNL A   1      34.113  34.607  29.372  1.00  0.00     0.039 A 
ATOM     27  C   UNL A   1      33.908  33.977  30.601  1.00  0.00     0.014 A 
ATOM     28  C   UNL A   1      35.384  34.652  28.789  1.00  0.00     0.014 A 
ATOM     29  C   UNL A   1      34.972  33.318  31.216  1.00  0.00     0.010 A 
ATOM     30  C   UNL A   1      36.430  33.953  29.381  1.00  0.00     0.010 A 
ATOM     31  C   UNL A   1      36.229  33.269  30.592  1.00  0.00    -0.014 A 
BRANCH  31  32
ATOM     32  C   UNL A   1      37.354  32.513  31.192  1.00  0.00     0.031 A 
ATOM     33  C   UNL A   1      37.846  32.881  32.561  1.00  0.00     0.074 A 
ATOM     34  C   UNL A   1      37.958  31.534  30.492  1.00  0.00     0.049 A 
ATOM     35  N   UNL A   1      38.861  32.400  33.231  1.00  0.00    -0.248 NA
ATOM     36  C   UNL A   1      37.111  33.947  33.260  1.00  0.00     0.031 C 
ATOM     37  C   UNL A   1      37.585  31.098  29.146  1.00  0.00     0.029 A 
ATOM     38  N   UNL A   1      39.021  30.728  30.818  1.00  0.00    -0.354 N 
ATOM     39  C   UNL A   1      38.886  33.103  34.427  1.00  0.00     0.074 A 
ATOM     40  C   UNL A   1      37.818  34.078  34.373  1.00  0.00     0.031 C 
ATOM     41  C   UNL A   1      38.389  30.089  28.771  1.00  0.00     0.029 A 
ATOM     42  C   UNL A   1      39.352  29.825  29.836  1.00  0.00     0.049 A 
ATOM     43  H   UNL A   1      39.500  30.790  31.675  1.00  0.00     0.167 HD
ATOM     44  C   UNL A   1      39.709  32.933  35.487  1.00  0.00     0.037 A 
ATOM     45  C   UNL A   1      40.323  28.893  29.805  1.00  0.00     0.037 A 
ATOM     46  C   UNL A   1      40.756  31.950  35.553  1.00  0.00     0.049 A 
ATOM     47  C   UNL A   1      41.241  28.744  30.989  1.00  0.00     0.074 A 
ATOM     48  C   UNL A   1      41.636  31.693  36.591  1.00  0.00     0.029 A 
ATOM     49  N   UNL A   1      41.058  31.054  34.540  1.00  0.00    -0.354 N 
ATOM     50  N   UNL A   1      41.240  29.399  32.123  1.00  0.00    -0.248 NA
ATOM     51  C   UNL A   1      42.296  27.725  30.886  1.00  0.00     0.031 C 
ATOM     52  C   UNL A   1      42.480  30.651  36.199  1.00  0.00     0.029 A 
ATOM     53  C   UNL A   1      42.110  30.242  34.928  1.00  0.00     0.049 A 
ATOM     54  H   UNL A   1      40.593  31.002  33.673  1.00  0.00     0.167 HD
ATOM     55  C   UNL A   1      42.268  28.855  32.879  1.00  0.00     0.074 A 
ATOM     56  C   UNL A   1      42.871  27.811  32.078  1.00  0.00     0.031 C 
ATOM     57  C   UNL A   1      42.679  29.192  34.125  1.00  0.00     0.037 A 
BRANCH  44  58
ATOM     58  C   UNL A   1      39.493  33.814  36.677  1.00  0.00     0.064 A 
ATOM     59  C   UNL A   1      38.726  33.379  37.768  1.00  0.00     0.173 A 
ATOM     60  C   UNL A   1      40.093  35.078  36.753  1.00  0.00     0.173 A 
ATOM     61  F   UNL A   1      38.120  32.183  37.732  1.00  0.00    -0.203 F 
ATOM     62  C   UNL A   1      38.555  34.187  38.887  1.00  0.00     0.198 A 
ATOM     63  C   UNL A   1      39.937  35.875  37.884  1.00  0.00     0.198 A 
ATOM     64  F   UNL A   1      40.836  35.536  35.733  1.00  0.00    -0.203 F 
ATOM     65  F   UNL A   1      37.792  33.765  39.905  1.00  0.00    -0.200 F 
ATOM     66  C   UNL A   1      39.167  35.430  38.948  1.00  0.00     0.200 A 
ATOM     67  F   UNL A   1      40.535  37.074  37.944  1.00  0.00    -0.200 F 
ATOM     68  F   UNL A   1      39.010  36.202  40.033  1.00  0.00    -0.200 F 
ENDBRANCH  44  58
BRANCH  45  69
ATOM     69  C   UNL A   1      40.464  27.998  28.628  1.00  0.00     0.064 A 
ATOM     70  C   UNL A   1      41.233  28.391  27.523  1.00  0.00     0.173 A 
ATOM     71  C   UNL A   1      39.818  26.757  28.568  1.00  0.00     0.173 A 
ATOM     72  F   UNL A   1      41.849  29.582  27.527  1.00  0.00    -0.203 F 
ATOM     73  C   UNL A   1      41.335  27.582  26.395  1.00  0.00     0.198 A 
ATOM     74  C   UNL A   1      39.937  25.938  27.446  1.00  0.00     0.198 A 
ATOM     75  F   UNL A   1      39.070  26.338  29.600  1.00  0.00    -0.203 F 
ATOM     76  F   UNL A   1      42.042  28.000  25.335  1.00  0.00    -0.200 F 
ATOM     77  C   UNL A   1      40.690  26.355  26.358  1.00  0.00     0.200 A 
ATOM     78  F   UNL A   1      39.318  24.751  27.416  1.00  0.00    -0.200 F 
ATOM     79  F   UNL A   1      40.784  25.579  25.269  1.00  0.00    -0.200 F 
ENDBRANCH  45  69
BRANCH  57  80
ATOM     80  C   UNL A   1      43.806  28.406  34.720  1.00  0.00     0.064 A 
ATOM     81  C   UNL A   1      43.574  27.215  35.419  1.00  0.00     0.173 A 
ATOM     82  C   UNL A   1      45.134  28.810  34.520  1.00  0.00     0.173 A 
ATOM     83  F   UNL A   1      42.319  26.797  35.644  1.00  0.00    -0.203 F 
ATOM     84  C   UNL A   1      44.635  26.456  35.905  1.00  0.00     0.198 A 
ATOM     85  C   UNL A   1      46.193  28.039  34.991  1.00  0.00     0.198 A 
ATOM     86  F   UNL A   1      45.404  29.941  33.851  1.00  0.00    -0.203 F 
ATOM     87  F   UNL A   1      44.392  25.331  36.591  1.00  0.00    -0.200 F 
ATOM     88  C   UNL A   1      45.942  26.864  35.683  1.00  0.00     0.200 A 
ATOM     89  F   UNL A   1      47.455  28.429  34.765  1.00  0.00    -0.200 F 
ATOM     90  F   UNL A   1      46.962  26.124  36.139  1.00  0.00    -0.200 F 
ENDBRANCH  57  80
ENDBRANCH  31  32
ENDBRANCH  23  26
ENDBRANCH  21  22
ENDBRANCH   1  21
TORSDOF 11
ENDMDL
MODEL 3
REMARK VINA RESULT:     -12.6      5.394     10.968
REMARK SMILES Cc1ccc2c(c1C)O[C@@H](C(=O)NCCCCNC(=O)c1ccc(-c3c4nc(c(-c5c(F)c(F)c(F)c(F)c5F)c5ccc([nH]5)c(-c5c(F)c(F)c(F)c(F)c5F)c5nc(c(-c6c(F)c(F)c(F)c(F)c6F)c6ccc3[nH]6)C=C5)C=C4)cc1)CC2=O
REMARK SMILES IDX 16 1 15 2 14 3 13 4 11 5 12 6 10 8 1 9 2 10 3 11 7 12 4 13
REMARK SMILES IDX 6 14 8 15 5 16 9 17 85 18 84 19 86 20 17 21 18 22 19 23
REMARK SMILES IDX 20 25 21 26 22 27 83 28 23 29 82 30 24 31 25 32 26 33 76 34
REMARK SMILES IDX 27 35 81 36 75 37 77 38 28 39 80 40 74 41 73 42 29 44 61 45
REMARK SMILES IDX 41 46 60 47 42 48 45 49 59 50 78 51 43 52 44 53 58 55 79 56
REMARK SMILES IDX 46 57 30 58 31 59 39 60 32 61 33 62 37 63 40 64 34 65 35 66
REMARK SMILES IDX 38 67 36 68 62 69 63 70 71 71 64 72 65 73 69 74 72 75 66 76
REMARK SMILES IDX 67 77 70 78 68 79 47 80 48 81 56 82 49 83 50 84 54 85 57 86
REMARK SMILES IDX 51 87 52 88 55 89 53 90
REMARK H PARENT 13 7 18 24 77 43 45 54
REMARK Flexibility Score: inf
ROOT
ATOM      1  C   UNL A   1      38.044  20.115  24.935  1.00  0.00     0.023 C 
ENDROOT
BRANCH   1   2
ATOM      2  C   UNL A   1      37.341  21.412  24.543  1.00  0.00     0.023 C 
BRANCH   2   3
ATOM      3  C   UNL A   1      37.496  22.537  25.568  1.00  0.00     0.116 C 
BRANCH   3   4
ATOM      4  N   UNL A   1      36.397  22.579  26.507  1.00  0.00    -0.353 N 
ATOM      5  C   UNL A   1      35.135  23.071  26.424  1.00  0.00     0.261 C 
ATOM      6  O   UNL A   1      34.416  22.878  27.413  1.00  0.00    -0.271 OA
ATOM      7  H   UNL A   1      36.606  22.171  27.378  1.00  0.00     0.163 HD
BRANCH   5   8
ATOM      8  C   UNL A   1      34.592  23.895  25.232  1.00  0.00     0.269 C 
ATOM      9  C   UNL A   1      31.723  28.923  27.245  1.00  0.00     0.045 C 
ATOM     10  C   UNL A   1      31.863  27.614  26.514  1.00  0.00    -0.044 A 
ATOM     11  C   UNL A   1      30.705  26.855  26.281  1.00  0.00     0.005 A 
ATOM     12  C   UNL A   1      33.119  27.100  26.124  1.00  0.00    -0.005 A 
ATOM     13  C   UNL A   1      30.782  25.602  25.679  1.00  0.00     0.016 A 
ATOM     14  C   UNL A   1      33.192  25.799  25.579  1.00  0.00     0.134 A 
ATOM     15  C   UNL A   1      34.404  27.859  26.350  1.00  0.00     0.049 C 
ATOM     16  C   UNL A   1      32.030  25.072  25.344  1.00  0.00     0.060 A 
ATOM     17  O   UNL A   1      34.446  25.295  25.394  1.00  0.00    -0.479 OA
ATOM     18  C   UNL A   1      32.122  23.697  24.831  1.00  0.00     0.170 C 
ATOM     19  C   UNL A   1      33.480  23.175  24.488  1.00  0.00     0.136 C 
ATOM     20  O   UNL A   1      31.110  23.021  24.669  1.00  0.00    -0.294 OA
ENDBRANCH   5   8
ENDBRANCH   3   4
ENDBRANCH   2   3
ENDBRANCH   1   2
BRANCH   1  21
ATOM     21  C   UNL A   1      39.239  20.291  25.866  1.00  0.00     0.116 C 
BRANCH  21  22
ATOM     22  N   UNL A   1      40.150  19.156  25.888  1.00  0.00    -0.352 N 
ATOM     23  C   UNL A   1      41.506  19.188  26.130  1.00  0.00     0.251 C 
ATOM     24  H   UNL A   1      39.756  18.271  25.711  1.00  0.00     0.163 HD
ATOM     25  O   UNL A   1      42.192  18.174  26.097  1.00  0.00    -0.269 OA
BRANCH  23  26
ATOM     26  C   UNL A   1      42.125  20.502  26.392  1.00  0.00     0.039 A 
ATOM     27  C   UNL A   1      42.408  21.341  25.312  1.00  0.00     0.014 A 
ATOM     28  C   UNL A   1      42.289  20.942  27.709  1.00  0.00     0.014 A 
ATOM     29  C   UNL A   1      42.786  22.662  25.556  1.00  0.00     0.010 A 
ATOM     30  C   UNL A   1      42.618  22.273  27.946  1.00  0.00     0.010 A 
ATOM     31  C   UNL A   1      42.856  23.146  26.872  1.00  0.00    -0.014 A 
BRANCH  31  32
ATOM     32  C   UNL A   1      43.185  24.564  27.150  1.00  0.00     0.031 A 
ATOM     33  C   UNL A   1      44.576  25.066  26.898  1.00  0.00     0.074 A 
ATOM     34  C   UNL A   1      42.250  25.383  27.670  1.00  0.00     0.049 A 
ATOM     35  N   UNL A   1      45.087  26.244  27.145  1.00  0.00    -0.248 NA
ATOM     36  C   UNL A   1      45.523  24.107  26.306  1.00  0.00     0.031 C 
ATOM     37  C   UNL A   1      40.869  25.008  27.979  1.00  0.00     0.029 A 
ATOM     38  N   UNL A   1      42.323  26.705  28.035  1.00  0.00    -0.354 N 
ATOM     39  C   UNL A   1      46.413  26.167  26.742  1.00  0.00     0.074 A 
ATOM     40  C   UNL A   1      46.643  24.815  26.280  1.00  0.00     0.031 C 
ATOM     41  C   UNL A   1      40.220  26.081  28.463  1.00  0.00     0.029 A 
ATOM     42  C   UNL A   1      41.143  27.209  28.527  1.00  0.00     0.049 A 
ATOM     43  H   UNL A   1      43.145  27.241  27.952  1.00  0.00     0.167 HD
ATOM     44  C   UNL A   1      47.348  27.145  26.732  1.00  0.00     0.037 A 
ATOM     45  C   UNL A   1      40.847  28.444  28.975  1.00  0.00     0.037 A 
ATOM     46  C   UNL A   1      47.117  28.495  27.169  1.00  0.00     0.049 A 
ATOM     47  C   UNL A   1      41.915  29.505  28.977  1.00  0.00     0.074 A 
ATOM     48  C   UNL A   1      48.000  29.560  27.186  1.00  0.00     0.029 A 
ATOM     49  N   UNL A   1      45.909  28.966  27.657  1.00  0.00    -0.354 N 
ATOM     50  N   UNL A   1      43.158  29.426  28.572  1.00  0.00    -0.248 NA
ATOM     51  C   UNL A   1      41.537  30.826  29.501  1.00  0.00     0.031 C 
ATOM     52  C   UNL A   1      47.330  30.674  27.699  1.00  0.00     0.029 A 
ATOM     53  C   UNL A   1      46.023  30.308  27.978  1.00  0.00     0.049 A 
ATOM     54  H   UNL A   1      45.090  28.428  27.760  1.00  0.00     0.167 HD
ATOM     55  C   UNL A   1      43.701  30.689  28.762  1.00  0.00     0.074 A 
ATOM     56  C   UNL A   1      42.652  31.519  29.315  1.00  0.00     0.031 C 
ATOM     57  C   UNL A   1      44.958  31.122  28.504  1.00  0.00     0.037 A 
BRANCH  44  58
ATOM     58  C   UNL A   1      48.705  26.796  26.207  1.00  0.00     0.064 A 
ATOM     59  C   UNL A   1      49.031  26.997  24.858  1.00  0.00     0.173 A 
ATOM     60  C   UNL A   1      49.702  26.305  27.062  1.00  0.00     0.173 A 
ATOM     61  F   UNL A   1      48.103  27.450  24.001  1.00  0.00    -0.203 F 
ATOM     62  C   UNL A   1      50.304  26.705  24.380  1.00  0.00     0.198 A 
ATOM     63  C   UNL A   1      50.980  26.034  26.584  1.00  0.00     0.198 A 
ATOM     64  F   UNL A   1      49.436  26.097  28.361  1.00  0.00    -0.203 F 
ATOM     65  F   UNL A   1      50.585  26.875  23.080  1.00  0.00    -0.200 F 
ATOM     66  C   UNL A   1      51.280  26.231  25.244  1.00  0.00     0.200 A 
ATOM     67  F   UNL A   1      51.925  25.583  27.422  1.00  0.00    -0.200 F 
ATOM     68  F   UNL A   1      52.509  25.961  24.784  1.00  0.00    -0.200 F 
ENDBRANCH  44  58
BRANCH  45  69
ATOM     69  C   UNL A   1      39.470  28.764  29.431  1.00  0.00     0.064 A 
ATOM     70  C   UNL A   1      38.540  29.326  28.546  1.00  0.00     0.173 A 
ATOM     71  C   UNL A   1      39.065  28.544  30.754  1.00  0.00     0.173 A 
ATOM     72  F   UNL A   1      38.891  29.576  27.276  1.00  0.00    -0.203 F 
ATOM     73  C   UNL A   1      37.261  29.674  28.973  1.00  0.00     0.198 A 
ATOM     74  C   UNL A   1      37.778  28.874  31.175  1.00  0.00     0.198 A 
ATOM     75  F   UNL A   1      39.920  28.010  31.639  1.00  0.00    -0.203 F 
ATOM     76  F   UNL A   1      36.405  30.250  28.116  1.00  0.00    -0.200 F 
ATOM     77  C   UNL A   1      36.880  29.445  30.286  1.00  0.00     0.200 A 
ATOM     78  F   UNL A   1      37.411  28.647  32.443  1.00  0.00    -0.200 F 
ATOM     79  F   UNL A   1      35.651  29.786  30.697  1.00  0.00    -0.200 F 
ENDBRANCH  45  69
BRANCH  57  80
ATOM     80  C   UNL A   1      45.266  32.562  28.777  1.00  0.00     0.064 A 
ATOM     81  C   UNL A   1      45.010  33.555  27.823  1.00  0.00     0.173 A 
ATOM     82  C   UNL A   1      45.747  32.958  30.034  1.00  0.00     0.173 A 
ATOM     83  F   UNL A   1      44.563  33.221  26.603  1.00  0.00    -0.203 F 
ATOM     84  C   UNL A   1      45.233  34.897  28.115  1.00  0.00     0.198 A 
ATOM     85  C   UNL A   1      45.949  34.303  30.329  1.00  0.00     0.198 A 
ATOM     86  F   UNL A   1      45.999  32.041  30.980  1.00  0.00    -0.203 F 
ATOM     87  F   UNL A   1      45.005  35.831  27.181  1.00  0.00    -0.200 F 
ATOM     88  C   UNL A   1      45.694  35.270  29.369  1.00  0.00     0.200 A 
ATOM     89  F   UNL A   1      46.383  34.662  31.544  1.00  0.00    -0.200 F 
ATOM     90  F   UNL A   1      45.893  36.565  29.653  1.00  0.00    -0.200 F 
ENDBRANCH  57  80
ENDBRANCH  31  32
ENDBRANCH  23  26
ENDBRANCH  21  22
ENDBRANCH   1  21
TORSDOF 11
ENDMDL
