MODEL 1
REMARK VINA RESULT:     -14.2      0.000      0.000
REMARK SMILES O=C(NCCCCNC(=O)[C@H](c1c[nH]c2cc(F)ccc12)[NH+]1CC[NH+](CC(=O)N2CCOCC2)CC1)c1ccc(-c2c3nc(c(-c4c(F)c(F)c(F)c(F)c4F)c4ccc([nH]4)c(-c4c(F)c(F)c(F)c(F)c4F)c4nc(c(-c5c(F)c(F)c(F)c(F)c5F)c5ccc2[nH]5)C=C4)C=C3)cc1
REMARK SMILES IDX 6 1 5 2 4 3 3 4 1 5 2 6 37 8 38 9 99 10 39 11 98 12 40 13
REMARK SMILES IDX 41 14 42 15 92 16 43 17 97 18 91 19 93 20 44 21 96 22 90 23
REMARK SMILES IDX 89 24 45 26 77 27 57 28 76 29 58 30 61 31 75 32 94 33 59 34
REMARK SMILES IDX 60 35 74 37 95 38 62 39 46 40 47 41 55 42 48 43 49 44 53 45
REMARK SMILES IDX 56 46 50 47 51 48 54 49 52 50 78 51 79 52 87 53 80 54 81 55
REMARK SMILES IDX 85 56 88 57 82 58 83 59 86 60 84 61 63 62 64 63 72 64 65 65
REMARK SMILES IDX 66 66 70 67 73 68 67 69 68 70 71 71 69 72 7 73 8 74 9 75
REMARK SMILES IDX 10 77 11 78 22 79 23 80 36 81 24 83 35 84 25 85 26 87 27 88
REMARK SMILES IDX 28 89 29 90 30 91 34 92 31 93 33 94 32 95 12 96 13 97 21 98
REMARK SMILES IDX 14 99 15 100 20 101 16 103 19 104 17 105 18 106
REMARK H PARENT 3 7 93 25 61 36 8 76 22 82 25 86 14 102
REMARK Flexibility Score: inf
ROOT
ATOM      1  C   UNL A   1      33.775  28.707  25.164  1.00  0.00     0.023 C 
ENDROOT
BRANCH   1   2
ATOM      2  C   UNL A   1      32.642  29.704  25.424  1.00  0.00     0.023 C 
BRANCH   2   3
ATOM      3  C   UNL A   1      32.441  30.169  26.865  1.00  0.00     0.116 C 
BRANCH   3   4
ATOM      4  N   UNL A   1      32.478  31.616  27.041  1.00  0.00    -0.352 N 
ATOM      5  O   UNL A   1      33.238  33.653  27.625  1.00  0.00    -0.269 OA
ATOM      6  C   UNL A   1      33.457  32.446  27.547  1.00  0.00     0.251 C 
ATOM      7  H   UNL A   1      31.661  32.082  26.749  1.00  0.00     0.163 HD
BRANCH   6   8
ATOM      8  C   UNL A   1      34.738  31.902  28.058  1.00  0.00     0.039 A 
ATOM      9  C   UNL A   1      34.855  30.575  28.461  1.00  0.00     0.014 A 
ATOM     10  C   UNL A   1      35.852  32.748  28.146  1.00  0.00     0.014 A 
ATOM     11  C   UNL A   1      35.989  30.160  29.154  1.00  0.00     0.010 A 
ATOM     12  C   UNL A   1      37.034  32.296  28.747  1.00  0.00     0.010 A 
ATOM     13  C   UNL A   1      37.093  31.016  29.314  1.00  0.00    -0.014 A 
BRANCH  13  14
ATOM     14  C   UNL A   1      38.290  30.523  30.050  1.00  0.00     0.031 A 
ATOM     15  C   UNL A   1      38.545  30.908  31.485  1.00  0.00     0.074 A 
ATOM     16  C   UNL A   1      39.121  29.660  29.432  1.00  0.00     0.049 A 
ATOM     17  N   UNL A   1      39.506  30.518  32.288  1.00  0.00    -0.248 NA
ATOM     18  C   UNL A   1      37.605  31.857  32.103  1.00  0.00     0.031 C 
ATOM     19  C   UNL A   1      38.995  29.225  28.040  1.00  0.00     0.029 A 
ATOM     20  N   UNL A   1      40.214  28.971  29.895  1.00  0.00    -0.354 N 
ATOM     21  C   UNL A   1      39.296  31.179  33.492  1.00  0.00     0.074 A 
ATOM     22  C   UNL A   1      38.131  32.020  33.310  1.00  0.00     0.031 C 
ATOM     23  C   UNL A   1      39.929  28.301  27.779  1.00  0.00     0.029 A 
ATOM     24  C   UNL A   1      40.762  28.123  28.963  1.00  0.00     0.049 A 
ATOM     25  H   UNL A   1      40.570  29.073  30.808  1.00  0.00     0.167 HD
ATOM     26  C   UNL A   1      40.003  31.084  34.644  1.00  0.00     0.037 A 
ATOM     27  C   UNL A   1      41.825  27.303  29.044  1.00  0.00     0.037 A 
ATOM     28  C   UNL A   1      41.152  30.233  34.830  1.00  0.00     0.049 A 
ATOM     29  C   UNL A   1      42.587  27.221  30.335  1.00  0.00     0.074 A 
ATOM     30  C   UNL A   1      41.924  30.058  35.966  1.00  0.00     0.029 A 
ATOM     31  N   UNL A   1      41.692  29.410  33.852  1.00  0.00    -0.354 N 
ATOM     32  N   UNL A   1      42.364  27.841  31.467  1.00  0.00    -0.248 NA
ATOM     33  C   UNL A   1      43.753  26.327  30.358  1.00  0.00     0.031 C 
ATOM     34  C   UNL A   1      42.952  29.159  35.666  1.00  0.00     0.029 A 
ATOM     35  C   UNL A   1      42.795  28.738  34.356  1.00  0.00     0.049 A 
ATOM     36  H   UNL A   1      41.343  29.317  32.937  1.00  0.00     0.167 HD
ATOM     37  C   UNL A   1      43.355  27.412  32.337  1.00  0.00     0.074 A 
ATOM     38  C   UNL A   1      44.159  26.449  31.612  1.00  0.00     0.031 C 
ATOM     39  C   UNL A   1      43.588  27.790  33.617  1.00  0.00     0.037 A 
BRANCH  26  40
ATOM     40  C   UNL A   1      39.565  31.925  35.812  1.00  0.00     0.064 A 
ATOM     41  C   UNL A   1      40.112  33.194  36.049  1.00  0.00     0.173 A 
ATOM     42  C   UNL A   1      38.528  31.491  36.652  1.00  0.00     0.173 A 
ATOM     43  F   UNL A   1      41.113  33.651  35.280  1.00  0.00    -0.203 F 
ATOM     44  C   UNL A   1      39.647  33.993  37.090  1.00  0.00     0.198 A 
ATOM     45  C   UNL A   1      38.047  32.303  37.678  1.00  0.00     0.198 A 
ATOM     46  F   UNL A   1      37.963  30.289  36.465  1.00  0.00    -0.203 F 
ATOM     47  F   UNL A   1      40.203  35.192  37.315  1.00  0.00    -0.200 F 
ATOM     48  C   UNL A   1      38.608  33.551  37.897  1.00  0.00     0.200 A 
ATOM     49  F   UNL A   1      37.036  31.879  38.448  1.00  0.00    -0.200 F 
ATOM     50  F   UNL A   1      38.151  34.329  38.889  1.00  0.00    -0.200 F 
ENDBRANCH  26  40
BRANCH  27  51
ATOM     51  C   UNL A   1      42.235  26.505  27.859  1.00  0.00     0.064 A 
ATOM     52  C   UNL A   1      41.660  25.256  27.590  1.00  0.00     0.173 A 
ATOM     53  C   UNL A   1      43.211  26.980  26.970  1.00  0.00     0.173 A 
ATOM     54  F   UNL A   1      40.737  24.749  28.420  1.00  0.00    -0.203 F 
ATOM     55  C   UNL A   1      42.060  24.504  26.487  1.00  0.00     0.198 A 
ATOM     56  C   UNL A   1      43.586  26.242  25.851  1.00  0.00     0.198 A 
ATOM     57  F   UNL A   1      43.789  28.171  27.182  1.00  0.00    -0.203 F 
ATOM     58  F   UNL A   1      41.529  23.291  26.278  1.00  0.00    -0.200 F 
ATOM     59  C   UNL A   1      43.017  25.001  25.614  1.00  0.00     0.200 A 
ATOM     60  F   UNL A   1      44.497  26.736  25.001  1.00  0.00    -0.200 F 
ATOM     61  F   UNL A   1      43.395  24.280  24.549  1.00  0.00    -0.200 F 
ENDBRANCH  27  51
BRANCH  39  62
ATOM     62  C   UNL A   1      44.758  27.152  34.307  1.00  0.00     0.064 A 
ATOM     63  C   UNL A   1      44.627  25.939  34.998  1.00  0.00     0.173 A 
ATOM     64  C   UNL A   1      46.022  27.761  34.279  1.00  0.00     0.173 A 
ATOM     65  F   UNL A   1      43.434  25.328  35.068  1.00  0.00    -0.203 F 
ATOM     66  C   UNL A   1      45.709  25.376  35.667  1.00  0.00     0.198 A 
ATOM     67  C   UNL A   1      47.109  27.180  34.925  1.00  0.00     0.198 A 
ATOM     68  F   UNL A   1      46.201  28.920  33.627  1.00  0.00    -0.203 F 
ATOM     69  F   UNL A   1      45.547  24.247  36.371  1.00  0.00    -0.200 F 
ATOM     70  C   UNL A   1      46.950  25.994  35.626  1.00  0.00     0.200 A 
ATOM     71  F   UNL A   1      48.310  27.773  34.877  1.00  0.00    -0.200 F 
ATOM     72  F   UNL A   1      47.991  25.454  36.276  1.00  0.00    -0.200 F 
ENDBRANCH  39  62
ENDBRANCH  13  14
ENDBRANCH   6   8
ENDBRANCH   3   4
ENDBRANCH   2   3
ENDBRANCH   1   2
BRANCH   1  73
ATOM     73  C   UNL A   1      33.437  27.224  25.311  1.00  0.00     0.116 C 
BRANCH  73  74
ATOM     74  N   UNL A   1      32.290  26.907  26.142  1.00  0.00    -0.351 N 
ATOM     75  C   UNL A   1      31.147  26.178  25.875  1.00  0.00     0.283 C 
ATOM     76  H   UNL A   1      32.335  27.275  27.054  1.00  0.00     0.163 HD
ATOM     77  O   UNL A   1      30.493  25.873  26.882  1.00  0.00    -0.268 OA
BRANCH  75  78
ATOM     78  C   UNL A   1      30.715  25.758  24.398  1.00  0.00     0.308 C 
BRANCH  78  79
ATOM     79  N   UNL A   1      30.279  24.328  24.358  1.00  0.00    -0.312 N 
ATOM     80  C   UNL A   1      30.649  23.522  23.162  1.00  0.00     0.325 C 
ATOM     81  C   UNL A   1      30.732  23.578  25.520  1.00  0.00     0.325 C 
ATOM     82  H   UNL A   1      29.267  24.448  24.331  1.00  0.00     0.349 HD
ATOM     83  C   UNL A   1      31.974  22.668  23.170  1.00  0.00     0.325 C 
ATOM     84  C   UNL A   1      32.256  23.322  25.458  1.00  0.00     0.325 C 
ATOM     85  N   UNL A   1      32.602  22.333  24.460  1.00  0.00    -0.318 N 
ATOM     86  H   UNL A   1      33.606  22.390  24.285  1.00  0.00     0.348 HD
BRANCH  85  87
ATOM     87  C   UNL A   1      32.545  20.930  24.916  1.00  0.00     0.364 C 
BRANCH  87  88
ATOM     88  C   UNL A   1      33.826  20.093  24.755  1.00  0.00     0.277 C 
ATOM     89  O   UNL A   1      34.910  20.673  24.628  1.00  0.00    -0.268 OA
ATOM     90  N   UNL A   1      33.754  18.691  24.756  1.00  0.00    -0.333 N 
ATOM     91  C   UNL A   1      32.534  17.900  24.543  1.00  0.00     0.148 C 
ATOM     92  C   UNL A   1      35.004  17.964  24.499  1.00  0.00     0.148 C 
ATOM     93  C   UNL A   1      32.625  16.433  24.962  1.00  0.00     0.181 C 
ATOM     94  C   UNL A   1      34.961  16.510  24.975  1.00  0.00     0.181 C 
ATOM     95  O   UNL A   1      33.815  15.831  24.446  1.00  0.00    -0.378 OA
ENDBRANCH  87  88
ENDBRANCH  85  87
ENDBRANCH  78  79
BRANCH  78  96
ATOM     96  C   UNL A   1      29.553  26.631  23.950  1.00  0.00     0.044 A 
ATOM     97  C   UNL A   1      28.203  26.363  24.111  1.00  0.00     0.094 A 
ATOM     98  C   UNL A   1      29.633  27.864  23.216  1.00  0.00     0.009 A 
ATOM     99  N   UNL A   1      27.479  27.347  23.503  1.00  0.00    -0.361 N 
ATOM    100  C   UNL A   1      28.325  28.269  22.933  1.00  0.00     0.049 A 
ATOM    101  C   UNL A   1      30.698  28.660  22.740  1.00  0.00     0.014 A 
ATOM    102  H   UNL A   1      26.497  27.390  23.476  1.00  0.00     0.166 HD
ATOM    103  C   UNL A   1      28.029  29.417  22.190  1.00  0.00     0.065 A 
ATOM    104  C   UNL A   1      30.419  29.816  22.002  1.00  0.00     0.040 A 
ATOM    105  C   UNL A   1      29.105  30.174  21.733  1.00  0.00     0.125 A 
ATOM    106  F   UNL A   1      28.864  31.276  21.011  1.00  0.00    -0.207 F 
ENDBRANCH  78  96
ENDBRANCH  75  78
ENDBRANCH  73  74
ENDBRANCH   1  73
TORSDOF 15
ENDMDL
MODEL 2
REMARK VINA RESULT:     -13.9      1.753      2.217
REMARK SMILES O=C(NCCCCNC(=O)[C@H](c1c[nH]c2cc(F)ccc12)[NH+]1CC[NH+](CC(=O)N2CCOCC2)CC1)c1ccc(-c2c3nc(c(-c4c(F)c(F)c(F)c(F)c4F)c4ccc([nH]4)c(-c4c(F)c(F)c(F)c(F)c4F)c4nc(c(-c5c(F)c(F)c(F)c(F)c5F)c5ccc2[nH]5)C=C4)C=C3)cc1
REMARK SMILES IDX 6 1 5 2 4 3 3 4 1 5 2 6 37 8 38 9 99 10 39 11 98 12 40 13
REMARK SMILES IDX 41 14 42 15 92 16 43 17 97 18 91 19 93 20 44 21 96 22 90 23
REMARK SMILES IDX 89 24 45 26 77 27 57 28 76 29 58 30 61 31 75 32 94 33 59 34
REMARK SMILES IDX 60 35 74 37 95 38 62 39 46 40 47 41 55 42 48 43 49 44 53 45
REMARK SMILES IDX 56 46 50 47 51 48 54 49 52 50 78 51 79 52 87 53 80 54 81 55
REMARK SMILES IDX 85 56 88 57 82 58 83 59 86 60 84 61 63 62 64 63 72 64 65 65
REMARK SMILES IDX 66 66 70 67 73 68 67 69 68 70 71 71 69 72 7 73 8 74 9 75
REMARK SMILES IDX 10 77 11 78 22 79 23 80 36 81 24 83 35 84 25 85 26 87 27 88
REMARK SMILES IDX 28 89 29 90 30 91 34 92 31 93 33 94 32 95 12 96 13 97 21 98
REMARK SMILES IDX 14 99 15 100 20 101 16 103 19 104 17 105 18 106
REMARK H PARENT 3 7 93 25 61 36 8 76 22 82 25 86 14 102
REMARK Flexibility Score: inf
ROOT
ATOM      1  C   UNL A   1      31.690  30.496  25.756  1.00  0.00     0.023 C 
ENDROOT
BRANCH   1   2
ATOM      2  C   UNL A   1      31.471  31.654  26.733  1.00  0.00     0.023 C 
BRANCH   2   3
ATOM      3  C   UNL A   1      32.694  32.489  27.108  1.00  0.00     0.116 C 
BRANCH   3   4
ATOM      4  N   UNL A   1      32.385  33.835  27.574  1.00  0.00    -0.352 N 
ATOM      5  O   UNL A   1      32.534  35.747  28.754  1.00  0.00    -0.269 OA
ATOM      6  C   UNL A   1      33.010  34.641  28.502  1.00  0.00     0.251 C 
ATOM      7  H   UNL A   1      31.591  34.238  27.154  1.00  0.00     0.163 HD
BRANCH   6   8
ATOM      8  C   UNL A   1      34.205  34.174  29.247  1.00  0.00     0.039 A 
ATOM      9  C   UNL A   1      35.493  34.469  28.811  1.00  0.00     0.014 A 
ATOM     10  C   UNL A   1      34.029  33.410  30.408  1.00  0.00     0.014 A 
ATOM     11  C   UNL A   1      36.583  33.821  29.388  1.00  0.00     0.010 A 
ATOM     12  C   UNL A   1      35.136  32.845  31.055  1.00  0.00     0.010 A 
ATOM     13  C   UNL A   1      36.421  32.995  30.514  1.00  0.00    -0.014 A 
BRANCH  13  14
ATOM     14  C   UNL A   1      37.617  32.335  31.106  1.00  0.00     0.031 A 
ATOM     15  C   UNL A   1      38.079  32.654  32.505  1.00  0.00     0.074 A 
ATOM     16  C   UNL A   1      38.252  31.383  30.393  1.00  0.00     0.049 A 
ATOM     17  N   UNL A   1      39.065  32.124  33.191  1.00  0.00    -0.248 NA
ATOM     18  C   UNL A   1      37.350  33.705  33.231  1.00  0.00     0.031 C 
ATOM     19  C   UNL A   1      37.913  30.997  29.022  1.00  0.00     0.029 A 
ATOM     20  N   UNL A   1      39.288  30.547  30.726  1.00  0.00    -0.354 N 
ATOM     21  C   UNL A   1      39.080  32.783  34.415  1.00  0.00     0.074 A 
ATOM     22  C   UNL A   1      38.025  33.773  34.371  1.00  0.00     0.031 C 
ATOM     23  C   UNL A   1      38.681  29.963  28.652  1.00  0.00     0.029 A 
ATOM     24  C   UNL A   1      39.611  29.653  29.733  1.00  0.00     0.049 A 
ATOM     25  H   UNL A   1      39.754  30.583  31.592  1.00  0.00     0.167 HD
ATOM     26  C   UNL A   1      39.893  32.572  35.479  1.00  0.00     0.037 A 
ATOM     27  C   UNL A   1      40.557  28.699  29.688  1.00  0.00     0.037 A 
ATOM     28  C   UNL A   1      40.933  31.574  35.528  1.00  0.00     0.049 A 
ATOM     29  C   UNL A   1      41.442  28.491  30.883  1.00  0.00     0.074 A 
ATOM     30  C   UNL A   1      41.797  31.276  36.568  1.00  0.00     0.029 A 
ATOM     31  N   UNL A   1      41.245  30.708  34.491  1.00  0.00    -0.354 N 
ATOM     32  N   UNL A   1      41.431  29.112  32.037  1.00  0.00    -0.248 NA
ATOM     33  C   UNL A   1      42.474  27.452  30.768  1.00  0.00     0.031 C 
ATOM     34  C   UNL A   1      42.656  30.256  36.148  1.00  0.00     0.029 A 
ATOM     35  C   UNL A   1      42.299  29.886  34.862  1.00  0.00     0.049 A 
ATOM     36  H   UNL A   1      40.786  30.680  33.620  1.00  0.00     0.167 HD
ATOM     37  C   UNL A   1      42.448  28.539  32.786  1.00  0.00     0.074 A 
ATOM     38  C   UNL A   1      43.030  27.494  31.969  1.00  0.00     0.031 C 
ATOM     39  C   UNL A   1      42.871  28.857  34.033  1.00  0.00     0.037 A 
BRANCH  26  40
ATOM     40  C   UNL A   1      39.704  33.439  36.693  1.00  0.00     0.064 A 
ATOM     41  C   UNL A   1      40.348  34.679  36.817  1.00  0.00     0.173 A 
ATOM     42  C   UNL A   1      38.805  33.064  37.703  1.00  0.00     0.173 A 
ATOM     43  F   UNL A   1      41.224  35.081  35.883  1.00  0.00    -0.203 F 
ATOM     44  C   UNL A   1      40.108  35.506  37.912  1.00  0.00     0.198 A 
ATOM     45  C   UNL A   1      38.549  33.904  38.786  1.00  0.00     0.198 A 
ATOM     46  F   UNL A   1      38.156  31.892  37.630  1.00  0.00    -0.203 F 
ATOM     47  F   UNL A   1      40.756  36.674  38.024  1.00  0.00    -0.200 F 
ATOM     48  C   UNL A   1      39.202  35.122  38.890  1.00  0.00     0.200 A 
ATOM     49  F   UNL A   1      37.663  33.537  39.722  1.00  0.00    -0.200 F 
ATOM     50  F   UNL A   1      38.961  35.926  39.935  1.00  0.00    -0.200 F 
ENDBRANCH  26  40
BRANCH  27  51
ATOM     51  C   UNL A   1      40.722  27.878  28.460  1.00  0.00     0.064 A 
ATOM     52  C   UNL A   1      40.074  26.644  28.318  1.00  0.00     0.173 A 
ATOM     53  C   UNL A   1      41.533  28.316  27.401  1.00  0.00     0.173 A 
ATOM     54  F   UNL A   1      39.305  26.172  29.310  1.00  0.00    -0.203 F 
ATOM     55  C   UNL A   1      40.245  25.871  27.172  1.00  0.00     0.198 A 
ATOM     56  C   UNL A   1      41.676  27.557  26.243  1.00  0.00     0.198 A 
ATOM     57  F   UNL A   1      42.171  29.492  27.487  1.00  0.00    -0.203 F 
ATOM     58  F   UNL A   1      39.653  24.671  27.081  1.00  0.00    -0.200 F 
ATOM     59  C   UNL A   1      41.040  26.331  26.132  1.00  0.00     0.200 A 
ATOM     60  F   UNL A   1      42.430  28.016  25.234  1.00  0.00    -0.200 F 
ATOM     61  F   UNL A   1      41.198  25.590  25.027  1.00  0.00    -0.200 F 
ENDBRANCH  27  51
BRANCH  39  62
ATOM     62  C   UNL A   1      44.016  28.058  34.583  1.00  0.00     0.064 A 
ATOM     63  C   UNL A   1      43.801  26.870  35.296  1.00  0.00     0.173 A 
ATOM     64  C   UNL A   1      45.339  28.484  34.394  1.00  0.00     0.173 A 
ATOM     65  F   UNL A   1      42.552  26.431  35.516  1.00  0.00    -0.203 F 
ATOM     66  C   UNL A   1      44.868  26.156  35.834  1.00  0.00     0.198 A 
ATOM     67  C   UNL A   1      46.405  27.752  34.909  1.00  0.00     0.198 A 
ATOM     68  F   UNL A   1      45.597  29.611  33.714  1.00  0.00    -0.203 F 
ATOM     69  F   UNL A   1      44.636  25.056  36.564  1.00  0.00    -0.200 F 
ATOM     70  C   UNL A   1      46.169  26.595  35.637  1.00  0.00     0.200 A 
ATOM     71  F   UNL A   1      47.662  28.172  34.710  1.00  0.00    -0.200 F 
ATOM     72  F   UNL A   1      47.195  25.910  36.160  1.00  0.00    -0.200 F 
ENDBRANCH  39  62
ENDBRANCH  13  14
ENDBRANCH   6   8
ENDBRANCH   3   4
ENDBRANCH   2   3
ENDBRANCH   1   2
BRANCH   1  73
ATOM     73  C   UNL A   1      32.424  29.268  26.293  1.00  0.00     0.116 C 
BRANCH  73  74
ATOM     74  N   UNL A   1      31.590  28.181  26.772  1.00  0.00    -0.351 N 
ATOM     75  C   UNL A   1      31.066  27.081  26.119  1.00  0.00     0.283 C 
ATOM     76  H   UNL A   1      31.357  28.237  27.726  1.00  0.00     0.163 HD
ATOM     77  O   UNL A   1      30.621  26.207  26.875  1.00  0.00    -0.268 OA
BRANCH  75  78
ATOM     78  C   UNL A   1      31.048  26.947  24.529  1.00  0.00     0.308 C 
BRANCH  78  79
ATOM     79  N   UNL A   1      31.272  25.529  24.113  1.00  0.00    -0.312 N 
ATOM     80  C   UNL A   1      31.396  25.243  22.656  1.00  0.00     0.325 C 
ATOM     81  C   UNL A   1      32.441  24.943  24.751  1.00  0.00     0.325 C 
ATOM     82  H   UNL A   1      30.397  25.108  24.423  1.00  0.00     0.349 HD
ATOM     83  C   UNL A   1      32.819  25.214  21.980  1.00  0.00     0.325 C 
ATOM     84  C   UNL A   1      33.748  25.529  24.166  1.00  0.00     0.325 C 
ATOM     85  N   UNL A   1      34.012  25.046  22.828  1.00  0.00    -0.318 N 
ATOM     86  H   UNL A   1      34.722  25.644  22.404  1.00  0.00     0.348 HD
BRANCH  85  87
ATOM     87  C   UNL A   1      34.741  23.764  22.753  1.00  0.00     0.364 C 
BRANCH  87  88
ATOM     88  C   UNL A   1      35.125  23.102  24.087  1.00  0.00     0.277 C 
ATOM     89  O   UNL A   1      36.170  23.448  24.649  1.00  0.00    -0.268 OA
ATOM     90  N   UNL A   1      34.293  22.122  24.651  1.00  0.00    -0.333 N 
ATOM     91  C   UNL A   1      33.243  21.382  23.936  1.00  0.00     0.148 C 
ATOM     92  C   UNL A   1      34.776  21.466  25.873  1.00  0.00     0.148 C 
ATOM     93  C   UNL A   1      32.231  20.661  24.827  1.00  0.00     0.181 C 
ATOM     94  C   UNL A   1      33.659  20.791  26.672  1.00  0.00     0.181 C 
ATOM     95  O   UNL A   1      32.897  19.906  25.843  1.00  0.00    -0.378 OA
ENDBRANCH  87  88
ENDBRANCH  85  87
ENDBRANCH  78  79
BRANCH  78  96
ATOM     96  C   UNL A   1      29.692  27.397  24.006  1.00  0.00     0.044 A 
ATOM     97  C   UNL A   1      28.476  26.758  24.195  1.00  0.00     0.094 A 
ATOM     98  C   UNL A   1      29.425  28.528  23.161  1.00  0.00     0.009 A 
ATOM     99  N   UNL A   1      27.511  27.428  23.501  1.00  0.00    -0.361 N 
ATOM    100  C   UNL A   1      28.063  28.504  22.846  1.00  0.00     0.049 A 
ATOM    101  C   UNL A   1      30.221  29.556  22.611  1.00  0.00     0.014 A 
ATOM    102  H   UNL A   1      26.560  27.178  23.473  1.00  0.00     0.166 HD
ATOM    103  C   UNL A   1      27.462  29.442  22.001  1.00  0.00     0.065 A 
ATOM    104  C   UNL A   1      29.634  30.508  21.770  1.00  0.00     0.040 A 
ATOM    105  C   UNL A   1      28.279  30.438  21.473  1.00  0.00     0.125 A 
ATOM    106  F   UNL A   1      27.743  31.353  20.653  1.00  0.00    -0.207 F 
ENDBRANCH  78  96
ENDBRANCH  75  78
ENDBRANCH  73  74
ENDBRANCH   1  73
TORSDOF 15
ENDMDL
MODEL 3
REMARK VINA RESULT:     -13.6      1.354      2.096
REMARK SMILES O=C(NCCCCNC(=O)[C@H](c1c[nH]c2cc(F)ccc12)[NH+]1CC[NH+](CC(=O)N2CCOCC2)CC1)c1ccc(-c2c3nc(c(-c4c(F)c(F)c(F)c(F)c4F)c4ccc([nH]4)c(-c4c(F)c(F)c(F)c(F)c4F)c4nc(c(-c5c(F)c(F)c(F)c(F)c5F)c5ccc2[nH]5)C=C4)C=C3)cc1
REMARK SMILES IDX 6 1 5 2 4 3 3 4 1 5 2 6 37 8 38 9 99 10 39 11 98 12 40 13
REMARK SMILES IDX 41 14 42 15 92 16 43 17 97 18 91 19 93 20 44 21 96 22 90 23
REMARK SMILES IDX 89 24 45 26 77 27 57 28 76 29 58 30 61 31 75 32 94 33 59 34
REMARK SMILES IDX 60 35 74 37 95 38 62 39 46 40 47 41 55 42 48 43 49 44 53 45
REMARK SMILES IDX 56 46 50 47 51 48 54 49 52 50 78 51 79 52 87 53 80 54 81 55
REMARK SMILES IDX 85 56 88 57 82 58 83 59 86 60 84 61 63 62 64 63 72 64 65 65
REMARK SMILES IDX 66 66 70 67 73 68 67 69 68 70 71 71 69 72 7 73 8 74 9 75
REMARK SMILES IDX 10 77 11 78 22 79 23 80 36 81 24 83 35 84 25 85 26 87 27 88
REMARK SMILES IDX 28 89 29 90 30 91 34 92 31 93 33 94 32 95 12 96 13 97 21 98
REMARK SMILES IDX 14 99 15 100 20 101 16 103 19 104 17 105 18 106
REMARK H PARENT 3 7 93 25 61 36 8 76 22 82 25 86 14 102
REMARK Flexibility Score: inf
ROOT
ATOM      1  C   UNL A   1      32.022  29.806  26.634  1.00  0.00     0.023 C 
ENDROOT
BRANCH   1   2
ATOM      2  C   UNL A   1      32.537  30.925  27.543  1.00  0.00     0.023 C 
BRANCH   2   3
ATOM      3  C   UNL A   1      33.142  32.151  26.863  1.00  0.00     0.116 C 
BRANCH   3   4
ATOM      4  N   UNL A   1      32.705  33.426  27.419  1.00  0.00    -0.352 N 
ATOM      5  O   UNL A   1      32.644  35.235  28.759  1.00  0.00    -0.269 OA
ATOM      6  C   UNL A   1      33.216  34.193  28.446  1.00  0.00     0.251 C 
ATOM      7  H   UNL A   1      31.906  33.805  26.988  1.00  0.00     0.163 HD
BRANCH   6   8
ATOM      8  C   UNL A   1      34.402  33.751  29.219  1.00  0.00     0.039 A 
ATOM      9  C   UNL A   1      35.674  34.244  28.943  1.00  0.00     0.014 A 
ATOM     10  C   UNL A   1      34.238  32.807  30.241  1.00  0.00     0.014 A 
ATOM     11  C   UNL A   1      36.790  33.639  29.516  1.00  0.00     0.010 A 
ATOM     12  C   UNL A   1      35.356  32.275  30.897  1.00  0.00     0.010 A 
ATOM     13  C   UNL A   1      36.648  32.642  30.496  1.00  0.00    -0.014 A 
BRANCH  13  14
ATOM     14  C   UNL A   1      37.870  32.033  31.092  1.00  0.00     0.031 A 
ATOM     15  C   UNL A   1      38.311  32.367  32.495  1.00  0.00     0.074 A 
ATOM     16  C   UNL A   1      38.550  31.114  30.379  1.00  0.00     0.049 A 
ATOM     17  N   UNL A   1      39.315  31.879  33.184  1.00  0.00    -0.248 NA
ATOM     18  C   UNL A   1      37.532  33.382  33.221  1.00  0.00     0.031 C 
ATOM     19  C   UNL A   1      38.236  30.718  29.005  1.00  0.00     0.029 A 
ATOM     20  N   UNL A   1      39.621  30.323  30.714  1.00  0.00    -0.354 N 
ATOM     21  C   UNL A   1      39.295  32.533  34.410  1.00  0.00     0.074 A 
ATOM     22  C   UNL A   1      38.197  33.475  34.365  1.00  0.00     0.031 C 
ATOM     23  C   UNL A   1      39.052  29.721  28.635  1.00  0.00     0.029 A 
ATOM     24  C   UNL A   1      39.989  29.449  29.719  1.00  0.00     0.049 A 
ATOM     25  H   UNL A   1      40.081  30.377  31.583  1.00  0.00     0.167 HD
ATOM     26  C   UNL A   1      40.112  32.355  35.477  1.00  0.00     0.037 A 
ATOM     27  C   UNL A   1      40.977  28.538  29.675  1.00  0.00     0.037 A 
ATOM     28  C   UNL A   1      41.195  31.404  35.528  1.00  0.00     0.049 A 
ATOM     29  C   UNL A   1      41.864  28.366  30.874  1.00  0.00     0.074 A 
ATOM     30  C   UNL A   1      42.066  31.141  36.572  1.00  0.00     0.029 A 
ATOM     31  N   UNL A   1      41.550  30.556  34.489  1.00  0.00    -0.354 N 
ATOM     32  N   UNL A   1      41.820  28.981  32.030  1.00  0.00    -0.248 NA
ATOM     33  C   UNL A   1      42.942  27.374  30.761  1.00  0.00     0.031 C 
ATOM     34  C   UNL A   1      42.973  30.161  36.152  1.00  0.00     0.029 A 
ATOM     35  C   UNL A   1      42.638  29.781  34.863  1.00  0.00     0.049 A 
ATOM     36  H   UNL A   1      41.098  30.512  33.616  1.00  0.00     0.167 HD
ATOM     37  C   UNL A   1      42.858  28.451  32.783  1.00  0.00     0.074 A 
ATOM     38  C   UNL A   1      43.490  27.436  31.965  1.00  0.00     0.031 C 
ATOM     39  C   UNL A   1      43.260  28.783  34.033  1.00  0.00     0.037 A 
BRANCH  26  40
ATOM     40  C   UNL A   1      39.878  33.208  36.694  1.00  0.00     0.064 A 
ATOM     41  C   UNL A   1      38.944  32.846  37.676  1.00  0.00     0.173 A 
ATOM     42  C   UNL A   1      40.656  34.354  36.920  1.00  0.00     0.173 A 
ATOM     43  F   UNL A   1      38.169  31.764  37.504  1.00  0.00    -0.203 F 
ATOM     44  C   UNL A   1      38.789  33.606  38.833  1.00  0.00     0.198 A 
ATOM     45  C   UNL A   1      40.515  35.099  38.090  1.00  0.00     0.198 A 
ATOM     46  F   UNL A   1      41.569  34.741  36.017  1.00  0.00    -0.203 F 
ATOM     47  F   UNL A   1      37.871  33.257  39.745  1.00  0.00    -0.200 F 
ATOM     48  C   UNL A   1      39.581  34.725  39.043  1.00  0.00     0.200 A 
ATOM     49  F   UNL A   1      41.290  36.172  38.296  1.00  0.00    -0.200 F 
ATOM     50  F   UNL A   1      39.441  35.446  40.165  1.00  0.00    -0.200 F 
ENDBRANCH  26  40
BRANCH  27  51
ATOM     51  C   UNL A   1      41.185  27.731  28.445  1.00  0.00     0.064 A 
ATOM     52  C   UNL A   1      40.490  26.532  28.237  1.00  0.00     0.173 A 
ATOM     53  C   UNL A   1      42.084  28.146  27.451  1.00  0.00     0.173 A 
ATOM     54  F   UNL A   1      39.635  26.081  29.167  1.00  0.00    -0.203 F 
ATOM     55  C   UNL A   1      40.701  25.770  27.089  1.00  0.00     0.198 A 
ATOM     56  C   UNL A   1      42.268  27.400  26.290  1.00  0.00     0.198 A 
ATOM     57  F   UNL A   1      42.770  29.288  27.601  1.00  0.00    -0.203 F 
ATOM     58  F   UNL A   1      40.060  24.602  26.936  1.00  0.00    -0.200 F 
ATOM     59  C   UNL A   1      41.583  26.208  26.113  1.00  0.00     0.200 A 
ATOM     60  F   UNL A   1      43.108  27.839  25.342  1.00  0.00    -0.200 F 
ATOM     61  F   UNL A   1      41.780  25.478  25.007  1.00  0.00    -0.200 F 
ENDBRANCH  27  51
BRANCH  39  62
ATOM     62  C   UNL A   1      44.437  28.033  34.585  1.00  0.00     0.064 A 
ATOM     63  C   UNL A   1      44.274  26.826  35.280  1.00  0.00     0.173 A 
ATOM     64  C   UNL A   1      45.739  28.526  34.418  1.00  0.00     0.173 A 
ATOM     65  F   UNL A   1      43.045  26.323  35.480  1.00  0.00    -0.203 F 
ATOM     66  C   UNL A   1      45.368  26.158  35.821  1.00  0.00     0.198 A 
ATOM     67  C   UNL A   1      46.834  27.840  34.936  1.00  0.00     0.198 A 
ATOM     68  F   UNL A   1      45.949  29.674  33.755  1.00  0.00    -0.203 F 
ATOM     69  F   UNL A   1      45.183  25.039  36.534  1.00  0.00    -0.200 F 
ATOM     70  C   UNL A   1      46.648  26.664  35.645  1.00  0.00     0.200 A 
ATOM     71  F   UNL A   1      48.071  28.325  34.757  1.00  0.00    -0.200 F 
ATOM     72  F   UNL A   1      47.701  26.023  36.171  1.00  0.00    -0.200 F 
ENDBRANCH  39  62
ENDBRANCH  13  14
ENDBRANCH   6   8
ENDBRANCH   3   4
ENDBRANCH   2   3
ENDBRANCH   1   2
BRANCH   1  73
ATOM     73  C   UNL A   1      32.226  28.372  27.120  1.00  0.00     0.116 C 
BRANCH  73  74
ATOM     74  N   UNL A   1      31.091  27.479  26.974  1.00  0.00    -0.351 N 
ATOM     75  C   UNL A   1      30.882  26.404  26.130  1.00  0.00     0.283 C 
ATOM     76  H   UNL A   1      30.341  27.671  27.582  1.00  0.00     0.163 HD
ATOM     77  O   UNL A   1      29.919  25.692  26.445  1.00  0.00    -0.268 OA
BRANCH  75  78
ATOM     78  C   UNL A   1      31.809  26.105  24.867  1.00  0.00     0.308 C 
BRANCH  78  79
ATOM     79  N   UNL A   1      31.380  24.848  24.179  1.00  0.00    -0.312 N 
ATOM     80  C   UNL A   1      32.199  24.370  23.030  1.00  0.00     0.325 C 
ATOM     81  C   UNL A   1      31.260  23.727  25.098  1.00  0.00     0.325 C 
ATOM     82  H   UNL A   1      30.483  25.148  23.798  1.00  0.00     0.349 HD
ATOM     83  C   UNL A   1      33.358  23.330  23.272  1.00  0.00     0.325 C 
ATOM     84  C   UNL A   1      32.652  23.233  25.560  1.00  0.00     0.325 C 
ATOM     85  N   UNL A   1      33.357  22.531  24.510  1.00  0.00    -0.318 N 
ATOM     86  H   UNL A   1      34.339  22.457  24.775  1.00  0.00     0.348 HD
BRANCH  85  87
ATOM     87  C   UNL A   1      33.057  21.089  24.403  1.00  0.00     0.364 C 
BRANCH  87  88
ATOM     88  C   UNL A   1      34.238  20.118  24.573  1.00  0.00     0.277 C 
ATOM     89  O   UNL A   1      35.367  20.576  24.775  1.00  0.00    -0.268 OA
ATOM     90  N   UNL A   1      34.024  18.732  24.500  1.00  0.00    -0.333 N 
ATOM     91  C   UNL A   1      32.838  18.082  23.926  1.00  0.00     0.148 C 
ATOM     92  C   UNL A   1      35.214  17.874  24.572  1.00  0.00     0.148 C 
ATOM     93  C   UNL A   1      32.656  16.610  24.297  1.00  0.00     0.181 C 
ATOM     94  C   UNL A   1      34.889  16.430  24.961  1.00  0.00     0.181 C 
ATOM     95  O   UNL A   1      33.874  15.885  24.109  1.00  0.00    -0.378 OA
ENDBRANCH  87  88
ENDBRANCH  85  87
ENDBRANCH  78  79
BRANCH  78  96
ATOM     96  C   UNL A   1      31.699  27.258  23.882  1.00  0.00     0.044 A 
ATOM     97  C   UNL A   1      32.745  27.985  23.335  1.00  0.00     0.094 A 
ATOM     98  C   UNL A   1      30.491  27.856  23.385  1.00  0.00     0.009 A 
ATOM     99  N   UNL A   1      32.233  28.986  22.562  1.00  0.00    -0.361 N 
ATOM    100  C   UNL A   1      30.858  28.943  22.586  1.00  0.00     0.049 A 
ATOM    101  C   UNL A   1      29.115  27.590  23.562  1.00  0.00     0.014 A 
ATOM    102  H   UNL A   1      32.768  29.643  22.061  1.00  0.00     0.166 HD
ATOM    103  C   UNL A   1      29.925  29.784  21.971  1.00  0.00     0.065 A 
ATOM    104  C   UNL A   1      28.168  28.417  22.948  1.00  0.00     0.040 A 
ATOM    105  C   UNL A   1      28.578  29.494  22.173  1.00  0.00     0.125 A 
ATOM    106  F   UNL A   1      27.652  30.280  21.607  1.00  0.00    -0.207 F 
ENDBRANCH  78  96
ENDBRANCH  75  78
ENDBRANCH  73  74
ENDBRANCH   1  73
TORSDOF 15
ENDMDL
