MODEL 1
REMARK VINA RESULT:     -13.0      0.000      0.000
REMARK SMILES CC[C@@H]1C=CCN1S(=O)(=O)c1sc2c(c1C(=O)NCCCCNC(=O)c1ccc(-c3c4nc(c(-c5c(F)c(F)c(F)c(F)c5F)c5ccc([nH]5)c(-c5c(F)c(F)c(F)c(F)c5F)c5nc(c(-c6c(F)c(F)c(F)c(F)c6F)c6ccc3[nH]6)C=C5)C=C4)cc1)CC[NH2+]C2
REMARK SMILES IDX 20 1 19 2 18 3 16 4 17 5 15 7 11 8 12 9 13 10 14 11 92 12
REMARK SMILES IDX 89 13 91 14 90 15 8 18 9 19 10 20 7 21 3 22 4 23 5 24 6 25
REMARK SMILES IDX 2 26 1 27 21 28 22 29 23 30 24 31 25 33 26 34 27 35 88 36
REMARK SMILES IDX 28 37 87 38 29 39 30 40 31 41 81 42 32 43 86 44 80 45 82 46
REMARK SMILES IDX 33 47 85 48 79 49 78 50 34 52 66 53 46 54 65 55 47 56 50 57
REMARK SMILES IDX 64 58 83 59 48 60 49 61 63 63 84 64 51 65 35 66 36 67 44 68
REMARK SMILES IDX 37 69 38 70 42 71 45 72 39 73 40 74 43 75 41 76 67 77 68 78
REMARK SMILES IDX 76 79 69 80 70 81 74 82 77 83 71 84 72 85 75 86 73 87 52 88
REMARK SMILES IDX 53 89 61 90 54 91 55 92 59 93 62 94 56 95 57 96 60 97 58 98
REMARK H PARENT 18 6 91 16 91 17 23 32 82 51 50 62
REMARK Flexibility Score: inf
ROOT
ATOM      1  C   UNL A   1      38.356  23.009  26.459  1.00  0.00     0.023 C 
ENDROOT
BRANCH   1   2
ATOM      2  C   UNL A   1      37.215  23.616  25.649  1.00  0.00     0.116 C 
BRANCH   2   3
ATOM      3  N   UNL A   1      37.142  23.278  24.254  1.00  0.00    -0.352 N 
ATOM      4  C   UNL A   1      36.065  23.175  23.406  1.00  0.00     0.253 C 
ATOM      5  O   UNL A   1      36.385  23.103  22.213  1.00  0.00    -0.269 OA
ATOM      6  H   UNL A   1      38.013  23.088  23.835  1.00  0.00     0.163 HD
BRANCH   4   7
ATOM      7  C   UNL A   1      34.640  23.003  23.799  1.00  0.00     0.074 A 
ATOM      8  C   UNL A   1      33.498  23.814  23.612  1.00  0.00     0.148 A 
ATOM      9  S   UNL A   1      32.083  23.053  24.270  1.00  0.00    -0.120 S 
ATOM     10  C   UNL A   1      32.896  21.699  24.798  1.00  0.00     0.064 A 
ATOM     11  C   UNL A   1      34.221  21.716  24.429  1.00  0.00    -0.009 A 
ATOM     12  C   UNL A   1      32.169  20.585  25.492  1.00  0.00     0.308 C 
ATOM     13  C   UNL A   1      35.051  20.480  24.722  1.00  0.00     0.099 C 
ATOM     14  N   UNL A   1      33.108  19.620  26.084  1.00  0.00    -0.342 N 
ATOM     15  C   UNL A   1      34.153  19.272  25.105  1.00  0.00     0.265 C 
ATOM     16  H   UNL A   1      33.541  20.034  26.910  1.00  0.00     0.346 HD
ATOM     17  H   UNL A   1      32.600  18.776  26.349  1.00  0.00     0.346 HD
BRANCH   8  18
ATOM     18  S   UNL A   1      32.997  25.389  22.816  1.00  0.00     0.254 S 
ATOM     19  O   UNL A   1      31.649  25.193  22.339  1.00  0.00    -0.206 OA
ATOM     20  O   UNL A   1      34.040  25.695  21.854  1.00  0.00    -0.206 OA
BRANCH  18  21
ATOM     21  N   UNL A   1      32.961  26.642  24.009  1.00  0.00    -0.186 NA
ATOM     22  C   UNL A   1      31.575  27.001  24.514  1.00  0.00     0.096 C 
ATOM     23  C   UNL A   1      31.585  26.497  25.923  1.00  0.00    -0.010 C 
ATOM     24  C   UNL A   1      32.817  26.204  26.331  1.00  0.00    -0.013 C 
ATOM     25  C   UNL A   1      33.795  26.366  25.227  1.00  0.00     0.130 C 
BRANCH  22  26
ATOM     26  C   UNL A   1      31.400  28.539  24.464  1.00  0.00     0.021 C 
ATOM     27  C   UNL A   1      30.674  29.075  23.227  1.00  0.00     0.006 C 
ENDBRANCH  22  26
ENDBRANCH  18  21
ENDBRANCH   8  18
ENDBRANCH   4   7
ENDBRANCH   2   3
ENDBRANCH   1   2
BRANCH   1  28
ATOM     28  C   UNL A   1      39.005  21.717  25.949  1.00  0.00     0.023 C 
BRANCH  28  29
ATOM     29  C   UNL A   1      40.295  21.290  26.642  1.00  0.00     0.116 C 
BRANCH  29  30
ATOM     30  N   UNL A   1      41.508  21.442  25.835  1.00  0.00    -0.352 N 
ATOM     31  C   UNL A   1      42.239  22.604  25.636  1.00  0.00     0.251 C 
ATOM     32  H   UNL A   1      41.841  20.632  25.387  1.00  0.00     0.163 HD
ATOM     33  O   UNL A   1      43.041  22.707  24.716  1.00  0.00    -0.269 OA
BRANCH  31  34
ATOM     34  C   UNL A   1      42.031  23.726  26.570  1.00  0.00     0.039 A 
ATOM     35  C   UNL A   1      42.582  23.739  27.856  1.00  0.00     0.014 A 
ATOM     36  C   UNL A   1      41.316  24.817  26.087  1.00  0.00     0.014 A 
ATOM     37  C   UNL A   1      42.489  24.906  28.616  1.00  0.00     0.010 A 
ATOM     38  C   UNL A   1      41.374  26.007  26.762  1.00  0.00     0.010 A 
ATOM     39  C   UNL A   1      41.902  26.047  28.050  1.00  0.00    -0.014 A 
BRANCH  39  40
ATOM     40  C   UNL A   1      41.934  27.342  28.728  1.00  0.00     0.031 A 
ATOM     41  C   UNL A   1      43.067  28.226  28.327  1.00  0.00     0.074 A 
ATOM     42  C   UNL A   1      40.863  27.793  29.422  1.00  0.00     0.049 A 
ATOM     43  N   UNL A   1      43.991  28.732  29.075  1.00  0.00    -0.248 NA
ATOM     44  C   UNL A   1      43.266  28.491  26.890  1.00  0.00     0.031 C 
ATOM     45  C   UNL A   1      39.565  27.119  29.585  1.00  0.00     0.029 A 
ATOM     46  N   UNL A   1      40.638  29.004  30.006  1.00  0.00    -0.354 N 
ATOM     47  C   UNL A   1      44.765  29.543  28.242  1.00  0.00     0.074 A 
ATOM     48  C   UNL A   1      44.395  29.204  26.897  1.00  0.00     0.031 C 
ATOM     49  C   UNL A   1      38.633  28.012  29.976  1.00  0.00     0.029 A 
ATOM     50  C   UNL A   1      39.297  29.265  30.272  1.00  0.00     0.049 A 
ATOM     51  H   UNL A   1      41.361  29.638  30.221  1.00  0.00     0.167 HD
ATOM     52  C   UNL A   1      45.427  30.623  28.744  1.00  0.00     0.037 A 
ATOM     53  C   UNL A   1      38.754  30.434  30.684  1.00  0.00     0.037 A 
ATOM     54  C   UNL A   1      45.493  30.543  30.183  1.00  0.00     0.049 A 
ATOM     55  C   UNL A   1      39.850  31.253  31.246  1.00  0.00     0.074 A 
ATOM     56  C   UNL A   1      46.129  29.751  31.112  1.00  0.00     0.029 A 
ATOM     57  N   UNL A   1      44.472  31.187  30.830  1.00  0.00    -0.354 N 
ATOM     58  N   UNL A   1      40.500  30.943  32.333  1.00  0.00    -0.248 NA
ATOM     59  C   UNL A   1      40.496  32.240  30.391  1.00  0.00     0.031 C 
ATOM     60  C   UNL A   1      45.264  29.725  32.248  1.00  0.00     0.029 A 
ATOM     61  C   UNL A   1      44.162  30.541  31.992  1.00  0.00     0.049 A 
ATOM     62  H   UNL A   1      44.027  32.003  30.504  1.00  0.00     0.167 HD
ATOM     63  C   UNL A   1      41.800  31.343  32.082  1.00  0.00     0.074 A 
ATOM     64  C   UNL A   1      41.698  32.281  30.970  1.00  0.00     0.031 C 
ATOM     65  C   UNL A   1      42.848  30.633  32.593  1.00  0.00     0.037 A 
BRANCH  52  66
ATOM     66  C   UNL A   1      45.559  31.972  28.048  1.00  0.00     0.064 A 
ATOM     67  C   UNL A   1      44.379  32.639  27.643  1.00  0.00     0.173 A 
ATOM     68  C   UNL A   1      46.748  32.458  27.464  1.00  0.00     0.173 A 
ATOM     69  F   UNL A   1      43.183  32.272  28.130  1.00  0.00    -0.203 F 
ATOM     70  C   UNL A   1      44.382  33.622  26.648  1.00  0.00     0.198 A 
ATOM     71  C   UNL A   1      46.752  33.475  26.506  1.00  0.00     0.198 A 
ATOM     72  F   UNL A   1      47.943  31.909  27.698  1.00  0.00    -0.203 F 
ATOM     73  F   UNL A   1      43.222  34.119  26.196  1.00  0.00    -0.200 F 
ATOM     74  C   UNL A   1      45.569  34.030  26.070  1.00  0.00     0.200 A 
ATOM     75  F   UNL A   1      47.913  33.846  25.947  1.00  0.00    -0.200 F 
ATOM     76  F   UNL A   1      45.572  34.916  25.066  1.00  0.00    -0.200 F 
ENDBRANCH  52  66
BRANCH  53  77
ATOM     77  C   UNL A   1      37.406  30.979  30.400  1.00  0.00     0.064 A 
ATOM     78  C   UNL A   1      36.533  31.355  31.433  1.00  0.00     0.173 A 
ATOM     79  C   UNL A   1      37.052  31.385  29.099  1.00  0.00     0.173 A 
ATOM     80  F   UNL A   1      36.823  31.047  32.705  1.00  0.00    -0.203 F 
ATOM     81  C   UNL A   1      35.384  32.112  31.181  1.00  0.00     0.198 A 
ATOM     82  C   UNL A   1      35.902  32.137  28.848  1.00  0.00     0.198 A 
ATOM     83  F   UNL A   1      37.865  31.143  28.061  1.00  0.00    -0.203 F 
ATOM     84  F   UNL A   1      34.605  32.505  32.199  1.00  0.00    -0.200 F 
ATOM     85  C   UNL A   1      35.075  32.511  29.891  1.00  0.00     0.200 A 
ATOM     86  F   UNL A   1      35.637  32.551  27.601  1.00  0.00    -0.200 F 
ATOM     87  F   UNL A   1      34.008  33.288  29.658  1.00  0.00    -0.200 F 
ENDBRANCH  53  77
BRANCH  65  88
ATOM     88  C   UNL A   1      42.567  29.734  33.760  1.00  0.00     0.064 A 
ATOM     89  C   UNL A   1      42.181  28.388  33.658  1.00  0.00     0.173 A 
ATOM     90  C   UNL A   1      42.804  30.243  35.044  1.00  0.00     0.173 A 
ATOM     91  F   UNL A   1      42.020  27.803  32.466  1.00  0.00    -0.203 F 
ATOM     92  C   UNL A   1      42.003  27.601  34.794  1.00  0.00     0.198 A 
ATOM     93  C   UNL A   1      42.664  29.446  36.174  1.00  0.00     0.198 A 
ATOM     94  F   UNL A   1      43.220  31.510  35.197  1.00  0.00    -0.203 F 
ATOM     95  F   UNL A   1      41.618  26.322  34.673  1.00  0.00    -0.200 F 
ATOM     96  C   UNL A   1      42.252  28.128  36.051  1.00  0.00     0.200 A 
ATOM     97  F   UNL A   1      42.952  29.948  37.383  1.00  0.00    -0.200 F 
ATOM     98  F   UNL A   1      42.119  27.361  37.142  1.00  0.00    -0.200 F 
ENDBRANCH  65  88
ENDBRANCH  39  40
ENDBRANCH  31  34
ENDBRANCH  29  30
ENDBRANCH  28  29
ENDBRANCH   1  28
TORSDOF 14
ENDMDL
MODEL 2
REMARK VINA RESULT:     -12.8      3.061      8.657
REMARK SMILES CC[C@@H]1C=CCN1S(=O)(=O)c1sc2c(c1C(=O)NCCCCNC(=O)c1ccc(-c3c4nc(c(-c5c(F)c(F)c(F)c(F)c5F)c5ccc([nH]5)c(-c5c(F)c(F)c(F)c(F)c5F)c5nc(c(-c6c(F)c(F)c(F)c(F)c6F)c6ccc3[nH]6)C=C5)C=C4)cc1)CC[NH2+]C2
REMARK SMILES IDX 20 1 19 2 18 3 16 4 17 5 15 7 11 8 12 9 13 10 14 11 92 12
REMARK SMILES IDX 89 13 91 14 90 15 8 18 9 19 10 20 7 21 3 22 4 23 5 24 6 25
REMARK SMILES IDX 2 26 1 27 21 28 22 29 23 30 24 31 25 33 26 34 27 35 88 36
REMARK SMILES IDX 28 37 87 38 29 39 30 40 31 41 81 42 32 43 86 44 80 45 82 46
REMARK SMILES IDX 33 47 85 48 79 49 78 50 34 52 66 53 46 54 65 55 47 56 50 57
REMARK SMILES IDX 64 58 83 59 48 60 49 61 63 63 84 64 51 65 35 66 36 67 44 68
REMARK SMILES IDX 37 69 38 70 42 71 45 72 39 73 40 74 43 75 41 76 67 77 68 78
REMARK SMILES IDX 76 79 69 80 70 81 74 82 77 83 71 84 72 85 75 86 73 87 52 88
REMARK SMILES IDX 53 89 61 90 54 91 55 92 59 93 62 94 56 95 57 96 60 97 58 98
REMARK H PARENT 18 6 91 16 91 17 23 32 82 51 50 62
REMARK Flexibility Score: inf
ROOT
ATOM      1  C   UNL A   1      34.655  30.210  27.214  1.00  0.00     0.023 C 
ENDROOT
BRANCH   1   2
ATOM      2  C   UNL A   1      34.073  28.817  26.997  1.00  0.00     0.116 C 
BRANCH   2   3
ATOM      3  N   UNL A   1      32.777  28.547  27.557  1.00  0.00    -0.352 N 
ATOM      4  C   UNL A   1      31.778  27.694  27.151  1.00  0.00     0.253 C 
ATOM      5  O   UNL A   1      30.895  27.533  28.001  1.00  0.00    -0.269 OA
ATOM      6  H   UNL A   1      32.570  29.062  28.371  1.00  0.00     0.163 HD
BRANCH   4   7
ATOM      7  C   UNL A   1      31.613  27.104  25.795  1.00  0.00     0.074 A 
ATOM      8  C   UNL A   1      31.641  25.771  25.328  1.00  0.00     0.148 A 
ATOM      9  S   UNL A   1      31.343  25.706  23.620  1.00  0.00    -0.120 S 
ATOM     10  C   UNL A   1      31.180  27.354  23.451  1.00  0.00     0.064 A 
ATOM     11  C   UNL A   1      31.248  28.005  24.662  1.00  0.00    -0.009 A 
ATOM     12  C   UNL A   1      30.884  27.968  22.115  1.00  0.00     0.308 C 
ATOM     13  C   UNL A   1      30.976  29.498  24.676  1.00  0.00     0.099 C 
ATOM     14  N   UNL A   1      31.029  29.431  22.154  1.00  0.00    -0.342 N 
ATOM     15  C   UNL A   1      30.341  29.971  23.340  1.00  0.00     0.265 C 
ATOM     16  H   UNL A   1      32.019  29.672  22.197  1.00  0.00     0.346 HD
ATOM     17  H   UNL A   1      30.614  29.832  21.312  1.00  0.00     0.346 HD
BRANCH   8  18
ATOM     18  S   UNL A   1      31.804  24.056  25.958  1.00  0.00     0.254 S 
ATOM     19  O   UNL A   1      31.059  23.216  25.051  1.00  0.00    -0.206 OA
ATOM     20  O   UNL A   1      31.403  24.106  27.352  1.00  0.00    -0.206 OA
BRANCH  18  21
ATOM     21  N   UNL A   1      33.466  23.578  25.878  1.00  0.00    -0.186 NA
ATOM     22  C   UNL A   1      33.748  22.403  24.960  1.00  0.00     0.096 C 
ATOM     23  C   UNL A   1      34.505  23.029  23.830  1.00  0.00    -0.010 C 
ATOM     24  C   UNL A   1      34.918  24.255  24.136  1.00  0.00    -0.013 C 
ATOM     25  C   UNL A   1      34.409  24.671  25.466  1.00  0.00     0.130 C 
BRANCH  22  26
ATOM     26  C   UNL A   1      34.614  21.365  25.714  1.00  0.00     0.021 C 
ATOM     27  C   UNL A   1      35.902  20.945  25.001  1.00  0.00     0.006 C 
ENDBRANCH  22  26
ENDBRANCH  18  21
ENDBRANCH   8  18
ENDBRANCH   4   7
ENDBRANCH   2   3
ENDBRANCH   1   2
BRANCH   1  28
ATOM     28  C   UNL A   1      33.701  31.347  27.596  1.00  0.00     0.023 C 
BRANCH  28  29
ATOM     29  C   UNL A   1      34.348  32.624  28.123  1.00  0.00     0.116 C 
BRANCH  29  30
ATOM     30  N   UNL A   1      34.153  32.869  29.554  1.00  0.00    -0.352 N 
ATOM     31  C   UNL A   1      34.884  32.328  30.602  1.00  0.00     0.251 C 
ATOM     32  H   UNL A   1      33.425  33.485  29.798  1.00  0.00     0.163 HD
ATOM     33  O   UNL A   1      34.463  32.341  31.751  1.00  0.00    -0.269 OA
BRANCH  31  34
ATOM     34  C   UNL A   1      36.198  31.732  30.298  1.00  0.00     0.039 A 
ATOM     35  C   UNL A   1      37.334  32.514  30.059  1.00  0.00     0.014 A 
ATOM     36  C   UNL A   1      36.279  30.344  30.332  1.00  0.00     0.014 A 
ATOM     37  C   UNL A   1      38.575  31.882  29.952  1.00  0.00     0.010 A 
ATOM     38  C   UNL A   1      37.509  29.747  30.397  1.00  0.00     0.010 A 
ATOM     39  C   UNL A   1      38.656  30.496  30.148  1.00  0.00    -0.014 A 
BRANCH  39  40
ATOM     40  C   UNL A   1      39.944  29.806  30.223  1.00  0.00     0.031 A 
ATOM     41  C   UNL A   1      40.488  29.656  31.604  1.00  0.00     0.074 A 
ATOM     42  C   UNL A   1      40.428  29.115  29.166  1.00  0.00     0.049 A 
ATOM     43  N   UNL A   1      41.615  30.083  32.070  1.00  0.00    -0.248 NA
ATOM     44  C   UNL A   1      39.620  29.053  32.632  1.00  0.00     0.031 C 
ATOM     45  C   UNL A   1      39.782  28.929  27.857  1.00  0.00     0.029 A 
ATOM     46  N   UNL A   1      41.522  28.307  29.068  1.00  0.00    -0.354 N 
ATOM     47  C   UNL A   1      41.688  29.625  33.388  1.00  0.00     0.074 A 
ATOM     48  C   UNL A   1      40.369  29.175  33.730  1.00  0.00     0.031 C 
ATOM     49  C   UNL A   1      40.340  27.882  27.216  1.00  0.00     0.029 A 
ATOM     50  C   UNL A   1      41.495  27.446  27.974  1.00  0.00     0.049 A 
ATOM     51  H   UNL A   1      42.266  28.331  29.713  1.00  0.00     0.167 HD
ATOM     52  C   UNL A   1      42.896  29.391  33.975  1.00  0.00     0.037 A 
ATOM     53  C   UNL A   1      42.343  26.425  27.712  1.00  0.00     0.037 A 
ATOM     54  C   UNL A   1      43.951  30.009  33.211  1.00  0.00     0.049 A 
ATOM     55  C   UNL A   1      43.564  26.652  28.515  1.00  0.00     0.074 A 
ATOM     56  C   UNL A   1      44.363  31.293  32.933  1.00  0.00     0.029 A 
ATOM     57  N   UNL A   1      44.530  29.188  32.281  1.00  0.00    -0.354 N 
ATOM     58  N   UNL A   1      44.385  27.646  28.319  1.00  0.00    -0.248 NA
ATOM     59  C   UNL A   1      43.689  25.984  29.803  1.00  0.00     0.031 C 
ATOM     60  C   UNL A   1      44.957  31.231  31.636  1.00  0.00     0.029 A 
ATOM     61  C   UNL A   1      44.933  29.908  31.194  1.00  0.00     0.049 A 
ATOM     62  H   UNL A   1      44.640  28.214  32.383  1.00  0.00     0.167 HD
ATOM     63  C   UNL A   1      44.803  28.003  29.588  1.00  0.00     0.074 A 
ATOM     64  C   UNL A   1      44.492  26.850  30.426  1.00  0.00     0.031 C 
ATOM     65  C   UNL A   1      45.066  29.309  29.884  1.00  0.00     0.037 A 
BRANCH  52  66
ATOM     66  C   UNL A   1      43.209  28.219  34.899  1.00  0.00     0.064 A 
ATOM     67  C   UNL A   1      43.721  28.496  36.188  1.00  0.00     0.173 A 
ATOM     68  C   UNL A   1      43.363  26.882  34.472  1.00  0.00     0.173 A 
ATOM     69  F   UNL A   1      43.632  29.731  36.708  1.00  0.00    -0.203 F 
ATOM     70  C   UNL A   1      44.432  27.547  36.928  1.00  0.00     0.198 A 
ATOM     71  C   UNL A   1      44.031  25.923  35.237  1.00  0.00     0.198 A 
ATOM     72  F   UNL A   1      42.981  26.464  33.262  1.00  0.00    -0.203 F 
ATOM     73  F   UNL A   1      45.021  27.901  38.078  1.00  0.00    -0.200 F 
ATOM     74  C   UNL A   1      44.597  26.263  36.445  1.00  0.00     0.200 A 
ATOM     75  F   UNL A   1      44.193  24.687  34.743  1.00  0.00    -0.200 F 
ATOM     76  F   UNL A   1      45.339  25.371  37.115  1.00  0.00    -0.200 F 
ENDBRANCH  52  66
BRANCH  53  77
ATOM     77  C   UNL A   1      42.068  25.152  27.008  1.00  0.00     0.064 A 
ATOM     78  C   UNL A   1      42.809  24.759  25.882  1.00  0.00     0.173 A 
ATOM     79  C   UNL A   1      41.242  24.170  27.589  1.00  0.00     0.173 A 
ATOM     80  F   UNL A   1      43.655  25.622  25.299  1.00  0.00    -0.203 F 
ATOM     81  C   UNL A   1      42.744  23.455  25.380  1.00  0.00     0.198 A 
ATOM     82  C   UNL A   1      41.173  22.870  27.084  1.00  0.00     0.198 A 
ATOM     83  F   UNL A   1      40.560  24.428  28.713  1.00  0.00    -0.203 F 
ATOM     84  F   UNL A   1      43.510  23.099  24.340  1.00  0.00    -0.200 F 
ATOM     85  C   UNL A   1      41.933  22.509  25.987  1.00  0.00     0.200 A 
ATOM     86  F   UNL A   1      40.417  21.954  27.705  1.00  0.00    -0.200 F 
ATOM     87  F   UNL A   1      41.918  21.244  25.544  1.00  0.00    -0.200 F 
ENDBRANCH  53  77
BRANCH  65  88
ATOM     88  C   UNL A   1      45.333  30.235  28.733  1.00  0.00     0.064 A 
ATOM     89  C   UNL A   1      44.358  31.017  28.093  1.00  0.00     0.173 A 
ATOM     90  C   UNL A   1      46.664  30.409  28.335  1.00  0.00     0.173 A 
ATOM     91  F   UNL A   1      43.076  30.972  28.474  1.00  0.00    -0.203 F 
ATOM     92  C   UNL A   1      44.699  31.902  27.073  1.00  0.00     0.198 A 
ATOM     93  C   UNL A   1      47.008  31.322  27.345  1.00  0.00     0.198 A 
ATOM     94  F   UNL A   1      47.643  29.722  28.946  1.00  0.00    -0.203 F 
ATOM     95  F   UNL A   1      43.749  32.626  26.464  1.00  0.00    -0.200 F 
ATOM     96  C   UNL A   1      46.025  32.060  26.705  1.00  0.00     0.200 A 
ATOM     97  F   UNL A   1      48.298  31.504  27.026  1.00  0.00    -0.200 F 
ATOM     98  F   UNL A   1      46.360  32.940  25.751  1.00  0.00    -0.200 F 
ENDBRANCH  65  88
ENDBRANCH  39  40
ENDBRANCH  31  34
ENDBRANCH  29  30
ENDBRANCH  28  29
ENDBRANCH   1  28
TORSDOF 14
ENDMDL
MODEL 3
REMARK VINA RESULT:     -12.8      2.636      7.116
REMARK SMILES CC[C@@H]1C=CCN1S(=O)(=O)c1sc2c(c1C(=O)NCCCCNC(=O)c1ccc(-c3c4nc(c(-c5c(F)c(F)c(F)c(F)c5F)c5ccc([nH]5)c(-c5c(F)c(F)c(F)c(F)c5F)c5nc(c(-c6c(F)c(F)c(F)c(F)c6F)c6ccc3[nH]6)C=C5)C=C4)cc1)CC[NH2+]C2
REMARK SMILES IDX 20 1 19 2 18 3 16 4 17 5 15 7 11 8 12 9 13 10 14 11 92 12
REMARK SMILES IDX 89 13 91 14 90 15 8 18 9 19 10 20 7 21 3 22 4 23 5 24 6 25
REMARK SMILES IDX 2 26 1 27 21 28 22 29 23 30 24 31 25 33 26 34 27 35 88 36
REMARK SMILES IDX 28 37 87 38 29 39 30 40 31 41 81 42 32 43 86 44 80 45 82 46
REMARK SMILES IDX 33 47 85 48 79 49 78 50 34 52 66 53 46 54 65 55 47 56 50 57
REMARK SMILES IDX 64 58 83 59 48 60 49 61 63 63 84 64 51 65 35 66 36 67 44 68
REMARK SMILES IDX 37 69 38 70 42 71 45 72 39 73 40 74 43 75 41 76 67 77 68 78
REMARK SMILES IDX 76 79 69 80 70 81 74 82 77 83 71 84 72 85 75 86 73 87 52 88
REMARK SMILES IDX 53 89 61 90 54 91 55 92 59 93 62 94 56 95 57 96 60 97 58 98
REMARK H PARENT 18 6 91 16 91 17 23 32 82 51 50 62
REMARK Flexibility Score: inf
ROOT
ATOM      1  C   UNL A   1      37.037  20.709  24.611  1.00  0.00     0.023 C 
ENDROOT
BRANCH   1   2
ATOM      2  C   UNL A   1      36.910  21.917  25.534  1.00  0.00     0.116 C 
BRANCH   2   3
ATOM      3  N   UNL A   1      35.833  21.910  26.486  1.00  0.00    -0.352 N 
ATOM      4  C   UNL A   1      34.519  21.527  26.360  1.00  0.00     0.253 C 
ATOM      5  O   UNL A   1      33.932  21.423  27.443  1.00  0.00    -0.269 OA
ATOM      6  H   UNL A   1      36.080  22.236  27.383  1.00  0.00     0.163 HD
BRANCH   4   7
ATOM      7  C   UNL A   1      33.756  21.383  25.090  1.00  0.00     0.074 A 
ATOM      8  C   UNL A   1      33.335  22.323  24.123  1.00  0.00     0.148 A 
ATOM      9  S   UNL A   1      32.501  21.538  22.819  1.00  0.00    -0.120 S 
ATOM     10  C   UNL A   1      32.659  20.010  23.461  1.00  0.00     0.064 A 
ATOM     11  C   UNL A   1      33.412  20.011  24.613  1.00  0.00    -0.009 A 
ATOM     12  C   UNL A   1      32.111  18.811  22.746  1.00  0.00     0.308 C 
ATOM     13  C   UNL A   1      33.756  18.669  25.233  1.00  0.00     0.099 C 
ATOM     14  N   UNL A   1      32.143  17.615  23.602  1.00  0.00    -0.342 N 
ATOM     15  C   UNL A   1      33.460  17.501  24.253  1.00  0.00     0.265 C 
ATOM     16  H   UNL A   1      31.418  17.691  24.316  1.00  0.00     0.346 HD
ATOM     17  H   UNL A   1      31.977  16.787  23.029  1.00  0.00     0.346 HD
BRANCH   8  18
ATOM     18  S   UNL A   1      33.456  24.113  23.743  1.00  0.00     0.254 S 
ATOM     19  O   UNL A   1      32.985  24.276  22.389  1.00  0.00    -0.206 OA
ATOM     20  O   UNL A   1      34.823  24.492  24.056  1.00  0.00    -0.206 OA
BRANCH  18  21
ATOM     21  N   UNL A   1      32.389  24.988  24.786  1.00  0.00    -0.186 NA
ATOM     22  C   UNL A   1      30.930  24.577  24.695  1.00  0.00     0.096 C 
ATOM     23  C   UNL A   1      30.683  23.906  26.010  1.00  0.00    -0.010 C 
ATOM     24  C   UNL A   1      31.661  24.152  26.878  1.00  0.00    -0.013 C 
ATOM     25  C   UNL A   1      32.753  24.928  26.243  1.00  0.00     0.130 C 
BRANCH  22  26
ATOM     26  C   UNL A   1      30.055  25.844  24.533  1.00  0.00     0.021 C 
ATOM     27  C   UNL A   1      30.794  27.175  24.700  1.00  0.00     0.006 C 
ENDBRANCH  22  26
ENDBRANCH  18  21
ENDBRANCH   8  18
ENDBRANCH   4   7
ENDBRANCH   2   3
ENDBRANCH   1   2
BRANCH   1  28
ATOM     28  C   UNL A   1      38.024  19.601  24.993  1.00  0.00     0.023 C 
BRANCH  28  29
ATOM     29  C   UNL A   1      39.298  20.046  25.703  1.00  0.00     0.116 C 
BRANCH  29  30
ATOM     30  N   UNL A   1      40.372  19.050  25.725  1.00  0.00    -0.352 N 
ATOM     31  C   UNL A   1      41.726  19.285  25.918  1.00  0.00     0.251 C 
ATOM     32  H   UNL A   1      40.105  18.113  25.587  1.00  0.00     0.163 HD
ATOM     33  O   UNL A   1      42.571  18.452  25.615  1.00  0.00    -0.269 OA
BRANCH  31  34
ATOM     34  C   UNL A   1      42.131  20.574  26.509  1.00  0.00     0.039 A 
ATOM     35  C   UNL A   1      42.598  21.638  25.729  1.00  0.00     0.014 A 
ATOM     36  C   UNL A   1      41.958  20.715  27.881  1.00  0.00     0.014 A 
ATOM     37  C   UNL A   1      42.795  22.880  26.335  1.00  0.00     0.010 A 
ATOM     38  C   UNL A   1      41.988  21.967  28.435  1.00  0.00     0.010 A 
ATOM     39  C   UNL A   1      42.463  23.042  27.687  1.00  0.00    -0.014 A 
BRANCH  39  40
ATOM     40  C   UNL A   1      42.481  24.357  28.329  1.00  0.00     0.031 A 
ATOM     41  C   UNL A   1      41.278  25.196  28.059  1.00  0.00     0.074 A 
ATOM     42  C   UNL A   1      43.368  24.643  29.310  1.00  0.00     0.049 A 
ATOM     43  N   UNL A   1      41.226  26.369  27.518  1.00  0.00    -0.248 NA
ATOM     44  C   UNL A   1      39.949  24.611  28.319  1.00  0.00     0.031 C 
ATOM     45  C   UNL A   1      44.383  23.740  29.878  1.00  0.00     0.029 A 
ATOM     46  N   UNL A   1      43.468  25.738  30.116  1.00  0.00    -0.354 N 
ATOM     47  C   UNL A   1      39.884  26.754  27.557  1.00  0.00     0.074 A 
ATOM     48  C   UNL A   1      39.135  25.572  27.875  1.00  0.00     0.031 C 
ATOM     49  C   UNL A   1      44.795  24.211  31.073  1.00  0.00     0.029 A 
ATOM     50  C   UNL A   1      44.223  25.528  31.266  1.00  0.00     0.049 A 
ATOM     51  H   UNL A   1      43.044  26.601  29.902  1.00  0.00     0.167 HD
ATOM     52  C   UNL A   1      39.543  28.073  27.610  1.00  0.00     0.037 A 
ATOM     53  C   UNL A   1      44.357  26.362  32.323  1.00  0.00     0.037 A 
ATOM     54  C   UNL A   1      40.673  28.896  27.257  1.00  0.00     0.049 A 
ATOM     55  C   UNL A   1      43.955  27.711  31.872  1.00  0.00     0.074 A 
ATOM     56  C   UNL A   1      41.403  29.156  26.119  1.00  0.00     0.029 A 
ATOM     57  N   UNL A   1      41.425  29.310  28.324  1.00  0.00    -0.354 N 
ATOM     58  N   UNL A   1      44.615  28.405  30.988  1.00  0.00    -0.248 NA
ATOM     59  C   UNL A   1      42.590  28.155  32.121  1.00  0.00     0.031 C 
ATOM     60  C   UNL A   1      42.723  29.457  26.572  1.00  0.00     0.029 A 
ATOM     61  C   UNL A   1      42.738  29.421  27.967  1.00  0.00     0.049 A 
ATOM     62  H   UNL A   1      41.068  29.501  29.222  1.00  0.00     0.167 HD
ATOM     63  C   UNL A   1      43.637  29.066  30.267  1.00  0.00     0.074 A 
ATOM     64  C   UNL A   1      42.449  29.017  31.112  1.00  0.00     0.031 C 
ATOM     65  C   UNL A   1      43.807  29.304  28.934  1.00  0.00     0.037 A 
BRANCH  52  66
ATOM     66  C   UNL A   1      38.410  28.652  28.450  1.00  0.00     0.064 A 
ATOM     67  C   UNL A   1      37.645  29.712  27.909  1.00  0.00     0.173 A 
ATOM     68  C   UNL A   1      38.273  28.469  29.843  1.00  0.00     0.173 A 
ATOM     69  F   UNL A   1      37.687  29.985  26.596  1.00  0.00    -0.203 F 
ATOM     70  C   UNL A   1      36.905  30.584  28.714  1.00  0.00     0.198 A 
ATOM     71  C   UNL A   1      37.492  29.313  30.637  1.00  0.00     0.198 A 
ATOM     72  F   UNL A   1      38.963  27.548  30.520  1.00  0.00    -0.203 F 
ATOM     73  F   UNL A   1      36.316  31.657  28.169  1.00  0.00    -0.200 F 
ATOM     74  C   UNL A   1      36.840  30.391  30.080  1.00  0.00     0.200 A 
ATOM     75  F   UNL A   1      37.455  29.118  31.963  1.00  0.00    -0.200 F 
ATOM     76  F   UNL A   1      36.194  31.265  30.864  1.00  0.00    -0.200 F 
ENDBRANCH  52  66
BRANCH  53  77
ATOM     77  C   UNL A   1      44.574  26.021  33.748  1.00  0.00     0.064 A 
ATOM     78  C   UNL A   1      43.501  25.725  34.605  1.00  0.00     0.173 A 
ATOM     79  C   UNL A   1      45.863  25.724  34.231  1.00  0.00     0.173 A 
ATOM     80  F   UNL A   1      42.240  25.936  34.201  1.00  0.00    -0.203 F 
ATOM     81  C   UNL A   1      43.706  25.145  35.861  1.00  0.00     0.198 A 
ATOM     82  C   UNL A   1      46.067  25.149  35.487  1.00  0.00     0.198 A 
ATOM     83  F   UNL A   1      46.941  25.896  33.453  1.00  0.00    -0.203 F 
ATOM     84  F   UNL A   1      42.655  24.821  36.627  1.00  0.00    -0.200 F 
ATOM     85  C   UNL A   1      44.988  24.849  36.297  1.00  0.00     0.200 A 
ATOM     86  F   UNL A   1      47.308  24.830  35.880  1.00  0.00    -0.200 F 
ATOM     87  F   UNL A   1      45.179  24.237  37.474  1.00  0.00    -0.200 F 
ENDBRANCH  53  77
BRANCH  65  88
ATOM     88  C   UNL A   1      45.209  29.255  28.400  1.00  0.00     0.064 A 
ATOM     89  C   UNL A   1      46.157  30.280  28.548  1.00  0.00     0.173 A 
ATOM     90  C   UNL A   1      45.635  28.063  27.800  1.00  0.00     0.173 A 
ATOM     91  F   UNL A   1      45.854  31.415  29.187  1.00  0.00    -0.203 F 
ATOM     92  C   UNL A   1      47.461  30.130  28.079  1.00  0.00     0.198 A 
ATOM     93  C   UNL A   1      46.945  27.900  27.368  1.00  0.00     0.198 A 
ATOM     94  F   UNL A   1      44.782  27.033  27.676  1.00  0.00    -0.203 F 
ATOM     95  F   UNL A   1      48.345  31.129  28.216  1.00  0.00    -0.200 F 
ATOM     96  C   UNL A   1      47.856  28.937  27.497  1.00  0.00     0.200 A 
ATOM     97  F   UNL A   1      47.334  26.726  26.849  1.00  0.00    -0.200 F 
ATOM     98  F   UNL A   1      49.120  28.776  27.081  1.00  0.00    -0.200 F 
ENDBRANCH  65  88
ENDBRANCH  39  40
ENDBRANCH  31  34
ENDBRANCH  29  30
ENDBRANCH  28  29
ENDBRANCH   1  28
TORSDOF 14
ENDMDL
