MODEL 1
REMARK VINA RESULT:     -12.3      0.000      0.000
REMARK SMILES C[C@@H]1[C@@H](C(=O)NCCCCNC(=O)c2ccc(-c3c4nc(c(-c5c(F)c(F)c(F)c(F)c5F)c5ccc([nH]5)c(-c5c(F)c(F)c(F)c(F)c5F)c5nc(c(-c6c(F)c(F)c(F)c(F)c6F)c6ccc3[nH]6)C=C5)C=C4)cc2)CCN1C(=O)CN1C(=O)CNC1=O
REMARK SMILES IDX 8 1 7 2 6 3 4 4 5 5 3 7 1 8 2 9 79 10 77 11 78 12 80 13
REMARK SMILES IDX 81 14 82 15 83 16 84 17 88 18 85 19 86 20 87 21 89 22 9 24
REMARK SMILES IDX 10 25 11 26 12 27 13 29 14 30 15 31 76 32 16 33 75 34 17 35
REMARK SMILES IDX 18 36 19 37 69 38 20 39 74 40 68 41 70 42 21 43 73 44 67 45
REMARK SMILES IDX 66 46 22 48 54 49 34 50 53 51 35 52 38 53 52 54 71 55 36 56
REMARK SMILES IDX 37 57 51 59 72 60 39 61 23 62 24 63 32 64 25 65 26 66 30 67
REMARK SMILES IDX 33 68 27 69 28 70 31 71 29 72 55 73 56 74 64 75 57 76 58 77
REMARK SMILES IDX 62 78 65 79 59 80 60 81 63 82 61 83 40 84 41 85 49 86 42 87
REMARK SMILES IDX 43 88 47 89 50 90 44 91 45 92 48 93 46 94
REMARK H PARENT 6 6 87 23 11 28 70 47 38 58
REMARK Flexibility Score: inf
ROOT
ATOM      1  C   UNL A   1      31.515  30.744  26.254  1.00  0.00     0.023 C 
ENDROOT
BRANCH   1   2
ATOM      2  C   UNL A   1      32.942  30.206  26.187  1.00  0.00     0.116 C 
BRANCH   2   3
ATOM      3  N   UNL A   1      33.321  29.821  24.846  1.00  0.00    -0.356 N 
ATOM      4  C   UNL A   1      33.476  28.582  24.306  1.00  0.00     0.225 C 
ATOM      5  O   UNL A   1      34.155  28.520  23.276  1.00  0.00    -0.275 OA
ATOM      6  H   UNL A   1      33.492  30.569  24.230  1.00  0.00     0.163 HD
BRANCH   4   7
ATOM      7  C   UNL A   1      33.008  27.322  25.038  1.00  0.00     0.102 C 
ATOM      8  C   UNL A   1      34.091  25.108  25.636  1.00  0.00     0.032 C 
ATOM      9  C   UNL A   1      33.761  26.078  24.498  1.00  0.00     0.094 C 
ATOM     10  N   UNL A   1      32.827  25.470  23.532  1.00  0.00    -0.338 N 
ATOM     11  C   UNL A   1      31.543  26.892  24.895  1.00  0.00     0.037 C 
ATOM     12  C   UNL A   1      31.507  26.047  23.639  1.00  0.00     0.121 C 
BRANCH  10  13
ATOM     13  C   UNL A   1      33.113  24.692  22.419  1.00  0.00     0.243 C 
ATOM     14  O   UNL A   1      33.612  25.175  21.399  1.00  0.00    -0.273 OA
BRANCH  13  15
ATOM     15  C   UNL A   1      32.872  23.194  22.525  1.00  0.00     0.230 C 
BRANCH  15  16
ATOM     16  N   UNL A   1      33.816  22.466  23.350  1.00  0.00    -0.253 N 
ATOM     17  C   UNL A   1      33.416  21.714  24.419  1.00  0.00     0.250 C 
ATOM     18  C   UNL A   1      35.165  22.659  23.395  1.00  0.00     0.325 C 
ATOM     19  O   UNL A   1      32.268  21.385  24.687  1.00  0.00    -0.272 OA
ATOM     20  C   UNL A   1      34.628  21.393  25.275  1.00  0.00     0.218 C 
ATOM     21  N   UNL A   1      35.654  22.059  24.532  1.00  0.00    -0.329 N 
ATOM     22  O   UNL A   1      35.875  23.232  22.592  1.00  0.00    -0.248 OA
ATOM     23  H   UNL A   1      36.600  22.085  24.804  1.00  0.00     0.165 HD
ENDBRANCH  15  16
ENDBRANCH  13  15
ENDBRANCH  10  13
ENDBRANCH   4   7
ENDBRANCH   2   3
ENDBRANCH   1   2
BRANCH   1  24
ATOM     24  C   UNL A   1      31.389  32.232  26.580  1.00  0.00     0.023 C 
BRANCH  24  25
ATOM     25  C   UNL A   1      32.591  32.859  27.277  1.00  0.00     0.116 C 
BRANCH  25  26
ATOM     26  N   UNL A   1      32.373  34.252  27.642  1.00  0.00    -0.352 N 
ATOM     27  C   UNL A   1      32.992  35.027  28.593  1.00  0.00     0.251 C 
ATOM     28  H   UNL A   1      31.671  34.710  27.127  1.00  0.00     0.163 HD
ATOM     29  O   UNL A   1      32.555  36.145  28.848  1.00  0.00    -0.269 OA
BRANCH  27  30
ATOM     30  C   UNL A   1      34.163  34.511  29.333  1.00  0.00     0.039 A 
ATOM     31  C   UNL A   1      33.962  33.904  30.576  1.00  0.00     0.014 A 
ATOM     32  C   UNL A   1      35.454  34.630  28.815  1.00  0.00     0.014 A 
ATOM     33  C   UNL A   1      35.046  33.349  31.263  1.00  0.00     0.010 A 
ATOM     34  C   UNL A   1      36.518  34.001  29.456  1.00  0.00     0.010 A 
ATOM     35  C   UNL A   1      36.327  33.358  30.688  1.00  0.00    -0.014 A 
BRANCH  35  36
ATOM     36  C   UNL A   1      37.484  32.713  31.362  1.00  0.00     0.031 A 
ATOM     37  C   UNL A   1      38.207  31.577  30.694  1.00  0.00     0.074 A 
ATOM     38  C   UNL A   1      37.838  33.099  32.603  1.00  0.00     0.049 A 
ATOM     39  N   UNL A   1      39.177  30.826  31.152  1.00  0.00    -0.248 NA
ATOM     40  C   UNL A   1      37.757  31.214  29.340  1.00  0.00     0.031 C 
ATOM     41  C   UNL A   1      37.188  34.157  33.380  1.00  0.00     0.029 A 
ATOM     42  N   UNL A   1      38.826  32.636  33.437  1.00  0.00    -0.354 N 
ATOM     43  C   UNL A   1      39.438  29.896  30.154  1.00  0.00     0.074 A 
ATOM     44  C   UNL A   1      38.486  30.137  29.092  1.00  0.00     0.031 C 
ATOM     45  C   UNL A   1      37.808  34.278  34.564  1.00  0.00     0.029 A 
ATOM     46  C   UNL A   1      38.872  33.282  34.648  1.00  0.00     0.049 A 
ATOM     47  H   UNL A   1      39.443  31.910  33.189  1.00  0.00     0.167 HD
ATOM     48  C   UNL A   1      40.399  28.942  30.115  1.00  0.00     0.037 A 
ATOM     49  C   UNL A   1      39.679  33.089  35.710  1.00  0.00     0.037 A 
ATOM     50  C   UNL A   1      41.362  28.722  31.161  1.00  0.00     0.049 A 
ATOM     51  C   UNL A   1      40.739  32.022  35.643  1.00  0.00     0.074 A 
ATOM     52  C   UNL A   1      42.409  27.817  31.196  1.00  0.00     0.029 A 
ATOM     53  N   UNL A   1      41.394  29.415  32.362  1.00  0.00    -0.354 N 
ATOM     54  N   UNL A   1      41.017  31.190  34.668  1.00  0.00    -0.248 NA
ATOM     55  C   UNL A   1      41.604  31.874  36.821  1.00  0.00     0.031 C 
ATOM     56  C   UNL A   1      43.048  27.933  32.434  1.00  0.00     0.029 A 
ATOM     57  C   UNL A   1      42.433  28.947  33.151  1.00  0.00     0.049 A 
ATOM     58  H   UNL A   1      40.770  30.133  32.617  1.00  0.00     0.167 HD
ATOM     59  C   UNL A   1      42.108  30.448  35.099  1.00  0.00     0.074 A 
ATOM     60  C   UNL A   1      42.447  30.934  36.420  1.00  0.00     0.031 C 
ATOM     61  C   UNL A   1      42.769  29.453  34.457  1.00  0.00     0.037 A 
BRANCH  48  62
ATOM     62  C   UNL A   1      40.457  28.067  28.895  1.00  0.00     0.064 A 
ATOM     63  C   UNL A   1      41.221  28.419  27.771  1.00  0.00     0.173 A 
ATOM     64  C   UNL A   1      39.757  26.851  28.856  1.00  0.00     0.173 A 
ATOM     65  F   UNL A   1      41.900  29.576  27.752  1.00  0.00    -0.203 F 
ATOM     66  C   UNL A   1      41.254  27.605  26.642  1.00  0.00     0.198 A 
ATOM     67  C   UNL A   1      39.820  26.024  27.738  1.00  0.00     0.198 A 
ATOM     68  F   UNL A   1      39.016  26.462  29.904  1.00  0.00    -0.203 F 
ATOM     69  F   UNL A   1      41.945  27.992  25.560  1.00  0.00    -0.200 F 
ATOM     70  C   UNL A   1      40.559  26.405  26.629  1.00  0.00     0.200 A 
ATOM     71  F   UNL A   1      39.160  24.858  27.732  1.00  0.00    -0.200 F 
ATOM     72  F   UNL A   1      40.596  25.621  25.543  1.00  0.00    -0.200 F 
ENDBRANCH  48  62
BRANCH  49  73
ATOM     73  C   UNL A   1      39.539  33.946  36.916  1.00  0.00     0.064 A 
ATOM     74  C   UNL A   1      40.170  35.196  36.984  1.00  0.00     0.173 A 
ATOM     75  C   UNL A   1      38.780  33.537  38.022  1.00  0.00     0.173 A 
ATOM     76  F   UNL A   1      40.924  35.622  35.960  1.00  0.00    -0.203 F 
ATOM     77  C   UNL A   1      40.065  35.995  38.121  1.00  0.00     0.198 A 
ATOM     78  C   UNL A   1      38.653  34.349  39.147  1.00  0.00     0.198 A 
ATOM     79  F   UNL A   1      38.151  32.353  38.005  1.00  0.00    -0.203 F 
ATOM     80  F   UNL A   1      40.717  37.164  38.177  1.00  0.00    -0.200 F 
ATOM     81  C   UNL A   1      39.302  35.574  39.199  1.00  0.00     0.200 A 
ATOM     82  F   UNL A   1      37.902  33.946  40.181  1.00  0.00    -0.200 F 
ATOM     83  F   UNL A   1      39.199  36.344  40.291  1.00  0.00    -0.200 F 
ENDBRANCH  49  73
BRANCH  61  84
ATOM     84  C   UNL A   1      43.961  28.858  35.151  1.00  0.00     0.064 A 
ATOM     85  C   UNL A   1      43.847  27.749  36.000  1.00  0.00     0.173 A 
ATOM     86  C   UNL A   1      45.243  29.387  34.929  1.00  0.00     0.173 A 
ATOM     87  F   UNL A   1      42.643  27.215  36.257  1.00  0.00    -0.203 F 
ATOM     88  C   UNL A   1      44.969  27.206  36.623  1.00  0.00     0.198 A 
ATOM     89  C   UNL A   1      46.365  28.823  35.528  1.00  0.00     0.198 A 
ATOM     90  F   UNL A   1      45.408  30.444  34.120  1.00  0.00    -0.203 F 
ATOM     91  F   UNL A   1      44.830  26.176  37.469  1.00  0.00    -0.200 F 
ATOM     92  C   UNL A   1      46.226  27.738  36.380  1.00  0.00     0.200 A 
ATOM     93  F   UNL A   1      47.581  29.329  35.280  1.00  0.00    -0.200 F 
ATOM     94  F   UNL A   1      47.305  27.210  36.975  1.00  0.00    -0.200 F 
ENDBRANCH  61  84
ENDBRANCH  35  36
ENDBRANCH  27  30
ENDBRANCH  25  26
ENDBRANCH  24  25
ENDBRANCH   1  24
TORSDOF 14
ENDMDL
MODEL 2
REMARK VINA RESULT:     -12.3      0.111      1.596
REMARK SMILES C[C@@H]1[C@@H](C(=O)NCCCCNC(=O)c2ccc(-c3c4nc(c(-c5c(F)c(F)c(F)c(F)c5F)c5ccc([nH]5)c(-c5c(F)c(F)c(F)c(F)c5F)c5nc(c(-c6c(F)c(F)c(F)c(F)c6F)c6ccc3[nH]6)C=C5)C=C4)cc2)CCN1C(=O)CN1C(=O)CNC1=O
REMARK SMILES IDX 8 1 7 2 6 3 4 4 5 5 3 7 1 8 2 9 79 10 77 11 78 12 80 13
REMARK SMILES IDX 81 14 82 15 83 16 84 17 88 18 85 19 86 20 87 21 89 22 9 24
REMARK SMILES IDX 10 25 11 26 12 27 13 29 14 30 15 31 76 32 16 33 75 34 17 35
REMARK SMILES IDX 18 36 19 37 69 38 20 39 74 40 68 41 70 42 21 43 73 44 67 45
REMARK SMILES IDX 66 46 22 48 54 49 34 50 53 51 35 52 38 53 52 54 71 55 36 56
REMARK SMILES IDX 37 57 51 59 72 60 39 61 23 62 24 63 32 64 25 65 26 66 30 67
REMARK SMILES IDX 33 68 27 69 28 70 31 71 29 72 55 73 56 74 64 75 57 76 58 77
REMARK SMILES IDX 62 78 65 79 59 80 60 81 63 82 61 83 40 84 41 85 49 86 42 87
REMARK SMILES IDX 43 88 47 89 50 90 44 91 45 92 48 93 46 94
REMARK H PARENT 6 6 87 23 11 28 70 47 38 58
REMARK Flexibility Score: inf
ROOT
ATOM      1  C   UNL A   1      31.508  30.703  26.221  1.00  0.00     0.023 C 
ENDROOT
BRANCH   1   2
ATOM      2  C   UNL A   1      32.932  30.165  26.117  1.00  0.00     0.116 C 
BRANCH   2   3
ATOM      3  N   UNL A   1      33.261  29.740  24.775  1.00  0.00    -0.356 N 
ATOM      4  C   UNL A   1      33.396  28.486  24.266  1.00  0.00     0.225 C 
ATOM      5  O   UNL A   1      34.036  28.392  23.214  1.00  0.00    -0.275 OA
ATOM      6  H   UNL A   1      33.411  30.470  24.131  1.00  0.00     0.163 HD
BRANCH   4   7
ATOM      7  C   UNL A   1      32.953  27.249  25.051  1.00  0.00     0.102 C 
ATOM      8  C   UNL A   1      34.084  25.087  25.747  1.00  0.00     0.032 C 
ATOM      9  C   UNL A   1      33.735  25.999  24.568  1.00  0.00     0.094 C 
ATOM     10  N   UNL A   1      32.818  25.329  23.627  1.00  0.00    -0.338 N 
ATOM     11  C   UNL A   1      31.499  26.780  24.925  1.00  0.00     0.037 C 
ATOM     12  C   UNL A   1      31.486  25.880  23.707  1.00  0.00     0.121 C 
BRANCH  10  13
ATOM     13  C   UNL A   1      33.125  24.510  22.550  1.00  0.00     0.243 C 
ATOM     14  O   UNL A   1      33.628  24.957  21.515  1.00  0.00    -0.273 OA
BRANCH  13  15
ATOM     15  C   UNL A   1      32.900  23.015  22.715  1.00  0.00     0.230 C 
BRANCH  15  16
ATOM     16  N   UNL A   1      33.855  22.330  23.563  1.00  0.00    -0.253 N 
ATOM     17  C   UNL A   1      33.471  21.646  24.682  1.00  0.00     0.250 C 
ATOM     18  C   UNL A   1      35.206  22.514  23.571  1.00  0.00     0.325 C 
ATOM     19  O   UNL A   1      32.327  21.342  24.991  1.00  0.00    -0.272 OA
ATOM     20  C   UNL A   1      34.698  21.366  25.533  1.00  0.00     0.218 C 
ATOM     21  N   UNL A   1      35.713  21.979  24.733  1.00  0.00    -0.329 N 
ATOM     22  O   UNL A   1      35.904  23.033  22.722  1.00  0.00    -0.248 OA
ATOM     23  H   UNL A   1      36.664  22.014  24.984  1.00  0.00     0.165 HD
ENDBRANCH  15  16
ENDBRANCH  13  15
ENDBRANCH  10  13
ENDBRANCH   4   7
ENDBRANCH   2   3
ENDBRANCH   1   2
BRANCH   1  24
ATOM     24  C   UNL A   1      31.390  32.199  26.514  1.00  0.00     0.023 C 
BRANCH  24  25
ATOM     25  C   UNL A   1      32.572  32.821  27.249  1.00  0.00     0.116 C 
BRANCH  25  26
ATOM     26  N   UNL A   1      32.338  34.208  27.628  1.00  0.00    -0.352 N 
ATOM     27  C   UNL A   1      32.946  34.980  28.588  1.00  0.00     0.251 C 
ATOM     28  H   UNL A   1      31.632  34.664  27.115  1.00  0.00     0.163 HD
ATOM     29  O   UNL A   1      32.496  36.091  28.853  1.00  0.00    -0.269 OA
BRANCH  27  30
ATOM     30  C   UNL A   1      34.121  34.470  29.326  1.00  0.00     0.039 A 
ATOM     31  C   UNL A   1      33.923  33.844  30.561  1.00  0.00     0.014 A 
ATOM     32  C   UNL A   1      35.412  34.611  28.814  1.00  0.00     0.014 A 
ATOM     33  C   UNL A   1      35.010  33.294  31.244  1.00  0.00     0.010 A 
ATOM     34  C   UNL A   1      36.481  33.988  29.451  1.00  0.00     0.010 A 
ATOM     35  C   UNL A   1      36.294  33.327  30.674  1.00  0.00    -0.014 A 
BRANCH  35  36
ATOM     36  C   UNL A   1      37.456  32.688  31.344  1.00  0.00     0.031 A 
ATOM     37  C   UNL A   1      38.181  31.553  30.675  1.00  0.00     0.074 A 
ATOM     38  C   UNL A   1      37.813  33.077  32.584  1.00  0.00     0.049 A 
ATOM     39  N   UNL A   1      39.157  30.807  31.130  1.00  0.00    -0.248 NA
ATOM     40  C   UNL A   1      37.727  31.186  29.324  1.00  0.00     0.031 C 
ATOM     41  C   UNL A   1      37.163  34.133  33.361  1.00  0.00     0.029 A 
ATOM     42  N   UNL A   1      38.807  32.619  33.413  1.00  0.00    -0.354 N 
ATOM     43  C   UNL A   1      39.417  29.876  30.133  1.00  0.00     0.074 A 
ATOM     44  C   UNL A   1      38.460  30.112  29.074  1.00  0.00     0.031 C 
ATOM     45  C   UNL A   1      37.787  34.259  34.543  1.00  0.00     0.029 A 
ATOM     46  C   UNL A   1      38.856  33.267  34.624  1.00  0.00     0.049 A 
ATOM     47  H   UNL A   1      39.426  31.895  33.165  1.00  0.00     0.167 HD
ATOM     48  C   UNL A   1      40.382  28.927  30.091  1.00  0.00     0.037 A 
ATOM     49  C   UNL A   1      39.668  33.079  35.683  1.00  0.00     0.037 A 
ATOM     50  C   UNL A   1      41.350  28.712  31.133  1.00  0.00     0.049 A 
ATOM     51  C   UNL A   1      40.731  32.017  35.613  1.00  0.00     0.074 A 
ATOM     52  C   UNL A   1      42.401  27.812  31.165  1.00  0.00     0.029 A 
ATOM     53  N   UNL A   1      41.384  29.407  32.334  1.00  0.00    -0.354 N 
ATOM     54  N   UNL A   1      41.009  31.184  34.638  1.00  0.00    -0.248 NA
ATOM     55  C   UNL A   1      41.602  31.874  36.788  1.00  0.00     0.031 C 
ATOM     56  C   UNL A   1      43.044  27.932  32.401  1.00  0.00     0.029 A 
ATOM     57  C   UNL A   1      42.429  28.945  33.119  1.00  0.00     0.049 A 
ATOM     58  H   UNL A   1      40.759  30.123  32.589  1.00  0.00     0.167 HD
ATOM     59  C   UNL A   1      42.105  30.447  35.066  1.00  0.00     0.074 A 
ATOM     60  C   UNL A   1      42.447  30.936  36.385  1.00  0.00     0.031 C 
ATOM     61  C   UNL A   1      42.768  29.454  34.423  1.00  0.00     0.037 A 
BRANCH  48  62
ATOM     62  C   UNL A   1      40.438  28.050  28.872  1.00  0.00     0.064 A 
ATOM     63  C   UNL A   1      41.194  28.405  27.743  1.00  0.00     0.173 A 
ATOM     64  C   UNL A   1      39.746  26.830  28.839  1.00  0.00     0.173 A 
ATOM     65  F   UNL A   1      41.865  29.566  27.719  1.00  0.00    -0.203 F 
ATOM     66  C   UNL A   1      41.225  27.590  26.615  1.00  0.00     0.198 A 
ATOM     67  C   UNL A   1      39.808  26.001  27.722  1.00  0.00     0.198 A 
ATOM     68  F   UNL A   1      39.014  26.437  29.892  1.00  0.00    -0.203 F 
ATOM     69  F   UNL A   1      41.907  27.979  25.529  1.00  0.00    -0.200 F 
ATOM     70  C   UNL A   1      40.538  26.385  26.608  1.00  0.00     0.200 A 
ATOM     71  F   UNL A   1      39.155  24.830  27.721  1.00  0.00    -0.200 F 
ATOM     72  F   UNL A   1      40.574  25.600  25.523  1.00  0.00    -0.200 F 
ENDBRANCH  48  62
BRANCH  49  73
ATOM     73  C   UNL A   1      39.529  33.938  36.888  1.00  0.00     0.064 A 
ATOM     74  C   UNL A   1      38.782  33.507  37.993  1.00  0.00     0.173 A 
ATOM     75  C   UNL A   1      40.132  35.202  36.960  1.00  0.00     0.173 A 
ATOM     76  F   UNL A   1      38.169  32.314  37.963  1.00  0.00    -0.203 F 
ATOM     77  C   UNL A   1      38.626  34.316  39.116  1.00  0.00     0.198 A 
ATOM     78  C   UNL A   1      39.999  35.998  38.096  1.00  0.00     0.198 A 
ATOM     79  F   UNL A   1      40.863  35.658  35.932  1.00  0.00    -0.203 F 
ATOM     80  F   UNL A   1      37.867  33.899  40.139  1.00  0.00    -0.200 F 
ATOM     81  C   UNL A   1      39.239  35.559  39.170  1.00  0.00     0.200 A 
ATOM     82  F   UNL A   1      40.605  37.192  38.149  1.00  0.00    -0.200 F 
ATOM     83  F   UNL A   1      39.091  36.335  40.252  1.00  0.00    -0.200 F 
ENDBRANCH  49  73
BRANCH  61  84
ATOM     84  C   UNL A   1      43.965  28.865  35.112  1.00  0.00     0.064 A 
ATOM     85  C   UNL A   1      45.257  29.372  34.917  1.00  0.00     0.173 A 
ATOM     86  C   UNL A   1      43.806  27.799  36.012  1.00  0.00     0.173 A 
ATOM     87  F   UNL A   1      45.464  30.381  34.057  1.00  0.00    -0.203 F 
ATOM     88  C   UNL A   1      46.351  28.818  35.578  1.00  0.00     0.198 A 
ATOM     89  C   UNL A   1      44.897  27.268  36.694  1.00  0.00     0.198 A 
ATOM     90  F   UNL A   1      42.590  27.281  36.240  1.00  0.00    -0.203 F 
ATOM     91  F   UNL A   1      47.584  29.286  35.339  1.00  0.00    -0.200 F 
ATOM     92  C   UNL A   1      46.169  27.772  36.470  1.00  0.00     0.200 A 
ATOM     93  F   UNL A   1      44.717  26.267  37.567  1.00  0.00    -0.200 F 
ATOM     94  F   UNL A   1      47.222  27.244  37.110  1.00  0.00    -0.200 F 
ENDBRANCH  61  84
ENDBRANCH  35  36
ENDBRANCH  27  30
ENDBRANCH  25  26
ENDBRANCH  24  25
ENDBRANCH   1  24
TORSDOF 14
ENDMDL
MODEL 3
REMARK VINA RESULT:     -12.3      5.493     11.285
REMARK SMILES C[C@@H]1[C@@H](C(=O)NCCCCNC(=O)c2ccc(-c3c4nc(c(-c5c(F)c(F)c(F)c(F)c5F)c5ccc([nH]5)c(-c5c(F)c(F)c(F)c(F)c5F)c5nc(c(-c6c(F)c(F)c(F)c(F)c6F)c6ccc3[nH]6)C=C5)C=C4)cc2)CCN1C(=O)CN1C(=O)CNC1=O
REMARK SMILES IDX 8 1 7 2 6 3 4 4 5 5 3 7 1 8 2 9 79 10 77 11 78 12 80 13
REMARK SMILES IDX 81 14 82 15 83 16 84 17 88 18 85 19 86 20 87 21 89 22 9 24
REMARK SMILES IDX 10 25 11 26 12 27 13 29 14 30 15 31 76 32 16 33 75 34 17 35
REMARK SMILES IDX 18 36 19 37 69 38 20 39 74 40 68 41 70 42 21 43 73 44 67 45
REMARK SMILES IDX 66 46 22 48 54 49 34 50 53 51 35 52 38 53 52 54 71 55 36 56
REMARK SMILES IDX 37 57 51 59 72 60 39 61 23 62 24 63 32 64 25 65 26 66 30 67
REMARK SMILES IDX 33 68 27 69 28 70 31 71 29 72 55 73 56 74 64 75 57 76 58 77
REMARK SMILES IDX 62 78 65 79 59 80 60 81 63 82 61 83 40 84 41 85 49 86 42 87
REMARK SMILES IDX 43 88 47 89 50 90 44 91 45 92 48 93 46 94
REMARK H PARENT 6 6 87 23 11 28 70 47 38 58
REMARK Flexibility Score: inf
ROOT
ATOM      1  C   UNL A   1      37.054  20.244  25.125  1.00  0.00     0.023 C 
ENDROOT
BRANCH   1   2
ATOM      2  C   UNL A   1      37.314  21.698  25.510  1.00  0.00     0.116 C 
BRANCH   2   3
ATOM      3  N   UNL A   1      37.352  22.572  24.358  1.00  0.00    -0.356 N 
ATOM      4  C   UNL A   1      36.335  23.048  23.591  1.00  0.00     0.225 C 
ATOM      5  O   UNL A   1      36.648  23.458  22.468  1.00  0.00    -0.275 OA
ATOM      6  H   UNL A   1      38.252  22.867  24.089  1.00  0.00     0.163 HD
BRANCH   4   7
ATOM      7  C   UNL A   1      34.872  22.900  24.015  1.00  0.00     0.102 C 
ATOM      8  C   UNL A   1      32.686  22.572  22.771  1.00  0.00     0.032 C 
ATOM      9  C   UNL A   1      33.935  23.447  22.906  1.00  0.00     0.094 C 
ATOM     10  N   UNL A   1      33.587  24.809  23.353  1.00  0.00    -0.338 N 
ATOM     11  C   UNL A   1      34.383  23.668  25.249  1.00  0.00     0.037 C 
ATOM     12  C   UNL A   1      33.983  25.031  24.724  1.00  0.00     0.121 C 
BRANCH  10  13
ATOM     13  C   UNL A   1      33.233  25.910  22.587  1.00  0.00     0.243 C 
ATOM     14  O   UNL A   1      33.779  26.155  21.508  1.00  0.00    -0.273 OA
BRANCH  13  15
ATOM     15  C   UNL A   1      32.078  26.769  23.079  1.00  0.00     0.230 C 
BRANCH  15  16
ATOM     16  N   UNL A   1      32.433  27.806  24.028  1.00  0.00    -0.253 N 
ATOM     17  C   UNL A   1      31.748  27.983  25.198  1.00  0.00     0.250 C 
ATOM     18  C   UNL A   1      33.224  28.888  23.784  1.00  0.00     0.325 C 
ATOM     19  O   UNL A   1      30.936  27.210  25.689  1.00  0.00    -0.272 OA
ATOM     20  C   UNL A   1      32.109  29.339  25.779  1.00  0.00     0.218 C 
ATOM     21  N   UNL A   1      33.026  29.810  24.786  1.00  0.00    -0.329 N 
ATOM     22  O   UNL A   1      34.006  29.063  22.870  1.00  0.00    -0.248 OA
ATOM     23  H   UNL A   1      33.464  30.691  24.818  1.00  0.00     0.165 HD
ENDBRANCH  15  16
ENDBRANCH  13  15
ENDBRANCH  10  13
ENDBRANCH   4   7
ENDBRANCH   2   3
ENDBRANCH   1   2
BRANCH   1  24
ATOM     24  C   UNL A   1      38.294  19.353  25.051  1.00  0.00     0.023 C 
BRANCH  24  25
ATOM     25  C   UNL A   1      39.532  19.884  25.765  1.00  0.00     0.116 C 
BRANCH  25  26
ATOM     26  N   UNL A   1      40.581  18.883  25.902  1.00  0.00    -0.352 N 
ATOM     27  C   UNL A   1      41.928  19.035  26.125  1.00  0.00     0.251 C 
ATOM     28  H   UNL A   1      40.276  17.950  25.823  1.00  0.00     0.163 HD
ATOM     29  O   UNL A   1      42.671  18.061  26.059  1.00  0.00    -0.269 OA
BRANCH  27  30
ATOM     30  C   UNL A   1      42.493  20.370  26.413  1.00  0.00     0.039 A 
ATOM     31  C   UNL A   1      43.009  21.127  25.357  1.00  0.00     0.014 A 
ATOM     32  C   UNL A   1      42.526  20.875  27.714  1.00  0.00     0.014 A 
ATOM     33  C   UNL A   1      43.487  22.418  25.594  1.00  0.00     0.010 A 
ATOM     34  C   UNL A   1      42.920  22.192  27.936  1.00  0.00     0.010 A 
ATOM     35  C   UNL A   1      43.409  22.976  26.881  1.00  0.00    -0.014 A 
BRANCH  35  36
ATOM     36  C   UNL A   1      43.843  24.372  27.149  1.00  0.00     0.031 A 
ATOM     37  C   UNL A   1      42.850  25.389  27.639  1.00  0.00     0.074 A 
ATOM     38  C   UNL A   1      45.111  24.743  26.883  1.00  0.00     0.049 A 
ATOM     39  N   UNL A   1      43.007  26.673  27.845  1.00  0.00    -0.248 NA
ATOM     40  C   UNL A   1      41.485  24.904  27.902  1.00  0.00     0.031 C 
ATOM     41  C   UNL A   1      46.159  23.865  26.360  1.00  0.00     0.029 A 
ATOM     42  N   UNL A   1      45.730  25.962  27.004  1.00  0.00    -0.354 N 
ATOM     43  C   UNL A   1      41.764  27.147  28.241  1.00  0.00     0.074 A 
ATOM     44  C   UNL A   1      40.849  26.028  28.191  1.00  0.00     0.031 C 
ATOM     45  C   UNL A   1      47.296  24.566  26.228  1.00  0.00     0.029 A 
ATOM     46  C   UNL A   1      47.048  25.952  26.618  1.00  0.00     0.049 A 
ATOM     47  H   UNL A   1      45.272  26.769  27.336  1.00  0.00     0.167 HD
ATOM     48  C   UNL A   1      41.420  28.396  28.636  1.00  0.00     0.037 A 
ATOM     49  C   UNL A   1      47.954  26.948  26.578  1.00  0.00     0.037 A 
ATOM     50  C   UNL A   1      42.340  29.501  28.712  1.00  0.00     0.049 A 
ATOM     51  C   UNL A   1      47.548  28.328  27.020  1.00  0.00     0.074 A 
ATOM     52  C   UNL A   1      42.104  30.793  29.149  1.00  0.00     0.029 A 
ATOM     53  N   UNL A   1      43.674  29.444  28.338  1.00  0.00    -0.354 N 
ATOM     54  N   UNL A   1      46.385  28.751  27.453  1.00  0.00    -0.248 NA
ATOM     55  C   UNL A   1      48.585  29.369  26.977  1.00  0.00     0.031 C 
ATOM     56  C   UNL A   1      43.284  31.529  29.000  1.00  0.00     0.029 A 
ATOM     57  C   UNL A   1      44.270  30.682  28.520  1.00  0.00     0.049 A 
ATOM     58  H   UNL A   1      44.131  28.642  27.994  1.00  0.00     0.167 HD
ATOM     59  C   UNL A   1      46.559  30.092  27.768  1.00  0.00     0.074 A 
ATOM     60  C   UNL A   1      47.943  30.411  27.484  1.00  0.00     0.031 C 
ATOM     61  C   UNL A   1      45.654  30.979  28.249  1.00  0.00     0.037 A 
BRANCH  48  62
ATOM     62  C   UNL A   1      39.987  28.632  29.021  1.00  0.00     0.064 A 
ATOM     63  C   UNL A   1      39.527  28.398  30.326  1.00  0.00     0.173 A 
ATOM     64  C   UNL A   1      39.067  29.117  28.079  1.00  0.00     0.173 A 
ATOM     65  F   UNL A   1      40.363  27.923  31.261  1.00  0.00    -0.203 F 
ATOM     66  C   UNL A   1      38.193  28.606  30.665  1.00  0.00     0.198 A 
ATOM     67  C   UNL A   1      37.741  29.357  28.431  1.00  0.00     0.198 A 
ATOM     68  F   UNL A   1      39.454  29.365  26.819  1.00  0.00    -0.203 F 
ATOM     69  F   UNL A   1      37.766  28.321  31.903  1.00  0.00    -0.200 F 
ATOM     70  C   UNL A   1      37.303  29.092  29.719  1.00  0.00     0.200 A 
ATOM     71  F   UNL A   1      36.885  29.840  27.520  1.00  0.00    -0.200 F 
ATOM     72  F   UNL A   1      36.020  29.297  30.048  1.00  0.00    -0.200 F 
ENDBRANCH  48  62
BRANCH  49  73
ATOM     73  C   UNL A   1      49.345  26.671  26.132  1.00  0.00     0.064 A 
ATOM     74  C   UNL A   1      50.299  26.172  27.029  1.00  0.00     0.173 A 
ATOM     75  C   UNL A   1      49.750  26.902  24.809  1.00  0.00     0.173 A 
ATOM     76  F   UNL A   1      49.965  25.954  28.310  1.00  0.00    -0.203 F 
ATOM     77  C   UNL A   1      51.611  25.934  26.626  1.00  0.00     0.198 A 
ATOM     78  C   UNL A   1      51.056  26.637  24.401  1.00  0.00     0.198 A 
ATOM     79  F   UNL A   1      48.874  27.374  23.910  1.00  0.00    -0.203 F 
ATOM     80  F   UNL A   1      52.514  25.501  27.516  1.00  0.00    -0.200 F 
ATOM     81  C   UNL A   1      51.987  26.160  25.311  1.00  0.00     0.200 A 
ATOM     82  F   UNL A   1      51.412  26.844  23.125  1.00  0.00    -0.200 F 
ATOM     83  F   UNL A   1      53.249  25.928  24.923  1.00  0.00    -0.200 F 
ENDBRANCH  49  73
BRANCH  61  84
ATOM     84  C   UNL A   1      46.141  32.367  28.552  1.00  0.00     0.064 A 
ATOM     85  C   UNL A   1      46.091  33.394  27.599  1.00  0.00     0.173 A 
ATOM     86  C   UNL A   1      46.631  32.679  29.830  1.00  0.00     0.173 A 
ATOM     87  F   UNL A   1      45.645  33.144  26.359  1.00  0.00    -0.203 F 
ATOM     88  C   UNL A   1      46.537  34.678  27.906  1.00  0.00     0.198 A 
ATOM     89  C   UNL A   1      47.047  33.970  30.142  1.00  0.00     0.198 A 
ATOM     90  F   UNL A   1      46.695  31.734  30.780  1.00  0.00    -0.203 F 
ATOM     91  F   UNL A   1      46.526  35.632  26.965  1.00  0.00    -0.200 F 
ATOM     92  C   UNL A   1      47.008  34.966  29.179  1.00  0.00     0.200 A 
ATOM     93  F   UNL A   1      47.488  34.250  31.377  1.00  0.00    -0.200 F 
ATOM     94  F   UNL A   1      47.430  36.203  29.474  1.00  0.00    -0.200 F 
ENDBRANCH  61  84
ENDBRANCH  35  36
ENDBRANCH  27  30
ENDBRANCH  25  26
ENDBRANCH  24  25
ENDBRANCH   1  24
TORSDOF 14
ENDMDL
