MODEL 1
REMARK VINA RESULT:     -11.8      0.000      0.000
REMARK SMILES O=C(NCCCCNC(=O)[C@H]1CC[C@H](CNS(=O)(=O)C[C@H]2CCCO2)O1)c1ccc(-c2c3nc(c(-c4c(F)c(F)c(F)c(F)c4F)c4ccc([nH]4)c(-c4c(F)c(F)c(F)c(F)c4F)c4nc(c(-c5c(F)c(F)c(F)c(F)c5F)c5ccc2[nH]5)C=C4)C=C3)cc1
REMARK SMILES IDX 7 1 6 2 5 3 4 4 3 5 1 6 2 7 27 9 28 10 89 11 29 12 88 13
REMARK SMILES IDX 30 14 31 15 32 16 82 17 33 18 87 19 81 20 83 21 34 22 86 23
REMARK SMILES IDX 80 24 79 25 35 27 67 28 47 29 66 30 48 31 51 32 65 33 84 34
REMARK SMILES IDX 49 35 50 36 64 38 85 39 52 40 36 41 37 42 45 43 38 44 39 45
REMARK SMILES IDX 43 46 46 47 40 48 41 49 44 50 42 51 68 52 69 53 77 54 70 55
REMARK SMILES IDX 71 56 75 57 78 58 72 59 73 60 76 61 74 62 53 63 54 64 62 65
REMARK SMILES IDX 55 66 56 67 60 68 63 69 57 70 58 71 61 72 59 73 8 74 9 75
REMARK SMILES IDX 10 77 11 78 12 79 26 80 13 81 14 82 15 83 16 84 17 86 18 87
REMARK SMILES IDX 19 88 20 89 21 90 22 91 25 92 23 93 24 94
REMARK H PARENT 3 8 83 26 51 37 8 76 16 85
REMARK Flexibility Score: inf
ROOT
ATOM      1  C   UNL A   1      31.577  29.883  25.366  1.00  0.00     0.116 C 
ENDROOT
BRANCH   1   2
ATOM      2  C   UNL A   1      32.097  30.526  26.654  1.00  0.00     0.023 C 
BRANCH   2   3
ATOM      3  C   UNL A   1      31.712  31.990  26.820  1.00  0.00     0.023 C 
BRANCH   3   4
ATOM      4  C   UNL A   1      32.834  32.875  27.329  1.00  0.00     0.116 C 
BRANCH   4   5
ATOM      5  N   UNL A   1      32.423  34.238  27.642  1.00  0.00    -0.352 N 
ATOM      6  O   UNL A   1      32.471  36.161  28.852  1.00  0.00    -0.269 OA
ATOM      7  C   UNL A   1      32.950  35.061  28.613  1.00  0.00     0.251 C 
ATOM      8  H   UNL A   1      31.690  34.611  27.101  1.00  0.00     0.163 HD
BRANCH   7   9
ATOM      9  C   UNL A   1      34.091  34.546  29.392  1.00  0.00     0.039 A 
ATOM     10  C   UNL A   1      35.380  34.678  28.874  1.00  0.00     0.014 A 
ATOM     11  C   UNL A   1      33.853  33.805  30.550  1.00  0.00     0.014 A 
ATOM     12  C   UNL A   1      36.403  33.914  29.408  1.00  0.00     0.010 A 
ATOM     13  C   UNL A   1      34.915  33.138  31.160  1.00  0.00     0.010 A 
ATOM     14  C   UNL A   1      36.191  33.158  30.574  1.00  0.00    -0.014 A 
BRANCH  14  15
ATOM     15  C   UNL A   1      37.347  32.471  31.201  1.00  0.00     0.031 A 
ATOM     16  C   UNL A   1      38.095  31.378  30.496  1.00  0.00     0.074 A 
ATOM     17  C   UNL A   1      37.724  32.873  32.430  1.00  0.00     0.049 A 
ATOM     18  N   UNL A   1      39.116  30.674  30.919  1.00  0.00    -0.248 NA
ATOM     19  C   UNL A   1      37.637  31.015  29.147  1.00  0.00     0.031 C 
ATOM     20  C   UNL A   1      37.064  33.926  33.207  1.00  0.00     0.029 A 
ATOM     21  N   UNL A   1      38.755  32.467  33.233  1.00  0.00    -0.354 N 
ATOM     22  C   UNL A   1      39.406  29.772  29.905  1.00  0.00     0.074 A 
ATOM     23  C   UNL A   1      38.436  29.999  28.854  1.00  0.00     0.031 C 
ATOM     24  C   UNL A   1      37.738  34.122  34.346  1.00  0.00     0.029 A 
ATOM     25  C   UNL A   1      38.819  33.148  34.422  1.00  0.00     0.049 A 
ATOM     26  H   UNL A   1      39.389  31.756  32.982  1.00  0.00     0.167 HD
ATOM     27  C   UNL A   1      40.396  28.845  29.859  1.00  0.00     0.037 A 
ATOM     28  C   UNL A   1      39.636  32.989  35.478  1.00  0.00     0.037 A 
ATOM     29  C   UNL A   1      41.355  28.636  30.916  1.00  0.00     0.049 A 
ATOM     30  C   UNL A   1      40.687  31.921  35.420  1.00  0.00     0.074 A 
ATOM     31  C   UNL A   1      42.417  27.749  30.956  1.00  0.00     0.029 A 
ATOM     32  N   UNL A   1      41.361  29.315  32.128  1.00  0.00    -0.354 N 
ATOM     33  N   UNL A   1      40.973  31.095  34.443  1.00  0.00    -0.248 NA
ATOM     34  C   UNL A   1      41.524  31.760  36.613  1.00  0.00     0.031 C 
ATOM     35  C   UNL A   1      43.021  27.842  32.215  1.00  0.00     0.029 A 
ATOM     36  C   UNL A   1      42.384  28.842  32.935  1.00  0.00     0.049 A 
ATOM     37  H   UNL A   1      40.731  30.029  32.378  1.00  0.00     0.167 HD
ATOM     38  C   UNL A   1      42.038  30.330  34.893  1.00  0.00     0.074 A 
ATOM     39  C   UNL A   1      42.359  30.807  36.224  1.00  0.00     0.031 C 
ATOM     40  C   UNL A   1      42.690  29.323  34.260  1.00  0.00     0.037 A 
BRANCH  27  41
ATOM     41  C   UNL A   1      40.469  27.960  28.644  1.00  0.00     0.064 A 
ATOM     42  C   UNL A   1      41.211  28.314  27.508  1.00  0.00     0.173 A 
ATOM     43  C   UNL A   1      39.806  26.721  28.628  1.00  0.00     0.173 A 
ATOM     44  F   UNL A   1      41.860  29.488  27.462  1.00  0.00    -0.203 F 
ATOM     45  C   UNL A   1      41.255  27.484  26.388  1.00  0.00     0.198 A 
ATOM     46  C   UNL A   1      39.880  25.879  27.522  1.00  0.00     0.198 A 
ATOM     47  F   UNL A   1      39.090  26.324  29.690  1.00  0.00    -0.203 F 
ATOM     48  F   UNL A   1      41.921  27.873  25.293  1.00  0.00    -0.200 F 
ATOM     49  C   UNL A   1      40.594  26.265  26.399  1.00  0.00     0.200 A 
ATOM     50  F   UNL A   1      39.255  24.692  27.542  1.00  0.00    -0.200 F 
ATOM     51  F   UNL A   1      40.638  25.467  25.323  1.00  0.00    -0.200 F 
ENDBRANCH  27  41
BRANCH  28  52
ATOM     52  C   UNL A   1      39.472  33.860  36.668  1.00  0.00     0.064 A 
ATOM     53  C   UNL A   1      38.705  33.445  37.763  1.00  0.00     0.173 A 
ATOM     54  C   UNL A   1      40.106  35.110  36.750  1.00  0.00     0.173 A 
ATOM     55  F   UNL A   1      38.071  32.264  37.727  1.00  0.00    -0.203 F 
ATOM     56  C   UNL A   1      38.568  34.251  38.891  1.00  0.00     0.198 A 
ATOM     57  C   UNL A   1      39.997  35.899  37.891  1.00  0.00     0.198 A 
ATOM     58  F   UNL A   1      40.863  35.548  35.733  1.00  0.00    -0.203 F 
ATOM     59  F   UNL A   1      37.798  33.846  39.910  1.00  0.00    -0.200 F 
ATOM     60  C   UNL A   1      39.222  35.472  38.958  1.00  0.00     0.200 A 
ATOM     61  F   UNL A   1      40.652  37.066  37.961  1.00  0.00    -0.200 F 
ATOM     62  F   UNL A   1      39.102  36.240  40.049  1.00  0.00    -0.200 F 
ENDBRANCH  28  52
BRANCH  40  63
ATOM     63  C   UNL A   1      43.844  28.697  34.990  1.00  0.00     0.064 A 
ATOM     64  C   UNL A   1      43.679  27.572  35.812  1.00  0.00     0.173 A 
ATOM     65  C   UNL A   1      45.139  29.221  34.847  1.00  0.00     0.173 A 
ATOM     66  F   UNL A   1      42.460  27.045  35.998  1.00  0.00    -0.203 F 
ATOM     67  C   UNL A   1      44.761  27.016  36.489  1.00  0.00     0.198 A 
ATOM     68  C   UNL A   1      46.223  28.639  35.496  1.00  0.00     0.198 A 
ATOM     69  F   UNL A   1      45.353  30.293  34.071  1.00  0.00    -0.203 F 
ATOM     70  F   UNL A   1      44.569  25.979  37.317  1.00  0.00    -0.200 F 
ATOM     71  C   UNL A   1      46.033  27.543  36.323  1.00  0.00     0.200 A 
ATOM     72  F   UNL A   1      47.454  29.141  35.323  1.00  0.00    -0.200 F 
ATOM     73  F   UNL A   1      47.074  27.002  36.971  1.00  0.00    -0.200 F 
ENDBRANCH  40  63
ENDBRANCH  14  15
ENDBRANCH   7   9
ENDBRANCH   4   5
ENDBRANCH   3   4
ENDBRANCH   2   3
ENDBRANCH   1   2
BRANCH   1  74
ATOM     74  N   UNL A   1      32.624  29.717  24.388  1.00  0.00    -0.354 N 
ATOM     75  C   UNL A   1      33.257  28.585  23.968  1.00  0.00     0.249 C 
ATOM     76  H   UNL A   1      32.927  30.548  23.956  1.00  0.00     0.163 HD
ATOM     77  O   UNL A   1      34.080  28.716  23.056  1.00  0.00    -0.272 OA
BRANCH  75  78
ATOM     78  C   UNL A   1      32.978  27.190  24.583  1.00  0.00     0.207 C 
ATOM     79  C   UNL A   1      33.383  27.009  26.036  1.00  0.00     0.045 C 
ATOM     80  O   UNL A   1      31.626  26.750  24.445  1.00  0.00    -0.364 OA
ATOM     81  C   UNL A   1      32.096  26.779  26.787  1.00  0.00     0.037 C 
ATOM     82  C   UNL A   1      31.102  26.357  25.716  1.00  0.00     0.134 C 
BRANCH  82  83
ATOM     83  C   UNL A   1      30.830  24.848  25.779  1.00  0.00     0.130 C 
BRANCH  83  84
ATOM     84  N   UNL A   1      31.450  24.314  27.004  1.00  0.00    -0.213 NA
ATOM     85  H   UNL A   1      30.692  24.135  27.663  1.00  0.00     0.141 HD
BRANCH  84  86
ATOM     86  S   UNL A   1      32.368  22.917  26.935  1.00  0.00     0.214 S 
ATOM     87  O   UNL A   1      32.600  22.489  28.293  1.00  0.00    -0.212 OA
ATOM     88  O   UNL A   1      31.681  22.065  25.988  1.00  0.00    -0.212 OA
BRANCH  86  89
ATOM     89  C   UNL A   1      33.898  23.500  26.225  1.00  0.00     0.185 C 
BRANCH  89  90
ATOM     90  C   UNL A   1      34.126  22.941  24.823  1.00  0.00     0.134 C 
ATOM     91  C   UNL A   1      35.005  23.853  23.973  1.00  0.00     0.035 C 
ATOM     92  O   UNL A   1      34.855  21.701  24.940  1.00  0.00    -0.377 OA
ATOM     93  C   UNL A   1      36.394  23.387  24.328  1.00  0.00     0.031 C 
ATOM     94  C   UNL A   1      36.194  21.895  24.466  1.00  0.00     0.160 C 
ENDBRANCH  89  90
ENDBRANCH  86  89
ENDBRANCH  84  86
ENDBRANCH  83  84
ENDBRANCH  82  83
ENDBRANCH  75  78
ENDBRANCH   1  74
TORSDOF 16
ENDMDL
MODEL 2
REMARK VINA RESULT:     -11.8      1.341      7.591
REMARK SMILES O=C(NCCCCNC(=O)[C@H]1CC[C@H](CNS(=O)(=O)C[C@H]2CCCO2)O1)c1ccc(-c2c3nc(c(-c4c(F)c(F)c(F)c(F)c4F)c4ccc([nH]4)c(-c4c(F)c(F)c(F)c(F)c4F)c4nc(c(-c5c(F)c(F)c(F)c(F)c5F)c5ccc2[nH]5)C=C4)C=C3)cc1
REMARK SMILES IDX 7 1 6 2 5 3 4 4 3 5 1 6 2 7 27 9 28 10 89 11 29 12 88 13
REMARK SMILES IDX 30 14 31 15 32 16 82 17 33 18 87 19 81 20 83 21 34 22 86 23
REMARK SMILES IDX 80 24 79 25 35 27 67 28 47 29 66 30 48 31 51 32 65 33 84 34
REMARK SMILES IDX 49 35 50 36 64 38 85 39 52 40 36 41 37 42 45 43 38 44 39 45
REMARK SMILES IDX 43 46 46 47 40 48 41 49 44 50 42 51 68 52 69 53 77 54 70 55
REMARK SMILES IDX 71 56 75 57 78 58 72 59 73 60 76 61 74 62 53 63 54 64 62 65
REMARK SMILES IDX 55 66 56 67 60 68 63 69 57 70 58 71 61 72 59 73 8 74 9 75
REMARK SMILES IDX 10 77 11 78 12 79 26 80 13 81 14 82 15 83 16 84 17 86 18 87
REMARK SMILES IDX 19 88 20 89 21 90 22 91 25 92 23 93 24 94
REMARK H PARENT 3 8 83 26 51 37 8 76 16 85
REMARK Flexibility Score: inf
ROOT
ATOM      1  C   UNL A   1      31.697  29.757  25.443  1.00  0.00     0.116 C 
ENDROOT
BRANCH   1   2
ATOM      2  C   UNL A   1      32.041  30.451  26.763  1.00  0.00     0.023 C 
BRANCH   2   3
ATOM      3  C   UNL A   1      31.718  31.939  26.789  1.00  0.00     0.023 C 
BRANCH   3   4
ATOM      4  C   UNL A   1      32.833  32.808  27.341  1.00  0.00     0.116 C 
BRANCH   4   5
ATOM      5  N   UNL A   1      32.431  34.177  27.638  1.00  0.00    -0.352 N 
ATOM      6  O   UNL A   1      32.490  36.113  28.826  1.00  0.00    -0.269 OA
ATOM      7  C   UNL A   1      32.963  35.007  28.600  1.00  0.00     0.251 C 
ATOM      8  H   UNL A   1      31.699  34.548  27.094  1.00  0.00     0.163 HD
BRANCH   7   9
ATOM      9  C   UNL A   1      34.102  34.494  29.384  1.00  0.00     0.039 A 
ATOM     10  C   UNL A   1      35.393  34.623  28.868  1.00  0.00     0.014 A 
ATOM     11  C   UNL A   1      33.860  33.758  30.544  1.00  0.00     0.014 A 
ATOM     12  C   UNL A   1      36.413  33.860  29.409  1.00  0.00     0.010 A 
ATOM     13  C   UNL A   1      34.920  33.093  31.160  1.00  0.00     0.010 A 
ATOM     14  C   UNL A   1      36.198  33.109  30.576  1.00  0.00    -0.014 A 
BRANCH  14  15
ATOM     15  C   UNL A   1      37.351  32.424  31.209  1.00  0.00     0.031 A 
ATOM     16  C   UNL A   1      37.826  32.783  32.587  1.00  0.00     0.074 A 
ATOM     17  C   UNL A   1      37.957  31.443  30.513  1.00  0.00     0.049 A 
ATOM     18  N   UNL A   1      38.827  32.284  33.269  1.00  0.00    -0.248 NA
ATOM     19  C   UNL A   1      37.095  33.846  33.291  1.00  0.00     0.031 C 
ATOM     20  C   UNL A   1      37.578  31.015  29.164  1.00  0.00     0.029 A 
ATOM     21  N   UNL A   1      39.000  30.619  30.841  1.00  0.00    -0.354 N 
ATOM     22  C   UNL A   1      38.863  32.985  34.466  1.00  0.00     0.074 A 
ATOM     23  C   UNL A   1      37.798  33.965  34.409  1.00  0.00     0.031 C 
ATOM     24  C   UNL A   1      38.336  29.973  28.802  1.00  0.00     0.029 A 
ATOM     25  C   UNL A   1      39.313  29.720  29.852  1.00  0.00     0.049 A 
ATOM     26  H   UNL A   1      39.478  30.666  31.701  1.00  0.00     0.167 HD
ATOM     27  C   UNL A   1      39.706  32.819  35.516  1.00  0.00     0.037 A 
ATOM     28  C   UNL A   1      40.300  28.811  29.779  1.00  0.00     0.037 A 
ATOM     29  C   UNL A   1      40.761  31.835  35.555  1.00  0.00     0.049 A 
ATOM     30  C   UNL A   1      41.251  28.686  30.933  1.00  0.00     0.074 A 
ATOM     31  C   UNL A   1      41.648  31.560  36.581  1.00  0.00     0.029 A 
ATOM     32  N   UNL A   1      41.079  30.970  34.515  1.00  0.00    -0.354 N 
ATOM     33  N   UNL A   1      41.256  29.332  32.073  1.00  0.00    -0.248 NA
ATOM     34  C   UNL A   1      42.334  27.709  30.786  1.00  0.00     0.031 C 
ATOM     35  C   UNL A   1      42.544  30.581  36.137  1.00  0.00     0.029 A 
ATOM     36  C   UNL A   1      42.171  30.189  34.861  1.00  0.00     0.049 A 
ATOM     37  H   UNL A   1      40.599  30.920  33.657  1.00  0.00     0.167 HD
ATOM     38  C   UNL A   1      42.328  28.826  32.790  1.00  0.00     0.074 A 
ATOM     39  C   UNL A   1      42.936  27.804  31.962  1.00  0.00     0.031 C 
ATOM     40  C   UNL A   1      42.768  29.177  34.025  1.00  0.00     0.037 A 
BRANCH  27  41
ATOM     41  C   UNL A   1      39.551  33.745  36.691  1.00  0.00     0.064 A 
ATOM     42  C   UNL A   1      38.794  33.397  37.819  1.00  0.00     0.173 A 
ATOM     43  C   UNL A   1      40.195  34.994  36.700  1.00  0.00     0.173 A 
ATOM     44  F   UNL A   1      38.151  32.220  37.865  1.00  0.00    -0.203 F 
ATOM     45  C   UNL A   1      38.654  34.276  38.893  1.00  0.00     0.198 A 
ATOM     46  C   UNL A   1      40.081  35.856  37.789  1.00  0.00     0.198 A 
ATOM     47  F   UNL A   1      40.941  35.378  35.654  1.00  0.00    -0.203 F 
ATOM     48  F   UNL A   1      37.876  33.944  39.932  1.00  0.00    -0.200 F 
ATOM     49  C   UNL A   1      39.302  35.501  38.878  1.00  0.00     0.200 A 
ATOM     50  F   UNL A   1      40.724  37.032  37.780  1.00  0.00    -0.200 F 
ATOM     51  F   UNL A   1      39.168  36.345  39.912  1.00  0.00    -0.200 F 
ENDBRANCH  27  41
BRANCH  28  52
ATOM     52  C   UNL A   1      40.430  27.968  28.565  1.00  0.00     0.064 A 
ATOM     53  C   UNL A   1      41.177  28.404  27.464  1.00  0.00     0.173 A 
ATOM     54  C   UNL A   1      39.840  26.696  28.493  1.00  0.00     0.173 A 
ATOM     55  F   UNL A   1      41.750  29.616  27.480  1.00  0.00    -0.203 F 
ATOM     56  C   UNL A   1      41.320  27.604  26.331  1.00  0.00     0.198 A 
ATOM     57  C   UNL A   1      40.013  25.885  27.376  1.00  0.00     0.198 A 
ATOM     58  F   UNL A   1      39.126  26.227  29.527  1.00  0.00    -0.203 F 
ATOM     59  F   UNL A   1      42.008  28.060  25.276  1.00  0.00    -0.200 F 
ATOM     60  C   UNL A   1      40.745  26.342  26.293  1.00  0.00     0.200 A 
ATOM     61  F   UNL A   1      39.477  24.656  27.355  1.00  0.00    -0.200 F 
ATOM     62  F   UNL A   1      40.895  25.569  25.209  1.00  0.00    -0.200 F 
ENDBRANCH  28  52
BRANCH  40  63
ATOM     63  C   UNL A   1      43.946  28.418  34.567  1.00  0.00     0.064 A 
ATOM     64  C   UNL A   1      43.794  27.195  35.238  1.00  0.00     0.173 A 
ATOM     65  C   UNL A   1      45.247  28.914  34.393  1.00  0.00     0.173 A 
ATOM     66  F   UNL A   1      42.571  26.687  35.449  1.00  0.00    -0.203 F 
ATOM     67  C   UNL A   1      44.899  26.515  35.743  1.00  0.00     0.198 A 
ATOM     68  C   UNL A   1      46.352  28.211  34.866  1.00  0.00     0.198 A 
ATOM     69  F   UNL A   1      45.450  30.076  33.755  1.00  0.00    -0.203 F 
ATOM     70  F   UNL A   1      44.725  25.379  36.434  1.00  0.00    -0.200 F 
ATOM     71  C   UNL A   1      46.177  27.018  35.549  1.00  0.00     0.200 A 
ATOM     72  F   UNL A   1      47.587  28.692  34.663  1.00  0.00    -0.200 F 
ATOM     73  F   UNL A   1      47.239  26.357  36.030  1.00  0.00    -0.200 F 
ENDBRANCH  40  63
ENDBRANCH  14  15
ENDBRANCH   7   9
ENDBRANCH   4   5
ENDBRANCH   3   4
ENDBRANCH   2   3
ENDBRANCH   1   2
BRANCH   1  74
ATOM     74  N   UNL A   1      32.845  29.649  24.578  1.00  0.00    -0.354 N 
ATOM     75  C   UNL A   1      33.464  28.542  24.080  1.00  0.00     0.249 C 
ATOM     76  H   UNL A   1      33.242  30.507  24.303  1.00  0.00     0.163 HD
ATOM     77  O   UNL A   1      34.398  28.734  23.295  1.00  0.00    -0.272 OA
BRANCH  75  78
ATOM     78  C   UNL A   1      33.038  27.100  24.458  1.00  0.00     0.207 C 
ATOM     79  C   UNL A   1      33.099  26.074  23.340  1.00  0.00     0.045 C 
ATOM     80  O   UNL A   1      33.728  26.563  25.587  1.00  0.00    -0.364 OA
ATOM     81  C   UNL A   1      34.153  25.081  23.763  1.00  0.00     0.037 C 
ATOM     82  C   UNL A   1      34.290  25.289  25.263  1.00  0.00     0.134 C 
BRANCH  82  83
ATOM     83  C   UNL A   1      33.613  24.153  26.042  1.00  0.00     0.130 C 
BRANCH  83  84
ATOM     84  N   UNL A   1      33.811  22.897  25.299  1.00  0.00    -0.213 NA
ATOM     85  H   UNL A   1      34.447  23.106  24.530  1.00  0.00     0.141 HD
BRANCH  84  86
ATOM     86  S   UNL A   1      34.427  21.552  26.081  1.00  0.00     0.214 S 
ATOM     87  O   UNL A   1      35.839  21.777  26.272  1.00  0.00    -0.212 OA
ATOM     88  O   UNL A   1      33.544  21.338  27.207  1.00  0.00    -0.212 OA
BRANCH  86  89
ATOM     89  C   UNL A   1      34.189  20.263  24.871  1.00  0.00     0.185 C 
BRANCH  89  90
ATOM     90  C   UNL A   1      32.739  19.790  24.819  1.00  0.00     0.134 C 
ATOM     91  C   UNL A   1      32.355  19.248  23.446  1.00  0.00     0.035 C 
ATOM     92  O   UNL A   1      32.591  18.678  25.727  1.00  0.00    -0.377 OA
ATOM     93  C   UNL A   1      32.769  17.802  23.539  1.00  0.00     0.031 C 
ATOM     94  C   UNL A   1      32.417  17.471  24.972  1.00  0.00     0.160 C 
ENDBRANCH  89  90
ENDBRANCH  86  89
ENDBRANCH  84  86
ENDBRANCH  83  84
ENDBRANCH  82  83
ENDBRANCH  75  78
ENDBRANCH   1  74
TORSDOF 16
ENDMDL
MODEL 3
REMARK VINA RESULT:     -11.7      1.502      2.134
REMARK SMILES O=C(NCCCCNC(=O)[C@H]1CC[C@H](CNS(=O)(=O)C[C@H]2CCCO2)O1)c1ccc(-c2c3nc(c(-c4c(F)c(F)c(F)c(F)c4F)c4ccc([nH]4)c(-c4c(F)c(F)c(F)c(F)c4F)c4nc(c(-c5c(F)c(F)c(F)c(F)c5F)c5ccc2[nH]5)C=C4)C=C3)cc1
REMARK SMILES IDX 7 1 6 2 5 3 4 4 3 5 1 6 2 7 27 9 28 10 89 11 29 12 88 13
REMARK SMILES IDX 30 14 31 15 32 16 82 17 33 18 87 19 81 20 83 21 34 22 86 23
REMARK SMILES IDX 80 24 79 25 35 27 67 28 47 29 66 30 48 31 51 32 65 33 84 34
REMARK SMILES IDX 49 35 50 36 64 38 85 39 52 40 36 41 37 42 45 43 38 44 39 45
REMARK SMILES IDX 43 46 46 47 40 48 41 49 44 50 42 51 68 52 69 53 77 54 70 55
REMARK SMILES IDX 71 56 75 57 78 58 72 59 73 60 76 61 74 62 53 63 54 64 62 65
REMARK SMILES IDX 55 66 56 67 60 68 63 69 57 70 58 71 61 72 59 73 8 74 9 75
REMARK SMILES IDX 10 77 11 78 12 79 26 80 13 81 14 82 15 83 16 84 17 86 18 87
REMARK SMILES IDX 19 88 20 89 21 90 22 91 25 92 23 93 24 94
REMARK H PARENT 3 8 83 26 51 37 8 76 16 85
REMARK Flexibility Score: inf
ROOT
ATOM      1  C   UNL A   1      31.719  29.691  25.369  1.00  0.00     0.116 C 
ENDROOT
BRANCH   1   2
ATOM      2  C   UNL A   1      32.087  30.348  26.701  1.00  0.00     0.023 C 
BRANCH   2   3
ATOM      3  C   UNL A   1      31.739  31.829  26.785  1.00  0.00     0.023 C 
BRANCH   3   4
ATOM      4  C   UNL A   1      32.858  32.702  27.321  1.00  0.00     0.116 C 
BRANCH   4   5
ATOM      5  N   UNL A   1      32.458  34.073  27.610  1.00  0.00    -0.352 N 
ATOM      6  O   UNL A   1      32.515  36.014  28.791  1.00  0.00    -0.269 OA
ATOM      7  C   UNL A   1      32.985  34.905  28.573  1.00  0.00     0.251 C 
ATOM      8  H   UNL A   1      31.733  34.445  27.058  1.00  0.00     0.163 HD
BRANCH   7   9
ATOM      9  C   UNL A   1      34.115  34.391  29.369  1.00  0.00     0.039 A 
ATOM     10  C   UNL A   1      35.416  34.581  28.900  1.00  0.00     0.014 A 
ATOM     11  C   UNL A   1      33.862  33.597  30.487  1.00  0.00     0.014 A 
ATOM     12  C   UNL A   1      36.443  33.825  29.437  1.00  0.00     0.010 A 
ATOM     13  C   UNL A   1      34.923  32.936  31.105  1.00  0.00     0.010 A 
ATOM     14  C   UNL A   1      36.216  33.016  30.564  1.00  0.00    -0.014 A 
BRANCH  14  15
ATOM     15  C   UNL A   1      37.371  32.337  31.201  1.00  0.00     0.031 A 
ATOM     16  C   UNL A   1      38.127  31.242  30.507  1.00  0.00     0.074 A 
ATOM     17  C   UNL A   1      37.740  32.749  32.430  1.00  0.00     0.049 A 
ATOM     18  N   UNL A   1      39.148  30.545  30.940  1.00  0.00    -0.248 NA
ATOM     19  C   UNL A   1      37.677  30.869  29.158  1.00  0.00     0.031 C 
ATOM     20  C   UNL A   1      37.073  33.804  33.197  1.00  0.00     0.029 A 
ATOM     21  N   UNL A   1      38.769  32.350  33.241  1.00  0.00    -0.354 N 
ATOM     22  C   UNL A   1      39.446  29.637  29.933  1.00  0.00     0.074 A 
ATOM     23  C   UNL A   1      38.481  29.854  28.876  1.00  0.00     0.031 C 
ATOM     24  C   UNL A   1      37.740  34.009  34.338  1.00  0.00     0.029 A 
ATOM     25  C   UNL A   1      38.824  33.040  34.426  1.00  0.00     0.049 A 
ATOM     26  H   UNL A   1      39.406  31.640  32.998  1.00  0.00     0.167 HD
ATOM     27  C   UNL A   1      40.439  28.713  29.898  1.00  0.00     0.037 A 
ATOM     28  C   UNL A   1      39.635  32.890  35.487  1.00  0.00     0.037 A 
ATOM     29  C   UNL A   1      41.394  28.514  30.962  1.00  0.00     0.049 A 
ATOM     30  C   UNL A   1      40.690  31.825  35.441  1.00  0.00     0.074 A 
ATOM     31  C   UNL A   1      42.458  27.631  31.013  1.00  0.00     0.029 A 
ATOM     32  N   UNL A   1      41.391  29.201  32.170  1.00  0.00    -0.354 N 
ATOM     33  N   UNL A   1      40.984  30.994  34.471  1.00  0.00    -0.248 NA
ATOM     34  C   UNL A   1      41.521  31.674  36.640  1.00  0.00     0.031 C 
ATOM     35  C   UNL A   1      43.055  27.734  32.274  1.00  0.00     0.029 A 
ATOM     36  C   UNL A   1      42.411  28.736  32.985  1.00  0.00     0.049 A 
ATOM     37  H   UNL A   1      40.757  29.914  32.411  1.00  0.00     0.167 HD
ATOM     38  C   UNL A   1      42.049  30.235  34.932  1.00  0.00     0.074 A 
ATOM     39  C   UNL A   1      42.361  30.722  36.261  1.00  0.00     0.031 C 
ATOM     40  C   UNL A   1      42.708  29.227  34.308  1.00  0.00     0.037 A 
BRANCH  27  41
ATOM     41  C   UNL A   1      40.522  27.821  28.689  1.00  0.00     0.064 A 
ATOM     42  C   UNL A   1      41.303  28.150  27.572  1.00  0.00     0.173 A 
ATOM     43  C   UNL A   1      39.827  26.600  28.660  1.00  0.00     0.173 A 
ATOM     44  F   UNL A   1      41.985  29.306  27.540  1.00  0.00    -0.203 F 
ATOM     45  C   UNL A   1      41.356  27.314  26.458  1.00  0.00     0.198 A 
ATOM     46  C   UNL A   1      39.909  25.751  27.560  1.00  0.00     0.198 A 
ATOM     47  F   UNL A   1      39.072  26.227  29.704  1.00  0.00    -0.203 F 
ATOM     48  F   UNL A   1      42.061  27.680  25.379  1.00  0.00    -0.200 F 
ATOM     49  C   UNL A   1      40.663  26.113  26.455  1.00  0.00     0.200 A 
ATOM     50  F   UNL A   1      39.252  24.581  27.568  1.00  0.00    -0.200 F 
ATOM     51  F   UNL A   1      40.715  25.308  25.384  1.00  0.00    -0.200 F 
ENDBRANCH  27  41
BRANCH  28  52
ATOM     52  C   UNL A   1      39.462  33.768  36.670  1.00  0.00     0.064 A 
ATOM     53  C   UNL A   1      38.702  33.351  37.770  1.00  0.00     0.173 A 
ATOM     54  C   UNL A   1      40.081  35.026  36.743  1.00  0.00     0.173 A 
ATOM     55  F   UNL A   1      38.082  32.163  37.743  1.00  0.00    -0.203 F 
ATOM     56  C   UNL A   1      38.556  34.164  38.892  1.00  0.00     0.198 A 
ATOM     57  C   UNL A   1      39.964  35.822  37.878  1.00  0.00     0.198 A 
ATOM     58  F   UNL A   1      40.831  35.465  35.721  1.00  0.00    -0.203 F 
ATOM     59  F   UNL A   1      37.793  33.758  39.915  1.00  0.00    -0.200 F 
ATOM     60  C   UNL A   1      39.195  35.394  38.949  1.00  0.00     0.200 A 
ATOM     61  F   UNL A   1      40.604  36.998  37.938  1.00  0.00    -0.200 F 
ATOM     62  F   UNL A   1      39.067  36.169  40.034  1.00  0.00    -0.200 F 
ENDBRANCH  28  52
BRANCH  40  63
ATOM     63  C   UNL A   1      43.860  28.609  35.048  1.00  0.00     0.064 A 
ATOM     64  C   UNL A   1      45.162  29.127  34.960  1.00  0.00     0.173 A 
ATOM     65  C   UNL A   1      43.653  27.494  35.875  1.00  0.00     0.173 A 
ATOM     66  F   UNL A   1      45.417  30.180  34.169  1.00  0.00    -0.203 F 
ATOM     67  C   UNL A   1      46.217  28.531  35.646  1.00  0.00     0.198 A 
ATOM     68  C   UNL A   1      44.704  26.925  36.588  1.00  0.00     0.198 A 
ATOM     69  F   UNL A   1      42.429  26.961  35.998  1.00  0.00    -0.203 F 
ATOM     70  F   UNL A   1      47.462  29.007  35.498  1.00  0.00    -0.200 F 
ATOM     71  C   UNL A   1      45.986  27.437  36.466  1.00  0.00     0.200 A 
ATOM     72  F   UNL A   1      44.476  25.876  37.392  1.00  0.00    -0.200 F 
ATOM     73  F   UNL A   1      47.002  26.870  37.130  1.00  0.00    -0.200 F 
ENDBRANCH  40  63
ENDBRANCH  14  15
ENDBRANCH   7   9
ENDBRANCH   4   5
ENDBRANCH   3   4
ENDBRANCH   2   3
ENDBRANCH   1   2
BRANCH   1  74
ATOM     74  N   UNL A   1      32.863  29.562  24.500  1.00  0.00    -0.354 N 
ATOM     75  C   UNL A   1      33.454  28.444  23.993  1.00  0.00     0.249 C 
ATOM     76  H   UNL A   1      33.280  30.412  24.231  1.00  0.00     0.163 HD
ATOM     77  O   UNL A   1      34.391  28.619  23.207  1.00  0.00    -0.272 OA
BRANCH  75  78
ATOM     78  C   UNL A   1      32.994  27.010  24.362  1.00  0.00     0.207 C 
ATOM     79  C   UNL A   1      32.374  26.200  23.236  1.00  0.00     0.045 C 
ATOM     80  O   UNL A   1      34.007  26.211  24.974  1.00  0.00    -0.364 OA
ATOM     81  C   UNL A   1      33.314  25.043  23.008  1.00  0.00     0.037 C 
ATOM     82  C   UNL A   1      34.135  24.963  24.286  1.00  0.00     0.134 C 
BRANCH  82  83
ATOM     83  C   UNL A   1      33.685  23.783  25.158  1.00  0.00     0.130 C 
BRANCH  83  84
ATOM     84  N   UNL A   1      33.865  22.540  24.388  1.00  0.00    -0.213 NA
ATOM     85  H   UNL A   1      34.632  22.030  24.827  1.00  0.00     0.141 HD
BRANCH  84  86
ATOM     86  S   UNL A   1      32.595  21.462  24.233  1.00  0.00     0.214 S 
ATOM     87  O   UNL A   1      31.632  21.786  25.257  1.00  0.00    -0.212 OA
ATOM     88  O   UNL A   1      32.241  21.503  22.831  1.00  0.00    -0.212 OA
BRANCH  86  89
ATOM     89  C   UNL A   1      33.370  19.902  24.617  1.00  0.00     0.185 C 
BRANCH  89  90
ATOM     90  C   UNL A   1      32.512  18.717  24.181  1.00  0.00     0.134 C 
ATOM     91  C   UNL A   1      33.277  17.748  23.284  1.00  0.00     0.035 C 
ATOM     92  O   UNL A   1      32.156  17.957  25.354  1.00  0.00    -0.377 OA
ATOM     93  C   UNL A   1      33.939  16.834  24.283  1.00  0.00     0.031 C 
ATOM     94  C   UNL A   1      32.872  16.714  25.347  1.00  0.00     0.160 C 
ENDBRANCH  89  90
ENDBRANCH  86  89
ENDBRANCH  84  86
ENDBRANCH  83  84
ENDBRANCH  82  83
ENDBRANCH  75  78
ENDBRANCH   1  74
TORSDOF 16
ENDMDL
