MODEL 1
REMARK VINA RESULT:     -13.4      0.000      0.000
REMARK SMILES O=C(NCCCCNC(=O)[C@H]1CC=CC[C@@H]1C(=O)Nc1ccccc1C(=O)NCc1ccco1)c1ccc(-c2c3nc(c(-c4c(F)c(F)c(F)c(F)c4F)c4ccc([nH]4)c(-c4c(F)c(F)c(F)c(F)c4F)c4nc(c(-c5c(F)c(F)c(F)c(F)c5F)c5ccc2[nH]5)C=C4)C=C3)cc1
REMARK SMILES IDX 7 1 6 2 5 3 4 4 3 5 1 6 2 7 35 9 36 10 97 11 37 12 96 13
REMARK SMILES IDX 38 14 39 15 40 16 90 17 41 18 95 19 89 20 91 21 42 22 94 23
REMARK SMILES IDX 88 24 87 25 43 27 75 28 55 29 74 30 56 31 59 32 73 33 92 34
REMARK SMILES IDX 57 35 58 36 72 38 93 39 60 40 44 41 45 42 53 43 46 44 47 45
REMARK SMILES IDX 51 46 54 47 48 48 49 49 52 50 50 51 76 52 77 53 85 54 78 55
REMARK SMILES IDX 79 56 83 57 86 58 80 59 81 60 84 61 82 62 61 63 62 64 70 65
REMARK SMILES IDX 63 66 64 67 68 68 71 69 65 70 66 71 69 72 67 73 8 74 9 75
REMARK SMILES IDX 10 77 11 78 12 79 16 80 13 81 15 82 14 83 17 84 18 85 19 86
REMARK SMILES IDX 20 88 21 89 25 90 22 91 24 92 23 93 26 94 27 95 28 96 29 98
REMARK SMILES IDX 30 99 31 100 34 101 32 102 33 103
REMARK H PARENT 3 8 91 26 59 37 8 76 19 87 28 97
REMARK Flexibility Score: inf
ROOT
ATOM      1  C   UNL A   1      37.083  23.160  25.200  1.00  0.00     0.116 C 
ENDROOT
BRANCH   1   2
ATOM      2  C   UNL A   1      37.362  21.862  24.456  1.00  0.00     0.023 C 
BRANCH   2   3
ATOM      3  C   UNL A   1      37.800  20.714  25.347  1.00  0.00     0.023 C 
BRANCH   3   4
ATOM      4  C   UNL A   1      39.201  20.860  25.918  1.00  0.00     0.116 C 
BRANCH   4   5
ATOM      5  N   UNL A   1      40.005  19.643  25.854  1.00  0.00    -0.352 N 
ATOM      6  O   UNL A   1      41.937  18.444  25.907  1.00  0.00    -0.269 OA
ATOM      7  C   UNL A   1      41.360  19.512  26.078  1.00  0.00     0.251 C 
ATOM      8  H   UNL A   1      39.521  18.816  25.624  1.00  0.00     0.163 HD
BRANCH   7   9
ATOM      9  C   UNL A   1      42.110  20.717  26.486  1.00  0.00     0.039 A 
ATOM     10  C   UNL A   1      42.253  20.999  27.844  1.00  0.00     0.014 A 
ATOM     11  C   UNL A   1      42.526  21.637  25.519  1.00  0.00     0.014 A 
ATOM     12  C   UNL A   1      42.594  22.285  28.231  1.00  0.00     0.010 A 
ATOM     13  C   UNL A   1      42.997  22.892  25.921  1.00  0.00     0.010 A 
ATOM     14  C   UNL A   1      42.981  23.247  27.279  1.00  0.00    -0.014 A 
BRANCH  14  15
ATOM     15  C   UNL A   1      43.396  24.590  27.765  1.00  0.00     0.031 A 
ATOM     16  C   UNL A   1      44.837  25.024  27.776  1.00  0.00     0.074 A 
ATOM     17  C   UNL A   1      42.426  25.459  28.114  1.00  0.00     0.049 A 
ATOM     18  N   UNL A   1      45.341  26.188  28.109  1.00  0.00    -0.248 NA
ATOM     19  C   UNL A   1      45.847  24.033  27.375  1.00  0.00     0.031 C 
ATOM     20  C   UNL A   1      40.996  25.143  28.158  1.00  0.00     0.029 A 
ATOM     21  N   UNL A   1      42.481  26.787  28.446  1.00  0.00    -0.354 N 
ATOM     22  C   UNL A   1      46.719  26.062  27.982  1.00  0.00     0.074 A 
ATOM     23  C   UNL A   1      46.978  24.703  27.559  1.00  0.00     0.031 C 
ATOM     24  C   UNL A   1      40.304  26.261  28.409  1.00  0.00     0.029 A 
ATOM     25  C   UNL A   1      41.242  27.353  28.630  1.00  0.00     0.049 A 
ATOM     26  H   UNL A   1      43.324  27.285  28.546  1.00  0.00     0.167 HD
ATOM     27  C   UNL A   1      47.676  26.999  28.197  1.00  0.00     0.037 A 
ATOM     28  C   UNL A   1      40.895  28.611  28.955  1.00  0.00     0.037 A 
ATOM     29  C   UNL A   1      47.407  28.359  28.594  1.00  0.00     0.049 A 
ATOM     30  C   UNL A   1      41.977  29.628  29.163  1.00  0.00     0.074 A 
ATOM     31  C   UNL A   1      48.309  29.384  28.832  1.00  0.00     0.029 A 
ATOM     32  N   UNL A   1      46.142  28.889  28.801  1.00  0.00    -0.354 N 
ATOM     33  N   UNL A   1      43.274  29.488  29.050  1.00  0.00    -0.248 NA
ATOM     34  C   UNL A   1      41.546  30.974  29.557  1.00  0.00     0.031 C 
ATOM     35  C   UNL A   1      47.590  30.523  29.215  1.00  0.00     0.029 A 
ATOM     36  C   UNL A   1      46.240  30.221  29.174  1.00  0.00     0.049 A 
ATOM     37  H   UNL A   1      45.298  28.391  28.699  1.00  0.00     0.167 HD
ATOM     38  C   UNL A   1      43.818  30.722  29.366  1.00  0.00     0.074 A 
ATOM     39  C   UNL A   1      42.705  31.613  29.632  1.00  0.00     0.031 C 
ATOM     40  C   UNL A   1      45.121  31.084  29.449  1.00  0.00     0.037 A 
BRANCH  27  41
ATOM     41  C   UNL A   1      49.111  26.595  28.019  1.00  0.00     0.064 A 
ATOM     42  C   UNL A   1      49.709  26.541  26.752  1.00  0.00     0.173 A 
ATOM     43  C   UNL A   1      49.921  26.338  29.137  1.00  0.00     0.173 A 
ATOM     44  F   UNL A   1      48.978  26.769  25.650  1.00  0.00    -0.203 F 
ATOM     45  C   UNL A   1      51.061  26.235  26.609  1.00  0.00     0.198 A 
ATOM     46  C   UNL A   1      51.277  26.054  28.992  1.00  0.00     0.198 A 
ATOM     47  F   UNL A   1      49.401  26.382  30.372  1.00  0.00    -0.203 F 
ATOM     48  F   UNL A   1      51.605  26.164  25.386  1.00  0.00    -0.200 F 
ATOM     49  C   UNL A   1      51.845  26.001  27.729  1.00  0.00     0.200 A 
ATOM     50  F   UNL A   1      52.035  25.841  30.076  1.00  0.00    -0.200 F 
ATOM     51  F   UNL A   1      53.150  25.722  27.590  1.00  0.00    -0.200 F 
ENDBRANCH  27  41
BRANCH  28  52
ATOM     52  C   UNL A   1      39.462  28.958  29.121  1.00  0.00     0.064 A 
ATOM     53  C   UNL A   1      38.836  28.882  30.372  1.00  0.00     0.173 A 
ATOM     54  C   UNL A   1      38.694  29.394  28.031  1.00  0.00     0.173 A 
ATOM     55  F   UNL A   1      39.524  28.454  31.441  1.00  0.00    -0.203 F 
ATOM     56  C   UNL A   1      37.492  29.218  30.524  1.00  0.00     0.198 A 
ATOM     57  C   UNL A   1      37.361  29.762  28.190  1.00  0.00     0.198 A 
ATOM     58  F   UNL A   1      39.249  29.492  26.814  1.00  0.00    -0.203 F 
ATOM     59  F   UNL A   1      36.906  29.097  31.723  1.00  0.00    -0.200 F 
ATOM     60  C   UNL A   1      36.758  29.665  29.435  1.00  0.00     0.200 A 
ATOM     61  F   UNL A   1      36.663  30.215  27.140  1.00  0.00    -0.200 F 
ATOM     62  F   UNL A   1      35.470  29.998  29.585  1.00  0.00    -0.200 F 
ENDBRANCH  28  52
BRANCH  40  63
ATOM     63  C   UNL A   1      45.398  32.502  29.846  1.00  0.00     0.064 A 
ATOM     64  C   UNL A   1      45.576  32.859  31.191  1.00  0.00     0.173 A 
ATOM     65  C   UNL A   1      45.478  33.513  28.879  1.00  0.00     0.173 A 
ATOM     66  F   UNL A   1      45.490  31.928  32.153  1.00  0.00    -0.203 F 
ATOM     67  C   UNL A   1      45.789  34.185  31.556  1.00  0.00     0.198 A 
ATOM     68  C   UNL A   1      45.718  34.834  29.245  1.00  0.00     0.198 A 
ATOM     69  F   UNL A   1      45.318  33.221  27.580  1.00  0.00    -0.203 F 
ATOM     70  F   UNL A   1      45.898  34.512  32.851  1.00  0.00    -0.200 F 
ATOM     71  C   UNL A   1      45.863  35.170  30.583  1.00  0.00     0.200 A 
ATOM     72  F   UNL A   1      45.797  35.785  28.304  1.00  0.00    -0.200 F 
ATOM     73  F   UNL A   1      46.061  36.448  30.936  1.00  0.00    -0.200 F 
ENDBRANCH  40  63
ENDBRANCH  14  15
ENDBRANCH   7   9
ENDBRANCH   4   5
ENDBRANCH   3   4
ENDBRANCH   2   3
ENDBRANCH   1   2
BRANCH   1  74
ATOM     74  N   UNL A   1      36.286  22.986  26.394  1.00  0.00    -0.356 N 
ATOM     75  C   UNL A   1      34.938  22.761  26.483  1.00  0.00     0.224 C 
ATOM     76  H   UNL A   1      36.773  23.037  27.248  1.00  0.00     0.163 HD
ATOM     77  O   UNL A   1      34.474  22.489  27.589  1.00  0.00    -0.275 OA
BRANCH  75  78
ATOM     78  C   UNL A   1      34.063  22.952  25.239  1.00  0.00     0.095 C 
ATOM     79  C   UNL A   1      33.486  21.611  24.747  1.00  0.00     0.041 C 
ATOM     80  C   UNL A   1      33.039  24.052  25.548  1.00  0.00     0.095 C 
ATOM     81  C   UNL A   1      32.056  21.350  25.090  1.00  0.00    -0.030 C 
ATOM     82  C   UNL A   1      31.870  23.465  26.389  1.00  0.00     0.041 C 
ATOM     83  C   UNL A   1      31.325  22.177  25.843  1.00  0.00    -0.030 C 
BRANCH  80  84
ATOM     84  C   UNL A   1      32.449  24.857  24.382  1.00  0.00     0.228 C 
ATOM     85  O   UNL A   1      32.275  24.337  23.270  1.00  0.00    -0.274 OA
ATOM     86  N   UNL A   1      31.813  26.051  24.523  1.00  0.00    -0.325 N 
ATOM     87  H   UNL A   1      31.019  26.088  23.943  1.00  0.00     0.169 HD
BRANCH  86  88
ATOM     88  C   UNL A   1      31.947  27.247  25.247  1.00  0.00     0.054 A 
ATOM     89  C   UNL A   1      31.538  27.120  26.595  1.00  0.00     0.027 A 
ATOM     90  C   UNL A   1      32.279  28.532  24.782  1.00  0.00     0.063 A 
ATOM     91  C   UNL A   1      31.562  28.192  27.490  1.00  0.00     0.002 A 
ATOM     92  C   UNL A   1      32.320  29.604  25.712  1.00  0.00     0.016 A 
ATOM     93  C   UNL A   1      31.976  29.438  27.052  1.00  0.00     0.001 A 
BRANCH  90  94
ATOM     94  C   UNL A   1      32.610  28.980  23.404  1.00  0.00     0.253 C 
ATOM     95  O   UNL A   1      33.775  29.313  23.177  1.00  0.00    -0.269 OA
ATOM     96  N   UNL A   1      31.700  29.083  22.395  1.00  0.00    -0.345 N 
ATOM     97  H   UNL A   1      32.050  29.497  21.573  1.00  0.00     0.164 HD
BRANCH  96  98
ATOM     98  C   UNL A   1      30.316  28.692  22.323  1.00  0.00     0.191 C 
BRANCH  98  99
ATOM     99  C   UNL A   1      29.443  29.881  22.353  1.00  0.00     0.122 A 
ATOM    100  C   UNL A   1      29.029  30.711  23.372  1.00  0.00     0.047 A 
ATOM    101  O   UNL A   1      28.833  30.228  21.184  1.00  0.00    -0.467 OA
ATOM    102  C   UNL A   1      28.090  31.600  22.799  1.00  0.00     0.042 A 
ATOM    103  C   UNL A   1      28.006  31.266  21.467  1.00  0.00     0.195 A 
ENDBRANCH  98  99
ENDBRANCH  96  98
ENDBRANCH  90  94
ENDBRANCH  86  88
ENDBRANCH  80  84
ENDBRANCH  75  78
ENDBRANCH   1  74
TORSDOF 16
ENDMDL
MODEL 2
REMARK VINA RESULT:     -13.4      1.368      7.253
REMARK SMILES O=C(NCCCCNC(=O)[C@H]1CC=CC[C@@H]1C(=O)Nc1ccccc1C(=O)NCc1ccco1)c1ccc(-c2c3nc(c(-c4c(F)c(F)c(F)c(F)c4F)c4ccc([nH]4)c(-c4c(F)c(F)c(F)c(F)c4F)c4nc(c(-c5c(F)c(F)c(F)c(F)c5F)c5ccc2[nH]5)C=C4)C=C3)cc1
REMARK SMILES IDX 7 1 6 2 5 3 4 4 3 5 1 6 2 7 35 9 36 10 97 11 37 12 96 13
REMARK SMILES IDX 38 14 39 15 40 16 90 17 41 18 95 19 89 20 91 21 42 22 94 23
REMARK SMILES IDX 88 24 87 25 43 27 75 28 55 29 74 30 56 31 59 32 73 33 92 34
REMARK SMILES IDX 57 35 58 36 72 38 93 39 60 40 44 41 45 42 53 43 46 44 47 45
REMARK SMILES IDX 51 46 54 47 48 48 49 49 52 50 50 51 76 52 77 53 85 54 78 55
REMARK SMILES IDX 79 56 83 57 86 58 80 59 81 60 84 61 82 62 61 63 62 64 70 65
REMARK SMILES IDX 63 66 64 67 68 68 71 69 65 70 66 71 69 72 67 73 8 74 9 75
REMARK SMILES IDX 10 77 11 78 12 79 16 80 13 81 15 82 14 83 17 84 18 85 19 86
REMARK SMILES IDX 20 88 21 89 25 90 22 91 24 92 23 93 26 94 27 95 28 96 29 98
REMARK SMILES IDX 30 99 31 100 34 101 32 102 33 103
REMARK H PARENT 3 8 91 26 59 37 8 76 19 87 28 97
REMARK Flexibility Score: inf
ROOT
ATOM      1  C   UNL A   1      37.052  22.137  25.751  1.00  0.00     0.116 C 
ENDROOT
BRANCH   1   2
ATOM      2  C   UNL A   1      37.475  21.229  24.605  1.00  0.00     0.023 C 
BRANCH   2   3
ATOM      3  C   UNL A   1      38.180  19.959  25.042  1.00  0.00     0.023 C 
BRANCH   3   4
ATOM      4  C   UNL A   1      39.450  20.189  25.845  1.00  0.00     0.116 C 
BRANCH   4   5
ATOM      5  N   UNL A   1      40.326  19.024  25.929  1.00  0.00    -0.352 N 
ATOM      6  O   UNL A   1      42.329  17.960  26.097  1.00  0.00    -0.269 OA
ATOM      7  C   UNL A   1      41.690  19.006  26.134  1.00  0.00     0.251 C 
ATOM      8  H   UNL A   1      39.891  18.147  25.828  1.00  0.00     0.163 HD
BRANCH   7   9
ATOM      9  C   UNL A   1      42.372  20.298  26.352  1.00  0.00     0.039 A 
ATOM     10  C   UNL A   1      42.292  20.903  27.606  1.00  0.00     0.014 A 
ATOM     11  C   UNL A   1      42.946  20.971  25.271  1.00  0.00     0.014 A 
ATOM     12  C   UNL A   1      42.573  22.255  27.718  1.00  0.00     0.010 A 
ATOM     13  C   UNL A   1      43.353  22.301  25.426  1.00  0.00     0.010 A 
ATOM     14  C   UNL A   1      43.117  22.972  26.636  1.00  0.00    -0.014 A 
BRANCH  14  15
ATOM     15  C   UNL A   1      43.456  24.406  26.842  1.00  0.00     0.031 A 
ATOM     16  C   UNL A   1      42.483  25.374  27.459  1.00  0.00     0.074 A 
ATOM     17  C   UNL A   1      44.709  24.804  26.544  1.00  0.00     0.049 A 
ATOM     18  N   UNL A   1      42.662  26.638  27.761  1.00  0.00    -0.248 NA
ATOM     19  C   UNL A   1      41.135  24.876  27.771  1.00  0.00     0.031 C 
ATOM     20  C   UNL A   1      45.732  23.956  25.926  1.00  0.00     0.029 A 
ATOM     21  N   UNL A   1      45.353  25.993  26.760  1.00  0.00    -0.354 N 
ATOM     22  C   UNL A   1      41.451  27.088  28.271  1.00  0.00     0.074 A 
ATOM     23  C   UNL A   1      40.535  25.970  28.224  1.00  0.00     0.031 C 
ATOM     24  C   UNL A   1      46.894  24.619  25.895  1.00  0.00     0.029 A 
ATOM     25  C   UNL A   1      46.681  25.965  26.408  1.00  0.00     0.049 A 
ATOM     26  H   UNL A   1      44.908  26.790  27.131  1.00  0.00     0.167 HD
ATOM     27  C   UNL A   1      41.140  28.322  28.739  1.00  0.00     0.037 A 
ATOM     28  C   UNL A   1      47.624  26.920  26.476  1.00  0.00     0.037 A 
ATOM     29  C   UNL A   1      42.066  29.425  28.807  1.00  0.00     0.049 A 
ATOM     30  C   UNL A   1      47.252  28.267  27.019  1.00  0.00     0.074 A 
ATOM     31  C   UNL A   1      41.846  30.712  29.269  1.00  0.00     0.029 A 
ATOM     32  N   UNL A   1      43.395  29.368  28.412  1.00  0.00    -0.354 N 
ATOM     33  N   UNL A   1      46.099  28.678  27.486  1.00  0.00    -0.248 NA
ATOM     34  C   UNL A   1      48.308  29.286  27.032  1.00  0.00     0.031 C 
ATOM     35  C   UNL A   1      43.031  31.442  29.122  1.00  0.00     0.029 A 
ATOM     36  C   UNL A   1      44.003  30.599  28.609  1.00  0.00     0.049 A 
ATOM     37  H   UNL A   1      43.840  28.570  28.044  1.00  0.00     0.167 HD
ATOM     38  C   UNL A   1      46.285  30.004  27.841  1.00  0.00     0.074 A 
ATOM     39  C   UNL A   1      47.676  30.316  27.578  1.00  0.00     0.031 C 
ATOM     40  C   UNL A   1      45.383  30.891  28.325  1.00  0.00     0.037 A 
BRANCH  27  41
ATOM     41  C   UNL A   1      39.734  28.563  29.210  1.00  0.00     0.064 A 
ATOM     42  C   UNL A   1      39.357  28.346  30.543  1.00  0.00     0.173 A 
ATOM     43  C   UNL A   1      38.772  29.096  28.336  1.00  0.00     0.173 A 
ATOM     44  F   UNL A   1      40.234  27.829  31.417  1.00  0.00    -0.203 F 
ATOM     45  C   UNL A   1      38.068  28.643  30.982  1.00  0.00     0.198 A 
ATOM     46  C   UNL A   1      37.492  29.413  28.783  1.00  0.00     0.198 A 
ATOM     47  F   UNL A   1      39.082  29.329  27.052  1.00  0.00    -0.203 F 
ATOM     48  F   UNL A   1      37.722  28.402  32.254  1.00  0.00    -0.200 F 
ATOM     49  C   UNL A   1      37.140  29.184  30.104  1.00  0.00     0.200 A 
ATOM     50  F   UNL A   1      36.601  29.948  27.937  1.00  0.00    -0.200 F 
ATOM     51  F   UNL A   1      35.905  29.484  30.532  1.00  0.00    -0.200 F 
ENDBRANCH  27  41
BRANCH  28  52
ATOM     52  C   UNL A   1      48.998  26.632  25.994  1.00  0.00     0.064 A 
ATOM     53  C   UNL A   1      49.396  26.960  24.691  1.00  0.00     0.173 A 
ATOM     54  C   UNL A   1      49.950  26.040  26.839  1.00  0.00     0.173 A 
ATOM     55  F   UNL A   1      48.517  27.511  23.842  1.00  0.00    -0.203 F 
ATOM     56  C   UNL A   1      50.690  26.694  24.248  1.00  0.00     0.198 A 
ATOM     57  C   UNL A   1      51.252  25.807  26.406  1.00  0.00     0.198 A 
ATOM     58  F   UNL A   1      49.621  25.715  28.098  1.00  0.00    -0.203 F 
ATOM     59  F   UNL A   1      51.033  26.978  22.984  1.00  0.00    -0.200 F 
ATOM     60  C   UNL A   1      51.618  26.125  25.107  1.00  0.00     0.200 A 
ATOM     61  F   UNL A   1      52.151  25.278  27.247  1.00  0.00    -0.200 F 
ATOM     62  F   UNL A   1      52.865  25.881  24.683  1.00  0.00    -0.200 F 
ENDBRANCH  28  52
BRANCH  40  63
ATOM     63  C   UNL A   1      45.884  32.278  28.591  1.00  0.00     0.064 A 
ATOM     64  C   UNL A   1      45.831  33.273  27.602  1.00  0.00     0.173 A 
ATOM     65  C   UNL A   1      46.430  32.615  29.837  1.00  0.00     0.173 A 
ATOM     66  F   UNL A   1      45.335  32.992  26.388  1.00  0.00    -0.203 F 
ATOM     67  C   UNL A   1      46.340  34.546  27.843  1.00  0.00     0.198 A 
ATOM     68  C   UNL A   1      46.913  33.897  30.082  1.00  0.00     0.198 A 
ATOM     69  F   UNL A   1      46.499  31.699  30.815  1.00  0.00    -0.203 F 
ATOM     70  F   UNL A   1      46.332  35.464  26.865  1.00  0.00    -0.200 F 
ATOM     71  C   UNL A   1      46.876  34.857  29.082  1.00  0.00     0.200 A 
ATOM     72  F   UNL A   1      47.424  34.200  31.284  1.00  0.00    -0.200 F 
ATOM     73  F   UNL A   1      47.372  36.082  29.310  1.00  0.00    -0.200 F 
ENDBRANCH  40  63
ENDBRANCH  14  15
ENDBRANCH   7   9
ENDBRANCH   4   5
ENDBRANCH   3   4
ENDBRANCH   2   3
ENDBRANCH   1   2
BRANCH   1  74
ATOM     74  N   UNL A   1      35.879  21.673  26.458  1.00  0.00    -0.356 N 
ATOM     75  C   UNL A   1      34.591  21.601  25.998  1.00  0.00     0.224 C 
ATOM     76  H   UNL A   1      36.025  21.373  27.384  1.00  0.00     0.163 HD
ATOM     77  O   UNL A   1      33.761  21.033  26.705  1.00  0.00    -0.275 OA
BRANCH  75  78
ATOM     78  C   UNL A   1      34.223  22.306  24.688  1.00  0.00     0.095 C 
ATOM     79  C   UNL A   1      33.178  21.502  23.892  1.00  0.00     0.041 C 
ATOM     80  C   UNL A   1      33.845  23.755  25.022  1.00  0.00     0.095 C 
ATOM     81  C   UNL A   1      31.773  22.004  23.965  1.00  0.00    -0.030 C 
ATOM     82  C   UNL A   1      32.388  23.809  25.564  1.00  0.00     0.041 C 
ATOM     83  C   UNL A   1      31.408  23.037  24.730  1.00  0.00    -0.030 C 
BRANCH  80  84
ATOM     84  C   UNL A   1      34.005  24.828  23.936  1.00  0.00     0.228 C 
ATOM     85  O   UNL A   1      34.575  24.571  22.865  1.00  0.00    -0.274 OA
ATOM     86  N   UNL A   1      33.315  25.999  23.912  1.00  0.00    -0.325 N 
ATOM     87  H   UNL A   1      33.026  26.208  22.994  1.00  0.00     0.169 HD
BRANCH  86  88
ATOM     88  C   UNL A   1      32.890  27.000  24.800  1.00  0.00     0.054 A 
ATOM     89  C   UNL A   1      33.929  27.462  25.641  1.00  0.00     0.027 A 
ATOM     90  C   UNL A   1      31.588  27.472  25.047  1.00  0.00     0.063 A 
ATOM     91  C   UNL A   1      33.723  28.439  26.618  1.00  0.00     0.002 A 
ATOM     92  C   UNL A   1      31.404  28.481  26.028  1.00  0.00     0.016 A 
ATOM     93  C   UNL A   1      32.457  28.968  26.799  1.00  0.00     0.001 A 
BRANCH  90  94
ATOM     94  C   UNL A   1      30.304  27.065  24.420  1.00  0.00     0.253 C 
ATOM     95  O   UNL A   1      29.629  26.213  25.003  1.00  0.00    -0.269 OA
ATOM     96  N   UNL A   1      29.850  27.543  23.228  1.00  0.00    -0.345 N 
ATOM     97  H   UNL A   1      29.038  27.097  22.894  1.00  0.00     0.164 HD
BRANCH  96  98
ATOM     98  C   UNL A   1      30.352  28.587  22.372  1.00  0.00     0.191 C 
BRANCH  98  99
ATOM     99  C   UNL A   1      29.477  29.772  22.438  1.00  0.00     0.122 A 
ATOM    100  C   UNL A   1      29.066  30.573  23.481  1.00  0.00     0.047 A 
ATOM    101  O   UNL A   1      28.858  30.147  21.282  1.00  0.00    -0.467 OA
ATOM    102  C   UNL A   1      28.122  31.474  22.937  1.00  0.00     0.042 A 
ATOM    103  C   UNL A   1      28.030  31.175  21.598  1.00  0.00     0.195 A 
ENDBRANCH  98  99
ENDBRANCH  96  98
ENDBRANCH  90  94
ENDBRANCH  86  88
ENDBRANCH  80  84
ENDBRANCH  75  78
ENDBRANCH   1  74
TORSDOF 16
ENDMDL
MODEL 3
REMARK VINA RESULT:     -13.3      4.956     10.813
REMARK SMILES O=C(NCCCCNC(=O)[C@H]1CC=CC[C@@H]1C(=O)Nc1ccccc1C(=O)NCc1ccco1)c1ccc(-c2c3nc(c(-c4c(F)c(F)c(F)c(F)c4F)c4ccc([nH]4)c(-c4c(F)c(F)c(F)c(F)c4F)c4nc(c(-c5c(F)c(F)c(F)c(F)c5F)c5ccc2[nH]5)C=C4)C=C3)cc1
REMARK SMILES IDX 7 1 6 2 5 3 4 4 3 5 1 6 2 7 35 9 36 10 97 11 37 12 96 13
REMARK SMILES IDX 38 14 39 15 40 16 90 17 41 18 95 19 89 20 91 21 42 22 94 23
REMARK SMILES IDX 88 24 87 25 43 27 75 28 55 29 74 30 56 31 59 32 73 33 92 34
REMARK SMILES IDX 57 35 58 36 72 38 93 39 60 40 44 41 45 42 53 43 46 44 47 45
REMARK SMILES IDX 51 46 54 47 48 48 49 49 52 50 50 51 76 52 77 53 85 54 78 55
REMARK SMILES IDX 79 56 83 57 86 58 80 59 81 60 84 61 82 62 61 63 62 64 70 65
REMARK SMILES IDX 63 66 64 67 68 68 71 69 65 70 66 71 69 72 67 73 8 74 9 75
REMARK SMILES IDX 10 77 11 78 12 79 16 80 13 81 15 82 14 83 17 84 18 85 19 86
REMARK SMILES IDX 20 88 21 89 25 90 22 91 24 92 23 93 26 94 27 95 28 96 29 98
REMARK SMILES IDX 30 99 31 100 34 101 32 102 33 103
REMARK H PARENT 3 8 91 26 59 37 8 76 19 87 28 97
REMARK Flexibility Score: inf
ROOT
ATOM      1  C   UNL A   1      32.981  29.451  26.290  1.00  0.00     0.116 C 
ENDROOT
BRANCH   1   2
ATOM      2  C   UNL A   1      32.119  30.696  26.139  1.00  0.00     0.023 C 
BRANCH   2   3
ATOM      3  C   UNL A   1      32.080  31.582  27.371  1.00  0.00     0.023 C 
BRANCH   3   4
ATOM      4  C   UNL A   1      33.139  32.672  27.395  1.00  0.00     0.116 C 
BRANCH   4   5
ATOM      5  N   UNL A   1      32.615  34.012  27.644  1.00  0.00    -0.352 N 
ATOM      6  O   UNL A   1      32.459  35.989  28.756  1.00  0.00    -0.269 OA
ATOM      7  C   UNL A   1      33.041  34.924  28.587  1.00  0.00     0.251 C 
ATOM      8  H   UNL A   1      31.869  34.299  27.069  1.00  0.00     0.163 HD
BRANCH   7   9
ATOM      9  C   UNL A   1      34.199  34.556  29.428  1.00  0.00     0.039 A 
ATOM     10  C   UNL A   1      35.486  34.808  28.956  1.00  0.00     0.014 A 
ATOM     11  C   UNL A   1      34.000  33.823  30.600  1.00  0.00     0.014 A 
ATOM     12  C   UNL A   1      36.554  34.135  29.525  1.00  0.00     0.010 A 
ATOM     13  C   UNL A   1      35.101  33.252  31.250  1.00  0.00     0.010 A 
ATOM     14  C   UNL A   1      36.382  33.357  30.685  1.00  0.00    -0.014 A 
BRANCH  14  15
ATOM     15  C   UNL A   1      37.581  32.711  31.283  1.00  0.00     0.031 A 
ATOM     16  C   UNL A   1      38.045  33.028  32.680  1.00  0.00     0.074 A 
ATOM     17  C   UNL A   1      38.198  31.748  30.569  1.00  0.00     0.049 A 
ATOM     18  N   UNL A   1      39.033  32.495  33.358  1.00  0.00    -0.248 NA
ATOM     19  C   UNL A   1      37.323  34.080  33.412  1.00  0.00     0.031 C 
ATOM     20  C   UNL A   1      37.846  31.368  29.198  1.00  0.00     0.029 A 
ATOM     21  N   UNL A   1      39.208  30.885  30.902  1.00  0.00    -0.354 N 
ATOM     22  C   UNL A   1      39.067  33.160  34.577  1.00  0.00     0.074 A 
ATOM     23  C   UNL A   1      38.012  34.150  34.544  1.00  0.00     0.031 C 
ATOM     24  C   UNL A   1      38.561  30.295  28.841  1.00  0.00     0.029 A 
ATOM     25  C   UNL A   1      39.483  29.965  29.919  1.00  0.00     0.049 A 
ATOM     26  H   UNL A   1      39.690  30.921  31.759  1.00  0.00     0.167 HD
ATOM     27  C   UNL A   1      39.901  32.956  35.627  1.00  0.00     0.037 A 
ATOM     28  C   UNL A   1      40.388  28.971  29.880  1.00  0.00     0.037 A 
ATOM     29  C   UNL A   1      40.933  31.949  35.662  1.00  0.00     0.049 A 
ATOM     30  C   UNL A   1      41.280  28.759  31.066  1.00  0.00     0.074 A 
ATOM     31  C   UNL A   1      41.826  31.663  36.681  1.00  0.00     0.029 A 
ATOM     32  N   UNL A   1      41.203  31.056  34.635  1.00  0.00    -0.354 N 
ATOM     33  N   UNL A   1      41.305  29.404  32.205  1.00  0.00    -0.248 NA
ATOM     34  C   UNL A   1      42.278  27.688  30.955  1.00  0.00     0.031 C 
ATOM     35  C   UNL A   1      42.658  30.619  36.258  1.00  0.00     0.029 A 
ATOM     36  C   UNL A   1      42.255  30.226  34.993  1.00  0.00     0.049 A 
ATOM     37  H   UNL A   1      40.719  31.018  33.778  1.00  0.00     0.167 HD
ATOM     38  C   UNL A   1      42.324  28.826  32.945  1.00  0.00     0.074 A 
ATOM     39  C   UNL A   1      42.863  27.747  32.143  1.00  0.00     0.031 C 
ATOM     40  C   UNL A   1      42.786  29.169  34.172  1.00  0.00     0.037 A 
BRANCH  27  41
ATOM     41  C   UNL A   1      39.749  33.841  36.831  1.00  0.00     0.064 A 
ATOM     42  C   UNL A   1      40.354  35.105  36.895  1.00  0.00     0.173 A 
ATOM     43  C   UNL A   1      38.922  33.455  37.897  1.00  0.00     0.173 A 
ATOM     44  F   UNL A   1      41.162  35.518  35.907  1.00  0.00    -0.203 F 
ATOM     45  C   UNL A   1      40.145  35.945  37.987  1.00  0.00     0.198 A 
ATOM     46  C   UNL A   1      38.696  34.306  38.977  1.00  0.00     0.198 A 
ATOM     47  F   UNL A   1      38.314  32.260  37.882  1.00  0.00    -0.203 F 
ATOM     48  F   UNL A   1      40.754  37.137  38.041  1.00  0.00    -0.200 F 
ATOM     49  C   UNL A   1      39.310  35.549  39.022  1.00  0.00     0.200 A 
ATOM     50  F   UNL A   1      37.879  33.927  39.969  1.00  0.00    -0.200 F 
ATOM     51  F   UNL A   1      39.097  36.365  40.065  1.00  0.00    -0.200 F 
ENDBRANCH  27  41
BRANCH  28  52
ATOM     52  C   UNL A   1      40.500  28.126  28.664  1.00  0.00     0.064 A 
ATOM     53  C   UNL A   1      41.289  28.519  27.576  1.00  0.00     0.173 A 
ATOM     54  C   UNL A   1      39.833  26.895  28.578  1.00  0.00     0.173 A 
ATOM     55  F   UNL A   1      41.931  29.696  27.605  1.00  0.00    -0.203 F 
ATOM     56  C   UNL A   1      41.397  27.718  26.441  1.00  0.00     0.198 A 
ATOM     57  C   UNL A   1      39.969  26.079  27.458  1.00  0.00     0.198 A 
ATOM     58  F   UNL A   1      39.071  26.469  29.597  1.00  0.00    -0.203 F 
ATOM     59  F   UNL A   1      42.124  28.136  25.396  1.00  0.00    -0.200 F 
ATOM     60  C   UNL A   1      40.743  26.496  26.387  1.00  0.00     0.200 A 
ATOM     61  F   UNL A   1      39.354  24.889  27.420  1.00  0.00    -0.200 F 
ATOM     62  F   UNL A   1      40.857  25.721  25.300  1.00  0.00    -0.200 F 
ENDBRANCH  28  52
BRANCH  40  63
ATOM     63  C   UNL A   1      43.932  28.364  34.705  1.00  0.00     0.064 A 
ATOM     64  C   UNL A   1      45.262  28.755  34.483  1.00  0.00     0.173 A 
ATOM     65  C   UNL A   1      43.703  27.189  35.433  1.00  0.00     0.173 A 
ATOM     66  F   UNL A   1      45.529  29.863  33.775  1.00  0.00    -0.203 F 
ATOM     67  C   UNL A   1      46.321  27.978  34.943  1.00  0.00     0.198 A 
ATOM     68  C   UNL A   1      44.765  26.429  35.915  1.00  0.00     0.198 A 
ATOM     69  F   UNL A   1      42.450  26.776  35.674  1.00  0.00    -0.203 F 
ATOM     70  F   UNL A   1      47.582  28.341  34.669  1.00  0.00    -0.200 F 
ATOM     71  C   UNL A   1      46.071  26.819  35.661  1.00  0.00     0.200 A 
ATOM     72  F   UNL A   1      44.524  25.312  36.616  1.00  0.00    -0.200 F 
ATOM     73  F   UNL A   1      47.093  26.068  36.097  1.00  0.00    -0.200 F 
ENDBRANCH  40  63
ENDBRANCH  14  15
ENDBRANCH   7   9
ENDBRANCH   4   5
ENDBRANCH   3   4
ENDBRANCH   2   3
ENDBRANCH   1   2
BRANCH   1  74
ATOM     74  N   UNL A   1      33.832  29.193  25.150  1.00  0.00    -0.356 N 
ATOM     75  C   UNL A   1      33.633  28.295  24.136  1.00  0.00     0.224 C 
ATOM     76  H   UNL A   1      34.657  29.727  25.098  1.00  0.00     0.163 HD
ATOM     77  O   UNL A   1      34.402  28.334  23.177  1.00  0.00    -0.275 OA
BRANCH  75  78
ATOM     78  C   UNL A   1      32.540  27.231  24.281  1.00  0.00     0.095 C 
ATOM     79  C   UNL A   1      31.231  27.673  23.600  1.00  0.00     0.041 C 
ATOM     80  C   UNL A   1      33.122  25.890  23.812  1.00  0.00     0.095 C 
ATOM     81  C   UNL A   1      30.946  27.057  22.269  1.00  0.00    -0.030 C 
ATOM     82  C   UNL A   1      33.106  25.821  22.259  1.00  0.00     0.041 C 
ATOM     83  C   UNL A   1      31.796  26.230  21.652  1.00  0.00    -0.030 C 
BRANCH  80  84
ATOM     84  C   UNL A   1      32.520  24.592  24.368  1.00  0.00     0.228 C 
ATOM     85  O   UNL A   1      31.320  24.524  24.675  1.00  0.00    -0.274 OA
ATOM     86  N   UNL A   1      33.126  23.377  24.295  1.00  0.00    -0.325 N 
ATOM     87  H   UNL A   1      32.470  22.679  24.067  1.00  0.00     0.169 HD
BRANCH  86  88
ATOM     88  C   UNL A   1      34.405  22.817  24.444  1.00  0.00     0.054 A 
ATOM     89  C   UNL A   1      35.291  23.190  23.407  1.00  0.00     0.027 A 
ATOM     90  C   UNL A   1      34.849  21.857  25.372  1.00  0.00     0.063 A 
ATOM     91  C   UNL A   1      36.607  22.727  23.343  1.00  0.00     0.002 A 
ATOM     92  C   UNL A   1      36.197  21.417  25.304  1.00  0.00     0.016 A 
ATOM     93  C   UNL A   1      37.071  21.852  24.309  1.00  0.00     0.001 A 
BRANCH  90  94
ATOM     94  C   UNL A   1      34.102  21.189  26.468  1.00  0.00     0.253 C 
ATOM     95  O   UNL A   1      34.335  21.555  27.623  1.00  0.00    -0.269 OA
ATOM     96  N   UNL A   1      33.211  20.175  26.280  1.00  0.00    -0.345 N 
ATOM     97  H   UNL A   1      32.881  19.764  27.111  1.00  0.00     0.164 HD
BRANCH  96  98
ATOM     98  C   UNL A   1      32.670  19.601  25.075  1.00  0.00     0.191 C 
BRANCH  98  99
ATOM     99  C   UNL A   1      33.192  18.236  24.876  1.00  0.00     0.122 A 
ATOM    100  C   UNL A   1      34.146  17.714  24.030  1.00  0.00     0.047 A 
ATOM    101  O   UNL A   1      32.592  17.237  25.585  1.00  0.00    -0.467 OA
ATOM    102  C   UNL A   1      34.110  16.313  24.213  1.00  0.00     0.042 A 
ATOM    103  C   UNL A   1      33.150  16.073  25.169  1.00  0.00     0.195 A 
ENDBRANCH  98  99
ENDBRANCH  96  98
ENDBRANCH  90  94
ENDBRANCH  86  88
ENDBRANCH  80  84
ENDBRANCH  75  78
ENDBRANCH   1  74
TORSDOF 16
ENDMDL
