MODEL 1
REMARK VINA RESULT:      -9.2      0.000      0.000
REMARK SMILES CC[C@@H](Oc1ccccc1)C(=O)NCCCCNC(=O)c1ccc(-c2c3nc(c(-c4c(F)c(F)c(F)c(F)c4F)c4ccc([nH]4)c(-c4c(F)c(F)c(F)c(F)c4F)c4nc(c(-c5c(F)c(F)c(F)c(F)c5F)c5ccc2[nH]5)C=C4)C=C3)cc1
REMARK SMILES IDX 15 1 14 2 13 3 11 4 12 5 3 7 2 8 1 9 4 10 5 11 6 12 10 13
REMARK SMILES IDX 7 14 9 15 8 16 16 17 17 18 18 19 19 20 20 22 21 23 22 24
REMARK SMILES IDX 83 25 23 26 82 27 24 28 25 29 26 30 76 31 27 32 81 33 75 34
REMARK SMILES IDX 77 35 28 36 80 37 74 38 73 39 29 41 61 42 41 43 60 44 42 45
REMARK SMILES IDX 45 46 59 47 78 48 43 49 44 50 58 52 79 53 46 54 30 55 31 56
REMARK SMILES IDX 39 57 32 58 33 59 37 60 40 61 34 62 35 63 38 64 36 65 62 66
REMARK SMILES IDX 63 67 71 68 64 69 65 70 69 71 72 72 66 73 67 74 70 75 68 76
REMARK SMILES IDX 47 77 48 78 56 79 49 80 50 81 54 82 57 83 51 84 52 85 55 86
REMARK SMILES IDX 53 87
REMARK H PARENT 13 6 18 21 77 40 45 51
REMARK Flexibility Score: inf
ROOT
ATOM      1  C   UNL A   1      43.075  22.222  26.544  1.00  0.00     0.023 C 
ENDROOT
BRANCH   1   2
ATOM      2  C   UNL A   1      42.991  23.127  25.321  1.00  0.00     0.116 C 
BRANCH   2   3
ATOM      3  N   UNL A   1      44.263  23.243  24.626  1.00  0.00    -0.353 N 
ATOM      4  C   UNL A   1      45.291  24.123  24.848  1.00  0.00     0.261 C 
ATOM      5  O   UNL A   1      46.311  24.006  24.162  1.00  0.00    -0.271 OA
ATOM      6  H   UNL A   1      44.405  22.602  23.893  1.00  0.00     0.163 HD
BRANCH   4   7
ATOM      7  C   UNL A   1      45.138  25.266  25.869  1.00  0.00     0.261 C 
BRANCH   7   8
ATOM      8  C   UNL A   1      46.406  25.284  26.744  1.00  0.00     0.052 C 
ATOM      9  C   UNL A   1      46.294  24.395  27.977  1.00  0.00     0.008 C 
ENDBRANCH   7   8
BRANCH   7  10
ATOM     10  O   UNL A   1      44.918  26.439  25.072  1.00  0.00    -0.481 OA
BRANCH  10  11
ATOM     11  C   UNL A   1      44.142  27.407  25.629  1.00  0.00     0.120 A 
ATOM     12  C   UNL A   1      42.837  27.565  25.176  1.00  0.00     0.046 A 
ATOM     13  C   UNL A   1      44.712  28.352  26.481  1.00  0.00     0.046 A 
ATOM     14  C   UNL A   1      42.078  28.646  25.626  1.00  0.00     0.004 A 
ATOM     15  C   UNL A   1      43.947  29.418  26.948  1.00  0.00     0.004 A 
ATOM     16  C   UNL A   1      42.629  29.565  26.521  1.00  0.00     0.000 A 
ENDBRANCH  10  11
ENDBRANCH   7  10
ENDBRANCH   4   7
ENDBRANCH   2   3
ENDBRANCH   1   2
BRANCH   1  17
ATOM     17  C   UNL A   1      42.056  21.086  26.567  1.00  0.00     0.023 C 
BRANCH  17  18
ATOM     18  C   UNL A   1      40.733  21.409  27.257  1.00  0.00     0.116 C 
BRANCH  18  19
ATOM     19  N   UNL A   1      39.615  21.531  26.334  1.00  0.00    -0.352 N 
ATOM     20  C   UNL A   1      38.823  22.622  26.060  1.00  0.00     0.251 C 
ATOM     21  H   UNL A   1      39.392  20.714  25.832  1.00  0.00     0.163 HD
ATOM     22  O   UNL A   1      37.847  22.512  25.331  1.00  0.00    -0.269 OA
BRANCH  20  23
ATOM     23  C   UNL A   1      39.131  23.925  26.690  1.00  0.00     0.039 A 
ATOM     24  C   UNL A   1      38.680  24.162  27.991  1.00  0.00     0.014 A 
ATOM     25  C   UNL A   1      39.884  24.890  26.018  1.00  0.00     0.014 A 
ATOM     26  C   UNL A   1      39.063  25.330  28.652  1.00  0.00     0.010 A 
ATOM     27  C   UNL A   1      40.323  26.022  26.702  1.00  0.00     0.010 A 
ATOM     28  C   UNL A   1      39.931  26.244  28.031  1.00  0.00    -0.014 A 
BRANCH  28  29
ATOM     29  C   UNL A   1      40.476  27.409  28.773  1.00  0.00     0.031 A 
ATOM     30  C   UNL A   1      41.886  27.395  29.289  1.00  0.00     0.074 A 
ATOM     31  C   UNL A   1      39.667  28.452  29.047  1.00  0.00     0.049 A 
ATOM     32  N   UNL A   1      42.508  28.286  30.018  1.00  0.00    -0.248 NA
ATOM     33  C   UNL A   1      42.700  26.212  28.962  1.00  0.00     0.031 C 
ATOM     34  C   UNL A   1      38.262  28.561  28.647  1.00  0.00     0.029 A 
ATOM     35  N   UNL A   1      39.903  29.614  29.740  1.00  0.00    -0.354 N 
ATOM     36  C   UNL A   1      43.776  27.770  30.248  1.00  0.00     0.074 A 
ATOM     37  C   UNL A   1      43.823  26.467  29.618  1.00  0.00     0.031 C 
ATOM     38  C   UNL A   1      37.768  29.729  29.087  1.00  0.00     0.029 A 
ATOM     39  C   UNL A   1      38.805  30.434  29.833  1.00  0.00     0.049 A 
ATOM     40  H   UNL A   1      40.777  29.838  30.133  1.00  0.00     0.167 HD
ATOM     41  C   UNL A   1      44.812  28.340  30.907  1.00  0.00     0.037 A 
ATOM     42  C   UNL A   1      38.647  31.614  30.461  1.00  0.00     0.037 A 
ATOM     43  C   UNL A   1      44.771  29.647  31.510  1.00  0.00     0.049 A 
ATOM     44  C   UNL A   1      39.815  32.219  31.192  1.00  0.00     0.074 A 
ATOM     45  C   UNL A   1      45.794  30.340  32.134  1.00  0.00     0.029 A 
ATOM     46  N   UNL A   1      43.646  30.456  31.569  1.00  0.00    -0.354 N 
ATOM     47  N   UNL A   1      41.033  31.758  31.331  1.00  0.00    -0.248 NA
ATOM     48  C   UNL A   1      39.586  33.514  31.851  1.00  0.00     0.031 C 
ATOM     49  C   UNL A   1      45.276  31.547  32.614  1.00  0.00     0.029 A 
ATOM     50  C   UNL A   1      43.943  31.629  32.245  1.00  0.00     0.049 A 
ATOM     51  H   UNL A   1      42.767  30.230  31.188  1.00  0.00     0.167 HD
ATOM     52  C   UNL A   1      41.721  32.711  32.068  1.00  0.00     0.074 A 
ATOM     53  C   UNL A   1      40.791  33.789  32.330  1.00  0.00     0.031 C 
ATOM     54  C   UNL A   1      43.008  32.695  32.494  1.00  0.00     0.037 A 
BRANCH  41  55
ATOM     55  C   UNL A   1      46.091  27.562  31.009  1.00  0.00     0.064 A 
ATOM     56  C   UNL A   1      46.333  26.686  32.078  1.00  0.00     0.173 A 
ATOM     57  C   UNL A   1      47.053  27.638  29.991  1.00  0.00     0.173 A 
ATOM     58  F   UNL A   1      45.449  26.585  33.081  1.00  0.00    -0.203 F 
ATOM     59  C   UNL A   1      47.499  25.927  32.131  1.00  0.00     0.198 A 
ATOM     60  C   UNL A   1      48.205  26.857  30.034  1.00  0.00     0.198 A 
ATOM     61  F   UNL A   1      46.867  28.454  28.944  1.00  0.00    -0.203 F 
ATOM     62  F   UNL A   1      47.725  25.122  33.179  1.00  0.00    -0.200 F 
ATOM     63  C   UNL A   1      48.429  26.005  31.105  1.00  0.00     0.200 A 
ATOM     64  F   UNL A   1      49.095  26.923  29.035  1.00  0.00    -0.200 F 
ATOM     65  F   UNL A   1      49.542  25.260  31.150  1.00  0.00    -0.200 F 
ENDBRANCH  41  55
BRANCH  42  66
ATOM     66  C   UNL A   1      37.334  32.311  30.425  1.00  0.00     0.064 A 
ATOM     67  C   UNL A   1      37.040  33.243  29.420  1.00  0.00     0.173 A 
ATOM     68  C   UNL A   1      36.358  32.081  31.406  1.00  0.00     0.173 A 
ATOM     69  F   UNL A   1      37.949  33.514  28.472  1.00  0.00    -0.203 F 
ATOM     70  C   UNL A   1      35.832  33.939  29.414  1.00  0.00     0.198 A 
ATOM     71  C   UNL A   1      35.139  32.754  31.382  1.00  0.00     0.198 A 
ATOM     72  F   UNL A   1      36.587  31.195  32.387  1.00  0.00    -0.203 F 
ATOM     73  F   UNL A   1      35.600  34.865  28.473  1.00  0.00    -0.200 F 
ATOM     74  C   UNL A   1      34.881  33.690  30.391  1.00  0.00     0.200 A 
ATOM     75  F   UNL A   1      34.217  32.501  32.321  1.00  0.00    -0.200 F 
ATOM     76  F   UNL A   1      33.721  34.361  30.386  1.00  0.00    -0.200 F 
ENDBRANCH  42  66
BRANCH  54  77
ATOM     77  C   UNL A   1      43.492  33.889  33.262  1.00  0.00     0.064 A 
ATOM     78  C   UNL A   1      43.451  33.926  34.664  1.00  0.00     0.173 A 
ATOM     79  C   UNL A   1      44.035  34.995  32.591  1.00  0.00     0.173 A 
ATOM     80  F   UNL A   1      42.925  32.901  35.352  1.00  0.00    -0.203 F 
ATOM     81  C   UNL A   1      43.911  35.038  35.364  1.00  0.00     0.198 A 
ATOM     82  C   UNL A   1      44.523  36.092  33.295  1.00  0.00     0.198 A 
ATOM     83  F   UNL A   1      44.104  35.006  31.251  1.00  0.00    -0.203 F 
ATOM     84  F   UNL A   1      43.816  35.074  36.700  1.00  0.00    -0.200 F 
ATOM     85  C   UNL A   1      44.454  36.116  34.680  1.00  0.00     0.200 A 
ATOM     86  F   UNL A   1      45.059  37.127  32.633  1.00  0.00    -0.200 F 
ATOM     87  F   UNL A   1      44.902  37.184  35.356  1.00  0.00    -0.200 F 
ENDBRANCH  54  77
ENDBRANCH  28  29
ENDBRANCH  20  23
ENDBRANCH  18  19
ENDBRANCH  17  18
ENDBRANCH   1  17
TORSDOF 14
ENDMDL
MODEL 2
REMARK VINA RESULT:      -9.2      3.624     10.199
REMARK SMILES CC[C@@H](Oc1ccccc1)C(=O)NCCCCNC(=O)c1ccc(-c2c3nc(c(-c4c(F)c(F)c(F)c(F)c4F)c4ccc([nH]4)c(-c4c(F)c(F)c(F)c(F)c4F)c4nc(c(-c5c(F)c(F)c(F)c(F)c5F)c5ccc2[nH]5)C=C4)C=C3)cc1
REMARK SMILES IDX 15 1 14 2 13 3 11 4 12 5 3 7 2 8 1 9 4 10 5 11 6 12 10 13
REMARK SMILES IDX 7 14 9 15 8 16 16 17 17 18 18 19 19 20 20 22 21 23 22 24
REMARK SMILES IDX 83 25 23 26 82 27 24 28 25 29 26 30 76 31 27 32 81 33 75 34
REMARK SMILES IDX 77 35 28 36 80 37 74 38 73 39 29 41 61 42 41 43 60 44 42 45
REMARK SMILES IDX 45 46 59 47 78 48 43 49 44 50 58 52 79 53 46 54 30 55 31 56
REMARK SMILES IDX 39 57 32 58 33 59 37 60 40 61 34 62 35 63 38 64 36 65 62 66
REMARK SMILES IDX 63 67 71 68 64 69 65 70 69 71 72 72 66 73 67 74 70 75 68 76
REMARK SMILES IDX 47 77 48 78 56 79 49 80 50 81 54 82 57 83 51 84 52 85 55 86
REMARK SMILES IDX 53 87
REMARK H PARENT 13 6 18 21 77 40 45 51
REMARK Flexibility Score: inf
ROOT
ATOM      1  C   UNL A   1      34.153  34.875  28.923  1.00  0.00     0.023 C 
ENDROOT
BRANCH   1   2
ATOM      2  C   UNL A   1      34.121  35.286  30.390  1.00  0.00     0.116 C 
BRANCH   2   3
ATOM      3  N   UNL A   1      33.622  34.227  31.253  1.00  0.00    -0.353 N 
ATOM      4  C   UNL A   1      34.173  33.717  32.402  1.00  0.00     0.261 C 
ATOM      5  O   UNL A   1      33.544  32.844  33.007  1.00  0.00    -0.271 OA
ATOM      6  H   UNL A   1      32.772  33.819  30.974  1.00  0.00     0.163 HD
BRANCH   4   7
ATOM      7  C   UNL A   1      35.569  34.170  32.869  1.00  0.00     0.261 C 
BRANCH   7   8
ATOM      8  C   UNL A   1      35.500  34.400  34.392  1.00  0.00     0.052 C 
ATOM      9  C   UNL A   1      36.691  33.813  35.138  1.00  0.00     0.008 C 
ENDBRANCH   7   8
BRANCH   7  10
ATOM     10  O   UNL A   1      36.453  33.124  32.440  1.00  0.00    -0.481 OA
BRANCH  10  11
ATOM     11  C   UNL A   1      37.319  33.442  31.441  1.00  0.00     0.120 A 
ATOM     12  C   UNL A   1      38.290  34.410  31.676  1.00  0.00     0.046 A 
ATOM     13  C   UNL A   1      37.100  32.962  30.150  1.00  0.00     0.046 A 
ATOM     14  C   UNL A   1      39.086  34.857  30.622  1.00  0.00     0.004 A 
ATOM     15  C   UNL A   1      37.911  33.391  29.102  1.00  0.00     0.004 A 
ATOM     16  C   UNL A   1      38.905  34.340  29.338  1.00  0.00     0.000 A 
ENDBRANCH  10  11
ENDBRANCH   7  10
ENDBRANCH   4   7
ENDBRANCH   2   3
ENDBRANCH   1   2
BRANCH   1  17
ATOM     17  C   UNL A   1      33.592  33.484  28.638  1.00  0.00     0.023 C 
BRANCH  17  18
ATOM     18  C   UNL A   1      34.575  32.499  28.012  1.00  0.00     0.116 C 
BRANCH  18  19
ATOM     19  N   UNL A   1      33.999  31.185  27.765  1.00  0.00    -0.352 N 
ATOM     20  C   UNL A   1      34.598  29.948  27.809  1.00  0.00     0.251 C 
ATOM     21  H   UNL A   1      33.042  31.182  27.534  1.00  0.00     0.163 HD
ATOM     22  O   UNL A   1      33.982  28.950  27.460  1.00  0.00    -0.269 OA
BRANCH  20  23
ATOM     23  C   UNL A   1      36.009  29.832  28.237  1.00  0.00     0.039 A 
ATOM     24  C   UNL A   1      36.279  29.462  29.557  1.00  0.00     0.014 A 
ATOM     25  C   UNL A   1      37.056  30.055  27.340  1.00  0.00     0.014 A 
ATOM     26  C   UNL A   1      37.597  29.225  29.952  1.00  0.00     0.010 A 
ATOM     27  C   UNL A   1      38.363  29.752  27.715  1.00  0.00     0.010 A 
ATOM     28  C   UNL A   1      38.643  29.317  29.019  1.00  0.00    -0.014 A 
BRANCH  28  29
ATOM     29  C   UNL A   1      40.027  28.915  29.378  1.00  0.00     0.031 A 
ATOM     30  C   UNL A   1      40.901  29.828  30.189  1.00  0.00     0.074 A 
ATOM     31  C   UNL A   1      40.521  27.755  28.901  1.00  0.00     0.049 A 
ATOM     32  N   UNL A   1      42.155  29.680  30.534  1.00  0.00    -0.248 NA
ATOM     33  C   UNL A   1      40.294  31.085  30.657  1.00  0.00     0.031 C 
ATOM     34  C   UNL A   1      39.789  26.807  28.058  1.00  0.00     0.029 A 
ATOM     35  N   UNL A   1      41.759  27.179  29.045  1.00  0.00    -0.354 N 
ATOM     36  C   UNL A   1      42.490  30.823  31.246  1.00  0.00     0.074 A 
ATOM     37  C   UNL A   1      41.322  31.679  31.247  1.00  0.00     0.031 C 
ATOM     38  C   UNL A   1      40.585  25.765  27.773  1.00  0.00     0.029 A 
ATOM     39  C   UNL A   1      41.893  25.986  28.378  1.00  0.00     0.049 A 
ATOM     40  H   UNL A   1      42.482  27.584  29.576  1.00  0.00     0.167 HD
ATOM     41  C   UNL A   1      43.660  31.123  31.859  1.00  0.00     0.037 A 
ATOM     42  C   UNL A   1      42.957  25.169  28.255  1.00  0.00     0.037 A 
ATOM     43  C   UNL A   1      44.811  30.260  31.878  1.00  0.00     0.049 A 
ATOM     44  C   UNL A   1      44.246  25.534  28.941  1.00  0.00     0.074 A 
ATOM     45  C   UNL A   1      46.016  30.444  32.536  1.00  0.00     0.029 A 
ATOM     46  N   UNL A   1      44.905  29.050  31.206  1.00  0.00    -0.354 N 
ATOM     47  N   UNL A   1      44.523  26.579  29.680  1.00  0.00    -0.248 NA
ATOM     48  C   UNL A   1      45.369  24.599  28.780  1.00  0.00     0.031 C 
ATOM     49  C   UNL A   1      46.855  29.371  32.222  1.00  0.00     0.029 A 
ATOM     50  C   UNL A   1      46.157  28.492  31.409  1.00  0.00     0.049 A 
ATOM     51  H   UNL A   1      44.189  28.649  30.663  1.00  0.00     0.167 HD
ATOM     52  C   UNL A   1      45.839  26.419  30.091  1.00  0.00     0.074 A 
ATOM     53  C   UNL A   1      46.299  25.163  29.537  1.00  0.00     0.031 C 
ATOM     54  C   UNL A   1      46.600  27.239  30.855  1.00  0.00     0.037 A 
BRANCH  41  55
ATOM     55  C   UNL A   1      43.760  32.440  32.571  1.00  0.00     0.064 A 
ATOM     56  C   UNL A   1      43.407  32.571  33.923  1.00  0.00     0.173 A 
ATOM     57  C   UNL A   1      44.283  33.565  31.916  1.00  0.00     0.173 A 
ATOM     58  F   UNL A   1      42.894  31.528  34.591  1.00  0.00    -0.203 F 
ATOM     59  C   UNL A   1      43.559  33.786  34.587  1.00  0.00     0.198 A 
ATOM     60  C   UNL A   1      44.459  34.770  32.592  1.00  0.00     0.198 A 
ATOM     61  F   UNL A   1      44.642  33.491  30.627  1.00  0.00    -0.203 F 
ATOM     62  F   UNL A   1      43.184  33.897  35.869  1.00  0.00    -0.200 F 
ATOM     63  C   UNL A   1      44.094  34.880  33.925  1.00  0.00     0.200 A 
ATOM     64  F   UNL A   1      44.989  35.823  31.954  1.00  0.00    -0.200 F 
ATOM     65  F   UNL A   1      44.255  36.043  34.572  1.00  0.00    -0.200 F 
ENDBRANCH  41  55
BRANCH  42  66
ATOM     66  C   UNL A   1      42.853  23.920  27.455  1.00  0.00     0.064 A 
ATOM     67  C   UNL A   1      42.414  22.724  28.040  1.00  0.00     0.173 A 
ATOM     68  C   UNL A   1      43.213  23.889  26.100  1.00  0.00     0.173 A 
ATOM     69  F   UNL A   1      42.079  22.698  29.338  1.00  0.00    -0.203 F 
ATOM     70  C   UNL A   1      42.367  21.539  27.308  1.00  0.00     0.198 A 
ATOM     71  C   UNL A   1      43.136  22.711  25.361  1.00  0.00     0.198 A 
ATOM     72  F   UNL A   1      43.634  25.008  25.491  1.00  0.00    -0.203 F 
ATOM     73  F   UNL A   1      41.997  20.399  27.907  1.00  0.00    -0.200 F 
ATOM     74  C   UNL A   1      42.723  21.534  25.968  1.00  0.00     0.200 A 
ATOM     75  F   UNL A   1      43.468  22.714  24.063  1.00  0.00    -0.200 F 
ATOM     76  F   UNL A   1      42.680  20.394  25.265  1.00  0.00    -0.200 F 
ENDBRANCH  42  66
BRANCH  54  77
ATOM     77  C   UNL A   1      47.999  26.792  31.161  1.00  0.00     0.064 A 
ATOM     78  C   UNL A   1      49.095  27.245  30.411  1.00  0.00     0.173 A 
ATOM     79  C   UNL A   1      48.251  25.927  32.236  1.00  0.00     0.173 A 
ATOM     80  F   UNL A   1      48.905  28.059  29.362  1.00  0.00    -0.203 F 
ATOM     81  C   UNL A   1      50.389  26.827  30.711  1.00  0.00     0.198 A 
ATOM     82  C   UNL A   1      49.549  25.536  32.553  1.00  0.00     0.198 A 
ATOM     83  F   UNL A   1      47.238  25.471  32.989  1.00  0.00    -0.203 F 
ATOM     84  F   UNL A   1      51.415  27.231  29.950  1.00  0.00    -0.200 F 
ATOM     85  C   UNL A   1      50.615  25.980  31.786  1.00  0.00     0.200 A 
ATOM     86  F   UNL A   1      49.767  24.728  33.600  1.00  0.00    -0.200 F 
ATOM     87  F   UNL A   1      51.862  25.583  32.077  1.00  0.00    -0.200 F 
ENDBRANCH  54  77
ENDBRANCH  28  29
ENDBRANCH  20  23
ENDBRANCH  18  19
ENDBRANCH  17  18
ENDBRANCH   1  17
TORSDOF 14
ENDMDL
MODEL 3
REMARK VINA RESULT:      -9.2      4.867      9.251
REMARK SMILES CC[C@@H](Oc1ccccc1)C(=O)NCCCCNC(=O)c1ccc(-c2c3nc(c(-c4c(F)c(F)c(F)c(F)c4F)c4ccc([nH]4)c(-c4c(F)c(F)c(F)c(F)c4F)c4nc(c(-c5c(F)c(F)c(F)c(F)c5F)c5ccc2[nH]5)C=C4)C=C3)cc1
REMARK SMILES IDX 15 1 14 2 13 3 11 4 12 5 3 7 2 8 1 9 4 10 5 11 6 12 10 13
REMARK SMILES IDX 7 14 9 15 8 16 16 17 17 18 18 19 19 20 20 22 21 23 22 24
REMARK SMILES IDX 83 25 23 26 82 27 24 28 25 29 26 30 76 31 27 32 81 33 75 34
REMARK SMILES IDX 77 35 28 36 80 37 74 38 73 39 29 41 61 42 41 43 60 44 42 45
REMARK SMILES IDX 45 46 59 47 78 48 43 49 44 50 58 52 79 53 46 54 30 55 31 56
REMARK SMILES IDX 39 57 32 58 33 59 37 60 40 61 34 62 35 63 38 64 36 65 62 66
REMARK SMILES IDX 63 67 71 68 64 69 65 70 69 71 72 72 66 73 67 74 70 75 68 76
REMARK SMILES IDX 47 77 48 78 56 79 49 80 50 81 54 82 57 83 51 84 52 85 55 86
REMARK SMILES IDX 53 87
REMARK H PARENT 13 6 18 21 77 40 45 51
REMARK Flexibility Score: inf
ROOT
ATOM      1  C   UNL A   1      31.949  30.164  26.803  1.00  0.00     0.023 C 
ENDROOT
BRANCH   1   2
ATOM      2  C   UNL A   1      33.223  29.627  26.162  1.00  0.00     0.116 C 
BRANCH   2   3
ATOM      3  N   UNL A   1      33.191  29.702  24.710  1.00  0.00    -0.353 N 
ATOM      4  C   UNL A   1      32.696  28.794  23.809  1.00  0.00     0.261 C 
ATOM      5  O   UNL A   1      32.728  29.091  22.611  1.00  0.00    -0.271 OA
ATOM      6  H   UNL A   1      33.579  30.517  24.320  1.00  0.00     0.163 HD
BRANCH   4   7
ATOM      7  C   UNL A   1      32.190  27.418  24.281  1.00  0.00     0.261 C 
BRANCH   7   8
ATOM      8  C   UNL A   1      30.654  27.492  24.377  1.00  0.00     0.052 C 
ATOM      9  C   UNL A   1      30.021  26.187  24.843  1.00  0.00     0.008 C 
ENDBRANCH   7   8
BRANCH   7  10
ATOM     10  O   UNL A   1      32.707  26.490  23.315  1.00  0.00    -0.481 OA
BRANCH  10  11
ATOM     11  C   UNL A   1      33.653  25.621  23.763  1.00  0.00     0.120 A 
ATOM     12  C   UNL A   1      34.032  24.562  22.945  1.00  0.00     0.046 A 
ATOM     13  C   UNL A   1      34.073  25.674  25.091  1.00  0.00     0.046 A 
ATOM     14  C   UNL A   1      34.886  23.578  23.445  1.00  0.00     0.004 A 
ATOM     15  C   UNL A   1      34.944  24.704  25.583  1.00  0.00     0.004 A 
ATOM     16  C   UNL A   1      35.351  23.656  24.759  1.00  0.00     0.000 A 
ENDBRANCH  10  11
ENDBRANCH   7  10
ENDBRANCH   4   7
ENDBRANCH   2   3
ENDBRANCH   1   2
BRANCH   1  17
ATOM     17  C   UNL A   1      31.775  31.677  26.703  1.00  0.00     0.023 C 
BRANCH  17  18
ATOM     18  C   UNL A   1      32.907  32.506  27.304  1.00  0.00     0.116 C 
BRANCH  18  19
ATOM     19  N   UNL A   1      32.527  33.880  27.596  1.00  0.00    -0.352 N 
ATOM     20  C   UNL A   1      33.060  34.758  28.511  1.00  0.00     0.251 C 
ATOM     21  H   UNL A   1      31.779  34.232  27.061  1.00  0.00     0.163 HD
ATOM     22  O   UNL A   1      32.537  35.847  28.701  1.00  0.00    -0.269 OA
BRANCH  20  23
ATOM     23  C   UNL A   1      34.247  34.361  29.299  1.00  0.00     0.039 A 
ATOM     24  C   UNL A   1      34.052  33.794  30.562  1.00  0.00     0.014 A 
ATOM     25  C   UNL A   1      35.537  34.514  28.787  1.00  0.00     0.014 A 
ATOM     26  C   UNL A   1      35.146  33.297  31.271  1.00  0.00     0.010 A 
ATOM     27  C   UNL A   1      36.619  33.956  29.464  1.00  0.00     0.010 A 
ATOM     28  C   UNL A   1      36.432  33.327  30.704  1.00  0.00    -0.014 A 
BRANCH  28  29
ATOM     29  C   UNL A   1      37.579  32.662  31.372  1.00  0.00     0.031 A 
ATOM     30  C   UNL A   1      38.257  31.484  30.733  1.00  0.00     0.074 A 
ATOM     31  C   UNL A   1      37.960  33.078  32.597  1.00  0.00     0.049 A 
ATOM     32  N   UNL A   1      39.223  30.733  31.200  1.00  0.00    -0.248 NA
ATOM     33  C   UNL A   1      37.772  31.081  29.403  1.00  0.00     0.031 C 
ATOM     34  C   UNL A   1      37.346  34.177  33.345  1.00  0.00     0.029 A 
ATOM     35  N   UNL A   1      38.944  32.617  33.436  1.00  0.00    -0.354 N 
ATOM     36  C   UNL A   1      39.452  29.765  30.232  1.00  0.00     0.074 A 
ATOM     37  C   UNL A   1      38.495  29.995  29.169  1.00  0.00     0.031 C 
ATOM     38  C   UNL A   1      37.975  34.314  34.523  1.00  0.00     0.029 A 
ATOM     39  C   UNL A   1      39.010  33.291  34.631  1.00  0.00     0.049 A 
ATOM     40  H   UNL A   1      39.546  31.874  33.203  1.00  0.00     0.167 HD
ATOM     41  C   UNL A   1      40.388  28.787  30.222  1.00  0.00     0.037 A 
ATOM     42  C   UNL A   1      39.805  33.097  35.700  1.00  0.00     0.037 A 
ATOM     43  C   UNL A   1      41.354  28.577  31.268  1.00  0.00     0.049 A 
ATOM     44  C   UNL A   1      40.831  31.997  35.663  1.00  0.00     0.074 A 
ATOM     45  C   UNL A   1      42.390  27.659  31.313  1.00  0.00     0.029 A 
ATOM     46  N   UNL A   1      41.402  29.291  32.457  1.00  0.00    -0.354 N 
ATOM     47  N   UNL A   1      41.091  31.141  34.706  1.00  0.00    -0.248 NA
ATOM     48  C   UNL A   1      41.677  31.839  36.855  1.00  0.00     0.031 C 
ATOM     49  C   UNL A   1      43.033  27.784  32.548  1.00  0.00     0.029 A 
ATOM     50  C   UNL A   1      42.431  28.814  33.253  1.00  0.00     0.049 A 
ATOM     51  H   UNL A   1      40.794  30.026  32.698  1.00  0.00     0.167 HD
ATOM     52  C   UNL A   1      42.143  30.361  35.166  1.00  0.00     0.074 A 
ATOM     53  C   UNL A   1      42.488  30.859  36.481  1.00  0.00     0.031 C 
ATOM     54  C   UNL A   1      42.765  29.323  34.557  1.00  0.00     0.037 A 
BRANCH  41  55
ATOM     55  C   UNL A   1      40.425  27.865  29.039  1.00  0.00     0.064 A 
ATOM     56  C   UNL A   1      39.645  26.700  28.992  1.00  0.00     0.173 A 
ATOM     57  C   UNL A   1      41.194  28.187  27.910  1.00  0.00     0.173 A 
ATOM     58  F   UNL A   1      38.900  26.343  30.049  1.00  0.00    -0.203 F 
ATOM     59  C   UNL A   1      39.646  25.883  27.865  1.00  0.00     0.198 A 
ATOM     60  C   UNL A   1      41.170  27.382  26.775  1.00  0.00     0.198 A 
ATOM     61  F   UNL A   1      41.952  29.292  27.901  1.00  0.00    -0.203 F 
ATOM     62  F   UNL A   1      38.918  24.757  27.855  1.00  0.00    -0.200 F 
ATOM     63  C   UNL A   1      40.400  26.229  26.754  1.00  0.00     0.200 A 
ATOM     64  F   UNL A   1      41.889  27.725  25.697  1.00  0.00    -0.200 F 
ATOM     65  F   UNL A   1      40.386  25.450  25.663  1.00  0.00    -0.200 F 
ENDBRANCH  41  55
BRANCH  42  66
ATOM     66  C   UNL A   1      39.672  33.967  36.899  1.00  0.00     0.064 A 
ATOM     67  C   UNL A   1      38.868  33.582  37.982  1.00  0.00     0.173 A 
ATOM     68  C   UNL A   1      40.322  35.207  36.978  1.00  0.00     0.173 A 
ATOM     69  F   UNL A   1      38.209  32.416  37.945  1.00  0.00    -0.203 F 
ATOM     70  C   UNL A   1      38.697  34.419  39.084  1.00  0.00     0.198 A 
ATOM     71  C   UNL A   1      40.174  36.028  38.092  1.00  0.00     0.198 A 
ATOM     72  F   UNL A   1      41.106  35.620  35.971  1.00  0.00    -0.203 F 
ATOM     73  F   UNL A   1      37.878  34.052  40.079  1.00  0.00    -0.200 F 
ATOM     74  C   UNL A   1      39.353  35.638  39.140  1.00  0.00     0.200 A 
ATOM     75  F   UNL A   1      40.821  37.201  38.149  1.00  0.00    -0.200 F 
ATOM     76  F   UNL A   1      39.186  36.443  40.199  1.00  0.00    -0.200 F 
ENDBRANCH  42  66
BRANCH  54  77
ATOM     77  C   UNL A   1      43.901  28.674  35.294  1.00  0.00     0.064 A 
ATOM     78  C   UNL A   1      45.230  29.078  35.096  1.00  0.00     0.173 A 
ATOM     79  C   UNL A   1      43.655  27.661  36.233  1.00  0.00     0.173 A 
ATOM     80  F   UNL A   1      45.519  30.031  34.197  1.00  0.00    -0.203 F 
ATOM     81  C   UNL A   1      46.272  28.473  35.793  1.00  0.00     0.198 A 
ATOM     82  C   UNL A   1      44.696  27.080  36.950  1.00  0.00     0.198 A 
ATOM     83  F   UNL A   1      42.400  27.244  36.464  1.00  0.00    -0.203 F 
ATOM     84  F   UNL A   1      47.538  28.839  35.551  1.00  0.00    -0.200 F 
ATOM     85  C   UNL A   1      46.004  27.481  36.724  1.00  0.00     0.200 A 
ATOM     86  F   UNL A   1      44.434  26.131  37.859  1.00  0.00    -0.200 F 
ATOM     87  F   UNL A   1      47.009  26.903  37.398  1.00  0.00    -0.200 F 
ENDBRANCH  54  77
ENDBRANCH  28  29
ENDBRANCH  20  23
ENDBRANCH  18  19
ENDBRANCH  17  18
ENDBRANCH   1  17
TORSDOF 14
ENDMDL
