MODEL 1
REMARK VINA RESULT:     -13.4      0.000      0.000
REMARK SMILES Cc1nccn1CCC[NH+]1CCC2(CC1)[C@@H](C(=O)NCCCCNC(=O)c1ccc(-c3c4nc(c(-c5c(F)c(F)c(F)c(F)c5F)c5ccc([nH]5)c(-c5c(F)c(F)c(F)c(F)c5F)c5nc(c(-c6c(F)c(F)c(F)c(F)c6F)c6ccc3[nH]6)C=C5)C=C4)cc1)CC(=O)N2C
REMARK SMILES IDX 20 1 19 2 17 3 18 4 16 6 10 7 11 8 15 9 12 11 14 12 13 13
REMARK SMILES IDX 93 14 90 15 91 16 94 17 92 18 9 19 8 20 7 21 6 22 1 23 2 24
REMARK SMILES IDX 3 25 4 26 5 27 21 28 22 29 23 30 24 31 25 32 26 34 27 35
REMARK SMILES IDX 28 36 89 37 29 38 88 39 30 40 31 41 32 42 82 43 33 44 87 45
REMARK SMILES IDX 81 46 83 47 34 48 86 49 80 50 79 51 35 53 67 54 47 55 66 56
REMARK SMILES IDX 48 57 51 58 65 59 84 60 49 61 50 62 64 64 85 65 52 66 36 67
REMARK SMILES IDX 37 68 45 69 38 70 39 71 43 72 46 73 40 74 41 75 44 76 42 77
REMARK SMILES IDX 68 78 69 79 77 80 70 81 71 82 75 83 78 84 72 85 73 86 76 87
REMARK SMILES IDX 74 88 53 89 54 90 62 91 55 92 56 93 60 94 63 95 57 96 58 97
REMARK SMILES IDX 61 98 59 99
REMARK H PARENT 19 5 10 10 24 33 83 52 51 63
REMARK Flexibility Score: inf
ROOT
ATOM      1  C   UNL A   1      31.266  27.943  26.610  1.00  0.00     0.116 C 
ENDROOT
BRANCH   1   2
ATOM      2  N   UNL A   1      31.171  26.541  26.963  1.00  0.00    -0.356 N 
ATOM      3  C   UNL A   1      31.861  25.449  26.562  1.00  0.00     0.226 C 
ATOM      4  O   UNL A   1      31.492  24.369  27.042  1.00  0.00    -0.275 OA
ATOM      5  H   UNL A   1      30.466  26.345  27.621  1.00  0.00     0.163 HD
BRANCH   3   6
ATOM      6  C   UNL A   1      33.089  25.471  25.656  1.00  0.00     0.114 C 
ATOM      7  N   UNL A   1      31.889  27.488  21.998  1.00  0.00    -0.335 N 
ATOM      8  C   UNL A   1      33.315  27.174  22.152  1.00  0.00     0.264 C 
ATOM      9  C   UNL A   1      31.094  26.304  22.352  1.00  0.00     0.264 C 
ATOM     10  H   UNL A   1      31.680  27.704  21.023  1.00  0.00     0.348 HD
ATOM     11  C   UNL A   1      33.683  26.733  23.569  1.00  0.00     0.091 C 
ATOM     12  C   UNL A   1      31.354  25.743  23.755  1.00  0.00     0.091 C 
ATOM     13  C   UNL A   1      32.839  25.547  24.114  1.00  0.00     0.065 C 
ATOM     14  N   UNL A   1      33.391  24.261  23.652  1.00  0.00    -0.339 N 
ATOM     15  C   UNL A   1      34.127  24.382  25.884  1.00  0.00     0.116 C 
ATOM     16  C   UNL A   1      34.142  23.594  24.608  1.00  0.00     0.223 C 
ATOM     17  C   UNL A   1      33.149  23.648  22.359  1.00  0.00     0.147 C 
ATOM     18  O   UNL A   1      34.709  22.528  24.464  1.00  0.00    -0.275 OA
BRANCH   7  19
ATOM     19  C   UNL A   1      31.519  28.718  22.721  1.00  0.00     0.264 C 
BRANCH  19  20
ATOM     20  C   UNL A   1      30.018  29.026  22.674  1.00  0.00     0.083 C 
BRANCH  20  21
ATOM     21  C   UNL A   1      29.565  30.397  23.164  1.00  0.00     0.129 C 
BRANCH  21  22
ATOM     22  N   UNL A   1      28.789  31.193  22.235  1.00  0.00    -0.335 N 
ATOM     23  C   UNL A   1      29.121  33.487  23.308  1.00  0.00     0.087 C 
ATOM     24  C   UNL A   1      28.669  32.567  22.236  1.00  0.00     0.105 A 
ATOM     25  N   UNL A   1      28.063  32.971  21.140  1.00  0.00    -0.242 NA
ATOM     26  C   UNL A   1      27.719  31.856  20.444  1.00  0.00     0.131 A 
ATOM     27  C   UNL A   1      28.140  30.743  21.116  1.00  0.00     0.107 A 
ENDBRANCH  21  22
ENDBRANCH  20  21
ENDBRANCH  19  20
ENDBRANCH   7  19
ENDBRANCH   3   6
ENDBRANCH   1   2
BRANCH   1  28
ATOM     28  C   UNL A   1      32.459  28.621  27.285  1.00  0.00     0.023 C 
BRANCH  28  29
ATOM     29  C   UNL A   1      32.558  30.144  27.101  1.00  0.00     0.023 C 
BRANCH  29  30
ATOM     30  C   UNL A   1      33.948  30.735  27.299  1.00  0.00     0.116 C 
BRANCH  30  31
ATOM     31  N   UNL A   1      34.011  31.681  28.406  1.00  0.00    -0.352 N 
ATOM     32  C   UNL A   1      34.954  31.753  29.411  1.00  0.00     0.251 C 
ATOM     33  H   UNL A   1      33.290  32.351  28.441  1.00  0.00     0.163 HD
ATOM     34  O   UNL A   1      34.684  32.288  30.479  1.00  0.00    -0.269 OA
BRANCH  32  35
ATOM     35  C   UNL A   1      36.291  31.168  29.194  1.00  0.00     0.039 A 
ATOM     36  C   UNL A   1      37.433  31.881  29.554  1.00  0.00     0.014 A 
ATOM     37  C   UNL A   1      36.404  29.897  28.629  1.00  0.00     0.014 A 
ATOM     38  C   UNL A   1      38.675  31.264  29.429  1.00  0.00     0.010 A 
ATOM     39  C   UNL A   1      37.622  29.243  28.609  1.00  0.00     0.010 A 
ATOM     40  C   UNL A   1      38.768  29.923  28.996  1.00  0.00    -0.014 A 
BRANCH  40  41
ATOM     41  C   UNL A   1      40.051  29.224  29.126  1.00  0.00     0.031 A 
ATOM     42  C   UNL A   1      40.468  29.017  30.541  1.00  0.00     0.074 A 
ATOM     43  C   UNL A   1      40.786  28.671  28.136  1.00  0.00     0.049 A 
ATOM     44  N   UNL A   1      41.442  29.605  31.151  1.00  0.00    -0.248 NA
ATOM     45  C   UNL A   1      39.629  28.185  31.418  1.00  0.00     0.031 C 
ATOM     46  C   UNL A   1      40.438  28.474  26.727  1.00  0.00     0.029 A 
ATOM     47  N   UNL A   1      42.019  28.085  28.219  1.00  0.00    -0.354 N 
ATOM     48  C   UNL A   1      41.467  29.082  32.438  1.00  0.00     0.074 A 
ATOM     49  C   UNL A   1      40.242  28.339  32.594  1.00  0.00     0.031 C 
ATOM     50  C   UNL A   1      41.321  27.622  26.153  1.00  0.00     0.029 A 
ATOM     51  C   UNL A   1      42.398  27.360  27.093  1.00  0.00     0.049 A 
ATOM     52  H   UNL A   1      42.594  28.170  29.013  1.00  0.00     0.167 HD
ATOM     53  C   UNL A   1      42.617  29.109  33.164  1.00  0.00     0.037 A 
ATOM     54  C   UNL A   1      43.509  26.590  26.945  1.00  0.00     0.037 A 
ATOM     55  C   UNL A   1      43.530  30.105  32.651  1.00  0.00     0.049 A 
ATOM     56  C   UNL A   1      44.500  27.005  27.958  1.00  0.00     0.074 A 
ATOM     57  C   UNL A   1      43.432  31.463  32.390  1.00  0.00     0.029 A 
ATOM     58  N   UNL A   1      44.632  29.687  31.944  1.00  0.00    -0.354 N 
ATOM     59  N   UNL A   1      45.144  28.133  27.920  1.00  0.00    -0.248 NA
ATOM     60  C   UNL A   1      44.439  26.350  29.254  1.00  0.00     0.031 C 
ATOM     61  C   UNL A   1      44.122  31.651  31.154  1.00  0.00     0.029 A 
ATOM     62  C   UNL A   1      44.670  30.424  30.789  1.00  0.00     0.049 A 
ATOM     63  H   UNL A   1      45.273  28.991  32.217  1.00  0.00     0.167 HD
ATOM     64  C   UNL A   1      45.138  28.563  29.233  1.00  0.00     0.074 A 
ATOM     65  C   UNL A   1      44.777  27.387  30.023  1.00  0.00     0.031 C 
ATOM     66  C   UNL A   1      45.136  29.893  29.534  1.00  0.00     0.037 A 
BRANCH  53  67
ATOM     67  C   UNL A   1      43.077  27.969  34.045  1.00  0.00     0.064 A 
ATOM     68  C   UNL A   1      43.431  28.243  35.382  1.00  0.00     0.173 A 
ATOM     69  C   UNL A   1      43.495  26.713  33.554  1.00  0.00     0.173 A 
ATOM     70  F   UNL A   1      43.096  29.411  35.951  1.00  0.00    -0.203 F 
ATOM     71  C   UNL A   1      44.235  27.377  36.126  1.00  0.00     0.198 A 
ATOM     72  C   UNL A   1      44.251  25.827  34.318  1.00  0.00     0.198 A 
ATOM     73  F   UNL A   1      43.295  26.333  32.287  1.00  0.00    -0.203 F 
ATOM     74  F   UNL A   1      44.670  27.749  37.337  1.00  0.00    -0.200 F 
ATOM     75  C   UNL A   1      44.654  26.174  35.589  1.00  0.00     0.200 A 
ATOM     76  F   UNL A   1      44.661  24.673  33.773  1.00  0.00    -0.200 F 
ATOM     77  F   UNL A   1      45.485  25.375  36.271  1.00  0.00    -0.200 F 
ENDBRANCH  53  67
BRANCH  54  78
ATOM     78  C   UNL A   1      43.659  25.300  26.238  1.00  0.00     0.064 A 
ATOM     79  C   UNL A   1      44.674  25.081  25.294  1.00  0.00     0.173 A 
ATOM     80  C   UNL A   1      43.023  24.159  26.754  1.00  0.00     0.173 A 
ATOM     81  F   UNL A   1      45.420  26.105  24.854  1.00  0.00    -0.203 F 
ATOM     82  C   UNL A   1      45.004  23.792  24.859  1.00  0.00     0.198 A 
ATOM     83  C   UNL A   1      43.355  22.872  26.321  1.00  0.00     0.198 A 
ATOM     84  F   UNL A   1      42.183  24.289  27.790  1.00  0.00    -0.203 F 
ATOM     85  F   UNL A   1      46.026  23.610  24.009  1.00  0.00    -0.200 F 
ATOM     86  C   UNL A   1      44.335  22.691  25.365  1.00  0.00     0.200 A 
ATOM     87  F   UNL A   1      42.795  21.795  26.888  1.00  0.00    -0.200 F 
ATOM     88  F   UNL A   1      44.677  21.453  24.982  1.00  0.00    -0.200 F 
ENDBRANCH  54  78
BRANCH  66  89
ATOM     89  C   UNL A   1      45.422  30.873  28.430  1.00  0.00     0.064 A 
ATOM     90  C   UNL A   1      44.471  31.335  27.501  1.00  0.00     0.173 A 
ATOM     91  C   UNL A   1      46.694  31.461  28.393  1.00  0.00     0.173 A 
ATOM     92  F   UNL A   1      43.204  30.900  27.528  1.00  0.00    -0.203 F 
ATOM     93  C   UNL A   1      44.799  32.305  26.553  1.00  0.00     0.198 A 
ATOM     94  C   UNL A   1      47.005  32.457  27.473  1.00  0.00     0.198 A 
ATOM     95  F   UNL A   1      47.630  31.095  29.282  1.00  0.00    -0.203 F 
ATOM     96  F   UNL A   1      43.881  32.715  25.665  1.00  0.00    -0.200 F 
ATOM     97  C   UNL A   1      46.063  32.870  26.546  1.00  0.00     0.200 A 
ATOM     98  F   UNL A   1      48.214  33.034  27.502  1.00  0.00    -0.200 F 
ATOM     99  F   UNL A   1      46.366  33.830  25.661  1.00  0.00    -0.200 F 
ENDBRANCH  66  89
ENDBRANCH  40  41
ENDBRANCH  32  35
ENDBRANCH  30  31
ENDBRANCH  29  30
ENDBRANCH  28  29
ENDBRANCH   1  28
TORSDOF 15
ENDMDL
MODEL 2
REMARK VINA RESULT:     -12.9      2.005      4.785
REMARK SMILES Cc1nccn1CCC[NH+]1CCC2(CC1)[C@@H](C(=O)NCCCCNC(=O)c1ccc(-c3c4nc(c(-c5c(F)c(F)c(F)c(F)c5F)c5ccc([nH]5)c(-c5c(F)c(F)c(F)c(F)c5F)c5nc(c(-c6c(F)c(F)c(F)c(F)c6F)c6ccc3[nH]6)C=C5)C=C4)cc1)CC(=O)N2C
REMARK SMILES IDX 20 1 19 2 17 3 18 4 16 6 10 7 11 8 15 9 12 11 14 12 13 13
REMARK SMILES IDX 93 14 90 15 91 16 94 17 92 18 9 19 8 20 7 21 6 22 1 23 2 24
REMARK SMILES IDX 3 25 4 26 5 27 21 28 22 29 23 30 24 31 25 32 26 34 27 35
REMARK SMILES IDX 28 36 89 37 29 38 88 39 30 40 31 41 32 42 82 43 33 44 87 45
REMARK SMILES IDX 81 46 83 47 34 48 86 49 80 50 79 51 35 53 67 54 47 55 66 56
REMARK SMILES IDX 48 57 51 58 65 59 84 60 49 61 50 62 64 64 85 65 52 66 36 67
REMARK SMILES IDX 37 68 45 69 38 70 39 71 43 72 46 73 40 74 41 75 44 76 42 77
REMARK SMILES IDX 68 78 69 79 77 80 70 81 71 82 75 83 78 84 72 85 73 86 76 87
REMARK SMILES IDX 74 88 53 89 54 90 62 91 55 92 56 93 60 94 63 95 57 96 58 97
REMARK SMILES IDX 61 98 59 99
REMARK H PARENT 19 5 10 10 24 33 83 52 51 63
REMARK Flexibility Score: inf
ROOT
ATOM      1  C   UNL A   1      31.467  28.641  25.580  1.00  0.00     0.116 C 
ENDROOT
BRANCH   1   2
ATOM      2  N   UNL A   1      31.211  27.435  26.341  1.00  0.00    -0.356 N 
ATOM      3  C   UNL A   1      30.815  26.194  25.980  1.00  0.00     0.226 C 
ATOM      4  O   UNL A   1      30.651  25.388  26.904  1.00  0.00    -0.275 OA
ATOM      5  H   UNL A   1      31.352  27.540  27.309  1.00  0.00     0.163 HD
BRANCH   3   6
ATOM      6  C   UNL A   1      30.651  25.709  24.542  1.00  0.00     0.114 C 
ATOM      7  N   UNL A   1      34.004  23.061  23.742  1.00  0.00    -0.335 N 
ATOM      8  C   UNL A   1      32.951  23.136  22.721  1.00  0.00     0.264 C 
ATOM      9  C   UNL A   1      34.365  24.423  24.162  1.00  0.00     0.264 C 
ATOM     10  H   UNL A   1      34.845  22.640  23.349  1.00  0.00     0.348 HD
ATOM     11  C   UNL A   1      31.694  23.857  23.206  1.00  0.00     0.091 C 
ATOM     12  C   UNL A   1      33.198  25.273  24.679  1.00  0.00     0.091 C 
ATOM     13  C   UNL A   1      31.947  25.279  23.780  1.00  0.00     0.065 C 
ATOM     14  N   UNL A   1      32.008  26.274  22.695  1.00  0.00    -0.339 N 
ATOM     15  C   UNL A   1      29.862  26.609  23.602  1.00  0.00     0.116 C 
ATOM     16  C   UNL A   1      30.847  27.019  22.547  1.00  0.00     0.223 C 
ATOM     17  C   UNL A   1      33.165  26.561  21.868  1.00  0.00     0.147 C 
ATOM     18  O   UNL A   1      30.646  27.886  21.719  1.00  0.00    -0.275 OA
BRANCH   7  19
ATOM     19  C   UNL A   1      33.633  22.154  24.842  1.00  0.00     0.264 C 
BRANCH  19  20
ATOM     20  C   UNL A   1      34.035  20.696  24.593  1.00  0.00     0.083 C 
BRANCH  20  21
ATOM     21  C   UNL A   1      32.926  19.650  24.594  1.00  0.00     0.129 C 
BRANCH  21  22
ATOM     22  N   UNL A   1      33.297  18.311  24.182  1.00  0.00    -0.335 N 
ATOM     23  C   UNL A   1      32.228  18.299  21.863  1.00  0.00     0.087 C 
ATOM     24  C   UNL A   1      33.077  17.744  22.945  1.00  0.00     0.105 A 
ATOM     25  N   UNL A   1      33.720  16.600  22.848  1.00  0.00    -0.242 NA
ATOM     26  C   UNL A   1      34.311  16.375  24.052  1.00  0.00     0.131 A 
ATOM     27  C   UNL A   1      34.042  17.413  24.900  1.00  0.00     0.107 A 
ENDBRANCH  21  22
ENDBRANCH  20  21
ENDBRANCH  19  20
ENDBRANCH   7  19
ENDBRANCH   3   6
ENDBRANCH   1   2
BRANCH   1  28
ATOM     28  C   UNL A   1      32.924  29.092  25.696  1.00  0.00     0.023 C 
BRANCH  28  29
ATOM     29  C   UNL A   1      33.394  29.489  27.104  1.00  0.00     0.023 C 
BRANCH  29  30
ATOM     30  C   UNL A   1      34.633  30.374  27.152  1.00  0.00     0.116 C 
BRANCH  30  31
ATOM     31  N   UNL A   1      34.465  31.539  28.011  1.00  0.00    -0.352 N 
ATOM     32  C   UNL A   1      35.085  31.805  29.215  1.00  0.00     0.251 C 
ATOM     33  H   UNL A   1      33.829  32.221  27.693  1.00  0.00     0.163 HD
ATOM     34  O   UNL A   1      34.572  32.571  30.022  1.00  0.00    -0.269 OA
BRANCH  32  35
ATOM     35  C   UNL A   1      36.368  31.148  29.530  1.00  0.00     0.039 A 
ATOM     36  C   UNL A   1      36.392  29.807  29.911  1.00  0.00     0.014 A 
ATOM     37  C   UNL A   1      37.556  31.876  29.443  1.00  0.00     0.014 A 
ATOM     38  C   UNL A   1      37.624  29.189  30.105  1.00  0.00     0.010 A 
ATOM     39  C   UNL A   1      38.779  31.237  29.527  1.00  0.00     0.010 A 
ATOM     40  C   UNL A   1      38.824  29.893  29.870  1.00  0.00    -0.014 A 
BRANCH  40  41
ATOM     41  C   UNL A   1      40.087  29.147  29.827  1.00  0.00     0.031 A 
ATOM     42  C   UNL A   1      40.675  28.907  31.175  1.00  0.00     0.074 A 
ATOM     43  C   UNL A   1      40.667  28.581  28.745  1.00  0.00     0.049 A 
ATOM     44  N   UNL A   1      41.741  29.451  31.658  1.00  0.00    -0.248 NA
ATOM     45  C   UNL A   1      39.925  28.093  32.146  1.00  0.00     0.031 C 
ATOM     46  C   UNL A   1      40.133  28.416  27.392  1.00  0.00     0.029 A 
ATOM     47  N   UNL A   1      41.877  27.950  28.663  1.00  0.00    -0.354 N 
ATOM     48  C   UNL A   1      41.911  28.910  32.927  1.00  0.00     0.074 A 
ATOM     49  C   UNL A   1      40.691  28.210  33.234  1.00  0.00     0.031 C 
ATOM     50  C   UNL A   1      40.902  27.540  26.702  1.00  0.00     0.029 A 
ATOM     51  C   UNL A   1      42.081  27.227  27.492  1.00  0.00     0.049 A 
ATOM     52  H   UNL A   1      42.553  28.004  29.377  1.00  0.00     0.167 HD
ATOM     53  C   UNL A   1      43.146  28.886  33.498  1.00  0.00     0.037 A 
ATOM     54  C   UNL A   1      43.134  26.420  27.195  1.00  0.00     0.037 A 
ATOM     55  C   UNL A   1      44.022  29.856  32.879  1.00  0.00     0.049 A 
ATOM     56  C   UNL A   1      44.262  26.785  28.074  1.00  0.00     0.074 A 
ATOM     57  C   UNL A   1      43.942  31.220  32.645  1.00  0.00     0.029 A 
ATOM     58  N   UNL A   1      45.007  29.408  32.032  1.00  0.00    -0.354 N 
ATOM     59  N   UNL A   1      44.938  27.891  27.963  1.00  0.00    -0.248 NA
ATOM     60  C   UNL A   1      44.344  26.116  29.362  1.00  0.00     0.031 C 
ATOM     61  C   UNL A   1      44.473  31.399  31.332  1.00  0.00     0.029 A 
ATOM     62  C   UNL A   1      44.923  30.158  30.889  1.00  0.00     0.049 A 
ATOM     63  H   UNL A   1      45.651  28.686  32.215  1.00  0.00     0.167 HD
ATOM     64  C   UNL A   1      45.117  28.303  29.269  1.00  0.00     0.074 A 
ATOM     65  C   UNL A   1      44.817  27.130  30.089  1.00  0.00     0.031 C 
ATOM     66  C   UNL A   1      45.204  29.628  29.579  1.00  0.00     0.037 A 
BRANCH  53  67
ATOM     67  C   UNL A   1      43.673  27.720  34.302  1.00  0.00     0.064 A 
ATOM     68  C   UNL A   1      43.616  26.427  33.743  1.00  0.00     0.173 A 
ATOM     69  C   UNL A   1      43.917  27.767  35.693  1.00  0.00     0.173 A 
ATOM     70  F   UNL A   1      43.378  26.259  32.433  1.00  0.00    -0.203 F 
ATOM     71  C   UNL A   1      43.682  25.276  34.533  1.00  0.00     0.198 A 
ATOM     72  C   UNL A   1      44.037  26.616  36.469  1.00  0.00     0.198 A 
ATOM     73  F   UNL A   1      43.933  28.914  36.381  1.00  0.00    -0.203 F 
ATOM     74  F   UNL A   1      43.471  24.076  33.977  1.00  0.00    -0.200 F 
ATOM     75  C   UNL A   1      43.882  25.373  35.897  1.00  0.00     0.200 A 
ATOM     76  F   UNL A   1      44.214  26.732  37.793  1.00  0.00    -0.200 F 
ATOM     77  F   UNL A   1      43.873  24.277  36.667  1.00  0.00    -0.200 F 
ENDBRANCH  53  67
BRANCH  54  78
ATOM     78  C   UNL A   1      43.144  25.135  26.463  1.00  0.00     0.064 A 
ATOM     79  C   UNL A   1      44.010  24.897  25.385  1.00  0.00     0.173 A 
ATOM     80  C   UNL A   1      42.549  24.008  27.053  1.00  0.00     0.173 A 
ATOM     81  F   UNL A   1      44.721  25.903  24.855  1.00  0.00    -0.203 F 
ATOM     82  C   UNL A   1      44.235  23.604  24.899  1.00  0.00     0.198 A 
ATOM     83  C   UNL A   1      42.777  22.717  26.568  1.00  0.00     0.198 A 
ATOM     84  F   UNL A   1      41.865  24.150  28.196  1.00  0.00    -0.203 F 
ATOM     85  F   UNL A   1      45.123  23.401  23.914  1.00  0.00    -0.200 F 
ATOM     86  C   UNL A   1      43.608  22.518  25.483  1.00  0.00     0.200 A 
ATOM     87  F   UNL A   1      42.267  21.650  27.198  1.00  0.00    -0.200 F 
ATOM     88  F   UNL A   1      43.855  21.274  25.047  1.00  0.00    -0.200 F 
ENDBRANCH  54  78
BRANCH  66  89
ATOM     89  C   UNL A   1      45.380  30.612  28.456  1.00  0.00     0.064 A 
ATOM     90  C   UNL A   1      44.335  31.122  27.664  1.00  0.00     0.173 A 
ATOM     91  C   UNL A   1      46.658  31.152  28.258  1.00  0.00     0.173 A 
ATOM     92  F   UNL A   1      43.067  30.735  27.852  1.00  0.00    -0.203 F 
ATOM     93  C   UNL A   1      44.574  32.091  26.689  1.00  0.00     0.198 A 
ATOM     94  C   UNL A   1      46.886  32.148  27.314  1.00  0.00     0.198 A 
ATOM     95  F   UNL A   1      47.688  30.739  29.013  1.00  0.00    -0.203 F 
ATOM     96  F   UNL A   1      43.565  32.548  25.933  1.00  0.00    -0.200 F 
ATOM     97  C   UNL A   1      45.848  32.609  26.522  1.00  0.00     0.200 A 
ATOM     98  F   UNL A   1      48.110  32.679  27.189  1.00  0.00    -0.200 F 
ATOM     99  F   UNL A   1      46.070  33.569  25.613  1.00  0.00    -0.200 F 
ENDBRANCH  66  89
ENDBRANCH  40  41
ENDBRANCH  32  35
ENDBRANCH  30  31
ENDBRANCH  29  30
ENDBRANCH  28  29
ENDBRANCH   1  28
TORSDOF 15
ENDMDL
MODEL 3
REMARK VINA RESULT:     -12.8      3.827      9.471
REMARK SMILES Cc1nccn1CCC[NH+]1CCC2(CC1)[C@@H](C(=O)NCCCCNC(=O)c1ccc(-c3c4nc(c(-c5c(F)c(F)c(F)c(F)c5F)c5ccc([nH]5)c(-c5c(F)c(F)c(F)c(F)c5F)c5nc(c(-c6c(F)c(F)c(F)c(F)c6F)c6ccc3[nH]6)C=C5)C=C4)cc1)CC(=O)N2C
REMARK SMILES IDX 20 1 19 2 17 3 18 4 16 6 10 7 11 8 15 9 12 11 14 12 13 13
REMARK SMILES IDX 93 14 90 15 91 16 94 17 92 18 9 19 8 20 7 21 6 22 1 23 2 24
REMARK SMILES IDX 3 25 4 26 5 27 21 28 22 29 23 30 24 31 25 32 26 34 27 35
REMARK SMILES IDX 28 36 89 37 29 38 88 39 30 40 31 41 32 42 82 43 33 44 87 45
REMARK SMILES IDX 81 46 83 47 34 48 86 49 80 50 79 51 35 53 67 54 47 55 66 56
REMARK SMILES IDX 48 57 51 58 65 59 84 60 49 61 50 62 64 64 85 65 52 66 36 67
REMARK SMILES IDX 37 68 45 69 38 70 39 71 43 72 46 73 40 74 41 75 44 76 42 77
REMARK SMILES IDX 68 78 69 79 77 80 70 81 71 82 75 83 78 84 72 85 73 86 76 87
REMARK SMILES IDX 74 88 53 89 54 90 62 91 55 92 56 93 60 94 63 95 57 96 58 97
REMARK SMILES IDX 61 98 59 99
REMARK H PARENT 19 5 10 10 24 33 83 52 51 63
REMARK Flexibility Score: inf
ROOT
ATOM      1  C   UNL A   1      36.042  22.645  23.702  1.00  0.00     0.116 C 
ENDROOT
BRANCH   1   2
ATOM      2  N   UNL A   1      35.332  23.707  23.018  1.00  0.00    -0.356 N 
ATOM      3  C   UNL A   1      34.471  24.656  23.449  1.00  0.00     0.226 C 
ATOM      4  O   UNL A   1      34.006  25.402  22.578  1.00  0.00    -0.275 OA
ATOM      5  H   UNL A   1      35.511  23.745  22.051  1.00  0.00     0.163 HD
BRANCH   3   6
ATOM      6  C   UNL A   1      34.115  24.919  24.911  1.00  0.00     0.114 C 
ATOM      7  N   UNL A   1      32.413  21.229  26.451  1.00  0.00    -0.335 N 
ATOM      8  C   UNL A   1      32.672  22.302  27.420  1.00  0.00     0.264 C 
ATOM      9  C   UNL A   1      31.731  21.794  25.278  1.00  0.00     0.264 C 
ATOM     10  H   UNL A   1      31.782  20.536  26.855  1.00  0.00     0.348 HD
ATOM     11  C   UNL A   1      33.523  23.435  26.847  1.00  0.00     0.091 C 
ATOM     12  C   UNL A   1      32.471  22.947  24.590  1.00  0.00     0.091 C 
ATOM     13  C   UNL A   1      32.970  24.057  25.534  1.00  0.00     0.065 C 
ATOM     14  N   UNL A   1      31.948  25.077  25.833  1.00  0.00    -0.339 N 
ATOM     15  C   UNL A   1      33.844  26.365  25.299  1.00  0.00     0.116 C 
ATOM     16  C   UNL A   1      32.410  26.381  25.739  1.00  0.00     0.223 C 
ATOM     17  C   UNL A   1      30.551  24.821  26.129  1.00  0.00     0.147 C 
ATOM     18  O   UNL A   1      31.767  27.392  25.950  1.00  0.00    -0.275 OA
BRANCH   7  19
ATOM     19  C   UNL A   1      33.633  20.463  26.146  1.00  0.00     0.264 C 
BRANCH  19  20
ATOM     20  C   UNL A   1      33.612  19.807  24.760  1.00  0.00     0.083 C 
BRANCH  20  21
ATOM     21  C   UNL A   1      32.465  18.852  24.450  1.00  0.00     0.129 C 
BRANCH  21  22
ATOM     22  N   UNL A   1      32.694  17.450  24.734  1.00  0.00    -0.335 N 
ATOM     23  C   UNL A   1      34.236  16.896  22.775  1.00  0.00     0.087 C 
ATOM     24  C   UNL A   1      33.548  16.606  24.057  1.00  0.00     0.105 A 
ATOM     25  N   UNL A   1      33.666  15.465  24.702  1.00  0.00    -0.242 NA
ATOM     26  C   UNL A   1      32.831  15.528  25.773  1.00  0.00     0.131 A 
ATOM     27  C   UNL A   1      32.202  16.742  25.798  1.00  0.00     0.107 A 
ENDBRANCH  21  22
ENDBRANCH  20  21
ENDBRANCH  19  20
ENDBRANCH   7  19
ENDBRANCH   3   6
ENDBRANCH   1   2
BRANCH   1  28
ATOM     28  C   UNL A   1      37.099  23.192  24.663  1.00  0.00     0.023 C 
BRANCH  28  29
ATOM     29  C   UNL A   1      37.901  22.141  25.447  1.00  0.00     0.023 C 
BRANCH  29  30
ATOM     30  C   UNL A   1      38.918  22.700  26.434  1.00  0.00     0.116 C 
BRANCH  30  31
ATOM     31  N   UNL A   1      40.253  22.148  26.247  1.00  0.00    -0.352 N 
ATOM     32  C   UNL A   1      41.446  22.830  26.115  1.00  0.00     0.251 C 
ATOM     33  H   UNL A   1      40.312  21.166  26.209  1.00  0.00     0.163 HD
ATOM     34  O   UNL A   1      42.403  22.307  25.558  1.00  0.00    -0.269 OA
BRANCH  32  35
ATOM     35  C   UNL A   1      41.556  24.205  26.640  1.00  0.00     0.039 A 
ATOM     36  C   UNL A   1      41.053  25.277  25.904  1.00  0.00     0.014 A 
ATOM     37  C   UNL A   1      42.163  24.424  27.877  1.00  0.00     0.014 A 
ATOM     38  C   UNL A   1      41.083  26.549  26.470  1.00  0.00     0.010 A 
ATOM     39  C   UNL A   1      42.092  25.664  28.485  1.00  0.00     0.010 A 
ATOM     40  C   UNL A   1      41.564  26.738  27.783  1.00  0.00    -0.014 A 
BRANCH  40  41
ATOM     41  C   UNL A   1      41.339  28.030  28.440  1.00  0.00     0.031 A 
ATOM     42  C   UNL A   1      42.370  29.051  28.101  1.00  0.00     0.074 A 
ATOM     43  C   UNL A   1      40.271  28.396  29.184  1.00  0.00     0.049 A 
ATOM     44  N   UNL A   1      43.279  29.519  28.890  1.00  0.00    -0.248 NA
ATOM     45  C   UNL A   1      42.506  29.491  26.704  1.00  0.00     0.031 C 
ATOM     46  C   UNL A   1      39.007  27.687  29.395  1.00  0.00     0.029 A 
ATOM     47  N   UNL A   1      40.073  29.561  29.871  1.00  0.00    -0.354 N 
ATOM     48  C   UNL A   1      43.989  30.456  28.150  1.00  0.00     0.074 A 
ATOM     49  C   UNL A   1      43.579  30.283  26.780  1.00  0.00     0.031 C 
ATOM     50  C   UNL A   1      38.101  28.525  29.953  1.00  0.00     0.029 A 
ATOM     51  C   UNL A   1      38.768  29.766  30.310  1.00  0.00     0.049 A 
ATOM     52  H   UNL A   1      40.797  30.205  30.042  1.00  0.00     0.167 HD
ATOM     53  C   UNL A   1      44.665  31.454  28.781  1.00  0.00     0.037 A 
ATOM     54  C   UNL A   1      38.267  30.877  30.912  1.00  0.00     0.037 A 
ATOM     55  C   UNL A   1      44.922  31.112  30.162  1.00  0.00     0.049 A 
ATOM     56  C   UNL A   1      39.393  31.650  31.472  1.00  0.00     0.074 A 
ATOM     57  C   UNL A   1      45.525  30.037  30.795  1.00  0.00     0.029 A 
ATOM     58  N   UNL A   1      44.188  31.735  31.142  1.00  0.00    -0.354 N 
ATOM     59  N   UNL A   1      40.089  31.272  32.504  1.00  0.00    -0.248 NA
ATOM     60  C   UNL A   1      40.026  32.627  30.602  1.00  0.00     0.031 C 
ATOM     61  C   UNL A   1      44.704  29.774  31.934  1.00  0.00     0.029 A 
ATOM     62  C   UNL A   1      43.715  30.753  31.973  1.00  0.00     0.049 A 
ATOM     63  H   UNL A   1      44.032  32.704  31.231  1.00  0.00     0.167 HD
ATOM     64  C   UNL A   1      41.391  31.572  32.153  1.00  0.00     0.074 A 
ATOM     65  C   UNL A   1      41.286  32.487  31.019  1.00  0.00     0.031 C 
ATOM     66  C   UNL A   1      42.430  30.823  32.621  1.00  0.00     0.037 A 
BRANCH  53  67
ATOM     67  C   UNL A   1      44.713  32.880  28.279  1.00  0.00     0.064 A 
ATOM     68  C   UNL A   1      45.967  33.459  27.995  1.00  0.00     0.173 A 
ATOM     69  C   UNL A   1      43.637  33.788  28.382  1.00  0.00     0.173 A 
ATOM     70  F   UNL A   1      47.063  32.694  27.885  1.00  0.00    -0.203 F 
ATOM     71  C   UNL A   1      46.144  34.843  27.933  1.00  0.00     0.198 A 
ATOM     72  C   UNL A   1      43.808  35.165  28.265  1.00  0.00     0.198 A 
ATOM     73  F   UNL A   1      42.400  33.402  28.714  1.00  0.00    -0.203 F 
ATOM     74  F   UNL A   1      47.379  35.350  27.811  1.00  0.00    -0.200 F 
ATOM     75  C   UNL A   1      45.067  35.696  28.079  1.00  0.00     0.200 A 
ATOM     76  F   UNL A   1      42.753  35.976  28.428  1.00  0.00    -0.200 F 
ATOM     77  F   UNL A   1      45.244  37.023  28.094  1.00  0.00    -0.200 F 
ENDBRANCH  53  67
BRANCH  54  78
ATOM     78  C   UNL A   1      36.939  31.507  30.746  1.00  0.00     0.064 A 
ATOM     79  C   UNL A   1      36.094  31.763  31.837  1.00  0.00     0.173 A 
ATOM     80  C   UNL A   1      36.648  32.185  29.552  1.00  0.00     0.173 A 
ATOM     81  F   UNL A   1      36.381  31.261  33.047  1.00  0.00    -0.203 F 
ATOM     82  C   UNL A   1      34.993  32.620  31.724  1.00  0.00     0.198 A 
ATOM     83  C   UNL A   1      35.550  33.043  29.441  1.00  0.00     0.198 A 
ATOM     84  F   UNL A   1      37.521  32.129  28.537  1.00  0.00    -0.203 F 
ATOM     85  F   UNL A   1      34.246  32.900  32.803  1.00  0.00    -0.200 F 
ATOM     86  C   UNL A   1      34.716  33.248  30.523  1.00  0.00     0.200 A 
ATOM     87  F   UNL A   1      35.341  33.744  28.319  1.00  0.00    -0.200 F 
ATOM     88  F   UNL A   1      33.688  34.103  30.424  1.00  0.00    -0.200 F 
ENDBRANCH  54  78
BRANCH  66  89
ATOM     89  C   UNL A   1      42.163  29.851  33.737  1.00  0.00     0.064 A 
ATOM     90  C   UNL A   1      41.732  28.524  33.558  1.00  0.00     0.173 A 
ATOM     91  C   UNL A   1      42.477  30.254  35.042  1.00  0.00     0.173 A 
ATOM     92  F   UNL A   1      41.504  28.025  32.336  1.00  0.00    -0.203 F 
ATOM     93  C   UNL A   1      41.580  27.661  34.644  1.00  0.00     0.198 A 
ATOM     94  C   UNL A   1      42.364  29.379  36.118  1.00  0.00     0.198 A 
ATOM     95  F   UNL A   1      42.936  31.494  35.271  1.00  0.00    -0.203 F 
ATOM     96  F   UNL A   1      41.148  26.406  34.451  1.00  0.00    -0.200 F 
ATOM     97  C   UNL A   1      41.904  28.088  35.921  1.00  0.00     0.200 A 
ATOM     98  F   UNL A   1      42.724  29.783  37.343  1.00  0.00    -0.200 F 
ATOM     99  F   UNL A   1      41.796  27.247  36.960  1.00  0.00    -0.200 F 
ENDBRANCH  66  89
ENDBRANCH  40  41
ENDBRANCH  32  35
ENDBRANCH  30  31
ENDBRANCH  29  30
ENDBRANCH  28  29
ENDBRANCH   1  28
TORSDOF 15
ENDMDL
