MODEL 1
REMARK VINA RESULT:     -12.3      0.000      0.000
REMARK SMILES CC(C)[C@@H]1CCCN1C(=O)N1CCO[C@H](CC(=O)NCCCCNC(=O)c2ccc(-c3c4nc(c(-c5c(F)c(F)c(F)c(F)c5F)c5ccc([nH]5)c(-c5c(F)c(F)c(F)c(F)c5F)c5nc(c(-c6c(F)c(F)c(F)c(F)c6F)c6ccc3[nH]6)C=C5)C=C4)cc2)C1
REMARK SMILES IDX 20 1 19 2 17 3 18 4 16 6 15 7 11 8 12 9 90 10 13 11 14 12
REMARK SMILES IDX 9 13 10 14 8 15 4 16 5 17 6 18 7 19 2 20 1 21 3 22 21 23
REMARK SMILES IDX 22 24 23 25 24 26 25 27 26 29 27 30 28 31 89 32 29 33 88 34
REMARK SMILES IDX 30 35 31 36 32 37 82 38 33 39 87 40 81 41 83 42 34 43 86 44
REMARK SMILES IDX 80 45 79 46 35 48 67 49 47 50 66 51 48 52 51 53 65 54 84 55
REMARK SMILES IDX 49 56 50 57 64 59 85 60 52 61 36 62 37 63 45 64 38 65 39 66
REMARK SMILES IDX 43 67 46 68 40 69 41 70 44 71 42 72 68 73 69 74 77 75 70 76
REMARK SMILES IDX 71 77 75 78 78 79 72 80 73 81 76 82 74 83 53 84 54 85 62 86
REMARK SMILES IDX 55 87 56 88 60 89 63 90 57 91 58 92 61 93 59 94
REMARK H PARENT 19 5 24 28 83 47 51 58
REMARK Flexibility Score: inf
ROOT
ATOM      1  C   UNL A   1      33.515  29.937  26.579  1.00  0.00     0.116 C 
ENDROOT
BRANCH   1   2
ATOM      2  N   UNL A   1      33.643  29.702  25.153  1.00  0.00    -0.356 N 
ATOM      3  C   UNL A   1      33.547  28.555  24.426  1.00  0.00     0.222 C 
ATOM      4  O   UNL A   1      33.720  28.616  23.209  1.00  0.00    -0.275 OA
ATOM      5  H   UNL A   1      33.832  30.509  24.622  1.00  0.00     0.163 HD
BRANCH   3   6
ATOM      6  C   UNL A   1      33.176  27.257  25.095  1.00  0.00     0.133 C 
BRANCH   6   7
ATOM      7  C   UNL A   1      31.661  27.102  25.241  1.00  0.00     0.147 C 
ATOM      8  N   UNL A   1      31.648  24.649  25.480  1.00  0.00    -0.320 N 
ATOM      9  C   UNL A   1      30.876  24.516  24.251  1.00  0.00     0.150 C 
ATOM     10  C   UNL A   1      31.350  25.907  26.160  1.00  0.00     0.154 C 
ATOM     11  C   UNL A   1      31.155  25.700  23.332  1.00  0.00     0.182 C 
ATOM     12  O   UNL A   1      30.972  26.967  23.978  1.00  0.00    -0.374 OA
BRANCH   8  13
ATOM     13  C   UNL A   1      31.758  23.530  26.270  1.00  0.00     0.320 C 
ATOM     14  O   UNL A   1      31.107  23.418  27.306  1.00  0.00    -0.248 OA
BRANCH  13  15
ATOM     15  N   UNL A   1      32.673  22.588  25.851  1.00  0.00    -0.321 N 
ATOM     16  C   UNL A   1      34.142  22.563  25.986  1.00  0.00     0.089 C 
ATOM     17  C   UNL A   1      34.538  21.191  25.412  1.00  0.00     0.027 C 
ATOM     18  C   UNL A   1      33.318  20.330  25.682  1.00  0.00     0.024 C 
ATOM     19  C   UNL A   1      32.175  21.294  25.412  1.00  0.00     0.122 C 
BRANCH  16  20
ATOM     20  C   UNL A   1      34.931  23.726  25.337  1.00  0.00     0.005 C 
ATOM     21  C   UNL A   1      36.401  23.717  25.775  1.00  0.00     0.009 C 
ATOM     22  C   UNL A   1      34.848  23.776  23.810  1.00  0.00     0.009 C 
ENDBRANCH  16  20
ENDBRANCH  13  15
ENDBRANCH   8  13
ENDBRANCH   6   7
ENDBRANCH   3   6
ENDBRANCH   1   2
BRANCH   1  23
ATOM     23  C   UNL A   1      32.104  30.404  26.945  1.00  0.00     0.023 C 
BRANCH  23  24
ATOM     24  C   UNL A   1      31.898  31.905  26.756  1.00  0.00     0.023 C 
BRANCH  24  25
ATOM     25  C   UNL A   1      32.897  32.783  27.499  1.00  0.00     0.116 C 
BRANCH  25  26
ATOM     26  N   UNL A   1      32.434  34.143  27.734  1.00  0.00    -0.352 N 
ATOM     27  C   UNL A   1      32.971  35.060  28.613  1.00  0.00     0.251 C 
ATOM     28  H   UNL A   1      31.656  34.440  27.209  1.00  0.00     0.163 HD
ATOM     29  O   UNL A   1      32.476  36.172  28.761  1.00  0.00    -0.269 OA
BRANCH  27  30
ATOM     30  C   UNL A   1      34.134  34.644  29.420  1.00  0.00     0.039 A 
ATOM     31  C   UNL A   1      33.917  34.127  30.699  1.00  0.00     0.014 A 
ATOM     32  C   UNL A   1      35.406  34.619  28.842  1.00  0.00     0.014 A 
ATOM     33  C   UNL A   1      34.965  33.487  31.365  1.00  0.00     0.010 A 
ATOM     34  C   UNL A   1      36.429  33.926  29.480  1.00  0.00     0.010 A 
ATOM     35  C   UNL A   1      36.212  33.334  30.735  1.00  0.00    -0.014 A 
BRANCH  35  36
ATOM     36  C   UNL A   1      37.294  32.525  31.348  1.00  0.00     0.031 A 
ATOM     37  C   UNL A   1      37.796  32.863  32.721  1.00  0.00     0.074 A 
ATOM     38  C   UNL A   1      37.894  31.555  30.628  1.00  0.00     0.049 A 
ATOM     39  N   UNL A   1      38.813  32.366  33.377  1.00  0.00    -0.248 NA
ATOM     40  C   UNL A   1      37.080  33.929  33.437  1.00  0.00     0.031 C 
ATOM     41  C   UNL A   1      37.538  31.170  29.262  1.00  0.00     0.029 A 
ATOM     42  N   UNL A   1      38.946  30.730  30.942  1.00  0.00    -0.354 N 
ATOM     43  C   UNL A   1      38.876  33.076  34.568  1.00  0.00     0.074 A 
ATOM     44  C   UNL A   1      37.819  34.065  34.528  1.00  0.00     0.031 C 
ATOM     45  C   UNL A   1      38.346  30.175  28.860  1.00  0.00     0.029 A 
ATOM     46  C   UNL A   1      39.295  29.872  29.927  1.00  0.00     0.049 A 
ATOM     47  H   UNL A   1      39.405  30.750  31.812  1.00  0.00     0.167 HD
ATOM     48  C   UNL A   1      39.727  32.907  35.606  1.00  0.00     0.037 A 
ATOM     49  C   UNL A   1      40.275  28.950  29.864  1.00  0.00     0.037 A 
ATOM     50  C   UNL A   1      40.748  31.896  35.663  1.00  0.00     0.049 A 
ATOM     51  C   UNL A   1      41.179  28.753  31.050  1.00  0.00     0.074 A 
ATOM     52  C   UNL A   1      41.615  31.602  36.701  1.00  0.00     0.029 A 
ATOM     53  N   UNL A   1      41.032  31.006  34.638  1.00  0.00    -0.354 N 
ATOM     54  N   UNL A   1      41.190  29.392  32.194  1.00  0.00    -0.248 NA
ATOM     55  C   UNL A   1      42.201  27.702  30.938  1.00  0.00     0.031 C 
ATOM     56  C   UNL A   1      42.442  30.548  36.295  1.00  0.00     0.029 A 
ATOM     57  C   UNL A   1      42.066  30.166  35.017  1.00  0.00     0.049 A 
ATOM     58  H   UNL A   1      40.567  30.975  33.771  1.00  0.00     0.167 HD
ATOM     59  C   UNL A   1      42.198  28.805  32.948  1.00  0.00     0.074 A 
ATOM     60  C   UNL A   1      42.771  27.754  32.134  1.00  0.00     0.031 C 
ATOM     61  C   UNL A   1      42.610  29.111  34.201  1.00  0.00     0.037 A 
BRANCH  48  62
ATOM     62  C   UNL A   1      39.583  33.838  36.771  1.00  0.00     0.064 A 
ATOM     63  C   UNL A   1      38.815  33.493  37.894  1.00  0.00     0.173 A 
ATOM     64  C   UNL A   1      40.234  35.081  36.775  1.00  0.00     0.173 A 
ATOM     65  F   UNL A   1      38.162  32.322  37.930  1.00  0.00    -0.203 F 
ATOM     66  C   UNL A   1      38.682  34.370  38.966  1.00  0.00     0.198 A 
ATOM     67  C   UNL A   1      40.118  35.945  37.862  1.00  0.00     0.198 A 
ATOM     68  F   UNL A   1      40.979  35.458  35.727  1.00  0.00    -0.203 F 
ATOM     69  F   UNL A   1      37.905  34.039  40.006  1.00  0.00    -0.200 F 
ATOM     70  C   UNL A   1      39.337  35.592  38.952  1.00  0.00     0.200 A 
ATOM     71  F   UNL A   1      40.758  37.123  37.850  1.00  0.00    -0.200 F 
ATOM     72  F   UNL A   1      39.208  36.435  39.986  1.00  0.00    -0.200 F 
ENDBRANCH  48  62
BRANCH  49  73
ATOM     73  C   UNL A   1      40.433  28.118  28.645  1.00  0.00     0.064 A 
ATOM     74  C   UNL A   1      39.796  26.875  28.541  1.00  0.00     0.173 A 
ATOM     75  C   UNL A   1      41.220  28.542  27.565  1.00  0.00     0.173 A 
ATOM     76  F   UNL A   1      39.049  26.419  29.558  1.00  0.00    -0.203 F 
ATOM     77  C   UNL A   1      39.954  26.077  27.410  1.00  0.00     0.198 A 
ATOM     78  C   UNL A   1      41.360  27.753  26.425  1.00  0.00     0.198 A 
ATOM     79  F   UNL A   1      41.847  29.727  27.616  1.00  0.00    -0.203 F 
ATOM     80  F   UNL A   1      39.364  24.875  27.353  1.00  0.00    -0.200 F 
ATOM     81  C   UNL A   1      40.732  26.518  26.351  1.00  0.00     0.200 A 
ATOM     82  F   UNL A   1      42.106  28.188  25.399  1.00  0.00    -0.200 F 
ATOM     83  F   UNL A   1      40.883  25.753  25.262  1.00  0.00    -0.200 F 
ENDBRANCH  49  73
BRANCH  61  84
ATOM     84  C   UNL A   1      43.707  28.276  34.788  1.00  0.00     0.064 A 
ATOM     85  C   UNL A   1      45.052  28.661  34.691  1.00  0.00     0.173 A 
ATOM     86  C   UNL A   1      43.403  27.106  35.498  1.00  0.00     0.173 A 
ATOM     87  F   UNL A   1      45.392  29.765  34.009  1.00  0.00    -0.203 F 
ATOM     88  C   UNL A   1      46.056  27.894  35.276  1.00  0.00     0.198 A 
ATOM     89  C   UNL A   1      44.407  26.353  36.099  1.00  0.00     0.198 A 
ATOM     90  F   UNL A   1      42.130  26.701  35.618  1.00  0.00    -0.203 F 
ATOM     91  F   UNL A   1      47.338  28.261  35.147  1.00  0.00    -0.200 F 
ATOM     92  C   UNL A   1      45.732  26.746  35.985  1.00  0.00     0.200 A 
ATOM     93  F   UNL A   1      44.092  25.250  36.790  1.00  0.00    -0.200 F 
ATOM     94  F   UNL A   1      46.700  26.013  36.554  1.00  0.00    -0.200 F 
ENDBRANCH  61  84
ENDBRANCH  35  36
ENDBRANCH  27  30
ENDBRANCH  25  26
ENDBRANCH  24  25
ENDBRANCH  23  24
ENDBRANCH   1  23
TORSDOF 15
ENDMDL
MODEL 2
REMARK VINA RESULT:     -12.2      0.748      7.425
REMARK SMILES CC(C)[C@@H]1CCCN1C(=O)N1CCO[C@H](CC(=O)NCCCCNC(=O)c2ccc(-c3c4nc(c(-c5c(F)c(F)c(F)c(F)c5F)c5ccc([nH]5)c(-c5c(F)c(F)c(F)c(F)c5F)c5nc(c(-c6c(F)c(F)c(F)c(F)c6F)c6ccc3[nH]6)C=C5)C=C4)cc2)C1
REMARK SMILES IDX 20 1 19 2 17 3 18 4 16 6 15 7 11 8 12 9 90 10 13 11 14 12
REMARK SMILES IDX 9 13 10 14 8 15 4 16 5 17 6 18 7 19 2 20 1 21 3 22 21 23
REMARK SMILES IDX 22 24 23 25 24 26 25 27 26 29 27 30 28 31 89 32 29 33 88 34
REMARK SMILES IDX 30 35 31 36 32 37 82 38 33 39 87 40 81 41 83 42 34 43 86 44
REMARK SMILES IDX 80 45 79 46 35 48 67 49 47 50 66 51 48 52 51 53 65 54 84 55
REMARK SMILES IDX 49 56 50 57 64 59 85 60 52 61 36 62 37 63 45 64 38 65 39 66
REMARK SMILES IDX 43 67 46 68 40 69 41 70 44 71 42 72 68 73 69 74 77 75 70 76
REMARK SMILES IDX 71 77 75 78 78 79 72 80 73 81 76 82 74 83 53 84 54 85 62 86
REMARK SMILES IDX 55 87 56 88 60 89 63 90 57 91 58 92 61 93 59 94
REMARK H PARENT 19 5 24 28 83 47 51 58
REMARK Flexibility Score: inf
ROOT
ATOM      1  C   UNL A   1      33.962  29.466  26.837  1.00  0.00     0.116 C 
ENDROOT
BRANCH   1   2
ATOM      2  N   UNL A   1      34.085  29.277  25.405  1.00  0.00    -0.356 N 
ATOM      3  C   UNL A   1      33.813  28.197  24.622  1.00  0.00     0.222 C 
ATOM      4  O   UNL A   1      34.026  28.281  23.412  1.00  0.00    -0.275 OA
ATOM      5  H   UNL A   1      34.422  30.062  24.916  1.00  0.00     0.163 HD
BRANCH   3   6
ATOM      6  C   UNL A   1      33.210  26.953  25.221  1.00  0.00     0.133 C 
BRANCH   6   7
ATOM      7  C   UNL A   1      31.681  26.995  25.204  1.00  0.00     0.147 C 
ATOM      8  N   UNL A   1      31.326  24.592  25.622  1.00  0.00    -0.320 N 
ATOM      9  C   UNL A   1      30.675  24.445  24.327  1.00  0.00     0.150 C 
ATOM     10  C   UNL A   1      31.124  25.932  26.168  1.00  0.00     0.154 C 
ATOM     11  C   UNL A   1      31.198  25.501  23.359  1.00  0.00     0.182 C 
ATOM     12  O   UNL A   1      31.115  26.832  23.884  1.00  0.00    -0.374 OA
BRANCH   8  13
ATOM     13  C   UNL A   1      31.208  23.542  26.501  1.00  0.00     0.320 C 
ATOM     14  O   UNL A   1      30.217  23.424  27.218  1.00  0.00    -0.248 OA
BRANCH  13  15
ATOM     15  N   UNL A   1      32.282  22.680  26.553  1.00  0.00    -0.321 N 
ATOM     16  C   UNL A   1      33.017  22.010  25.464  1.00  0.00     0.089 C 
ATOM     17  C   UNL A   1      34.165  21.285  26.190  1.00  0.00     0.027 C 
ATOM     18  C   UNL A   1      34.407  22.148  27.415  1.00  0.00     0.024 C 
ATOM     19  C   UNL A   1      32.997  22.550  27.813  1.00  0.00     0.122 C 
BRANCH  16  20
ATOM     20  C   UNL A   1      32.208  21.063  24.545  1.00  0.00     0.005 C 
ATOM     21  C   UNL A   1      32.345  21.464  23.070  1.00  0.00     0.009 C 
ATOM     22  C   UNL A   1      32.542  19.579  24.708  1.00  0.00     0.009 C 
ENDBRANCH  16  20
ENDBRANCH  13  15
ENDBRANCH   8  13
ENDBRANCH   6   7
ENDBRANCH   3   6
ENDBRANCH   1   2
BRANCH   1  23
ATOM     23  C   UNL A   1      32.547  29.902  27.225  1.00  0.00     0.023 C 
BRANCH  23  24
ATOM     24  C   UNL A   1      32.249  31.359  26.880  1.00  0.00     0.023 C 
BRANCH  24  25
ATOM     25  C   UNL A   1      33.161  32.373  27.559  1.00  0.00     0.116 C 
BRANCH  25  26
ATOM     26  N   UNL A   1      32.587  33.706  27.675  1.00  0.00    -0.352 N 
ATOM     27  C   UNL A   1      33.033  34.732  28.481  1.00  0.00     0.251 C 
ATOM     28  H   UNL A   1      31.798  33.895  27.118  1.00  0.00     0.163 HD
ATOM     29  O   UNL A   1      32.448  35.809  28.530  1.00  0.00    -0.269 OA
BRANCH  27  30
ATOM     30  C   UNL A   1      34.211  34.479  29.334  1.00  0.00     0.039 A 
ATOM     31  C   UNL A   1      34.016  33.966  30.617  1.00  0.00     0.014 A 
ATOM     32  C   UNL A   1      35.495  34.598  28.795  1.00  0.00     0.014 A 
ATOM     33  C   UNL A   1      35.111  33.474  31.331  1.00  0.00     0.010 A 
ATOM     34  C   UNL A   1      36.573  34.050  29.481  1.00  0.00     0.010 A 
ATOM     35  C   UNL A   1      36.388  33.462  30.743  1.00  0.00    -0.014 A 
BRANCH  35  36
ATOM     36  C   UNL A   1      37.540  32.805  31.409  1.00  0.00     0.031 A 
ATOM     37  C   UNL A   1      38.227  31.648  30.746  1.00  0.00     0.074 A 
ATOM     38  C   UNL A   1      37.897  33.181  32.653  1.00  0.00     0.049 A 
ATOM     39  N   UNL A   1      39.161  30.859  31.214  1.00  0.00    -0.248 NA
ATOM     40  C   UNL A   1      37.778  31.309  29.387  1.00  0.00     0.031 C 
ATOM     41  C   UNL A   1      37.269  34.251  33.429  1.00  0.00     0.029 A 
ATOM     42  N   UNL A   1      38.866  32.688  33.492  1.00  0.00    -0.354 N 
ATOM     43  C   UNL A   1      39.391  29.917  30.221  1.00  0.00     0.074 A 
ATOM     44  C   UNL A   1      38.472  30.208  29.140  1.00  0.00     0.031 C 
ATOM     45  C   UNL A   1      37.877  34.345  34.623  1.00  0.00     0.029 A 
ATOM     46  C   UNL A   1      38.916  33.323  34.710  1.00  0.00     0.049 A 
ATOM     47  H   UNL A   1      39.468  31.949  33.245  1.00  0.00     0.167 HD
ATOM     48  C   UNL A   1      40.296  28.912  30.205  1.00  0.00     0.037 A 
ATOM     49  C   UNL A   1      39.708  33.101  35.776  1.00  0.00     0.037 A 
ATOM     50  C   UNL A   1      41.238  28.652  31.261  1.00  0.00     0.049 A 
ATOM     51  C   UNL A   1      40.737  32.006  35.715  1.00  0.00     0.074 A 
ATOM     52  C   UNL A   1      42.240  27.699  31.307  1.00  0.00     0.029 A 
ATOM     53  N   UNL A   1      41.298  29.356  32.453  1.00  0.00    -0.354 N 
ATOM     54  N   UNL A   1      40.984  31.159  34.746  1.00  0.00    -0.248 NA
ATOM     55  C   UNL A   1      41.601  31.840  36.893  1.00  0.00     0.031 C 
ATOM     56  C   UNL A   1      42.893  27.811  32.540  1.00  0.00     0.029 A 
ATOM     57  C   UNL A   1      42.317  28.855  33.247  1.00  0.00     0.049 A 
ATOM     58  H   UNL A   1      40.705  30.103  32.700  1.00  0.00     0.167 HD
ATOM     59  C   UNL A   1      42.046  30.379  35.184  1.00  0.00     0.074 A 
ATOM     60  C   UNL A   1      42.402  30.859  36.503  1.00  0.00     0.031 C 
ATOM     61  C   UNL A   1      42.670  29.358  34.549  1.00  0.00     0.037 A 
BRANCH  48  62
ATOM     62  C   UNL A   1      40.314  28.022  29.001  1.00  0.00     0.064 A 
ATOM     63  C   UNL A   1      41.053  28.354  27.855  1.00  0.00     0.173 A 
ATOM     64  C   UNL A   1      39.601  26.813  28.997  1.00  0.00     0.173 A 
ATOM     65  F   UNL A   1      41.739  29.506  27.805  1.00  0.00    -0.203 F 
ATOM     66  C   UNL A   1      41.055  27.522  26.739  1.00  0.00     0.198 A 
ATOM     67  C   UNL A   1      39.627  25.972  27.888  1.00  0.00     0.198 A 
ATOM     68  F   UNL A   1      38.880  26.450  30.067  1.00  0.00    -0.203 F 
ATOM     69  F   UNL A   1      41.729  27.884  25.639  1.00  0.00    -0.200 F 
ATOM     70  C   UNL A   1      40.347  26.330  26.758  1.00  0.00     0.200 A 
ATOM     71  F   UNL A   1      38.947  24.816  27.910  1.00  0.00    -0.200 F 
ATOM     72  F   UNL A   1      40.350  25.530  25.682  1.00  0.00    -0.200 F 
ENDBRANCH  48  62
BRANCH  49  73
ATOM     73  C   UNL A   1      39.583  33.956  36.984  1.00  0.00     0.064 A 
ATOM     74  C   UNL A   1      38.824  33.532  38.083  1.00  0.00     0.173 A 
ATOM     75  C   UNL A   1      40.213  35.205  37.066  1.00  0.00     0.173 A 
ATOM     76  F   UNL A   1      38.186  32.353  38.040  1.00  0.00    -0.203 F 
ATOM     77  C   UNL A   1      38.682  34.335  39.212  1.00  0.00     0.198 A 
ATOM     78  C   UNL A   1      40.089  35.998  38.206  1.00  0.00     0.198 A 
ATOM     79  F   UNL A   1      40.954  35.652  36.042  1.00  0.00    -0.203 F 
ATOM     80  F   UNL A   1      37.918  33.923  40.234  1.00  0.00    -0.200 F 
ATOM     81  C   UNL A   1      39.318  35.565  39.275  1.00  0.00     0.200 A 
ATOM     82  F   UNL A   1      40.713  37.182  38.266  1.00  0.00    -0.200 F 
ATOM     83  F   UNL A   1      39.185  36.337  40.362  1.00  0.00    -0.200 F 
ENDBRANCH  49  73
BRANCH  61  84
ATOM     84  C   UNL A   1      43.826  28.715  35.251  1.00  0.00     0.064 A 
ATOM     85  C   UNL A   1      43.645  27.619  36.107  1.00  0.00     0.173 A 
ATOM     86  C   UNL A   1      45.134  29.168  35.023  1.00  0.00     0.173 A 
ATOM     87  F   UNL A   1      42.412  27.161  36.366  1.00  0.00    -0.203 F 
ATOM     88  C   UNL A   1      44.735  27.007  36.721  1.00  0.00     0.198 A 
ATOM     89  C   UNL A   1      46.222  28.541  35.622  1.00  0.00     0.198 A 
ATOM     90  F   UNL A   1      45.354  30.212  34.210  1.00  0.00    -0.203 F 
ATOM     91  F   UNL A   1      44.539  25.982  37.561  1.00  0.00    -0.200 F 
ATOM     92  C   UNL A   1      46.021  27.464  36.473  1.00  0.00     0.200 A 
ATOM     93  F   UNL A   1      47.464  28.978  35.375  1.00  0.00    -0.200 F 
ATOM     94  F   UNL A   1      47.069  26.869  37.059  1.00  0.00    -0.200 F 
ENDBRANCH  61  84
ENDBRANCH  35  36
ENDBRANCH  27  30
ENDBRANCH  25  26
ENDBRANCH  24  25
ENDBRANCH  23  24
ENDBRANCH   1  23
TORSDOF 15
ENDMDL
MODEL 3
REMARK VINA RESULT:     -12.1      5.601     10.027
REMARK SMILES CC(C)[C@@H]1CCCN1C(=O)N1CCO[C@H](CC(=O)NCCCCNC(=O)c2ccc(-c3c4nc(c(-c5c(F)c(F)c(F)c(F)c5F)c5ccc([nH]5)c(-c5c(F)c(F)c(F)c(F)c5F)c5nc(c(-c6c(F)c(F)c(F)c(F)c6F)c6ccc3[nH]6)C=C5)C=C4)cc2)C1
REMARK SMILES IDX 20 1 19 2 17 3 18 4 16 6 15 7 11 8 12 9 90 10 13 11 14 12
REMARK SMILES IDX 9 13 10 14 8 15 4 16 5 17 6 18 7 19 2 20 1 21 3 22 21 23
REMARK SMILES IDX 22 24 23 25 24 26 25 27 26 29 27 30 28 31 89 32 29 33 88 34
REMARK SMILES IDX 30 35 31 36 32 37 82 38 33 39 87 40 81 41 83 42 34 43 86 44
REMARK SMILES IDX 80 45 79 46 35 48 67 49 47 50 66 51 48 52 51 53 65 54 84 55
REMARK SMILES IDX 49 56 50 57 64 59 85 60 52 61 36 62 37 63 45 64 38 65 39 66
REMARK SMILES IDX 43 67 46 68 40 69 41 70 44 71 42 72 68 73 69 74 77 75 70 76
REMARK SMILES IDX 71 77 75 78 78 79 72 80 73 81 76 82 74 83 53 84 54 85 62 86
REMARK SMILES IDX 55 87 56 88 60 89 63 90 57 91 58 92 61 93 59 94
REMARK H PARENT 19 5 24 28 83 47 51 58
REMARK Flexibility Score: inf
ROOT
ATOM      1  C   UNL A   1      37.645  23.654  25.785  1.00  0.00     0.116 C 
ENDROOT
BRANCH   1   2
ATOM      2  N   UNL A   1      37.374  23.336  24.396  1.00  0.00    -0.356 N 
ATOM      3  C   UNL A   1      36.200  23.273  23.709  1.00  0.00     0.222 C 
ATOM      4  O   UNL A   1      36.234  22.953  22.520  1.00  0.00    -0.275 OA
ATOM      5  H   UNL A   1      38.173  23.130  23.860  1.00  0.00     0.163 HD
BRANCH   3   6
ATOM      6  C   UNL A   1      34.904  23.648  24.378  1.00  0.00     0.133 C 
BRANCH   6   7
ATOM      7  C   UNL A   1      34.068  22.417  24.734  1.00  0.00     0.147 C 
ATOM      8  N   UNL A   1      32.511  23.563  26.262  1.00  0.00    -0.320 N 
ATOM      9  C   UNL A   1      32.976  22.747  27.377  1.00  0.00     0.150 C 
ATOM     10  C   UNL A   1      32.612  22.840  24.997  1.00  0.00     0.154 C 
ATOM     11  C   UNL A   1      34.413  22.301  27.129  1.00  0.00     0.182 C 
ATOM     12  O   UNL A   1      34.592  21.670  25.855  1.00  0.00    -0.374 OA
BRANCH   8  13
ATOM     13  C   UNL A   1      31.367  24.299  26.465  1.00  0.00     0.320 C 
ATOM     14  O   UNL A   1      30.501  23.921  27.251  1.00  0.00    -0.248 OA
BRANCH  13  15
ATOM     15  N   UNL A   1      31.244  25.437  25.698  1.00  0.00    -0.321 N 
ATOM     16  C   UNL A   1      32.234  26.486  25.388  1.00  0.00     0.089 C 
ATOM     17  C   UNL A   1      31.494  27.404  24.397  1.00  0.00     0.027 C 
ATOM     18  C   UNL A   1      30.518  26.467  23.710  1.00  0.00     0.024 C 
ATOM     19  C   UNL A   1      30.069  25.571  24.851  1.00  0.00     0.122 C 
BRANCH  16  20
ATOM     20  C   UNL A   1      32.834  27.266  26.582  1.00  0.00     0.005 C 
ATOM     21  C   UNL A   1      34.022  28.132  26.143  1.00  0.00     0.009 C 
ATOM     22  C   UNL A   1      31.829  28.123  27.352  1.00  0.00     0.009 C 
ENDBRANCH  16  20
ENDBRANCH  13  15
ENDBRANCH   8  13
ENDBRANCH   6   7
ENDBRANCH   3   6
ENDBRANCH   1   2
BRANCH   1  23
ATOM     23  C   UNL A   1      38.979  23.063  26.245  1.00  0.00     0.023 C 
BRANCH  23  24
ATOM     24  C   UNL A   1      39.209  21.636  25.753  1.00  0.00     0.023 C 
BRANCH  24  25
ATOM     25  C   UNL A   1      39.659  20.657  26.830  1.00  0.00     0.116 C 
BRANCH  25  26
ATOM     26  N   UNL A   1      40.403  19.514  26.321  1.00  0.00    -0.352 N 
ATOM     27  C   UNL A   1      41.764  19.438  26.112  1.00  0.00     0.251 C 
ATOM     28  H   UNL A   1      39.880  18.709  26.104  1.00  0.00     0.163 HD
ATOM     29  O   UNL A   1      42.286  18.433  25.640  1.00  0.00    -0.269 OA
BRANCH  27  30
ATOM     30  C   UNL A   1      42.577  20.631  26.421  1.00  0.00     0.039 A 
ATOM     31  C   UNL A   1      43.074  21.399  25.366  1.00  0.00     0.014 A 
ATOM     32  C   UNL A   1      42.698  21.063  27.744  1.00  0.00     0.014 A 
ATOM     33  C   UNL A   1      43.610  22.661  25.633  1.00  0.00     0.010 A 
ATOM     34  C   UNL A   1      43.174  22.344  28.000  1.00  0.00     0.010 A 
ATOM     35  C   UNL A   1      43.612  23.163  26.946  1.00  0.00    -0.014 A 
BRANCH  35  36
ATOM     36  C   UNL A   1      44.027  24.557  27.240  1.00  0.00     0.031 A 
ATOM     37  C   UNL A   1      43.015  25.554  27.725  1.00  0.00     0.074 A 
ATOM     38  C   UNL A   1      45.287  24.951  26.970  1.00  0.00     0.049 A 
ATOM     39  N   UNL A   1      43.145  26.841  27.914  1.00  0.00    -0.248 NA
ATOM     40  C   UNL A   1      41.666  25.037  28.001  1.00  0.00     0.031 C 
ATOM     41  C   UNL A   1      46.349  24.094  26.439  1.00  0.00     0.029 A 
ATOM     42  N   UNL A   1      45.884  26.183  27.087  1.00  0.00    -0.354 N 
ATOM     43  C   UNL A   1      41.891  27.293  28.302  1.00  0.00     0.074 A 
ATOM     44  C   UNL A   1      41.004  26.149  28.285  1.00  0.00     0.031 C 
ATOM     45  C   UNL A   1      47.469  24.820  26.291  1.00  0.00     0.029 A 
ATOM     46  C   UNL A   1      47.198  26.199  26.686  1.00  0.00     0.049 A 
ATOM     47  H   UNL A   1      45.415  26.978  27.426  1.00  0.00     0.167 HD
ATOM     48  C   UNL A   1      41.518  28.544  28.656  1.00  0.00     0.037 A 
ATOM     49  C   UNL A   1      48.082  27.214  26.638  1.00  0.00     0.037 A 
ATOM     50  C   UNL A   1      42.410  29.671  28.716  1.00  0.00     0.049 A 
ATOM     51  C   UNL A   1      47.652  28.586  27.080  1.00  0.00     0.074 A 
ATOM     52  C   UNL A   1      42.141  30.964  29.129  1.00  0.00     0.029 A 
ATOM     53  N   UNL A   1      43.749  29.634  28.359  1.00  0.00    -0.354 N 
ATOM     54  N   UNL A   1      46.479  28.988  27.501  1.00  0.00    -0.248 NA
ATOM     55  C   UNL A   1      48.674  29.644  27.047  1.00  0.00     0.031 C 
ATOM     56  C   UNL A   1      43.313  31.718  29.000  1.00  0.00     0.029 A 
ATOM     57  C   UNL A   1      44.320  30.884  28.537  1.00  0.00     0.049 A 
ATOM     58  H   UNL A   1      44.225  28.838  28.030  1.00  0.00     0.167 HD
ATOM     59  C   UNL A   1      46.625  30.334  27.808  1.00  0.00     0.074 A 
ATOM     60  C   UNL A   1      48.004  30.679  27.532  1.00  0.00     0.031 C 
ATOM     61  C   UNL A   1      45.698  31.205  28.276  1.00  0.00     0.037 A 
BRANCH  48  62
ATOM     62  C   UNL A   1      40.079  28.757  29.014  1.00  0.00     0.064 A 
ATOM     63  C   UNL A   1      39.131  29.131  28.049  1.00  0.00     0.173 A 
ATOM     64  C   UNL A   1      39.636  28.567  30.332  1.00  0.00     0.173 A 
ATOM     65  F   UNL A   1      39.509  29.339  26.779  1.00  0.00    -0.203 F 
ATOM     66  C   UNL A   1      37.799  29.334  28.395  1.00  0.00     0.198 A 
ATOM     67  C   UNL A   1      38.297  28.747  30.669  1.00  0.00     0.198 A 
ATOM     68  F   UNL A   1      40.502  28.210  31.291  1.00  0.00    -0.203 F 
ATOM     69  F   UNL A   1      36.922  29.737  27.466  1.00  0.00    -0.200 F 
ATOM     70  C   UNL A   1      37.382  29.136  29.703  1.00  0.00     0.200 A 
ATOM     71  F   UNL A   1      37.894  28.549  31.932  1.00  0.00    -0.200 F 
ATOM     72  F   UNL A   1      36.098  29.332  30.035  1.00  0.00    -0.200 F 
ENDBRANCH  48  62
BRANCH  49  73
ATOM     73  C   UNL A   1      49.473  26.966  26.184  1.00  0.00     0.064 A 
ATOM     74  C   UNL A   1      50.474  26.620  27.102  1.00  0.00     0.173 A 
ATOM     75  C   UNL A   1      49.832  27.068  24.833  1.00  0.00     0.173 A 
ATOM     76  F   UNL A   1      50.180  26.531  28.408  1.00  0.00    -0.203 F 
ATOM     77  C   UNL A   1      51.787  26.405  26.689  1.00  0.00     0.198 A 
ATOM     78  C   UNL A   1      51.141  26.831  24.418  1.00  0.00     0.198 A 
ATOM     79  F   UNL A   1      48.909  27.391  23.915  1.00  0.00    -0.203 F 
ATOM     80  F   UNL A   1      52.732  26.114  27.594  1.00  0.00    -0.200 F 
ATOM     81  C   UNL A   1      52.119  26.506  25.347  1.00  0.00     0.200 A 
ATOM     82  F   UNL A   1      51.457  26.920  23.118  1.00  0.00    -0.200 F 
ATOM     83  F   UNL A   1      53.381  26.297  24.949  1.00  0.00    -0.200 F 
ENDBRANCH  49  73
BRANCH  61  84
ATOM     84  C   UNL A   1      46.151  32.605  28.558  1.00  0.00     0.064 A 
ATOM     85  C   UNL A   1      46.071  33.610  27.586  1.00  0.00     0.173 A 
ATOM     86  C   UNL A   1      46.622  32.953  29.833  1.00  0.00     0.173 A 
ATOM     87  F   UNL A   1      45.641  33.321  26.348  1.00  0.00    -0.203 F 
ATOM     88  C   UNL A   1      46.458  34.916  27.876  1.00  0.00     0.198 A 
ATOM     89  C   UNL A   1      46.988  34.262  30.126  1.00  0.00     0.198 A 
ATOM     90  F   UNL A   1      46.713  32.023  30.796  1.00  0.00    -0.203 F 
ATOM     91  F   UNL A   1      46.404  35.857  26.924  1.00  0.00    -0.200 F 
ATOM     92  C   UNL A   1      46.910  35.242  29.147  1.00  0.00     0.200 A 
ATOM     93  F   UNL A   1      47.416  34.577  31.356  1.00  0.00    -0.200 F 
ATOM     94  F   UNL A   1      47.275  36.501  29.427  1.00  0.00    -0.200 F 
ENDBRANCH  61  84
ENDBRANCH  35  36
ENDBRANCH  27  30
ENDBRANCH  25  26
ENDBRANCH  24  25
ENDBRANCH  23  24
ENDBRANCH   1  23
TORSDOF 15
ENDMDL
