MODEL 1
REMARK VINA RESULT:     -11.3      0.000      0.000
REMARK SMILES CCc1ccsc1CNC(=O)N[C@@H](CCO)C(=O)NCCCCNC(=O)c1ccc(-c2c3nc(c(-c4c(F)c(F)c(F)c(F)c4F)c4ccc([nH]4)c(-c4c(F)c(F)c(F)c(F)c4F)c4nc(c(-c5c(F)c(F)c(F)c(F)c5F)c5ccc2[nH]5)C=C4)C=C3)cc1
REMARK SMILES IDX 20 1 19 2 17 3 18 4 13 6 12 7 9 8 10 9 11 11 8 13 7 14 3 15
REMARK SMILES IDX 4 16 5 17 6 18 2 19 1 20 14 21 15 22 16 23 21 25 22 26 23 27
REMARK SMILES IDX 24 28 25 29 26 31 27 32 28 33 89 34 29 35 88 36 30 37 31 38
REMARK SMILES IDX 32 39 82 40 33 41 87 42 81 43 83 44 34 45 86 46 80 47 79 48
REMARK SMILES IDX 35 50 67 51 47 52 66 53 48 54 51 55 65 56 84 57 49 58 50 59
REMARK SMILES IDX 64 61 85 62 52 63 36 64 37 65 45 66 38 67 39 68 43 69 46 70
REMARK SMILES IDX 40 71 41 72 44 73 42 74 68 75 69 76 77 77 70 78 71 79 75 80
REMARK SMILES IDX 78 81 72 82 73 83 76 84 74 85 53 86 54 87 62 88 55 89 56 90
REMARK SMILES IDX 60 91 63 92 57 93 58 94 61 95 59 96
REMARK H PARENT 19 5 9 10 12 12 16 24 24 30 83 49 51 60
REMARK Flexibility Score: inf
ROOT
ATOM      1  C   UNL A   1      32.394  29.765  25.556  1.00  0.00     0.116 C 
ENDROOT
BRANCH   1   2
ATOM      2  N   UNL A   1      31.476  29.707  24.437  1.00  0.00    -0.354 N 
ATOM      3  C   UNL A   1      30.927  28.672  23.751  1.00  0.00     0.242 C 
ATOM      4  O   UNL A   1      29.908  28.955  23.106  1.00  0.00    -0.273 OA
ATOM      5  H   UNL A   1      31.195  30.591  24.110  1.00  0.00     0.163 HD
BRANCH   3   6
ATOM      6  C   UNL A   1      31.337  27.193  23.915  1.00  0.00     0.175 C 
BRANCH   6   7
ATOM      7  N   UNL A   1      30.430  26.340  24.684  1.00  0.00    -0.326 N 
ATOM      8  N   UNL A   1      31.698  25.522  26.493  1.00  0.00    -0.333 N 
ATOM      9  C   UNL A   1      30.532  25.832  25.920  1.00  0.00     0.315 C 
ATOM     10  H   UNL A   1      31.651  25.439  27.473  1.00  0.00     0.165 HD
ATOM     11  O   UNL A   1      29.489  25.611  26.536  1.00  0.00    -0.249 OA
ATOM     12  H   UNL A   1      29.600  26.098  24.212  1.00  0.00     0.166 HD
BRANCH   8  13
ATOM     13  C   UNL A   1      33.015  25.286  25.947  1.00  0.00     0.165 C 
BRANCH  13  14
ATOM     14  C   UNL A   1      33.552  23.927  26.316  1.00  0.00     0.027 A 
ATOM     15  C   UNL A   1      34.819  23.420  26.036  1.00  0.00    -0.033 A 
ATOM     16  C   UNL A   1      34.960  22.075  26.521  1.00  0.00     0.016 A 
ATOM     17  C   UNL A   1      33.835  21.619  27.162  1.00  0.00     0.065 A 
ATOM     18  S   UNL A   1      32.608  22.794  27.203  1.00  0.00    -0.147 S 
BRANCH  15  19
ATOM     19  C   UNL A   1      35.916  24.145  25.301  1.00  0.00     0.033 C 
ATOM     20  C   UNL A   1      37.261  23.441  25.393  1.00  0.00     0.009 C 
ENDBRANCH  15  19
ENDBRANCH  13  14
ENDBRANCH   8  13
ENDBRANCH   6   7
BRANCH   6  21
ATOM     21  C   UNL A   1      31.751  26.536  22.585  1.00  0.00     0.063 C 
BRANCH  21  22
ATOM     22  C   UNL A   1      33.229  26.605  22.215  1.00  0.00     0.158 C 
BRANCH  22  23
ATOM     23  O   UNL A   1      33.910  25.372  22.398  1.00  0.00    -0.396 OA
ATOM     24  H   UNL A   1      34.342  25.114  21.568  1.00  0.00     0.210 HD
ENDBRANCH  22  23
ENDBRANCH  21  22
ENDBRANCH   6  21
ENDBRANCH   3   6
ENDBRANCH   1   2
BRANCH   1  25
ATOM     25  C   UNL A   1      31.765  30.375  26.802  1.00  0.00     0.023 C 
BRANCH  25  26
ATOM     26  C   UNL A   1      31.595  31.893  26.762  1.00  0.00     0.023 C 
BRANCH  26  27
ATOM     27  C   UNL A   1      32.785  32.699  27.272  1.00  0.00     0.116 C 
BRANCH  27  28
ATOM     28  N   UNL A   1      32.443  34.070  27.617  1.00  0.00    -0.352 N 
ATOM     29  C   UNL A   1      32.987  34.885  28.580  1.00  0.00     0.251 C 
ATOM     30  H   UNL A   1      31.718  34.471  27.085  1.00  0.00     0.163 HD
ATOM     31  O   UNL A   1      32.496  35.983  28.819  1.00  0.00    -0.269 OA
BRANCH  29  32
ATOM     32  C   UNL A   1      34.149  34.409  29.355  1.00  0.00     0.039 A 
ATOM     33  C   UNL A   1      33.928  33.768  30.575  1.00  0.00     0.014 A 
ATOM     34  C   UNL A   1      35.445  34.559  28.857  1.00  0.00     0.014 A 
ATOM     35  C   UNL A   1      35.006  33.210  31.263  1.00  0.00     0.010 A 
ATOM     36  C   UNL A   1      36.505  33.929  29.500  1.00  0.00     0.010 A 
ATOM     37  C   UNL A   1      36.296  33.252  30.711  1.00  0.00    -0.014 A 
BRANCH  37  38
ATOM     38  C   UNL A   1      37.444  32.599  31.390  1.00  0.00     0.031 A 
ATOM     39  C   UNL A   1      38.145  31.443  30.735  1.00  0.00     0.074 A 
ATOM     40  C   UNL A   1      37.811  33.005  32.622  1.00  0.00     0.049 A 
ATOM     41  N   UNL A   1      39.121  30.699  31.190  1.00  0.00    -0.248 NA
ATOM     42  C   UNL A   1      37.663  31.048  29.401  1.00  0.00     0.031 C 
ATOM     43  C   UNL A   1      37.172  34.078  33.384  1.00  0.00     0.029 A 
ATOM     44  N   UNL A   1      38.806  32.554  33.452  1.00  0.00    -0.354 N 
ATOM     45  C   UNL A   1      39.356  29.744  30.211  1.00  0.00     0.074 A 
ATOM     46  C   UNL A   1      38.383  29.963  29.163  1.00  0.00     0.031 C 
ATOM     47  C   UNL A   1      37.807  34.221  34.560  1.00  0.00     0.029 A 
ATOM     48  C   UNL A   1      38.873  33.226  34.648  1.00  0.00     0.049 A 
ATOM     49  H   UNL A   1      39.414  31.817  33.213  1.00  0.00     0.167 HD
ATOM     50  C   UNL A   1      40.314  28.787  30.175  1.00  0.00     0.037 A 
ATOM     51  C   UNL A   1      39.699  33.057  35.697  1.00  0.00     0.037 A 
ATOM     52  C   UNL A   1      41.298  28.592  31.206  1.00  0.00     0.049 A 
ATOM     53  C   UNL A   1      40.763  31.994  35.628  1.00  0.00     0.074 A 
ATOM     54  C   UNL A   1      42.347  27.691  31.239  1.00  0.00     0.029 A 
ATOM     55  N   UNL A   1      41.354  29.315  32.390  1.00  0.00    -0.354 N 
ATOM     56  N   UNL A   1      41.021  31.142  34.665  1.00  0.00    -0.248 NA
ATOM     57  C   UNL A   1      41.657  31.875  36.789  1.00  0.00     0.031 C 
ATOM     58  C   UNL A   1      43.013  27.839  32.460  1.00  0.00     0.029 A 
ATOM     59  C   UNL A   1      42.410  28.868  33.166  1.00  0.00     0.049 A 
ATOM     60  H   UNL A   1      40.734  30.038  32.640  1.00  0.00     0.167 HD
ATOM     61  C   UNL A   1      42.124  30.412  35.087  1.00  0.00     0.074 A 
ATOM     62  C   UNL A   1      42.493  30.928  36.388  1.00  0.00     0.031 C 
ATOM     63  C   UNL A   1      42.772  29.403  34.454  1.00  0.00     0.037 A 
BRANCH  50  64
ATOM     64  C   UNL A   1      40.345  27.884  28.977  1.00  0.00     0.064 A 
ATOM     65  C   UNL A   1      41.107  28.196  27.840  1.00  0.00     0.173 A 
ATOM     66  C   UNL A   1      39.628  26.678  28.974  1.00  0.00     0.173 A 
ATOM     67  F   UNL A   1      41.802  29.343  27.787  1.00  0.00    -0.203 F 
ATOM     68  C   UNL A   1      41.125  27.351  26.734  1.00  0.00     0.198 A 
ATOM     69  C   UNL A   1      39.673  25.821  27.878  1.00  0.00     0.198 A 
ATOM     70  F   UNL A   1      38.887  26.328  30.036  1.00  0.00    -0.203 F 
ATOM     71  F   UNL A   1      41.818  27.697  25.640  1.00  0.00    -0.200 F 
ATOM     72  C   UNL A   1      40.414  26.161  26.756  1.00  0.00     0.200 A 
ATOM     73  F   UNL A   1      38.997  24.664  27.906  1.00  0.00    -0.200 F 
ATOM     74  F   UNL A   1      40.437  25.345  25.693  1.00  0.00    -0.200 F 
ENDBRANCH  50  64
BRANCH  51  75
ATOM     75  C   UNL A   1      39.580  33.937  36.889  1.00  0.00     0.064 A 
ATOM     76  C   UNL A   1      38.832  33.538  38.006  1.00  0.00     0.173 A 
ATOM     77  C   UNL A   1      40.201  35.195  36.935  1.00  0.00     0.173 A 
ATOM     78  F   UNL A   1      38.204  32.354  38.002  1.00  0.00    -0.203 F 
ATOM     79  C   UNL A   1      38.690  34.372  39.113  1.00  0.00     0.198 A 
ATOM     80  C   UNL A   1      40.081  36.015  38.054  1.00  0.00     0.198 A 
ATOM     81  F   UNL A   1      40.932  35.621  35.895  1.00  0.00    -0.203 F 
ATOM     82  F   UNL A   1      37.930  33.986  40.146  1.00  0.00    -0.200 F 
ATOM     83  C   UNL A   1      39.319  35.608  39.138  1.00  0.00     0.200 A 
ATOM     84  F   UNL A   1      40.702  37.202  38.080  1.00  0.00    -0.200 F 
ATOM     85  F   UNL A   1      39.184  36.409  40.204  1.00  0.00    -0.200 F 
ENDBRANCH  51  75
BRANCH  63  86
ATOM     86  C   UNL A   1      43.975  28.823  35.138  1.00  0.00     0.064 A 
ATOM     87  C   UNL A   1      45.259  29.352  34.951  1.00  0.00     0.173 A 
ATOM     88  C   UNL A   1      43.831  27.743  36.023  1.00  0.00     0.173 A 
ATOM     89  F   UNL A   1      45.451  30.375  34.104  1.00  0.00    -0.203 F 
ATOM     90  C   UNL A   1      46.361  28.806  35.604  1.00  0.00     0.198 A 
ATOM     91  C   UNL A   1      44.930  27.219  36.699  1.00  0.00     0.198 A 
ATOM     92  F   UNL A   1      42.623  27.203  36.243  1.00  0.00    -0.203 F 
ATOM     93  F   UNL A   1      47.585  29.296  35.373  1.00  0.00    -0.200 F 
ATOM     94  C   UNL A   1      46.194  27.745  36.483  1.00  0.00     0.200 A 
ATOM     95  F   UNL A   1      44.765  26.203  37.557  1.00  0.00    -0.200 F 
ATOM     96  F   UNL A   1      47.255  27.225  37.116  1.00  0.00    -0.200 F 
ENDBRANCH  63  86
ENDBRANCH  37  38
ENDBRANCH  29  32
ENDBRANCH  27  28
ENDBRANCH  26  27
ENDBRANCH  25  26
ENDBRANCH   1  25
TORSDOF 18
ENDMDL
MODEL 2
REMARK VINA RESULT:     -11.2      5.746     11.244
REMARK SMILES CCc1ccsc1CNC(=O)N[C@@H](CCO)C(=O)NCCCCNC(=O)c1ccc(-c2c3nc(c(-c4c(F)c(F)c(F)c(F)c4F)c4ccc([nH]4)c(-c4c(F)c(F)c(F)c(F)c4F)c4nc(c(-c5c(F)c(F)c(F)c(F)c5F)c5ccc2[nH]5)C=C4)C=C3)cc1
REMARK SMILES IDX 20 1 19 2 17 3 18 4 13 6 12 7 9 8 10 9 11 11 8 13 7 14 3 15
REMARK SMILES IDX 4 16 5 17 6 18 2 19 1 20 14 21 15 22 16 23 21 25 22 26 23 27
REMARK SMILES IDX 24 28 25 29 26 31 27 32 28 33 89 34 29 35 88 36 30 37 31 38
REMARK SMILES IDX 32 39 82 40 33 41 87 42 81 43 83 44 34 45 86 46 80 47 79 48
REMARK SMILES IDX 35 50 67 51 47 52 66 53 48 54 51 55 65 56 84 57 49 58 50 59
REMARK SMILES IDX 64 61 85 62 52 63 36 64 37 65 45 66 38 67 39 68 43 69 46 70
REMARK SMILES IDX 40 71 41 72 44 73 42 74 68 75 69 76 77 77 70 78 71 79 75 80
REMARK SMILES IDX 78 81 72 82 73 83 76 84 74 85 53 86 54 87 62 88 55 89 56 90
REMARK SMILES IDX 60 91 63 92 57 93 58 94 61 95 59 96
REMARK H PARENT 19 5 9 10 12 12 16 24 24 30 83 49 51 60
REMARK Flexibility Score: inf
ROOT
ATOM      1  C   UNL A   1      36.289  21.477  25.751  1.00  0.00     0.116 C 
ENDROOT
BRANCH   1   2
ATOM      2  N   UNL A   1      35.076  20.689  25.843  1.00  0.00    -0.354 N 
ATOM      3  C   UNL A   1      33.774  20.972  25.582  1.00  0.00     0.242 C 
ATOM      4  O   UNL A   1      33.050  19.984  25.405  1.00  0.00    -0.273 OA
ATOM      5  H   UNL A   1      35.225  19.769  26.156  1.00  0.00     0.163 HD
BRANCH   3   6
ATOM      6  C   UNL A   1      33.226  22.382  25.269  1.00  0.00     0.175 C 
BRANCH   6   7
ATOM      7  N   UNL A   1      32.812  22.634  23.888  1.00  0.00    -0.326 N 
ATOM      8  N   UNL A   1      34.022  24.533  23.192  1.00  0.00    -0.333 N 
ATOM      9  C   UNL A   1      33.347  23.410  22.934  1.00  0.00     0.315 C 
ATOM     10  H   UNL A   1      34.592  24.835  22.449  1.00  0.00     0.165 HD
ATOM     11  O   UNL A   1      33.170  23.079  21.762  1.00  0.00    -0.249 OA
ATOM     12  H   UNL A   1      32.000  22.151  23.612  1.00  0.00     0.166 HD
BRANCH   8  13
ATOM     13  C   UNL A   1      34.075  25.387  24.357  1.00  0.00     0.165 C 
BRANCH  13  14
ATOM     14  C   UNL A   1      33.719  26.815  24.036  1.00  0.00     0.027 A 
ATOM     15  C   UNL A   1      33.664  27.888  24.923  1.00  0.00    -0.033 A 
ATOM     16  C   UNL A   1      33.259  29.095  24.257  1.00  0.00     0.016 A 
ATOM     17  C   UNL A   1      33.048  28.916  22.912  1.00  0.00     0.065 A 
ATOM     18  S   UNL A   1      33.344  27.313  22.431  1.00  0.00    -0.147 S 
BRANCH  15  19
ATOM     19  C   UNL A   1      33.959  27.827  26.399  1.00  0.00     0.033 C 
ATOM     20  C   UNL A   1      33.511  29.073  27.148  1.00  0.00     0.009 C 
ENDBRANCH  15  19
ENDBRANCH  13  14
ENDBRANCH   8  13
ENDBRANCH   6   7
BRANCH   6  21
ATOM     21  C   UNL A   1      32.164  22.849  26.280  1.00  0.00     0.063 C 
BRANCH  21  22
ATOM     22  C   UNL A   1      30.705  22.721  25.854  1.00  0.00     0.158 C 
BRANCH  22  23
ATOM     23  O   UNL A   1      30.304  23.717  24.924  1.00  0.00    -0.396 OA
ATOM     24  H   UNL A   1      30.990  23.821  24.245  1.00  0.00     0.210 HD
ENDBRANCH  22  23
ENDBRANCH  21  22
ENDBRANCH   6  21
ENDBRANCH   3   6
ENDBRANCH   1   2
BRANCH   1  25
ATOM     25  C   UNL A   1      37.211  21.008  24.634  1.00  0.00     0.023 C 
BRANCH  25  26
ATOM     26  C   UNL A   1      38.121  19.836  24.998  1.00  0.00     0.023 C 
BRANCH  26  27
ATOM     27  C   UNL A   1      39.364  20.197  25.805  1.00  0.00     0.116 C 
BRANCH  27  28
ATOM     28  N   UNL A   1      40.329  19.112  25.890  1.00  0.00    -0.352 N 
ATOM     29  C   UNL A   1      41.683  19.169  26.111  1.00  0.00     0.251 C 
ATOM     30  H   UNL A   1      39.958  18.207  25.771  1.00  0.00     0.163 HD
ATOM     31  O   UNL A   1      42.372  18.157  26.033  1.00  0.00    -0.269 OA
BRANCH  29  32
ATOM     32  C   UNL A   1      42.311  20.471  26.406  1.00  0.00     0.039 A 
ATOM     33  C   UNL A   1      42.861  21.207  25.355  1.00  0.00     0.014 A 
ATOM     34  C   UNL A   1      42.318  20.978  27.707  1.00  0.00     0.014 A 
ATOM     35  C   UNL A   1      43.353  22.489  25.598  1.00  0.00     0.010 A 
ATOM     36  C   UNL A   1      42.731  22.287  27.932  1.00  0.00     0.010 A 
ATOM     37  C   UNL A   1      43.256  23.054  26.880  1.00  0.00    -0.014 A 
BRANCH  37  38
ATOM     38  C   UNL A   1      43.706  24.444  27.143  1.00  0.00     0.031 A 
ATOM     39  C   UNL A   1      42.729  25.465  27.654  1.00  0.00     0.074 A 
ATOM     40  C   UNL A   1      44.974  24.801  26.862  1.00  0.00     0.049 A 
ATOM     41  N   UNL A   1      42.906  26.741  27.884  1.00  0.00    -0.248 NA
ATOM     42  C   UNL A   1      41.357  24.995  27.911  1.00  0.00     0.031 C 
ATOM     43  C   UNL A   1      46.000  23.916  26.310  1.00  0.00     0.029 A 
ATOM     44  N   UNL A   1      45.613  26.009  26.992  1.00  0.00    -0.354 N 
ATOM     45  C   UNL A   1      41.672  27.227  28.293  1.00  0.00     0.074 A 
ATOM     46  C   UNL A   1      40.739  26.124  28.225  1.00  0.00     0.031 C 
ATOM     47  C   UNL A   1      47.147  24.602  26.173  1.00  0.00     0.029 A 
ATOM     48  C   UNL A   1      46.927  25.983  26.594  1.00  0.00     0.049 A 
ATOM     49  H   UNL A   1      45.171  26.817  27.339  1.00  0.00     0.167 HD
ATOM     50  C   UNL A   1      41.352  28.473  28.715  1.00  0.00     0.037 A 
ATOM     51  C   UNL A   1      47.849  26.964  26.568  1.00  0.00     0.037 A 
ATOM     52  C   UNL A   1      42.290  29.559  28.811  1.00  0.00     0.049 A 
ATOM     53  C   UNL A   1      47.470  28.338  27.053  1.00  0.00     0.074 A 
ATOM     54  C   UNL A   1      42.080  30.843  29.281  1.00  0.00     0.029 A 
ATOM     55  N   UNL A   1      43.622  29.486  28.427  1.00  0.00    -0.354 N 
ATOM     56  N   UNL A   1      46.317  28.768  27.506  1.00  0.00    -0.248 NA
ATOM     57  C   UNL A   1      48.524  29.361  27.032  1.00  0.00     0.031 C 
ATOM     58  C   UNL A   1      43.273  31.559  29.144  1.00  0.00     0.029 A 
ATOM     59  C   UNL A   1      44.241  30.707  28.636  1.00  0.00     0.049 A 
ATOM     60  H   UNL A   1      44.062  28.684  28.061  1.00  0.00     0.167 HD
ATOM     61  C   UNL A   1      46.515  30.096  27.854  1.00  0.00     0.074 A 
ATOM     62  C   UNL A   1      47.902  30.399  27.571  1.00  0.00     0.031 C 
ATOM     63  C   UNL A   1      45.627  30.987  28.362  1.00  0.00     0.037 A 
BRANCH  50  64
ATOM     64  C   UNL A   1      39.926  28.723  29.112  1.00  0.00     0.064 A 
ATOM     65  C   UNL A   1      38.975  29.187  28.191  1.00  0.00     0.173 A 
ATOM     66  C   UNL A   1      39.497  28.470  30.424  1.00  0.00     0.173 A 
ATOM     67  F   UNL A   1      39.336  29.456  26.926  1.00  0.00    -0.203 F 
ATOM     68  C   UNL A   1      37.657  29.419  28.574  1.00  0.00     0.198 A 
ATOM     69  C   UNL A   1      38.171  28.672  30.796  1.00  0.00     0.198 A 
ATOM     70  F   UNL A   1      40.363  28.021  31.345  1.00  0.00    -0.203 F 
ATOM     71  F   UNL A   1      36.780  29.913  27.688  1.00  0.00    -0.200 F 
ATOM     72  C   UNL A   1      37.254  29.155  29.873  1.00  0.00     0.200 A 
ATOM     73  F   UNL A   1      37.779  28.404  32.050  1.00  0.00    -0.200 F 
ATOM     74  F   UNL A   1      35.983  29.372  30.240  1.00  0.00    -0.200 F 
ENDBRANCH  50  64
BRANCH  51  75
ATOM     75  C   UNL A   1      49.230  26.676  26.101  1.00  0.00     0.064 A 
ATOM     76  C   UNL A   1      49.617  26.957  24.783  1.00  0.00     0.173 A 
ATOM     77  C   UNL A   1      50.188  26.109  26.955  1.00  0.00     0.173 A 
ATOM     78  F   UNL A   1      48.731  27.481  23.923  1.00  0.00    -0.203 F 
ATOM     79  C   UNL A   1      50.901  26.660  24.330  1.00  0.00     0.198 A 
ATOM     80  C   UNL A   1      51.480  25.839  26.509  1.00  0.00     0.198 A 
ATOM     81  F   UNL A   1      49.871  25.827  28.227  1.00  0.00    -0.203 F 
ATOM     82  F   UNL A   1      51.228  26.894  23.052  1.00  0.00    -0.200 F 
ATOM     83  C   UNL A   1      51.833  26.106  25.194  1.00  0.00     0.200 A 
ATOM     84  F   UNL A   1      52.381  25.317  27.351  1.00  0.00    -0.200 F 
ATOM     85  F   UNL A   1      53.068  25.822  24.759  1.00  0.00    -0.200 F 
ENDBRANCH  51  75
BRANCH  63  86
ATOM     86  C   UNL A   1      46.140  32.359  28.688  1.00  0.00     0.064 A 
ATOM     87  C   UNL A   1      46.676  32.668  29.946  1.00  0.00     0.173 A 
ATOM     88  C   UNL A   1      46.127  33.368  27.713  1.00  0.00     0.173 A 
ATOM     89  F   UNL A   1      46.699  31.742  30.916  1.00  0.00    -0.203 F 
ATOM     90  C   UNL A   1      47.158  33.944  30.225  1.00  0.00     0.198 A 
ATOM     91  C   UNL A   1      46.638  34.635  27.986  1.00  0.00     0.198 A 
ATOM     92  F   UNL A   1      45.631  33.123  26.491  1.00  0.00    -0.203 F 
ATOM     93  F   UNL A   1      47.621  34.231  31.449  1.00  0.00    -0.200 F 
ATOM     94  C   UNL A   1      47.145  34.924  29.243  1.00  0.00     0.200 A 
ATOM     95  F   UNL A   1      46.636  35.575  27.031  1.00  0.00    -0.200 F 
ATOM     96  F   UNL A   1      47.614  36.150  29.511  1.00  0.00    -0.200 F 
ENDBRANCH  63  86
ENDBRANCH  37  38
ENDBRANCH  29  32
ENDBRANCH  27  28
ENDBRANCH  26  27
ENDBRANCH  25  26
ENDBRANCH   1  25
TORSDOF 18
ENDMDL
MODEL 3
REMARK VINA RESULT:     -11.2      5.671     11.182
REMARK SMILES CCc1ccsc1CNC(=O)N[C@@H](CCO)C(=O)NCCCCNC(=O)c1ccc(-c2c3nc(c(-c4c(F)c(F)c(F)c(F)c4F)c4ccc([nH]4)c(-c4c(F)c(F)c(F)c(F)c4F)c4nc(c(-c5c(F)c(F)c(F)c(F)c5F)c5ccc2[nH]5)C=C4)C=C3)cc1
REMARK SMILES IDX 20 1 19 2 17 3 18 4 13 6 12 7 9 8 10 9 11 11 8 13 7 14 3 15
REMARK SMILES IDX 4 16 5 17 6 18 2 19 1 20 14 21 15 22 16 23 21 25 22 26 23 27
REMARK SMILES IDX 24 28 25 29 26 31 27 32 28 33 89 34 29 35 88 36 30 37 31 38
REMARK SMILES IDX 32 39 82 40 33 41 87 42 81 43 83 44 34 45 86 46 80 47 79 48
REMARK SMILES IDX 35 50 67 51 47 52 66 53 48 54 51 55 65 56 84 57 49 58 50 59
REMARK SMILES IDX 64 61 85 62 52 63 36 64 37 65 45 66 38 67 39 68 43 69 46 70
REMARK SMILES IDX 40 71 41 72 44 73 42 74 68 75 69 76 77 77 70 78 71 79 75 80
REMARK SMILES IDX 78 81 72 82 73 83 76 84 74 85 53 86 54 87 62 88 55 89 56 90
REMARK SMILES IDX 60 91 63 92 57 93 58 94 61 95 59 96
REMARK H PARENT 19 5 9 10 12 12 16 24 24 30 83 49 51 60
REMARK Flexibility Score: inf
ROOT
ATOM      1  C   UNL A   1      35.965  21.552  25.684  1.00  0.00     0.116 C 
ENDROOT
BRANCH   1   2
ATOM      2  N   UNL A   1      34.794  20.703  25.768  1.00  0.00    -0.354 N 
ATOM      3  C   UNL A   1      33.474  20.932  25.548  1.00  0.00     0.242 C 
ATOM      4  O   UNL A   1      32.794  19.918  25.344  1.00  0.00    -0.273 OA
ATOM      5  H   UNL A   1      34.995  19.778  26.037  1.00  0.00     0.163 HD
BRANCH   3   6
ATOM      6  C   UNL A   1      32.852  22.325  25.308  1.00  0.00     0.175 C 
BRANCH   6   7
ATOM      7  N   UNL A   1      33.144  22.964  24.024  1.00  0.00    -0.326 N 
ATOM      8  N   UNL A   1      34.137  25.035  24.548  1.00  0.00    -0.333 N 
ATOM      9  C   UNL A   1      33.919  24.013  23.716  1.00  0.00     0.315 C 
ATOM     10  H   UNL A   1      34.930  25.573  24.321  1.00  0.00     0.165 HD
ATOM     11  O   UNL A   1      34.422  24.044  22.593  1.00  0.00    -0.249 OA
ATOM     12  H   UNL A   1      32.693  22.550  23.252  1.00  0.00     0.166 HD
BRANCH   8  13
ATOM     13  C   UNL A   1      33.430  25.500  25.720  1.00  0.00     0.165 C 
BRANCH  13  14
ATOM     14  C   UNL A   1      32.867  26.886  25.536  1.00  0.00     0.027 A 
ATOM     15  C   UNL A   1      31.559  27.224  25.196  1.00  0.00    -0.033 A 
ATOM     16  C   UNL A   1      31.402  28.648  25.085  1.00  0.00     0.016 A 
ATOM     17  C   UNL A   1      32.558  29.335  25.360  1.00  0.00     0.065 A 
ATOM     18  S   UNL A   1      33.835  28.290  25.769  1.00  0.00    -0.147 S 
BRANCH  15  19
ATOM     19  C   UNL A   1      30.435  26.254  24.946  1.00  0.00     0.033 C 
ATOM     20  C   UNL A   1      29.468  26.727  23.871  1.00  0.00     0.009 C 
ENDBRANCH  15  19
ENDBRANCH  13  14
ENDBRANCH   8  13
ENDBRANCH   6   7
BRANCH   6  21
ATOM     21  C   UNL A   1      31.351  22.376  25.645  1.00  0.00     0.063 C 
BRANCH  21  22
ATOM     22  C   UNL A   1      30.949  23.182  26.876  1.00  0.00     0.158 C 
BRANCH  22  23
ATOM     23  O   UNL A   1      29.905  22.577  27.625  1.00  0.00    -0.396 OA
ATOM     24  H   UNL A   1      29.865  21.630  27.419  1.00  0.00     0.210 HD
ENDBRANCH  22  23
ENDBRANCH  21  22
ENDBRANCH   6  21
ENDBRANCH   3   6
ENDBRANCH   1   2
BRANCH   1  25
ATOM     25  C   UNL A   1      36.943  21.100  24.608  1.00  0.00     0.023 C 
BRANCH  25  26
ATOM     26  C   UNL A   1      37.839  19.927  25.001  1.00  0.00     0.023 C 
BRANCH  26  27
ATOM     27  C   UNL A   1      39.111  20.298  25.756  1.00  0.00     0.116 C 
BRANCH  27  28
ATOM     28  N   UNL A   1      40.052  19.195  25.872  1.00  0.00    -0.352 N 
ATOM     29  C   UNL A   1      41.405  19.228  26.105  1.00  0.00     0.251 C 
ATOM     30  H   UNL A   1      39.663  18.296  25.769  1.00  0.00     0.163 HD
ATOM     31  O   UNL A   1      42.073  18.200  26.054  1.00  0.00    -0.269 OA
BRANCH  29  32
ATOM     32  C   UNL A   1      42.058  20.522  26.378  1.00  0.00     0.039 A 
ATOM     33  C   UNL A   1      42.483  21.303  25.301  1.00  0.00     0.014 A 
ATOM     34  C   UNL A   1      42.211  20.978  27.689  1.00  0.00     0.014 A 
ATOM     35  C   UNL A   1      42.995  22.578  25.538  1.00  0.00     0.010 A 
ATOM     36  C   UNL A   1      42.643  22.280  27.917  1.00  0.00     0.010 A 
ATOM     37  C   UNL A   1      43.042  23.092  26.844  1.00  0.00    -0.014 A 
BRANCH  37  38
ATOM     38  C   UNL A   1      43.514  24.474  27.109  1.00  0.00     0.031 A 
ATOM     39  C   UNL A   1      42.558  25.505  27.638  1.00  0.00     0.074 A 
ATOM     40  C   UNL A   1      44.784  24.815  26.813  1.00  0.00     0.049 A 
ATOM     41  N   UNL A   1      42.756  26.778  27.873  1.00  0.00    -0.248 NA
ATOM     42  C   UNL A   1      41.184  25.053  27.910  1.00  0.00     0.031 C 
ATOM     43  C   UNL A   1      45.790  23.920  26.243  1.00  0.00     0.029 A 
ATOM     44  N   UNL A   1      45.441  26.014  26.942  1.00  0.00    -0.354 N 
ATOM     45  C   UNL A   1      41.534  27.277  28.301  1.00  0.00     0.074 A 
ATOM     46  C   UNL A   1      40.585  26.188  28.239  1.00  0.00     0.031 C 
ATOM     47  C   UNL A   1      46.945  24.591  26.095  1.00  0.00     0.029 A 
ATOM     48  C   UNL A   1      46.749  25.972  26.527  1.00  0.00     0.049 A 
ATOM     49  H   UNL A   1      45.014  26.826  27.299  1.00  0.00     0.167 HD
ATOM     50  C   UNL A   1      41.236  28.525  28.735  1.00  0.00     0.037 A 
ATOM     51  C   UNL A   1      47.684  26.941  26.495  1.00  0.00     0.037 A 
ATOM     52  C   UNL A   1      42.191  29.598  28.825  1.00  0.00     0.049 A 
ATOM     53  C   UNL A   1      47.330  28.317  26.992  1.00  0.00     0.074 A 
ATOM     54  C   UNL A   1      42.004  30.882  29.305  1.00  0.00     0.029 A 
ATOM     55  N   UNL A   1      43.516  29.509  28.423  1.00  0.00    -0.354 N 
ATOM     56  N   UNL A   1      46.189  28.760  27.463  1.00  0.00    -0.248 NA
ATOM     57  C   UNL A   1      48.398  29.326  26.964  1.00  0.00     0.031 C 
ATOM     58  C   UNL A   1      43.205  31.583  29.156  1.00  0.00     0.029 A 
ATOM     59  C   UNL A   1      44.154  30.721  28.631  1.00  0.00     0.049 A 
ATOM     60  H   UNL A   1      43.941  28.704  28.047  1.00  0.00     0.167 HD
ATOM     61  C   UNL A   1      46.410  30.083  27.816  1.00  0.00     0.074 A 
ATOM     62  C   UNL A   1      47.797  30.369  27.517  1.00  0.00     0.031 C 
ATOM     63  C   UNL A   1      45.541  30.983  28.341  1.00  0.00     0.037 A 
BRANCH  50  64
ATOM     64  C   UNL A   1      39.820  28.793  29.152  1.00  0.00     0.064 A 
ATOM     65  C   UNL A   1      39.394  28.607  30.476  1.00  0.00     0.173 A 
ATOM     66  C   UNL A   1      38.881  29.268  28.224  1.00  0.00     0.173 A 
ATOM     67  F   UNL A   1      40.249  28.142  31.401  1.00  0.00    -0.203 F 
ATOM     68  C   UNL A   1      38.076  28.855  30.849  1.00  0.00     0.198 A 
ATOM     69  C   UNL A   1      37.572  29.546  28.607  1.00  0.00     0.198 A 
ATOM     70  F   UNL A   1      39.234  29.468  26.945  1.00  0.00    -0.203 F 
ATOM     71  F   UNL A   1      37.681  28.619  32.108  1.00  0.00    -0.200 F 
ATOM     72  C   UNL A   1      37.168  29.331  29.916  1.00  0.00     0.200 A 
ATOM     73  F   UNL A   1      36.698  30.019  27.707  1.00  0.00    -0.200 F 
ATOM     74  F   UNL A   1      35.901  29.576  30.277  1.00  0.00    -0.200 F 
ENDBRANCH  50  64
BRANCH  51  75
ATOM     75  C   UNL A   1      49.055  26.637  26.009  1.00  0.00     0.064 A 
ATOM     76  C   UNL A   1      50.004  26.045  26.855  1.00  0.00     0.173 A 
ATOM     77  C   UNL A   1      49.449  26.938  24.696  1.00  0.00     0.173 A 
ATOM     78  F   UNL A   1      49.681  25.757  28.124  1.00  0.00    -0.203 F 
ATOM     79  C   UNL A   1      51.300  25.787  26.414  1.00  0.00     0.198 A 
ATOM     80  C   UNL A   1      50.737  26.653  24.249  1.00  0.00     0.198 A 
ATOM     81  F   UNL A   1      48.578  27.499  23.845  1.00  0.00    -0.203 F 
ATOM     82  F   UNL A   1      52.200  25.266  27.259  1.00  0.00    -0.200 F 
ATOM     83  C   UNL A   1      51.665  26.087  25.110  1.00  0.00     0.200 A 
ATOM     84  F   UNL A   1      51.081  26.931  22.984  1.00  0.00    -0.200 F 
ATOM     85  F   UNL A   1      52.911  25.837  24.687  1.00  0.00    -0.200 F 
ENDBRANCH  51  75
BRANCH  63  86
ATOM     86  C   UNL A   1      46.077  32.346  28.668  1.00  0.00     0.064 A 
ATOM     87  C   UNL A   1      46.037  33.398  27.743  1.00  0.00     0.173 A 
ATOM     88  C   UNL A   1      46.602  32.611  29.943  1.00  0.00     0.173 A 
ATOM     89  F   UNL A   1      45.556  33.192  26.507  1.00  0.00    -0.203 F 
ATOM     90  C   UNL A   1      46.528  34.659  28.070  1.00  0.00     0.198 A 
ATOM     91  C   UNL A   1      47.065  33.881  30.277  1.00  0.00     0.198 A 
ATOM     92  F   UNL A   1      46.657  31.640  30.868  1.00  0.00    -0.203 F 
ATOM     93  F   UNL A   1      46.525  35.636  27.154  1.00  0.00    -0.200 F 
ATOM     94  C   UNL A   1      47.035  34.901  29.339  1.00  0.00     0.200 A 
ATOM     95  F   UNL A   1      47.541  34.116  31.508  1.00  0.00    -0.200 F 
ATOM     96  F   UNL A   1      47.501  36.117  29.655  1.00  0.00    -0.200 F 
ENDBRANCH  63  86
ENDBRANCH  37  38
ENDBRANCH  29  32
ENDBRANCH  27  28
ENDBRANCH  26  27
ENDBRANCH  25  26
ENDBRANCH   1  25
TORSDOF 18
ENDMDL
