MODEL 1
REMARK VINA RESULT:     -12.8      0.000      0.000
REMARK SMILES O=C(NCCCCNC(=O)c1sccc1S(=O)(=O)N1CCO[C@@H]2CCCC[C@@H]21)c1ccc(-c2c3nc(c(-c4c(F)c(F)c(F)c(F)c4F)c4ccc([nH]4)c(-c4c(F)c(F)c(F)c(F)c4F)c4nc(c(-c5c(F)c(F)c(F)c(F)c5F)c5ccc2[nH]5)C=C4)C=C3)cc1
REMARK SMILES IDX 5 1 4 2 3 3 1 4 2 5 29 7 30 8 91 9 31 10 90 11 32 12 33 13
REMARK SMILES IDX 34 14 84 15 35 16 89 17 83 18 85 19 36 20 88 21 82 22 81 23
REMARK SMILES IDX 37 25 69 26 49 27 68 28 50 29 53 30 67 31 86 32 51 33 52 34
REMARK SMILES IDX 66 36 87 37 54 38 38 39 39 40 47 41 40 42 41 43 45 44 48 45
REMARK SMILES IDX 42 46 43 47 46 48 44 49 70 50 71 51 79 52 72 53 73 54 77 55
REMARK SMILES IDX 80 56 74 57 75 58 78 59 76 60 55 61 56 62 64 63 57 64 58 65
REMARK SMILES IDX 62 66 65 67 59 68 60 69 63 70 61 71 6 72 7 73 8 74 9 75
REMARK SMILES IDX 10 77 11 78 12 79 15 80 13 81 14 82 16 83 17 84 18 85 19 86
REMARK SMILES IDX 20 87 28 88 21 89 23 90 27 91 22 92 24 93 26 94 25 95
REMARK H PARENT 3 6 85 24 53 35 8 76
REMARK Flexibility Score: inf
ROOT
ATOM      1  C   UNL A   1      31.254  31.545  26.894  1.00  0.00     0.023 C 
ENDROOT
BRANCH   1   2
ATOM      2  C   UNL A   1      32.069  32.712  26.325  1.00  0.00     0.116 C 
BRANCH   2   3
ATOM      3  N   UNL A   1      32.145  33.823  27.252  1.00  0.00    -0.352 N 
ATOM      4  O   UNL A   1      32.673  35.019  29.050  1.00  0.00    -0.269 OA
ATOM      5  C   UNL A   1      33.006  34.120  28.275  1.00  0.00     0.251 C 
ATOM      6  H   UNL A   1      31.440  34.497  27.118  1.00  0.00     0.163 HD
BRANCH   5   7
ATOM      7  C   UNL A   1      34.319  33.451  28.507  1.00  0.00     0.039 A 
ATOM      8  C   UNL A   1      35.549  34.115  28.476  1.00  0.00     0.014 A 
ATOM      9  C   UNL A   1      34.281  32.142  29.017  1.00  0.00     0.014 A 
ATOM     10  C   UNL A   1      36.715  33.481  28.962  1.00  0.00     0.010 A 
ATOM     11  C   UNL A   1      35.432  31.525  29.528  1.00  0.00     0.010 A 
ATOM     12  C   UNL A   1      36.664  32.192  29.529  1.00  0.00    -0.014 A 
BRANCH  12  13
ATOM     13  C   UNL A   1      37.831  31.583  30.248  1.00  0.00     0.031 A 
ATOM     14  C   UNL A   1      38.699  30.530  29.603  1.00  0.00     0.074 A 
ATOM     15  C   UNL A   1      38.049  31.884  31.546  1.00  0.00     0.049 A 
ATOM     16  N   UNL A   1      39.678  29.828  30.125  1.00  0.00    -0.248 NA
ATOM     17  C   UNL A   1      38.427  30.218  28.194  1.00  0.00     0.031 C 
ATOM     18  C   UNL A   1      37.262  32.832  32.334  1.00  0.00     0.029 A 
ATOM     19  N   UNL A   1      38.974  31.397  32.444  1.00  0.00    -0.354 N 
ATOM     20  C   UNL A   1      40.127  28.983  29.118  1.00  0.00     0.074 A 
ATOM     21  C   UNL A   1      39.303  29.249  27.956  1.00  0.00     0.031 C 
ATOM     22  C   UNL A   1      37.729  32.854  33.592  1.00  0.00     0.029 A 
ATOM     23  C   UNL A   1      38.824  31.893  33.718  1.00  0.00     0.049 A 
ATOM     24  H   UNL A   1      39.677  30.754  32.197  1.00  0.00     0.167 HD
ATOM     25  C   UNL A   1      41.137  28.076  29.153  1.00  0.00     0.037 A 
ATOM     26  C   UNL A   1      39.464  31.597  34.868  1.00  0.00     0.037 A 
ATOM     27  C   UNL A   1      41.983  27.816  30.292  1.00  0.00     0.049 A 
ATOM     28  C   UNL A   1      40.560  30.566  34.884  1.00  0.00     0.074 A 
ATOM     29  C   UNL A   1      43.105  27.005  30.361  1.00  0.00     0.029 A 
ATOM     30  N   UNL A   1      41.794  28.340  31.559  1.00  0.00    -0.354 N 
ATOM     31  N   UNL A   1      41.041  29.856  33.895  1.00  0.00    -0.248 NA
ATOM     32  C   UNL A   1      41.198  30.290  36.182  1.00  0.00     0.031 C 
ATOM     33  C   UNL A   1      43.562  26.993  31.684  1.00  0.00     0.029 A 
ATOM     34  C   UNL A   1      42.750  27.832  32.428  1.00  0.00     0.049 A 
ATOM     35  H   UNL A   1      41.087  28.978  31.808  1.00  0.00     0.167 HD
ATOM     36  C   UNL A   1      42.039  29.061  34.445  1.00  0.00     0.074 A 
ATOM     37  C   UNL A   1      42.112  29.387  35.851  1.00  0.00     0.031 C 
ATOM     38  C   UNL A   1      42.821  28.141  33.831  1.00  0.00     0.037 A 
BRANCH  25  39
ATOM     39  C   UNL A   1      41.408  27.273  27.915  1.00  0.00     0.064 A 
ATOM     40  C   UNL A   1      42.261  27.746  26.908  1.00  0.00     0.173 A 
ATOM     41  C   UNL A   1      40.902  25.968  27.793  1.00  0.00     0.173 A 
ATOM     42  F   UNL A   1      42.772  28.983  26.982  1.00  0.00    -0.203 F 
ATOM     43  C   UNL A   1      42.590  26.945  25.817  1.00  0.00     0.198 A 
ATOM     44  C   UNL A   1      41.251  25.165  26.710  1.00  0.00     0.198 A 
ATOM     45  F   UNL A   1      40.096  25.464  28.739  1.00  0.00    -0.203 F 
ATOM     46  F   UNL A   1      43.395  27.422  24.857  1.00  0.00    -0.200 F 
ATOM     47  C   UNL A   1      42.092  25.654  25.723  1.00  0.00     0.200 A 
ATOM     48  F   UNL A   1      40.782  23.911  26.631  1.00  0.00    -0.200 F 
ATOM     49  F   UNL A   1      42.427  24.879  24.682  1.00  0.00    -0.200 F 
ENDBRANCH  25  39
BRANCH  26  50
ATOM     50  C   UNL A   1      39.064  32.272  36.131  1.00  0.00     0.064 A 
ATOM     51  C   UNL A   1      39.580  33.529  36.473  1.00  0.00     0.173 A 
ATOM     52  C   UNL A   1      38.180  31.661  37.032  1.00  0.00     0.173 A 
ATOM     53  F   UNL A   1      40.456  34.136  35.659  1.00  0.00    -0.203 F 
ATOM     54  C   UNL A   1      39.237  34.144  37.675  1.00  0.00     0.198 A 
ATOM     55  C   UNL A   1      37.816  32.289  38.221  1.00  0.00     0.198 A 
ATOM     56  F   UNL A   1      37.666  30.454  36.754  1.00  0.00    -0.203 F 
ATOM     57  F   UNL A   1      39.780  35.326  37.999  1.00  0.00    -0.200 F 
ATOM     58  C   UNL A   1      38.350  33.527  38.544  1.00  0.00     0.200 A 
ATOM     59  F   UNL A   1      36.953  31.693  39.054  1.00  0.00    -0.200 F 
ATOM     60  F   UNL A   1      38.019  34.120  39.699  1.00  0.00    -0.200 F 
ENDBRANCH  26  50
BRANCH  38  61
ATOM     61  C   UNL A   1      43.830  27.414  34.671  1.00  0.00     0.064 A 
ATOM     62  C   UNL A   1      43.550  26.155  35.220  1.00  0.00     0.173 A 
ATOM     63  C   UNL A   1      45.103  27.960  34.895  1.00  0.00     0.173 A 
ATOM     64  F   UNL A   1      42.341  25.598  35.049  1.00  0.00    -0.203 F 
ATOM     65  C   UNL A   1      44.502  25.474  35.977  1.00  0.00     0.198 A 
ATOM     66  C   UNL A   1      46.060  27.266  35.632  1.00  0.00     0.198 A 
ATOM     67  F   UNL A   1      45.423  29.160  34.390  1.00  0.00    -0.203 F 
ATOM     68  F   UNL A   1      44.200  24.288  36.521  1.00  0.00    -0.200 F 
ATOM     69  C   UNL A   1      45.758  26.027  36.176  1.00  0.00     0.200 A 
ATOM     70  F   UNL A   1      47.276  27.799  35.817  1.00  0.00    -0.200 F 
ATOM     71  F   UNL A   1      46.675  25.369  36.898  1.00  0.00    -0.200 F 
ENDBRANCH  38  61
ENDBRANCH  12  13
ENDBRANCH   5   7
ENDBRANCH   2   3
ENDBRANCH   1   2
BRANCH   1  72
ATOM     72  C   UNL A   1      31.909  30.149  26.878  1.00  0.00     0.023 C 
BRANCH  72  73
ATOM     73  C   UNL A   1      33.128  29.954  25.982  1.00  0.00     0.116 C 
BRANCH  73  74
ATOM     74  N   UNL A   1      32.778  29.707  24.604  1.00  0.00    -0.351 N 
ATOM     75  C   UNL A   1      32.658  28.420  24.135  1.00  0.00     0.262 C 
ATOM     76  H   UNL A   1      32.624  30.465  23.995  1.00  0.00     0.163 HD
ATOM     77  O   UNL A   1      33.641  27.809  23.730  1.00  0.00    -0.268 OA
BRANCH  75  78
ATOM     78  C   UNL A   1      31.322  27.860  24.248  1.00  0.00     0.112 A 
ATOM     79  S   UNL A   1      30.100  28.709  23.363  1.00  0.00    -0.137 S 
ATOM     80  C   UNL A   1      30.815  26.703  24.827  1.00  0.00     0.106 A 
ATOM     81  C   UNL A   1      29.001  27.420  23.502  1.00  0.00     0.067 A 
ATOM     82  C   UNL A   1      29.484  26.431  24.329  1.00  0.00     0.034 A 
BRANCH  80  83
ATOM     83  S   UNL A   1      31.655  25.526  25.828  1.00  0.00     0.245 S 
ATOM     84  O   UNL A   1      32.530  26.332  26.623  1.00  0.00    -0.207 OA
ATOM     85  O   UNL A   1      30.545  24.804  26.457  1.00  0.00    -0.207 OA
BRANCH  83  86
ATOM     86  N   UNL A   1      32.571  24.374  24.957  1.00  0.00    -0.190 NA
ATOM     87  C   UNL A   1      32.114  24.113  23.553  1.00  0.00     0.131 C 
ATOM     88  C   UNL A   1      34.070  24.210  25.207  1.00  0.00     0.102 C 
ATOM     89  C   UNL A   1      33.173  24.473  22.520  1.00  0.00     0.177 C 
ATOM     90  C   UNL A   1      34.988  24.179  23.946  1.00  0.00     0.136 C 
ATOM     91  C   UNL A   1      34.354  23.034  26.152  1.00  0.00     0.023 C 
ATOM     92  O   UNL A   1      34.342  23.703  22.766  1.00  0.00    -0.375 OA
ATOM     93  C   UNL A   1      36.241  23.321  24.152  1.00  0.00     0.034 C 
ATOM     94  C   UNL A   1      34.733  21.734  25.467  1.00  0.00     0.002 C 
ATOM     95  C   UNL A   1      35.907  21.873  24.508  1.00  0.00     0.003 C 
ENDBRANCH  83  86
ENDBRANCH  80  83
ENDBRANCH  75  78
ENDBRANCH  73  74
ENDBRANCH  72  73
ENDBRANCH   1  72
TORSDOF 13
ENDMDL
MODEL 2
REMARK VINA RESULT:     -12.8      1.489      2.536
REMARK SMILES O=C(NCCCCNC(=O)c1sccc1S(=O)(=O)N1CCO[C@@H]2CCCC[C@@H]21)c1ccc(-c2c3nc(c(-c4c(F)c(F)c(F)c(F)c4F)c4ccc([nH]4)c(-c4c(F)c(F)c(F)c(F)c4F)c4nc(c(-c5c(F)c(F)c(F)c(F)c5F)c5ccc2[nH]5)C=C4)C=C3)cc1
REMARK SMILES IDX 5 1 4 2 3 3 1 4 2 5 29 7 30 8 91 9 31 10 90 11 32 12 33 13
REMARK SMILES IDX 34 14 84 15 35 16 89 17 83 18 85 19 36 20 88 21 82 22 81 23
REMARK SMILES IDX 37 25 69 26 49 27 68 28 50 29 53 30 67 31 86 32 51 33 52 34
REMARK SMILES IDX 66 36 87 37 54 38 38 39 39 40 47 41 40 42 41 43 45 44 48 45
REMARK SMILES IDX 42 46 43 47 46 48 44 49 70 50 71 51 79 52 72 53 73 54 77 55
REMARK SMILES IDX 80 56 74 57 75 58 78 59 76 60 55 61 56 62 64 63 57 64 58 65
REMARK SMILES IDX 62 66 65 67 59 68 60 69 63 70 61 71 6 72 7 73 8 74 9 75
REMARK SMILES IDX 10 77 11 78 12 79 15 80 13 81 14 82 16 83 17 84 18 85 19 86
REMARK SMILES IDX 20 87 28 88 21 89 23 90 27 91 22 92 24 93 26 94 25 95
REMARK H PARENT 3 6 85 24 53 35 8 76
REMARK Flexibility Score: inf
ROOT
ATOM      1  C   UNL A   1      31.603  32.044  26.886  1.00  0.00     0.023 C 
ENDROOT
BRANCH   1   2
ATOM      2  C   UNL A   1      32.862  32.840  27.247  1.00  0.00     0.116 C 
BRANCH   2   3
ATOM      3  N   UNL A   1      32.552  34.204  27.623  1.00  0.00    -0.352 N 
ATOM      4  O   UNL A   1      32.367  36.048  28.850  1.00  0.00    -0.269 OA
ATOM      5  C   UNL A   1      32.997  35.010  28.637  1.00  0.00     0.251 C 
ATOM      6  H   UNL A   1      31.893  34.636  27.033  1.00  0.00     0.163 HD
BRANCH   5   7
ATOM      7  C   UNL A   1      34.194  34.735  29.483  1.00  0.00     0.039 A 
ATOM      8  C   UNL A   1      34.127  34.297  30.809  1.00  0.00     0.014 A 
ATOM      9  C   UNL A   1      35.435  34.686  28.826  1.00  0.00     0.014 A 
ATOM     10  C   UNL A   1      35.283  33.805  31.457  1.00  0.00     0.010 A 
ATOM     11  C   UNL A   1      36.575  34.170  29.460  1.00  0.00     0.010 A 
ATOM     12  C   UNL A   1      36.513  33.700  30.779  1.00  0.00    -0.014 A 
BRANCH  12  13
ATOM     13  C   UNL A   1      37.696  32.985  31.362  1.00  0.00     0.031 A 
ATOM     14  C   UNL A   1      38.289  31.763  30.704  1.00  0.00     0.074 A 
ATOM     15  C   UNL A   1      38.174  33.357  32.568  1.00  0.00     0.049 A 
ATOM     16  N   UNL A   1      39.241  30.969  31.134  1.00  0.00    -0.248 NA
ATOM     17  C   UNL A   1      37.736  31.378  29.399  1.00  0.00     0.031 C 
ATOM     18  C   UNL A   1      37.671  34.476  33.366  1.00  0.00     0.029 A 
ATOM     19  N   UNL A   1      39.169  32.815  33.353  1.00  0.00    -0.354 N 
ATOM     20  C   UNL A   1      39.391  29.985  30.165  1.00  0.00     0.074 A 
ATOM     21  C   UNL A   1      38.420  30.273  29.129  1.00  0.00     0.031 C 
ATOM     22  C   UNL A   1      38.350  34.533  34.522  1.00  0.00     0.029 A 
ATOM     23  C   UNL A   1      39.311  33.433  34.574  1.00  0.00     0.049 A 
ATOM     24  H   UNL A   1      39.725  32.055  33.068  1.00  0.00     0.167 HD
ATOM     25  C   UNL A   1      40.261  28.943  30.136  1.00  0.00     0.037 A 
ATOM     26  C   UNL A   1      40.096  33.142  35.631  1.00  0.00     0.037 A 
ATOM     27  C   UNL A   1      41.251  28.656  31.144  1.00  0.00     0.049 A 
ATOM     28  C   UNL A   1      41.031  31.963  35.581  1.00  0.00     0.074 A 
ATOM     29  C   UNL A   1      42.249  27.694  31.120  1.00  0.00     0.029 A 
ATOM     30  N   UNL A   1      41.357  29.306  32.362  1.00  0.00    -0.354 N 
ATOM     31  N   UNL A   1      41.233  31.108  34.611  1.00  0.00    -0.248 NA
ATOM     32  C   UNL A   1      41.843  31.704  36.783  1.00  0.00     0.031 C 
ATOM     33  C   UNL A   1      42.924  27.725  32.346  1.00  0.00     0.029 A 
ATOM     34  C   UNL A   1      42.373  28.735  33.116  1.00  0.00     0.049 A 
ATOM     35  H   UNL A   1      40.796  30.062  32.651  1.00  0.00     0.167 HD
ATOM     36  C   UNL A   1      42.197  30.222  35.076  1.00  0.00     0.074 A 
ATOM     37  C   UNL A   1      42.556  30.650  36.409  1.00  0.00     0.031 C 
ATOM     38  C   UNL A   1      42.729  29.147  34.448  1.00  0.00     0.037 A 
BRANCH  25  39
ATOM     39  C   UNL A   1      40.202  28.007  28.964  1.00  0.00     0.064 A 
ATOM     40  C   UNL A   1      40.925  28.258  27.790  1.00  0.00     0.173 A 
ATOM     41  C   UNL A   1      39.510  26.789  29.065  1.00  0.00     0.173 A 
ATOM     42  F   UNL A   1      41.605  29.405  27.648  1.00  0.00    -0.203 F 
ATOM     43  C   UNL A   1      40.949  27.329  26.753  1.00  0.00     0.198 A 
ATOM     44  C   UNL A   1      39.553  25.854  28.034  1.00  0.00     0.198 A 
ATOM     45  F   UNL A   1      38.818  26.495  30.176  1.00  0.00    -0.203 F 
ATOM     46  F   UNL A   1      41.633  27.595  25.632  1.00  0.00    -0.200 F 
ATOM     47  C   UNL A   1      40.270  26.125  26.879  1.00  0.00     0.200 A 
ATOM     48  F   UNL A   1      38.911  24.684  28.165  1.00  0.00    -0.200 F 
ATOM     49  F   UNL A   1      40.311  25.224  25.888  1.00  0.00    -0.200 F 
ENDBRANCH  25  39
BRANCH  26  50
ATOM     50  C   UNL A   1      40.017  33.973  36.861  1.00  0.00     0.064 A 
ATOM     51  C   UNL A   1      39.158  33.628  37.913  1.00  0.00     0.173 A 
ATOM     52  C   UNL A   1      40.781  35.141  36.998  1.00  0.00     0.173 A 
ATOM     53  F   UNL A   1      38.382  32.538  37.811  1.00  0.00    -0.203 F 
ATOM     54  C   UNL A   1      39.054  34.426  39.049  1.00  0.00     0.198 A 
ATOM     55  C   UNL A   1      40.697  35.925  38.146  1.00  0.00     0.198 A 
ATOM     56  F   UNL A   1      41.612  35.519  36.015  1.00  0.00    -0.203 F 
ATOM     57  F   UNL A   1      38.190  34.099  40.019  1.00  0.00    -0.200 F 
ATOM     58  C   UNL A   1      39.829  35.571  39.167  1.00  0.00     0.200 A 
ATOM     59  F   UNL A   1      41.453  37.025  38.260  1.00  0.00    -0.200 F 
ATOM     60  F   UNL A   1      39.730  36.338  40.262  1.00  0.00    -0.200 F 
ENDBRANCH  26  50
BRANCH  38  61
ATOM     61  C   UNL A   1      43.763  28.350  35.188  1.00  0.00     0.064 A 
ATOM     62  C   UNL A   1      45.123  28.684  35.124  1.00  0.00     0.173 A 
ATOM     63  C   UNL A   1      43.390  27.269  36.000  1.00  0.00     0.173 A 
ATOM     64  F   UNL A   1      45.534  29.698  34.347  1.00  0.00    -0.203 F 
ATOM     65  C   UNL A   1      46.075  27.956  35.835  1.00  0.00     0.198 A 
ATOM     66  C   UNL A   1      44.341  26.558  36.728  1.00  0.00     0.198 A 
ATOM     67  F   UNL A   1      42.101  26.910  36.098  1.00  0.00    -0.203 F 
ATOM     68  F   UNL A   1      47.373  28.271  35.731  1.00  0.00    -0.200 F 
ATOM     69  C   UNL A   1      45.682  26.899  36.642  1.00  0.00     0.200 A 
ATOM     70  F   UNL A   1      43.959  25.541  37.514  1.00  0.00    -0.200 F 
ATOM     71  F   UNL A   1      46.598  26.202  37.331  1.00  0.00    -0.200 F 
ENDBRANCH  38  61
ENDBRANCH  12  13
ENDBRANCH   5   7
ENDBRANCH   2   3
ENDBRANCH   1   2
BRANCH   1  72
ATOM     72  C   UNL A   1      31.767  30.529  26.643  1.00  0.00     0.023 C 
BRANCH  72  73
ATOM     73  C   UNL A   1      33.096  30.049  26.071  1.00  0.00     0.116 C 
BRANCH  73  74
ATOM     74  N   UNL A   1      33.010  29.690  24.676  1.00  0.00    -0.351 N 
ATOM     75  C   UNL A   1      32.787  28.384  24.305  1.00  0.00     0.262 C 
ATOM     76  H   UNL A   1      33.111  30.384  23.985  1.00  0.00     0.163 HD
ATOM     77  O   UNL A   1      33.723  27.601  24.186  1.00  0.00    -0.268 OA
BRANCH  75  78
ATOM     78  C   UNL A   1      31.385  28.031  24.160  1.00  0.00     0.112 A 
ATOM     79  S   UNL A   1      30.528  28.931  22.956  1.00  0.00    -0.137 S 
ATOM     80  C   UNL A   1      30.590  27.029  24.703  1.00  0.00     0.106 A 
ATOM     81  C   UNL A   1      29.233  27.831  22.950  1.00  0.00     0.067 A 
ATOM     82  C   UNL A   1      29.367  26.887  23.943  1.00  0.00     0.034 A 
BRANCH  80  83
ATOM     83  S   UNL A   1      31.003  25.871  25.961  1.00  0.00     0.245 S 
ATOM     84  O   UNL A   1      31.685  26.668  26.934  1.00  0.00    -0.207 OA
ATOM     85  O   UNL A   1      29.700  25.279  26.278  1.00  0.00    -0.207 OA
BRANCH  83  86
ATOM     86  N   UNL A   1      32.021  24.596  25.450  1.00  0.00    -0.190 NA
ATOM     87  C   UNL A   1      33.400  24.593  26.042  1.00  0.00     0.131 C 
ATOM     88  C   UNL A   1      31.448  23.224  25.100  1.00  0.00     0.102 C 
ATOM     89  C   UNL A   1      33.676  23.342  26.866  1.00  0.00     0.177 C 
ATOM     90  C   UNL A   1      32.158  21.988  25.735  1.00  0.00     0.136 C 
ATOM     91  C   UNL A   1      31.264  23.063  23.585  1.00  0.00     0.023 C 
ATOM     92  O   UNL A   1      33.538  22.199  26.033  1.00  0.00    -0.375 OA
ATOM     93  C   UNL A   1      32.073  20.741  24.848  1.00  0.00     0.034 C 
ATOM     94  C   UNL A   1      32.386  22.331  22.874  1.00  0.00     0.002 C 
ATOM     95  C   UNL A   1      32.690  20.962  23.467  1.00  0.00     0.003 C 
ENDBRANCH  83  86
ENDBRANCH  80  83
ENDBRANCH  75  78
ENDBRANCH  73  74
ENDBRANCH  72  73
ENDBRANCH   1  72
TORSDOF 13
ENDMDL
MODEL 3
REMARK VINA RESULT:     -12.6      1.554      2.597
REMARK SMILES O=C(NCCCCNC(=O)c1sccc1S(=O)(=O)N1CCO[C@@H]2CCCC[C@@H]21)c1ccc(-c2c3nc(c(-c4c(F)c(F)c(F)c(F)c4F)c4ccc([nH]4)c(-c4c(F)c(F)c(F)c(F)c4F)c4nc(c(-c5c(F)c(F)c(F)c(F)c5F)c5ccc2[nH]5)C=C4)C=C3)cc1
REMARK SMILES IDX 5 1 4 2 3 3 1 4 2 5 29 7 30 8 91 9 31 10 90 11 32 12 33 13
REMARK SMILES IDX 34 14 84 15 35 16 89 17 83 18 85 19 36 20 88 21 82 22 81 23
REMARK SMILES IDX 37 25 69 26 49 27 68 28 50 29 53 30 67 31 86 32 51 33 52 34
REMARK SMILES IDX 66 36 87 37 54 38 38 39 39 40 47 41 40 42 41 43 45 44 48 45
REMARK SMILES IDX 42 46 43 47 46 48 44 49 70 50 71 51 79 52 72 53 73 54 77 55
REMARK SMILES IDX 80 56 74 57 75 58 78 59 76 60 55 61 56 62 64 63 57 64 58 65
REMARK SMILES IDX 62 66 65 67 59 68 60 69 63 70 61 71 6 72 7 73 8 74 9 75
REMARK SMILES IDX 10 77 11 78 12 79 15 80 13 81 14 82 16 83 17 84 18 85 19 86
REMARK SMILES IDX 20 87 28 88 21 89 23 90 27 91 22 92 24 93 26 94 25 95
REMARK H PARENT 3 6 85 24 53 35 8 76
REMARK Flexibility Score: inf
ROOT
ATOM      1  C   UNL A   1      31.763  31.860  26.946  1.00  0.00     0.023 C 
ENDROOT
BRANCH   1   2
ATOM      2  C   UNL A   1      33.006  32.685  27.297  1.00  0.00     0.116 C 
BRANCH   2   3
ATOM      3  N   UNL A   1      32.672  34.053  27.635  1.00  0.00    -0.352 N 
ATOM      4  O   UNL A   1      32.437  35.922  28.817  1.00  0.00    -0.269 OA
ATOM      5  C   UNL A   1      33.083  34.887  28.641  1.00  0.00     0.251 C 
ATOM      6  H   UNL A   1      32.022  34.464  27.021  1.00  0.00     0.163 HD
BRANCH   5   7
ATOM      7  C   UNL A   1      34.263  34.645  29.521  1.00  0.00     0.039 A 
ATOM      8  C   UNL A   1      34.171  34.215  30.848  1.00  0.00     0.014 A 
ATOM      9  C   UNL A   1      35.522  34.619  28.898  1.00  0.00     0.014 A 
ATOM     10  C   UNL A   1      35.320  33.754  31.530  1.00  0.00     0.010 A 
ATOM     11  C   UNL A   1      36.656  34.134  29.566  1.00  0.00     0.010 A 
ATOM     12  C   UNL A   1      36.570  33.672  30.886  1.00  0.00    -0.014 A 
BRANCH  12  13
ATOM     13  C   UNL A   1      37.752  32.988  31.506  1.00  0.00     0.031 A 
ATOM     14  C   UNL A   1      38.389  31.775  30.874  1.00  0.00     0.074 A 
ATOM     15  C   UNL A   1      38.190  33.381  32.720  1.00  0.00     0.049 A 
ATOM     16  N   UNL A   1      39.347  31.005  31.335  1.00  0.00    -0.248 NA
ATOM     17  C   UNL A   1      37.879  31.368  29.558  1.00  0.00     0.031 C 
ATOM     18  C   UNL A   1      37.642  34.494  33.495  1.00  0.00     0.029 A 
ATOM     19  N   UNL A   1      39.176  32.867  33.536  1.00  0.00    -0.354 N 
ATOM     20  C   UNL A   1      39.543  30.017  30.379  1.00  0.00     0.074 A 
ATOM     21  C   UNL A   1      38.594  30.275  29.315  1.00  0.00     0.031 C 
ATOM     22  C   UNL A   1      38.289  34.576  34.668  1.00  0.00     0.029 A 
ATOM     23  C   UNL A   1      39.272  33.498  34.754  1.00  0.00     0.049 A 
ATOM     24  H   UNL A   1      39.756  32.117  33.271  1.00  0.00     0.167 HD
ATOM     25  C   UNL A   1      40.437  28.995  30.381  1.00  0.00     0.037 A 
ATOM     26  C   UNL A   1      40.036  33.233  35.834  1.00  0.00     0.037 A 
ATOM     27  C   UNL A   1      41.406  28.738  31.418  1.00  0.00     0.049 A 
ATOM     28  C   UNL A   1      40.997  32.075  35.819  1.00  0.00     0.074 A 
ATOM     29  C   UNL A   1      42.425  27.798  31.428  1.00  0.00     0.029 A 
ATOM     30  N   UNL A   1      41.466  29.400  32.632  1.00  0.00    -0.354 N 
ATOM     31  N   UNL A   1      41.243  31.217  34.861  1.00  0.00    -0.248 NA
ATOM     32  C   UNL A   1      41.783  31.844  37.043  1.00  0.00     0.031 C 
ATOM     33  C   UNL A   1      43.067  27.854  32.670  1.00  0.00     0.029 A 
ATOM     34  C   UNL A   1      42.475  28.858  33.417  1.00  0.00     0.049 A 
ATOM     35  H   UNL A   1      40.881  30.146  32.899  1.00  0.00     0.167 HD
ATOM     36  C   UNL A   1      42.214  30.356  35.359  1.00  0.00     0.074 A 
ATOM     37  C   UNL A   1      42.529  30.803  36.697  1.00  0.00     0.031 C 
ATOM     38  C   UNL A   1      42.786  29.288  34.754  1.00  0.00     0.037 A 
BRANCH  25  39
ATOM     39  C   UNL A   1      40.429  28.048  29.216  1.00  0.00     0.064 A 
ATOM     40  C   UNL A   1      39.635  26.894  29.217  1.00  0.00     0.173 A 
ATOM     41  C   UNL A   1      41.132  28.365  28.043  1.00  0.00     0.173 A 
ATOM     42  F   UNL A   1      38.941  26.552  30.313  1.00  0.00    -0.203 F 
ATOM     43  C   UNL A   1      39.552  26.083  28.088  1.00  0.00     0.198 A 
ATOM     44  C   UNL A   1      41.031  27.562  26.910  1.00  0.00     0.198 A 
ATOM     45  F   UNL A   1      41.892  29.469  27.987  1.00  0.00    -0.203 F 
ATOM     46  F   UNL A   1      38.800  24.974  28.114  1.00  0.00    -0.200 F 
ATOM     47  C   UNL A   1      40.244  26.422  26.933  1.00  0.00     0.200 A 
ATOM     48  F   UNL A   1      41.686  27.901  25.790  1.00  0.00    -0.200 F 
ATOM     49  F   UNL A   1      40.147  25.650  25.842  1.00  0.00    -0.200 F 
ENDBRANCH  25  39
BRANCH  26  50
ATOM     50  C   UNL A   1      39.906  34.072  37.054  1.00  0.00     0.064 A 
ATOM     51  C   UNL A   1      40.698  35.214  37.235  1.00  0.00     0.173 A 
ATOM     52  C   UNL A   1      39.007  33.732  38.076  1.00  0.00     0.173 A 
ATOM     53  F   UNL A   1      41.597  35.558  36.300  1.00  0.00    -0.203 F 
ATOM     54  C   UNL A   1      40.605  35.978  38.395  1.00  0.00     0.198 A 
ATOM     55  C   UNL A   1      38.895  34.512  39.225  1.00  0.00     0.198 A 
ATOM     56  F   UNL A   1      38.234  32.643  37.955  1.00  0.00    -0.203 F 
ATOM     57  F   UNL A   1      41.407  37.038  38.563  1.00  0.00    -0.200 F 
ATOM     58  C   UNL A   1      39.699  35.630  39.387  1.00  0.00     0.200 A 
ATOM     59  F   UNL A   1      38.014  34.177  40.176  1.00  0.00    -0.200 F 
ATOM     60  F   UNL A   1      39.609  36.366  40.502  1.00  0.00    -0.200 F 
ENDBRANCH  26  50
BRANCH  38  61
ATOM     61  C   UNL A   1      43.817  28.521  35.527  1.00  0.00     0.064 A 
ATOM     62  C   UNL A   1      45.183  28.816  35.412  1.00  0.00     0.173 A 
ATOM     63  C   UNL A   1      43.438  27.510  36.423  1.00  0.00     0.173 A 
ATOM     64  F   UNL A   1      45.600  29.762  34.556  1.00  0.00    -0.203 F 
ATOM     65  C   UNL A   1      46.133  28.116  36.153  1.00  0.00     0.198 A 
ATOM     66  C   UNL A   1      44.388  26.828  37.180  1.00  0.00     0.198 A 
ATOM     67  F   UNL A   1      42.143  27.190  36.573  1.00  0.00    -0.203 F 
ATOM     68  F   UNL A   1      47.436  28.391  36.001  1.00  0.00    -0.200 F 
ATOM     69  C   UNL A   1      45.735  27.129  37.042  1.00  0.00     0.200 A 
ATOM     70  F   UNL A   1      44.000  25.879  38.043  1.00  0.00    -0.200 F 
ATOM     71  F   UNL A   1      46.649  26.461  37.759  1.00  0.00    -0.200 F 
ENDBRANCH  38  61
ENDBRANCH  12  13
ENDBRANCH   5   7
ENDBRANCH   2   3
ENDBRANCH   1   2
BRANCH   1  72
ATOM     72  C   UNL A   1      31.944  30.336  26.796  1.00  0.00     0.023 C 
BRANCH  72  73
ATOM     73  C   UNL A   1      33.210  29.842  26.106  1.00  0.00     0.116 C 
BRANCH  73  74
ATOM     74  N   UNL A   1      33.034  29.639  24.688  1.00  0.00    -0.351 N 
ATOM     75  C   UNL A   1      32.766  28.385  24.191  1.00  0.00     0.262 C 
ATOM     76  H   UNL A   1      33.104  30.404  24.071  1.00  0.00     0.163 HD
ATOM     77  O   UNL A   1      33.680  27.609  23.930  1.00  0.00    -0.268 OA
BRANCH  75  78
ATOM     78  C   UNL A   1      31.352  28.063  24.096  1.00  0.00     0.112 A 
ATOM     79  S   UNL A   1      30.478  28.971  22.908  1.00  0.00    -0.137 S 
ATOM     80  C   UNL A   1      30.551  27.088  24.677  1.00  0.00     0.106 A 
ATOM     81  C   UNL A   1      29.157  27.902  22.957  1.00  0.00     0.067 A 
ATOM     82  C   UNL A   1      29.301  26.967  23.958  1.00  0.00     0.034 A 
BRANCH  80  83
ATOM     83  S   UNL A   1      30.976  25.936  25.936  1.00  0.00     0.245 S 
ATOM     84  O   UNL A   1      31.655  26.740  26.905  1.00  0.00    -0.207 OA
ATOM     85  O   UNL A   1      29.679  25.334  26.258  1.00  0.00    -0.207 OA
BRANCH  83  86
ATOM     86  N   UNL A   1      32.002  24.668  25.424  1.00  0.00    -0.190 NA
ATOM     87  C   UNL A   1      33.383  24.676  26.011  1.00  0.00     0.131 C 
ATOM     88  C   UNL A   1      31.438  23.290  25.079  1.00  0.00     0.102 C 
ATOM     89  C   UNL A   1      33.672  23.430  26.836  1.00  0.00     0.177 C 
ATOM     90  C   UNL A   1      32.161  22.061  25.714  1.00  0.00     0.136 C 
ATOM     91  C   UNL A   1      31.250  23.125  23.565  1.00  0.00     0.023 C 
ATOM     92  O   UNL A   1      33.540  22.283  26.007  1.00  0.00    -0.375 OA
ATOM     93  C   UNL A   1      32.082  20.812  24.830  1.00  0.00     0.034 C 
ATOM     94  C   UNL A   1      32.376  22.399  22.851  1.00  0.00     0.002 C 
ATOM     95  C   UNL A   1      32.692  21.034  23.447  1.00  0.00     0.003 C 
ENDBRANCH  83  86
ENDBRANCH  80  83
ENDBRANCH  75  78
ENDBRANCH  73  74
ENDBRANCH  72  73
ENDBRANCH   1  72
TORSDOF 13
ENDMDL
