MODEL 1
REMARK VINA RESULT:     -11.6      0.000      0.000
REMARK SMILES CO[C@H](C)[C@@H](NC(=O)OCc1ccccc1)C(=O)NCCCCNC(=O)c1ccc(-c2c3nc(c(-c4c(F)c(F)c(F)c(F)c4F)c4ccc([nH]4)c(-c4c(F)c(F)c(F)c(F)c4F)c4nc(c(-c5c(F)c(F)c(F)c(F)c5F)c5ccc2[nH]5)C=C4)C=C3)cc1
REMARK SMILES IDX 20 1 19 2 17 3 18 4 5 6 3 7 4 8 2 9 1 10 6 11 7 12 8 14 9 15
REMARK SMILES IDX 10 16 11 17 12 18 16 19 13 20 15 21 14 22 21 23 22 24 23 25
REMARK SMILES IDX 24 26 25 27 26 29 27 30 28 31 89 32 29 33 88 34 30 35 31 36
REMARK SMILES IDX 32 37 82 38 33 39 87 40 81 41 83 42 34 43 86 44 80 45 79 46
REMARK SMILES IDX 35 48 67 49 47 50 66 51 48 52 51 53 65 54 84 55 49 56 50 57
REMARK SMILES IDX 64 59 85 60 52 61 36 62 37 63 45 64 38 65 39 66 43 67 46 68
REMARK SMILES IDX 40 69 41 70 44 71 42 72 68 73 69 74 77 75 70 76 71 77 75 78
REMARK SMILES IDX 78 79 72 80 73 81 76 82 74 83 53 84 54 85 62 86 55 87 56 88
REMARK SMILES IDX 60 89 63 90 57 91 58 92 61 93 59 94
REMARK H PARENT 19 5 6 13 24 28 83 47 51 58
REMARK Flexibility Score: inf
ROOT
ATOM      1  C   UNL A   1      32.528  29.598  25.104  1.00  0.00     0.116 C 
ENDROOT
BRANCH   1   2
ATOM      2  N   UNL A   1      31.666  29.697  23.941  1.00  0.00    -0.354 N 
ATOM      3  C   UNL A   1      31.303  28.728  23.048  1.00  0.00     0.245 C 
ATOM      4  O   UNL A   1      30.533  29.059  22.143  1.00  0.00    -0.273 OA
ATOM      5  H   UNL A   1      31.289  30.591  23.770  1.00  0.00     0.163 HD
BRANCH   3   6
ATOM      6  C   UNL A   1      31.930  27.312  23.108  1.00  0.00     0.203 C 
BRANCH   6   7
ATOM      7  C   UNL A   1      31.031  26.459  24.074  1.00  0.00     0.146 C 
ATOM      8  C   UNL A   1      31.708  26.124  25.407  1.00  0.00     0.041 C 
BRANCH   7   9
ATOM      9  O   UNL A   1      29.809  27.116  24.451  1.00  0.00    -0.379 OA
ATOM     10  C   UNL A   1      28.625  26.505  23.952  1.00  0.00     0.195 C 
ENDBRANCH   7   9
ENDBRANCH   6   7
BRANCH   6  11
ATOM     11  N   UNL A   1      32.042  26.727  21.757  1.00  0.00    -0.307 N 
ATOM     12  C   UNL A   1      32.982  25.851  21.302  1.00  0.00     0.408 C 
ATOM     13  H   UNL A   1      31.357  27.003  21.106  1.00  0.00     0.168 HD
ATOM     14  O   UNL A   1      33.000  25.520  20.122  1.00  0.00    -0.225 OA
BRANCH  12  15
ATOM     15  O   UNL A   1      33.902  25.512  22.227  1.00  0.00    -0.445 OA
BRANCH  15  16
ATOM     16  C   UNL A   1      33.704  24.263  22.903  1.00  0.00     0.270 C 
BRANCH  16  17
ATOM     17  C   UNL A   1      34.884  23.888  23.757  1.00  0.00    -0.011 A 
ATOM     18  C   UNL A   1      35.935  23.128  23.222  1.00  0.00     0.007 A 
ATOM     19  C   UNL A   1      34.924  24.232  25.115  1.00  0.00     0.007 A 
ATOM     20  C   UNL A   1      37.009  22.744  24.026  1.00  0.00     0.000 A 
ATOM     21  C   UNL A   1      36.000  23.853  25.914  1.00  0.00     0.000 A 
ATOM     22  C   UNL A   1      37.042  23.110  25.370  1.00  0.00     0.000 A 
ENDBRANCH  16  17
ENDBRANCH  15  16
ENDBRANCH  12  15
ENDBRANCH   6  11
ENDBRANCH   3   6
ENDBRANCH   1   2
BRANCH   1  23
ATOM     23  C   UNL A   1      31.820  30.069  26.364  1.00  0.00     0.023 C 
BRANCH  23  24
ATOM     24  C   UNL A   1      31.643  31.582  26.451  1.00  0.00     0.023 C 
BRANCH  24  25
ATOM     25  C   UNL A   1      32.721  32.301  27.252  1.00  0.00     0.116 C 
BRANCH  25  26
ATOM     26  N   UNL A   1      32.424  33.711  27.455  1.00  0.00    -0.352 N 
ATOM     27  C   UNL A   1      32.974  34.584  28.361  1.00  0.00     0.251 C 
ATOM     28  H   UNL A   1      31.735  34.090  26.863  1.00  0.00     0.163 HD
ATOM     29  O   UNL A   1      32.493  35.697  28.532  1.00  0.00    -0.269 OA
BRANCH  27  30
ATOM     30  C   UNL A   1      34.142  34.149  29.152  1.00  0.00     0.039 A 
ATOM     31  C   UNL A   1      33.933  33.408  30.316  1.00  0.00     0.014 A 
ATOM     32  C   UNL A   1      35.437  34.430  28.711  1.00  0.00     0.014 A 
ATOM     33  C   UNL A   1      35.030  32.884  31.001  1.00  0.00     0.010 A 
ATOM     34  C   UNL A   1      36.521  33.832  29.341  1.00  0.00     0.010 A 
ATOM     35  C   UNL A   1      36.330  33.055  30.494  1.00  0.00    -0.014 A 
BRANCH  35  36
ATOM     36  C   UNL A   1      37.502  32.429  31.155  1.00  0.00     0.031 A 
ATOM     37  C   UNL A   1      38.232  31.300  30.484  1.00  0.00     0.074 A 
ATOM     38  C   UNL A   1      37.866  32.832  32.388  1.00  0.00     0.049 A 
ATOM     39  N   UNL A   1      39.237  30.586  30.923  1.00  0.00    -0.248 NA
ATOM     40  C   UNL A   1      37.750  30.900  29.152  1.00  0.00     0.031 C 
ATOM     41  C   UNL A   1      37.205  33.881  33.165  1.00  0.00     0.029 A 
ATOM     42  N   UNL A   1      38.879  32.400  33.209  1.00  0.00    -0.354 N 
ATOM     43  C   UNL A   1      39.496  29.650  29.931  1.00  0.00     0.074 A 
ATOM     44  C   UNL A   1      38.505  29.843  28.897  1.00  0.00     0.031 C 
ATOM     45  C   UNL A   1      37.845  34.032  34.336  1.00  0.00     0.029 A 
ATOM     46  C   UNL A   1      38.931  33.060  34.413  1.00  0.00     0.049 A 
ATOM     47  H   UNL A   1      39.508  31.686  32.958  1.00  0.00     0.167 HD
ATOM     48  C   UNL A   1      40.489  28.730  29.876  1.00  0.00     0.037 A 
ATOM     49  C   UNL A   1      39.757  32.893  35.464  1.00  0.00     0.037 A 
ATOM     50  C   UNL A   1      41.482  28.553  30.903  1.00  0.00     0.049 A 
ATOM     51  C   UNL A   1      40.840  31.850  35.387  1.00  0.00     0.074 A 
ATOM     52  C   UNL A   1      42.565  27.691  30.915  1.00  0.00     0.029 A 
ATOM     53  N   UNL A   1      41.509  29.247  32.104  1.00  0.00    -0.354 N 
ATOM     54  N   UNL A   1      41.125  31.023  34.410  1.00  0.00    -0.248 NA
ATOM     55  C   UNL A   1      41.721  31.724  36.555  1.00  0.00     0.031 C 
ATOM     56  C   UNL A   1      43.207  27.816  32.151  1.00  0.00     0.029 A 
ATOM     57  C   UNL A   1      42.571  28.808  32.880  1.00  0.00     0.049 A 
ATOM     58  H   UNL A   1      40.869  29.947  32.367  1.00  0.00     0.167 HD
ATOM     59  C   UNL A   1      42.234  30.303  34.832  1.00  0.00     0.074 A 
ATOM     60  C   UNL A   1      42.579  30.801  36.146  1.00  0.00     0.031 C 
ATOM     61  C   UNL A   1      42.908  29.319  34.186  1.00  0.00     0.037 A 
BRANCH  48  62
ATOM     62  C   UNL A   1      40.543  27.838  28.667  1.00  0.00     0.064 A 
ATOM     63  C   UNL A   1      39.844  26.622  28.614  1.00  0.00     0.173 A 
ATOM     64  C   UNL A   1      41.280  28.218  27.536  1.00  0.00     0.173 A 
ATOM     65  F   UNL A   1      39.132  26.204  29.671  1.00  0.00    -0.203 F 
ATOM     66  C   UNL A   1      39.913  25.802  27.490  1.00  0.00     0.198 A 
ATOM     67  C   UNL A   1      41.317  27.414  26.399  1.00  0.00     0.198 A 
ATOM     68  F   UNL A   1      41.962  29.373  27.528  1.00  0.00    -0.203 F 
ATOM     69  F   UNL A   1      39.287  24.617  27.487  1.00  0.00    -0.200 F 
ATOM     70  C   UNL A   1      40.642  26.203  26.381  1.00  0.00     0.200 A 
ATOM     71  F   UNL A   1      42.008  27.811  25.322  1.00  0.00    -0.200 F 
ATOM     72  F   UNL A   1      40.701  25.417  25.297  1.00  0.00    -0.200 F 
ENDBRANCH  48  62
BRANCH  49  73
ATOM     73  C   UNL A   1      39.602  33.749  36.671  1.00  0.00     0.064 A 
ATOM     74  C   UNL A   1      40.242  34.994  36.760  1.00  0.00     0.173 A 
ATOM     75  C   UNL A   1      38.817  33.340  37.760  1.00  0.00     0.173 A 
ATOM     76  F   UNL A   1      41.018  35.421  35.754  1.00  0.00    -0.203 F 
ATOM     77  C   UNL A   1      40.119  35.786  37.899  1.00  0.00     0.198 A 
ATOM     78  C   UNL A   1      38.669  34.149  38.885  1.00  0.00     0.198 A 
ATOM     79  F   UNL A   1      38.180  32.162  37.723  1.00  0.00    -0.203 F 
ATOM     80  F   UNL A   1      40.780  36.949  37.978  1.00  0.00    -0.200 F 
ATOM     81  C   UNL A   1      39.328  35.367  38.958  1.00  0.00     0.200 A 
ATOM     82  F   UNL A   1      37.889  33.747  39.897  1.00  0.00    -0.200 F 
ATOM     83  F   UNL A   1      39.205  36.133  40.051  1.00  0.00    -0.200 F 
ENDBRANCH  49  73
BRANCH  61  84
ATOM     84  C   UNL A   1      44.115  28.741  34.869  1.00  0.00     0.064 A 
ATOM     85  C   UNL A   1      44.030  27.614  35.698  1.00  0.00     0.173 A 
ATOM     86  C   UNL A   1      45.384  29.302  34.653  1.00  0.00     0.173 A 
ATOM     87  F   UNL A   1      42.840  27.048  35.949  1.00  0.00    -0.203 F 
ATOM     88  C   UNL A   1      45.167  27.086  36.308  1.00  0.00     0.198 A 
ATOM     89  C   UNL A   1      46.522  28.750  35.234  1.00  0.00     0.198 A 
ATOM     90  F   UNL A   1      45.524  30.377  33.862  1.00  0.00    -0.203 F 
ATOM     91  F   UNL A   1      45.054  26.040  37.138  1.00  0.00    -0.200 F 
ATOM     92  C   UNL A   1      46.412  27.649  36.068  1.00  0.00     0.200 A 
ATOM     93  F   UNL A   1      47.726  29.285  34.987  1.00  0.00    -0.200 F 
ATOM     94  F   UNL A   1      47.504  27.132  36.646  1.00  0.00    -0.200 F 
ENDBRANCH  61  84
ENDBRANCH  35  36
ENDBRANCH  27  30
ENDBRANCH  25  26
ENDBRANCH  24  25
ENDBRANCH  23  24
ENDBRANCH   1  23
TORSDOF 17
ENDMDL
MODEL 2
REMARK VINA RESULT:     -11.6      3.524      8.495
REMARK SMILES CO[C@H](C)[C@@H](NC(=O)OCc1ccccc1)C(=O)NCCCCNC(=O)c1ccc(-c2c3nc(c(-c4c(F)c(F)c(F)c(F)c4F)c4ccc([nH]4)c(-c4c(F)c(F)c(F)c(F)c4F)c4nc(c(-c5c(F)c(F)c(F)c(F)c5F)c5ccc2[nH]5)C=C4)C=C3)cc1
REMARK SMILES IDX 20 1 19 2 17 3 18 4 5 6 3 7 4 8 2 9 1 10 6 11 7 12 8 14 9 15
REMARK SMILES IDX 10 16 11 17 12 18 16 19 13 20 15 21 14 22 21 23 22 24 23 25
REMARK SMILES IDX 24 26 25 27 26 29 27 30 28 31 89 32 29 33 88 34 30 35 31 36
REMARK SMILES IDX 32 37 82 38 33 39 87 40 81 41 83 42 34 43 86 44 80 45 79 46
REMARK SMILES IDX 35 48 67 49 47 50 66 51 48 52 51 53 65 54 84 55 49 56 50 57
REMARK SMILES IDX 64 59 85 60 52 61 36 62 37 63 45 64 38 65 39 66 43 67 46 68
REMARK SMILES IDX 40 69 41 70 44 71 42 72 68 73 69 74 77 75 70 76 71 77 75 78
REMARK SMILES IDX 78 79 72 80 73 81 76 82 74 83 53 84 54 85 62 86 55 87 56 88
REMARK SMILES IDX 60 89 63 90 57 91 58 92 61 93 59 94
REMARK H PARENT 19 5 6 13 24 28 83 47 51 58
REMARK Flexibility Score: inf
ROOT
ATOM      1  C   UNL A   1      32.488  29.203  24.577  1.00  0.00     0.116 C 
ENDROOT
BRANCH   1   2
ATOM      2  N   UNL A   1      31.546  29.341  23.482  1.00  0.00    -0.354 N 
ATOM      3  C   UNL A   1      31.023  28.379  22.665  1.00  0.00     0.245 C 
ATOM      4  O   UNL A   1      30.214  28.748  21.809  1.00  0.00    -0.273 OA
ATOM      5  H   UNL A   1      31.241  30.260  23.302  1.00  0.00     0.163 HD
BRANCH   3   6
ATOM      6  C   UNL A   1      31.517  26.912  22.739  1.00  0.00     0.203 C 
BRANCH   6   7
ATOM      7  C   UNL A   1      30.423  26.104  23.525  1.00  0.00     0.146 C 
ATOM      8  C   UNL A   1      30.994  25.217  24.636  1.00  0.00     0.041 C 
BRANCH   7   9
ATOM      9  O   UNL A   1      29.462  26.938  24.193  1.00  0.00    -0.379 OA
ATOM     10  C   UNL A   1      28.103  26.607  23.936  1.00  0.00     0.195 C 
ENDBRANCH   7   9
ENDBRANCH   6   7
BRANCH   6  11
ATOM     11  N   UNL A   1      31.775  26.373  21.388  1.00  0.00    -0.307 N 
ATOM     12  C   UNL A   1      32.829  25.611  20.981  1.00  0.00     0.408 C 
ATOM     13  H   UNL A   1      31.106  26.590  20.700  1.00  0.00     0.168 HD
ATOM     14  O   UNL A   1      32.955  25.310  19.799  1.00  0.00    -0.225 OA
BRANCH  12  15
ATOM     15  O   UNL A   1      33.720  25.350  21.957  1.00  0.00    -0.445 OA
BRANCH  15  16
ATOM     16  C   UNL A   1      33.725  24.015  22.483  1.00  0.00     0.270 C 
BRANCH  16  17
ATOM     17  C   UNL A   1      34.816  23.810  23.498  1.00  0.00    -0.011 A 
ATOM     18  C   UNL A   1      35.922  23.001  23.199  1.00  0.00     0.007 A 
ATOM     19  C   UNL A   1      34.715  24.367  24.780  1.00  0.00     0.007 A 
ATOM     20  C   UNL A   1      36.912  22.777  24.155  1.00  0.00     0.000 A 
ATOM     21  C   UNL A   1      35.708  24.147  25.732  1.00  0.00     0.000 A 
ATOM     22  C   UNL A   1      36.807  23.353  25.419  1.00  0.00     0.000 A 
ENDBRANCH  16  17
ENDBRANCH  15  16
ENDBRANCH  12  15
ENDBRANCH   6  11
ENDBRANCH   3   6
ENDBRANCH   1   2
BRANCH   1  23
ATOM     23  C   UNL A   1      31.774  28.981  25.901  1.00  0.00     0.023 C 
BRANCH  23  24
ATOM     24  C   UNL A   1      32.580  28.176  26.916  1.00  0.00     0.023 C 
BRANCH  24  25
ATOM     25  C   UNL A   1      33.956  28.748  27.230  1.00  0.00     0.116 C 
BRANCH  25  26
ATOM     26  N   UNL A   1      33.893  30.100  27.768  1.00  0.00    -0.352 N 
ATOM     27  C   UNL A   1      34.831  30.773  28.511  1.00  0.00     0.251 C 
ATOM     28  H   UNL A   1      33.067  30.597  27.572  1.00  0.00     0.163 HD
ATOM     29  O   UNL A   1      34.559  31.842  29.043  1.00  0.00    -0.269 OA
BRANCH  27  30
ATOM     30  C   UNL A   1      36.168  30.173  28.686  1.00  0.00     0.039 A 
ATOM     31  C   UNL A   1      37.106  30.297  27.660  1.00  0.00     0.014 A 
ATOM     32  C   UNL A   1      36.504  29.538  29.884  1.00  0.00     0.014 A 
ATOM     33  C   UNL A   1      38.410  29.845  27.866  1.00  0.00     0.010 A 
ATOM     34  C   UNL A   1      37.823  29.173  30.120  1.00  0.00     0.010 A 
ATOM     35  C   UNL A   1      38.790  29.319  29.113  1.00  0.00    -0.014 A 
BRANCH  35  36
ATOM     36  C   UNL A   1      40.193  28.919  29.383  1.00  0.00     0.031 A 
ATOM     37  C   UNL A   1      41.110  29.845  30.132  1.00  0.00     0.074 A 
ATOM     38  C   UNL A   1      40.659  27.751  28.898  1.00  0.00     0.049 A 
ATOM     39  N   UNL A   1      42.380  29.703  30.415  1.00  0.00    -0.248 NA
ATOM     40  C   UNL A   1      40.530  31.113  30.600  1.00  0.00     0.031 C 
ATOM     41  C   UNL A   1      39.882  26.792  28.112  1.00  0.00     0.029 A 
ATOM     42  N   UNL A   1      41.903  27.178  28.986  1.00  0.00    -0.354 N 
ATOM     43  C   UNL A   1      42.750  30.864  31.079  1.00  0.00     0.074 A 
ATOM     44  C   UNL A   1      41.591  31.727  31.102  1.00  0.00     0.031 C 
ATOM     45  C   UNL A   1      40.656  25.737  27.815  1.00  0.00     0.029 A 
ATOM     46  C   UNL A   1      41.997  25.965  28.347  1.00  0.00     0.049 A 
ATOM     47  H   UNL A   1      42.656  27.595  29.462  1.00  0.00     0.167 HD
ATOM     48  C   UNL A   1      43.943  31.172  31.643  1.00  0.00     0.037 A 
ATOM     49  C   UNL A   1      43.047  25.135  28.199  1.00  0.00     0.037 A 
ATOM     50  C   UNL A   1      45.089  30.300  31.630  1.00  0.00     0.049 A 
ATOM     51  C   UNL A   1      44.368  25.508  28.819  1.00  0.00     0.074 A 
ATOM     52  C   UNL A   1      46.324  30.492  32.225  1.00  0.00     0.029 A 
ATOM     53  N   UNL A   1      45.143  29.075  30.982  1.00  0.00    -0.354 N 
ATOM     54  N   UNL A   1      44.685  26.574  29.513  1.00  0.00    -0.248 NA
ATOM     55  C   UNL A   1      45.473  24.557  28.641  1.00  0.00     0.031 C 
ATOM     56  C   UNL A   1      47.146  29.414  31.880  1.00  0.00     0.029 A 
ATOM     57  C   UNL A   1      46.402  28.514  31.134  1.00  0.00     0.049 A 
ATOM     58  H   UNL A   1      44.398  28.664  30.486  1.00  0.00     0.167 HD
ATOM     59  C   UNL A   1      46.013  26.408  29.881  1.00  0.00     0.074 A 
ATOM     60  C   UNL A   1      46.438  25.132  29.345  1.00  0.00     0.031 C 
ATOM     61  C   UNL A   1      46.809  27.238  30.600  1.00  0.00     0.037 A 
BRANCH  48  62
ATOM     62  C   UNL A   1      44.069  32.510  32.315  1.00  0.00     0.064 A 
ATOM     63  C   UNL A   1      44.504  33.648  31.619  1.00  0.00     0.173 A 
ATOM     64  C   UNL A   1      43.723  32.662  33.666  1.00  0.00     0.173 A 
ATOM     65  F   UNL A   1      44.858  33.558  30.328  1.00  0.00    -0.203 F 
ATOM     66  C   UNL A   1      44.625  34.879  32.259  1.00  0.00     0.198 A 
ATOM     67  C   UNL A   1      43.809  33.903  34.294  1.00  0.00     0.198 A 
ATOM     68  F   UNL A   1      43.295  31.610  34.379  1.00  0.00    -0.203 F 
ATOM     69  F   UNL A   1      45.101  35.938  31.590  1.00  0.00    -0.200 F 
ATOM     70  C   UNL A   1      44.270  35.007  33.593  1.00  0.00     0.200 A 
ATOM     71  F   UNL A   1      43.450  34.027  35.579  1.00  0.00    -0.200 F 
ATOM     72  F   UNL A   1      44.379  36.194  34.207  1.00  0.00    -0.200 F 
ENDBRANCH  48  62
BRANCH  49  73
ATOM     73  C   UNL A   1      42.886  23.860  27.449  1.00  0.00     0.064 A 
ATOM     74  C   UNL A   1      43.191  23.783  26.083  1.00  0.00     0.173 A 
ATOM     75  C   UNL A   1      42.422  22.696  28.080  1.00  0.00     0.173 A 
ATOM     76  F   UNL A   1      43.619  24.874  25.430  1.00  0.00    -0.203 F 
ATOM     77  C   UNL A   1      43.017  22.598  25.372  1.00  0.00     0.198 A 
ATOM     78  C   UNL A   1      42.281  21.503  27.375  1.00  0.00     0.198 A 
ATOM     79  F   UNL A   1      42.123  22.714  29.387  1.00  0.00    -0.203 F 
ATOM     80  F   UNL A   1      43.269  22.565  24.057  1.00  0.00    -0.200 F 
ATOM     81  C   UNL A   1      42.569  21.456  26.020  1.00  0.00     0.200 A 
ATOM     82  F   UNL A   1      41.865  20.398  28.010  1.00  0.00    -0.200 F 
ATOM     83  F   UNL A   1      42.409  20.314  25.338  1.00  0.00    -0.200 F 
ENDBRANCH  49  73
BRANCH  61  84
ATOM     84  C   UNL A   1      48.209  26.776  30.891  1.00  0.00     0.064 A 
ATOM     85  C   UNL A   1      48.509  25.972  32.000  1.00  0.00     0.173 A 
ATOM     86  C   UNL A   1      49.258  27.108  30.019  1.00  0.00     0.173 A 
ATOM     87  F   UNL A   1      47.547  25.636  32.872  1.00  0.00    -0.203 F 
ATOM     88  C   UNL A   1      49.813  25.541  32.240  1.00  0.00     0.198 A 
ATOM     89  C   UNL A   1      50.551  26.645  30.241  1.00  0.00     0.198 A 
ATOM     90  F   UNL A   1      49.025  27.869  28.938  1.00  0.00    -0.203 F 
ATOM     91  F   UNL A   1      50.086  24.816  33.334  1.00  0.00    -0.200 F 
ATOM     92  C   UNL A   1      50.830  25.870  31.356  1.00  0.00     0.200 A 
ATOM     93  F   UNL A   1      51.529  26.950  29.377  1.00  0.00    -0.200 F 
ATOM     94  F   UNL A   1      52.080  25.445  31.583  1.00  0.00    -0.200 F 
ENDBRANCH  61  84
ENDBRANCH  35  36
ENDBRANCH  27  30
ENDBRANCH  25  26
ENDBRANCH  24  25
ENDBRANCH  23  24
ENDBRANCH   1  23
TORSDOF 17
ENDMDL
MODEL 3
REMARK VINA RESULT:     -11.6      0.423      1.693
REMARK SMILES CO[C@H](C)[C@@H](NC(=O)OCc1ccccc1)C(=O)NCCCCNC(=O)c1ccc(-c2c3nc(c(-c4c(F)c(F)c(F)c(F)c4F)c4ccc([nH]4)c(-c4c(F)c(F)c(F)c(F)c4F)c4nc(c(-c5c(F)c(F)c(F)c(F)c5F)c5ccc2[nH]5)C=C4)C=C3)cc1
REMARK SMILES IDX 20 1 19 2 17 3 18 4 5 6 3 7 4 8 2 9 1 10 6 11 7 12 8 14 9 15
REMARK SMILES IDX 10 16 11 17 12 18 16 19 13 20 15 21 14 22 21 23 22 24 23 25
REMARK SMILES IDX 24 26 25 27 26 29 27 30 28 31 89 32 29 33 88 34 30 35 31 36
REMARK SMILES IDX 32 37 82 38 33 39 87 40 81 41 83 42 34 43 86 44 80 45 79 46
REMARK SMILES IDX 35 48 67 49 47 50 66 51 48 52 51 53 65 54 84 55 49 56 50 57
REMARK SMILES IDX 64 59 85 60 52 61 36 62 37 63 45 64 38 65 39 66 43 67 46 68
REMARK SMILES IDX 40 69 41 70 44 71 42 72 68 73 69 74 77 75 70 76 71 77 75 78
REMARK SMILES IDX 78 79 72 80 73 81 76 82 74 83 53 84 54 85 62 86 55 87 56 88
REMARK SMILES IDX 60 89 63 90 57 91 58 92 61 93 59 94
REMARK H PARENT 19 5 6 13 24 28 83 47 51 58
REMARK Flexibility Score: inf
ROOT
ATOM      1  C   UNL A   1      32.540  29.636  25.405  1.00  0.00     0.116 C 
ENDROOT
BRANCH   1   2
ATOM      2  N   UNL A   1      31.714  29.778  24.221  1.00  0.00    -0.354 N 
ATOM      3  C   UNL A   1      31.367  28.839  23.290  1.00  0.00     0.245 C 
ATOM      4  O   UNL A   1      30.627  29.204  22.373  1.00  0.00    -0.273 OA
ATOM      5  H   UNL A   1      31.352  30.680  24.065  1.00  0.00     0.163 HD
BRANCH   3   6
ATOM      6  C   UNL A   1      31.975  27.414  23.329  1.00  0.00     0.203 C 
BRANCH   6   7
ATOM      7  C   UNL A   1      31.071  26.561  24.290  1.00  0.00     0.146 C 
ATOM      8  C   UNL A   1      30.176  25.556  23.560  1.00  0.00     0.041 C 
BRANCH   7   9
ATOM      9  O   UNL A   1      31.819  25.761  25.222  1.00  0.00    -0.379 OA
ATOM     10  C   UNL A   1      31.053  24.789  25.923  1.00  0.00     0.195 C 
ENDBRANCH   7   9
ENDBRANCH   6   7
BRANCH   6  11
ATOM     11  N   UNL A   1      32.070  26.844  21.969  1.00  0.00    -0.307 N 
ATOM     12  C   UNL A   1      32.988  25.953  21.501  1.00  0.00     0.408 C 
ATOM     13  H   UNL A   1      31.390  27.145  21.324  1.00  0.00     0.168 HD
ATOM     14  O   UNL A   1      32.996  25.637  20.316  1.00  0.00    -0.225 OA
BRANCH  12  15
ATOM     15  O   UNL A   1      33.902  25.580  22.418  1.00  0.00    -0.445 OA
BRANCH  15  16
ATOM     16  C   UNL A   1      33.808  24.236  22.910  1.00  0.00     0.270 C 
BRANCH  16  17
ATOM     17  C   UNL A   1      34.995  23.857  23.752  1.00  0.00    -0.011 A 
ATOM     18  C   UNL A   1      35.942  22.939  23.272  1.00  0.00     0.007 A 
ATOM     19  C   UNL A   1      35.142  24.359  25.051  1.00  0.00     0.007 A 
ATOM     20  C   UNL A   1      37.020  22.555  24.069  1.00  0.00     0.000 A 
ATOM     21  C   UNL A   1      36.223  23.979  25.844  1.00  0.00     0.000 A 
ATOM     22  C   UNL A   1      37.162  23.079  25.353  1.00  0.00     0.000 A 
ENDBRANCH  16  17
ENDBRANCH  15  16
ENDBRANCH  12  15
ENDBRANCH   6  11
ENDBRANCH   3   6
ENDBRANCH   1   2
BRANCH   1  23
ATOM     23  C   UNL A   1      31.844  30.188  26.639  1.00  0.00     0.023 C 
BRANCH  23  24
ATOM     24  C   UNL A   1      31.679  31.705  26.635  1.00  0.00     0.023 C 
BRANCH  24  25
ATOM     25  C   UNL A   1      32.826  32.468  27.285  1.00  0.00     0.116 C 
BRANCH  25  26
ATOM     26  N   UNL A   1      32.498  33.863  27.542  1.00  0.00    -0.352 N 
ATOM     27  C   UNL A   1      33.021  34.709  28.489  1.00  0.00     0.251 C 
ATOM     28  H   UNL A   1      31.808  34.252  26.958  1.00  0.00     0.163 HD
ATOM     29  O   UNL A   1      32.515  35.804  28.700  1.00  0.00    -0.269 OA
BRANCH  27  30
ATOM     30  C   UNL A   1      34.188  34.264  29.276  1.00  0.00     0.039 A 
ATOM     31  C   UNL A   1      33.976  33.576  30.472  1.00  0.00     0.014 A 
ATOM     32  C   UNL A   1      35.483  34.483  28.801  1.00  0.00     0.014 A 
ATOM     33  C   UNL A   1      35.068  33.042  31.157  1.00  0.00     0.010 A 
ATOM     34  C   UNL A   1      36.558  33.873  29.435  1.00  0.00     0.010 A 
ATOM     35  C   UNL A   1      36.363  33.148  30.621  1.00  0.00    -0.014 A 
BRANCH  35  36
ATOM     36  C   UNL A   1      37.525  32.507  31.285  1.00  0.00     0.031 A 
ATOM     37  C   UNL A   1      38.226  31.351  30.629  1.00  0.00     0.074 A 
ATOM     38  C   UNL A   1      37.908  32.925  32.508  1.00  0.00     0.049 A 
ATOM     39  N   UNL A   1      39.218  30.623  31.074  1.00  0.00    -0.248 NA
ATOM     40  C   UNL A   1      37.725  30.938  29.308  1.00  0.00     0.031 C 
ATOM     41  C   UNL A   1      37.276  34.002  33.270  1.00  0.00     0.029 A 
ATOM     42  N   UNL A   1      38.917  32.485  33.329  1.00  0.00    -0.354 N 
ATOM     43  C   UNL A   1      39.448  29.663  30.098  1.00  0.00     0.074 A 
ATOM     44  C   UNL A   1      38.454  29.860  29.067  1.00  0.00     0.031 C 
ATOM     45  C   UNL A   1      37.928  34.159  34.433  1.00  0.00     0.029 A 
ATOM     46  C   UNL A   1      38.993  33.165  34.520  1.00  0.00     0.049 A 
ATOM     47  H   UNL A   1      39.528  31.752  33.087  1.00  0.00     0.167 HD
ATOM     48  C   UNL A   1      40.420  28.720  30.052  1.00  0.00     0.037 A 
ATOM     49  C   UNL A   1      39.822  32.999  35.569  1.00  0.00     0.037 A 
ATOM     50  C   UNL A   1      41.417  28.540  31.075  1.00  0.00     0.049 A 
ATOM     51  C   UNL A   1      40.881  31.931  35.503  1.00  0.00     0.074 A 
ATOM     52  C   UNL A   1      42.480  27.654  31.096  1.00  0.00     0.029 A 
ATOM     53  N   UNL A   1      41.468  29.254  32.263  1.00  0.00    -0.354 N 
ATOM     54  N   UNL A   1      41.140  31.080  34.540  1.00  0.00    -0.248 NA
ATOM     55  C   UNL A   1      41.768  31.806  36.667  1.00  0.00     0.031 C 
ATOM     56  C   UNL A   1      43.134  27.787  32.324  1.00  0.00     0.029 A 
ATOM     57  C   UNL A   1      42.526  28.806  33.040  1.00  0.00     0.049 A 
ATOM     58  H   UNL A   1      40.846  29.973  32.518  1.00  0.00     0.167 HD
ATOM     59  C   UNL A   1      42.236  30.342  34.966  1.00  0.00     0.074 A 
ATOM     60  C   UNL A   1      42.602  30.856  36.269  1.00  0.00     0.031 C 
ATOM     61  C   UNL A   1      42.883  29.332  34.333  1.00  0.00     0.037 A 
BRANCH  48  62
ATOM     62  C   UNL A   1      40.445  27.806  28.859  1.00  0.00     0.064 A 
ATOM     63  C   UNL A   1      39.714  26.609  28.830  1.00  0.00     0.173 A 
ATOM     64  C   UNL A   1      41.188  28.146  27.719  1.00  0.00     0.173 A 
ATOM     65  F   UNL A   1      38.994  26.230  29.897  1.00  0.00    -0.203 F 
ATOM     66  C   UNL A   1      39.756  25.768  27.720  1.00  0.00     0.198 A 
ATOM     67  C   UNL A   1      41.199  27.321  26.596  1.00  0.00     0.198 A 
ATOM     68  F   UNL A   1      41.902  29.281  27.689  1.00  0.00    -0.203 F 
ATOM     69  F   UNL A   1      39.098  24.600  27.741  1.00  0.00    -0.200 F 
ATOM     70  C   UNL A   1      40.492  26.129  26.602  1.00  0.00     0.200 A 
ATOM     71  F   UNL A   1      41.897  27.680  25.511  1.00  0.00    -0.200 F 
ATOM     72  F   UNL A   1      40.526  25.322  25.532  1.00  0.00    -0.200 F 
ENDBRANCH  48  62
BRANCH  49  73
ATOM     73  C   UNL A   1      39.695  33.879  36.761  1.00  0.00     0.064 A 
ATOM     74  C   UNL A   1      38.910  33.499  37.859  1.00  0.00     0.173 A 
ATOM     75  C   UNL A   1      40.353  35.116  36.828  1.00  0.00     0.173 A 
ATOM     76  F   UNL A   1      38.246  32.334  37.836  1.00  0.00    -0.203 F 
ATOM     77  C   UNL A   1      38.770  34.332  38.967  1.00  0.00     0.198 A 
ATOM     78  C   UNL A   1      40.238  35.933  37.951  1.00  0.00     0.198 A 
ATOM     79  F   UNL A   1      41.122  35.524  35.808  1.00  0.00    -0.203 F 
ATOM     80  F   UNL A   1      37.974  33.966  39.980  1.00  0.00    -0.200 F 
ATOM     81  C   UNL A   1      39.439  35.545  39.015  1.00  0.00     0.200 A 
ATOM     82  F   UNL A   1      40.902  37.096  38.000  1.00  0.00    -0.200 F 
ATOM     83  F   UNL A   1      39.310  36.343  40.084  1.00  0.00    -0.200 F 
ENDBRANCH  49  73
BRANCH  61  84
ATOM     84  C   UNL A   1      44.083  28.741  35.019  1.00  0.00     0.064 A 
ATOM     85  C   UNL A   1      45.365  29.290  34.876  1.00  0.00     0.173 A 
ATOM     86  C   UNL A   1      43.935  27.632  35.867  1.00  0.00     0.173 A 
ATOM     87  F   UNL A   1      45.563  30.341  34.067  1.00  0.00    -0.203 F 
ATOM     88  C   UNL A   1      46.459  28.735  35.535  1.00  0.00     0.198 A 
ATOM     89  C   UNL A   1      45.024  27.103  36.554  1.00  0.00     0.198 A 
ATOM     90  F   UNL A   1      42.730  27.071  36.047  1.00  0.00    -0.203 F 
ATOM     91  F   UNL A   1      47.683  29.245  35.343  1.00  0.00    -0.200 F 
ATOM     92  C   UNL A   1      46.287  27.649  36.380  1.00  0.00     0.200 A 
ATOM     93  F   UNL A   1      44.852  26.064  37.383  1.00  0.00    -0.200 F 
ATOM     94  F   UNL A   1      47.339  27.124  37.022  1.00  0.00    -0.200 F 
ENDBRANCH  61  84
ENDBRANCH  35  36
ENDBRANCH  27  30
ENDBRANCH  25  26
ENDBRANCH  24  25
ENDBRANCH  23  24
ENDBRANCH   1  23
TORSDOF 17
ENDMDL
