MODEL 1
REMARK VINA RESULT:     -12.4      0.000      0.000
REMARK SMILES CC(=O)N[C@@H](Cc1cc(Br)c(O)c(Br)c1)C(=O)NCCCCNC(=O)c1ccc(-c2c3nc(c(-c4c(F)c(F)c(F)c(F)c4F)c4ccc([nH]4)c(-c4c(F)c(F)c(F)c(F)c4F)c4nc(c(-c5c(F)c(F)c(F)c(F)c5F)c5ccc2[nH]5)C=C4)C=C3)cc1
REMARK SMILES IDX 20 1 19 2 18 3 16 4 17 5 5 7 4 8 1 9 2 10 3 11 6 13 7 14
REMARK SMILES IDX 8 15 15 16 9 17 13 18 10 19 11 20 14 21 12 22 21 24 22 25
REMARK SMILES IDX 23 26 24 27 25 29 26 30 27 31 88 32 28 33 87 34 29 35 30 36
REMARK SMILES IDX 31 37 81 38 32 39 86 40 80 41 82 42 33 43 85 44 79 45 78 46
REMARK SMILES IDX 34 48 66 49 46 50 65 51 47 52 50 53 64 54 83 55 48 56 49 57
REMARK SMILES IDX 63 59 84 60 51 61 35 62 36 63 44 64 37 65 38 66 42 67 45 68
REMARK SMILES IDX 39 69 40 70 43 71 41 72 67 73 68 74 76 75 69 76 70 77 74 78
REMARK SMILES IDX 77 79 71 80 72 81 75 82 73 83 52 84 53 85 61 86 54 87 55 88
REMARK SMILES IDX 59 89 62 90 56 91 57 92 60 93 58 94
REMARK H PARENT 18 6 4 12 12 23 23 28 82 47 50 58
REMARK Flexibility Score: inf
ROOT
ATOM      1  C   UNL A   1      32.438  30.113  26.663  1.00  0.00     0.023 C 
ENDROOT
BRANCH   1   2
ATOM      2  C   UNL A   1      32.169  29.532  25.283  1.00  0.00     0.116 C 
BRANCH   2   3
ATOM      3  N   UNL A   1      33.283  29.567  24.369  1.00  0.00    -0.354 N 
ATOM      4  C   UNL A   1      33.774  28.565  23.581  1.00  0.00     0.242 C 
ATOM      5  O   UNL A   1      34.454  28.912  22.607  1.00  0.00    -0.273 OA
ATOM      6  H   UNL A   1      33.753  30.430  24.303  1.00  0.00     0.163 HD
BRANCH   4   7
ATOM      7  C   UNL A   1      33.449  27.062  23.794  1.00  0.00     0.175 C 
BRANCH   7   8
ATOM      8  N   UNL A   1      33.684  26.204  22.629  1.00  0.00    -0.344 N 
ATOM      9  C   UNL A   1      31.361  26.207  21.781  1.00  0.00     0.114 C 
ATOM     10  C   UNL A   1      32.810  25.838  21.651  1.00  0.00     0.217 C 
ATOM     11  O   UNL A   1      33.238  25.198  20.692  1.00  0.00    -0.275 OA
ATOM     12  H   UNL A   1      34.595  25.846  22.542  1.00  0.00     0.164 HD
ENDBRANCH   7   8
BRANCH   7  13
ATOM     13  C   UNL A   1      33.935  26.460  25.138  1.00  0.00     0.070 C 
BRANCH  13  14
ATOM     14  C   UNL A   1      33.571  25.049  25.555  1.00  0.00    -0.043 A 
ATOM     15  C   UNL A   1      32.323  24.708  26.090  1.00  0.00     0.023 A 
ATOM     16  C   UNL A   1      34.546  24.039  25.485  1.00  0.00     0.023 A 
ATOM     17  C   UNL A   1      31.998  23.369  26.356  1.00  0.00     0.061 A 
ATOM     18  C   UNL A   1      34.247  22.715  25.828  1.00  0.00     0.061 A 
ATOM     19  Br  UNL A   1      30.219  22.955  26.860  1.00  0.00    -0.047 Br
ATOM     20  C   UNL A   1      32.953  22.364  26.209  1.00  0.00     0.143 A 
ATOM     21  Br  UNL A   1      35.637  21.427  25.738  1.00  0.00    -0.047 Br
BRANCH  20  22
ATOM     22  O   UNL A   1      32.646  21.048  26.422  1.00  0.00    -0.506 OA
ATOM     23  H   UNL A   1      32.599  20.713  27.295  1.00  0.00     0.293 HD
ENDBRANCH  20  22
ENDBRANCH  13  14
ENDBRANCH   7  13
ENDBRANCH   4   7
ENDBRANCH   2   3
ENDBRANCH   1   2
BRANCH   1  24
ATOM     24  C   UNL A   1      31.957  31.541  26.896  1.00  0.00     0.023 C 
BRANCH  24  25
ATOM     25  C   UNL A   1      32.995  32.542  27.395  1.00  0.00     0.116 C 
BRANCH  25  26
ATOM     26  N   UNL A   1      32.475  33.868  27.703  1.00  0.00    -0.352 N 
ATOM     27  C   UNL A   1      32.987  34.845  28.526  1.00  0.00     0.251 C 
ATOM     28  H   UNL A   1      31.629  34.099  27.255  1.00  0.00     0.163 HD
ATOM     29  O   UNL A   1      32.418  35.932  28.613  1.00  0.00    -0.269 OA
BRANCH  27  30
ATOM     30  C   UNL A   1      34.179  34.551  29.353  1.00  0.00     0.039 A 
ATOM     31  C   UNL A   1      33.995  34.080  30.656  1.00  0.00     0.014 A 
ATOM     32  C   UNL A   1      35.466  34.644  28.818  1.00  0.00     0.014 A 
ATOM     33  C   UNL A   1      35.089  33.592  31.378  1.00  0.00     0.010 A 
ATOM     34  C   UNL A   1      36.540  34.082  29.504  1.00  0.00     0.010 A 
ATOM     35  C   UNL A   1      36.359  33.529  30.784  1.00  0.00    -0.014 A 
BRANCH  35  36
ATOM     36  C   UNL A   1      37.502  32.853  31.456  1.00  0.00     0.031 A 
ATOM     37  C   UNL A   1      38.192  31.689  30.800  1.00  0.00     0.074 A 
ATOM     38  C   UNL A   1      37.855  33.219  32.706  1.00  0.00     0.049 A 
ATOM     39  N   UNL A   1      39.130  30.906  31.274  1.00  0.00    -0.248 NA
ATOM     40  C   UNL A   1      37.744  31.337  29.445  1.00  0.00     0.031 C 
ATOM     41  C   UNL A   1      37.222  34.283  33.487  1.00  0.00     0.029 A 
ATOM     42  N   UNL A   1      38.822  32.724  33.546  1.00  0.00    -0.354 N 
ATOM     43  C   UNL A   1      39.360  29.954  30.290  1.00  0.00     0.074 A 
ATOM     44  C   UNL A   1      38.435  30.231  29.211  1.00  0.00     0.031 C 
ATOM     45  C   UNL A   1      37.831  34.374  34.682  1.00  0.00     0.029 A 
ATOM     46  C   UNL A   1      38.873  33.355  34.765  1.00  0.00     0.049 A 
ATOM     47  H   UNL A   1      39.423  31.984  33.298  1.00  0.00     0.167 HD
ATOM     48  C   UNL A   1      40.272  28.953  30.276  1.00  0.00     0.037 A 
ATOM     49  C   UNL A   1      39.667  33.139  35.830  1.00  0.00     0.037 A 
ATOM     50  C   UNL A   1      41.223  28.703  31.327  1.00  0.00     0.049 A 
ATOM     51  C   UNL A   1      40.706  32.053  35.771  1.00  0.00     0.074 A 
ATOM     52  C   UNL A   1      42.237  27.761  31.368  1.00  0.00     0.029 A 
ATOM     53  N   UNL A   1      41.280  29.403  32.523  1.00  0.00    -0.354 N 
ATOM     54  N   UNL A   1      40.960  31.205  34.806  1.00  0.00    -0.248 NA
ATOM     55  C   UNL A   1      41.574  31.901  36.948  1.00  0.00     0.031 C 
ATOM     56  C   UNL A   1      42.889  27.872  32.601  1.00  0.00     0.029 A 
ATOM     57  C   UNL A   1      42.305  28.908  33.313  1.00  0.00     0.049 A 
ATOM     58  H   UNL A   1      40.681  30.144  32.772  1.00  0.00     0.167 HD
ATOM     59  C   UNL A   1      42.028  30.435  35.245  1.00  0.00     0.074 A 
ATOM     60  C   UNL A   1      42.384  30.926  36.559  1.00  0.00     0.031 C 
ATOM     61  C   UNL A   1      42.654  29.411  34.616  1.00  0.00     0.037 A 
BRANCH  48  62
ATOM     62  C   UNL A   1      40.290  28.054  29.074  1.00  0.00     0.064 A 
ATOM     63  C   UNL A   1      39.566  26.853  29.045  1.00  0.00     0.173 A 
ATOM     64  C   UNL A   1      41.022  28.408  27.932  1.00  0.00     0.173 A 
ATOM     65  F   UNL A   1      38.860  26.465  30.119  1.00  0.00    -0.203 F 
ATOM     66  C   UNL A   1      39.600  26.023  27.928  1.00  0.00     0.198 A 
ATOM     67  C   UNL A   1      41.029  27.590  26.805  1.00  0.00     0.198 A 
ATOM     68  F   UNL A   1      41.727  29.549  27.905  1.00  0.00    -0.203 F 
ATOM     69  F   UNL A   1      38.942  24.856  27.943  1.00  0.00    -0.200 F 
ATOM     70  C   UNL A   1      40.326  26.395  26.807  1.00  0.00     0.200 A 
ATOM     71  F   UNL A   1      41.724  27.954  25.718  1.00  0.00    -0.200 F 
ATOM     72  F   UNL A   1      40.355  25.595  25.732  1.00  0.00    -0.200 F 
ENDBRANCH  48  62
BRANCH  49  73
ATOM     73  C   UNL A   1      39.536  33.994  37.038  1.00  0.00     0.064 A 
ATOM     74  C   UNL A   1      38.775  33.569  38.137  1.00  0.00     0.173 A 
ATOM     75  C   UNL A   1      40.162  35.246  37.121  1.00  0.00     0.173 A 
ATOM     76  F   UNL A   1      38.140  32.389  38.093  1.00  0.00    -0.203 F 
ATOM     77  C   UNL A   1      38.633  34.370  39.267  1.00  0.00     0.198 A 
ATOM     78  C   UNL A   1      40.039  36.036  38.262  1.00  0.00     0.198 A 
ATOM     79  F   UNL A   1      40.903  35.695  36.098  1.00  0.00    -0.203 F 
ATOM     80  F   UNL A   1      37.869  33.956  40.287  1.00  0.00    -0.200 F 
ATOM     81  C   UNL A   1      39.270  35.600  39.331  1.00  0.00     0.200 A 
ATOM     82  F   UNL A   1      40.663  37.220  38.326  1.00  0.00    -0.200 F 
ATOM     83  F   UNL A   1      39.135  36.369  40.421  1.00  0.00    -0.200 F 
ENDBRANCH  49  73
BRANCH  61  84
ATOM     84  C   UNL A   1      43.809  28.773  35.328  1.00  0.00     0.064 A 
ATOM     85  C   UNL A   1      45.126  29.213  35.131  1.00  0.00     0.173 A 
ATOM     86  C   UNL A   1      43.593  27.731  36.241  1.00  0.00     0.173 A 
ATOM     87  F   UNL A   1      45.386  30.196  34.255  1.00  0.00    -0.203 F 
ATOM     88  C   UNL A   1      46.187  28.617  35.807  1.00  0.00     0.198 A 
ATOM     89  C   UNL A   1      44.653  27.154  36.933  1.00  0.00     0.198 A 
ATOM     90  F   UNL A   1      42.350  27.277  36.466  1.00  0.00    -0.203 F 
ATOM     91  F   UNL A   1      47.443  29.025  35.572  1.00  0.00    -0.200 F 
ATOM     92  C   UNL A   1      45.950  27.592  36.711  1.00  0.00     0.200 A 
ATOM     93  F   UNL A   1      44.421  26.170  37.813  1.00  0.00    -0.200 F 
ATOM     94  F   UNL A   1      46.972  27.022  37.363  1.00  0.00    -0.200 F 
ENDBRANCH  61  84
ENDBRANCH  35  36
ENDBRANCH  27  30
ENDBRANCH  25  26
ENDBRANCH  24  25
ENDBRANCH   1  24
TORSDOF 15
ENDMDL
MODEL 2
REMARK VINA RESULT:     -12.4      0.583      2.265
REMARK SMILES CC(=O)N[C@@H](Cc1cc(Br)c(O)c(Br)c1)C(=O)NCCCCNC(=O)c1ccc(-c2c3nc(c(-c4c(F)c(F)c(F)c(F)c4F)c4ccc([nH]4)c(-c4c(F)c(F)c(F)c(F)c4F)c4nc(c(-c5c(F)c(F)c(F)c(F)c5F)c5ccc2[nH]5)C=C4)C=C3)cc1
REMARK SMILES IDX 20 1 19 2 18 3 16 4 17 5 5 7 4 8 1 9 2 10 3 11 6 13 7 14
REMARK SMILES IDX 8 15 15 16 9 17 13 18 10 19 11 20 14 21 12 22 21 24 22 25
REMARK SMILES IDX 23 26 24 27 25 29 26 30 27 31 88 32 28 33 87 34 29 35 30 36
REMARK SMILES IDX 31 37 81 38 32 39 86 40 80 41 82 42 33 43 85 44 79 45 78 46
REMARK SMILES IDX 34 48 66 49 46 50 65 51 47 52 50 53 64 54 83 55 48 56 49 57
REMARK SMILES IDX 63 59 84 60 51 61 35 62 36 63 44 64 37 65 38 66 42 67 45 68
REMARK SMILES IDX 39 69 40 70 43 71 41 72 67 73 68 74 76 75 69 76 70 77 74 78
REMARK SMILES IDX 77 79 71 80 72 81 75 82 73 83 52 84 53 85 61 86 54 87 55 88
REMARK SMILES IDX 59 89 62 90 56 91 57 92 60 93 58 94
REMARK H PARENT 18 6 4 12 12 23 23 28 82 47 50 58
REMARK Flexibility Score: inf
ROOT
ATOM      1  C   UNL A   1      32.363  30.078  26.792  1.00  0.00     0.023 C 
ENDROOT
BRANCH   1   2
ATOM      2  C   UNL A   1      32.156  29.402  25.446  1.00  0.00     0.116 C 
BRANCH   2   3
ATOM      3  N   UNL A   1      33.275  29.473  24.539  1.00  0.00    -0.354 N 
ATOM      4  C   UNL A   1      33.775  28.500  23.721  1.00  0.00     0.242 C 
ATOM      5  O   UNL A   1      34.458  28.882  22.763  1.00  0.00    -0.273 OA
ATOM      6  H   UNL A   1      33.740  30.339  24.505  1.00  0.00     0.163 HD
BRANCH   4   7
ATOM      7  C   UNL A   1      33.455  26.988  23.882  1.00  0.00     0.175 C 
BRANCH   7   8
ATOM      8  N   UNL A   1      33.666  26.178  22.680  1.00  0.00    -0.344 N 
ATOM      9  C   UNL A   1      31.370  26.370  21.782  1.00  0.00     0.114 C 
ATOM     10  C   UNL A   1      32.797  25.917  21.665  1.00  0.00     0.217 C 
ATOM     11  O   UNL A   1      33.208  25.301  20.683  1.00  0.00    -0.275 OA
ATOM     12  H   UNL A   1      34.556  25.768  22.594  1.00  0.00     0.164 HD
ENDBRANCH   7   8
BRANCH   7  13
ATOM     13  C   UNL A   1      33.971  26.335  25.190  1.00  0.00     0.070 C 
BRANCH  13  14
ATOM     14  C   UNL A   1      34.312  24.860  25.262  1.00  0.00    -0.043 A 
ATOM     15  C   UNL A   1      35.627  24.379  25.259  1.00  0.00     0.023 A 
ATOM     16  C   UNL A   1      33.273  23.914  25.251  1.00  0.00     0.023 A 
ATOM     17  C   UNL A   1      35.891  23.013  25.439  1.00  0.00     0.061 A 
ATOM     18  C   UNL A   1      33.539  22.542  25.349  1.00  0.00     0.061 A 
ATOM     19  Br  UNL A   1      37.692  22.463  25.654  1.00  0.00    -0.047 Br
ATOM     20  C   UNL A   1      34.849  22.090  25.503  1.00  0.00     0.143 A 
ATOM     21  Br  UNL A   1      32.075  21.336  25.287  1.00  0.00    -0.047 Br
BRANCH  20  22
ATOM     22  O   UNL A   1      35.081  20.760  25.722  1.00  0.00    -0.506 OA
ATOM     23  H   UNL A   1      35.131  20.431  26.597  1.00  0.00     0.293 HD
ENDBRANCH  20  22
ENDBRANCH  13  14
ENDBRANCH   7  13
ENDBRANCH   4   7
ENDBRANCH   2   3
ENDBRANCH   1   2
BRANCH   1  24
ATOM     24  C   UNL A   1      31.934  31.538  26.883  1.00  0.00     0.023 C 
BRANCH  24  25
ATOM     25  C   UNL A   1      32.978  32.530  27.390  1.00  0.00     0.116 C 
BRANCH  25  26
ATOM     26  N   UNL A   1      32.468  33.861  27.694  1.00  0.00    -0.352 N 
ATOM     27  C   UNL A   1      32.990  34.838  28.511  1.00  0.00     0.251 C 
ATOM     28  H   UNL A   1      31.623  34.097  27.247  1.00  0.00     0.163 HD
ATOM     29  O   UNL A   1      32.429  35.929  28.595  1.00  0.00    -0.269 OA
BRANCH  27  30
ATOM     30  C   UNL A   1      34.182  34.538  29.337  1.00  0.00     0.039 A 
ATOM     31  C   UNL A   1      33.997  34.055  30.636  1.00  0.00     0.014 A 
ATOM     32  C   UNL A   1      35.468  34.638  28.804  1.00  0.00     0.014 A 
ATOM     33  C   UNL A   1      35.090  33.563  31.354  1.00  0.00     0.010 A 
ATOM     34  C   UNL A   1      36.542  34.071  29.487  1.00  0.00     0.010 A 
ATOM     35  C   UNL A   1      36.362  33.506  30.761  1.00  0.00    -0.014 A 
BRANCH  35  36
ATOM     36  C   UNL A   1      37.505  32.826  31.428  1.00  0.00     0.031 A 
ATOM     37  C   UNL A   1      38.186  31.658  30.772  1.00  0.00     0.074 A 
ATOM     38  C   UNL A   1      37.866  33.193  32.675  1.00  0.00     0.049 A 
ATOM     39  N   UNL A   1      39.122  30.872  31.242  1.00  0.00    -0.248 NA
ATOM     40  C   UNL A   1      37.729  31.305  29.419  1.00  0.00     0.031 C 
ATOM     41  C   UNL A   1      37.243  34.262  33.458  1.00  0.00     0.029 A 
ATOM     42  N   UNL A   1      38.836  32.695  33.512  1.00  0.00    -0.354 N 
ATOM     43  C   UNL A   1      39.342  29.916  30.258  1.00  0.00     0.074 A 
ATOM     44  C   UNL A   1      38.413  30.195  29.184  1.00  0.00     0.031 C 
ATOM     45  C   UNL A   1      37.859  34.353  34.649  1.00  0.00     0.029 A 
ATOM     46  C   UNL A   1      38.896  33.329  34.728  1.00  0.00     0.049 A 
ATOM     47  H   UNL A   1      39.432  31.952  33.262  1.00  0.00     0.167 HD
ATOM     48  C   UNL A   1      40.249  28.911  30.242  1.00  0.00     0.037 A 
ATOM     49  C   UNL A   1      39.695  33.111  35.790  1.00  0.00     0.037 A 
ATOM     50  C   UNL A   1      41.205  28.658  31.288  1.00  0.00     0.049 A 
ATOM     51  C   UNL A   1      40.728  32.021  35.727  1.00  0.00     0.074 A 
ATOM     52  C   UNL A   1      42.214  27.712  31.325  1.00  0.00     0.029 A 
ATOM     53  N   UNL A   1      41.272  29.361  32.482  1.00  0.00    -0.354 N 
ATOM     54  N   UNL A   1      40.973  31.169  34.763  1.00  0.00    -0.248 NA
ATOM     55  C   UNL A   1      41.601  31.866  36.900  1.00  0.00     0.031 C 
ATOM     56  C   UNL A   1      42.874  27.822  32.555  1.00  0.00     0.029 A 
ATOM     57  C   UNL A   1      42.298  28.863  33.267  1.00  0.00     0.049 A 
ATOM     58  H   UNL A   1      40.678  30.105  32.733  1.00  0.00     0.167 HD
ATOM     59  C   UNL A   1      42.039  30.395  35.198  1.00  0.00     0.074 A 
ATOM     60  C   UNL A   1      42.406  30.887  36.509  1.00  0.00     0.031 C 
ATOM     61  C   UNL A   1      42.657  29.367  34.568  1.00  0.00     0.037 A 
BRANCH  48  62
ATOM     62  C   UNL A   1      40.257  28.009  29.042  1.00  0.00     0.064 A 
ATOM     63  C   UNL A   1      41.000  28.321  27.894  1.00  0.00     0.173 A 
ATOM     64  C   UNL A   1      39.530  26.810  29.049  1.00  0.00     0.173 A 
ATOM     65  F   UNL A   1      41.702  29.463  27.835  1.00  0.00    -0.203 F 
ATOM     66  C   UNL A   1      40.990  27.481  26.785  1.00  0.00     0.198 A 
ATOM     67  C   UNL A   1      39.546  25.957  27.948  1.00  0.00     0.198 A 
ATOM     68  F   UNL A   1      38.807  26.461  30.124  1.00  0.00    -0.203 F 
ATOM     69  F   UNL A   1      41.667  27.825  25.680  1.00  0.00    -0.200 F 
ATOM     70  C   UNL A   1      40.268  26.297  26.814  1.00  0.00     0.200 A 
ATOM     71  F   UNL A   1      38.856  24.809  27.981  1.00  0.00    -0.200 F 
ATOM     72  F   UNL A   1      40.262  25.489  25.745  1.00  0.00    -0.200 F 
ENDBRANCH  48  62
BRANCH  49  73
ATOM     73  C   UNL A   1      39.574  33.970  36.996  1.00  0.00     0.064 A 
ATOM     74  C   UNL A   1      40.232  35.207  37.063  1.00  0.00     0.173 A 
ATOM     75  C   UNL A   1      38.805  33.578  38.101  1.00  0.00     0.173 A 
ATOM     76  F   UNL A   1      40.998  35.612  36.039  1.00  0.00    -0.203 F 
ATOM     77  C   UNL A   1      40.138  36.012  38.196  1.00  0.00     0.198 A 
ATOM     78  C   UNL A   1      38.692  34.396  39.223  1.00  0.00     0.198 A 
ATOM     79  F   UNL A   1      38.153  32.407  38.083  1.00  0.00    -0.203 F 
ATOM     80  F   UNL A   1      40.809  37.170  38.248  1.00  0.00    -0.200 F 
ATOM     81  C   UNL A   1      39.364  35.608  39.273  1.00  0.00     0.200 A 
ATOM     82  F   UNL A   1      37.934  34.008  40.259  1.00  0.00    -0.200 F 
ATOM     83  F   UNL A   1      39.271  36.385  40.361  1.00  0.00    -0.200 F 
ENDBRANCH  49  73
BRANCH  61  84
ATOM     84  C   UNL A   1      43.813  28.725  35.274  1.00  0.00     0.064 A 
ATOM     85  C   UNL A   1      43.630  27.644  36.150  1.00  0.00     0.173 A 
ATOM     86  C   UNL A   1      45.123  29.175  35.049  1.00  0.00     0.173 A 
ATOM     87  F   UNL A   1      42.395  27.188  36.410  1.00  0.00    -0.203 F 
ATOM     88  C   UNL A   1      44.715  27.052  36.791  1.00  0.00     0.198 A 
ATOM     89  C   UNL A   1      46.206  28.565  35.673  1.00  0.00     0.198 A 
ATOM     90  F   UNL A   1      45.350  30.203  34.218  1.00  0.00    -0.203 F 
ATOM     91  F   UNL A   1      44.513  26.048  37.656  1.00  0.00    -0.200 F 
ATOM     92  C   UNL A   1      46.002  27.508  36.548  1.00  0.00     0.200 A 
ATOM     93  F   UNL A   1      47.450  29.001  35.430  1.00  0.00    -0.200 F 
ATOM     94  F   UNL A   1      47.044  26.935  37.163  1.00  0.00    -0.200 F 
ENDBRANCH  61  84
ENDBRANCH  35  36
ENDBRANCH  27  30
ENDBRANCH  25  26
ENDBRANCH  24  25
ENDBRANCH   1  24
TORSDOF 15
ENDMDL
MODEL 3
REMARK VINA RESULT:     -12.4      0.555      7.339
REMARK SMILES CC(=O)N[C@@H](Cc1cc(Br)c(O)c(Br)c1)C(=O)NCCCCNC(=O)c1ccc(-c2c3nc(c(-c4c(F)c(F)c(F)c(F)c4F)c4ccc([nH]4)c(-c4c(F)c(F)c(F)c(F)c4F)c4nc(c(-c5c(F)c(F)c(F)c(F)c5F)c5ccc2[nH]5)C=C4)C=C3)cc1
REMARK SMILES IDX 20 1 19 2 18 3 16 4 17 5 5 7 4 8 1 9 2 10 3 11 6 13 7 14
REMARK SMILES IDX 8 15 15 16 9 17 13 18 10 19 11 20 14 21 12 22 21 24 22 25
REMARK SMILES IDX 23 26 24 27 25 29 26 30 27 31 88 32 28 33 87 34 29 35 30 36
REMARK SMILES IDX 31 37 81 38 32 39 86 40 80 41 82 42 33 43 85 44 79 45 78 46
REMARK SMILES IDX 34 48 66 49 46 50 65 51 47 52 50 53 64 54 83 55 48 56 49 57
REMARK SMILES IDX 63 59 84 60 51 61 35 62 36 63 44 64 37 65 38 66 42 67 45 68
REMARK SMILES IDX 39 69 40 70 43 71 41 72 67 73 68 74 76 75 69 76 70 77 74 78
REMARK SMILES IDX 77 79 71 80 72 81 75 82 73 83 52 84 53 85 61 86 54 87 55 88
REMARK SMILES IDX 59 89 62 90 56 91 57 92 60 93 58 94
REMARK H PARENT 18 6 4 12 12 23 23 28 82 47 50 58
REMARK Flexibility Score: inf
ROOT
ATOM      1  C   UNL A   1      32.118  30.250  26.773  1.00  0.00     0.023 C 
ENDROOT
BRANCH   1   2
ATOM      2  C   UNL A   1      31.952  29.603  25.407  1.00  0.00     0.116 C 
BRANCH   2   3
ATOM      3  N   UNL A   1      33.092  29.708  24.530  1.00  0.00    -0.354 N 
ATOM      4  C   UNL A   1      33.647  28.749  23.731  1.00  0.00     0.242 C 
ATOM      5  O   UNL A   1      34.342  29.150  22.790  1.00  0.00    -0.273 OA
ATOM      6  H   UNL A   1      33.529  30.590  24.503  1.00  0.00     0.163 HD
BRANCH   4   7
ATOM      7  C   UNL A   1      33.375  27.228  23.893  1.00  0.00     0.175 C 
BRANCH   7   8
ATOM      8  N   UNL A   1      33.665  26.417  22.707  1.00  0.00    -0.344 N 
ATOM      9  C   UNL A   1      31.377  25.534  22.382  1.00  0.00     0.114 C 
ATOM     10  C   UNL A   1      32.805  25.689  21.942  1.00  0.00     0.217 C 
ATOM     11  O   UNL A   1      33.232  25.165  20.915  1.00  0.00    -0.275 OA
ATOM     12  H   UNL A   1      34.607  26.396  22.425  1.00  0.00     0.164 HD
ENDBRANCH   7   8
BRANCH   7  13
ATOM     13  C   UNL A   1      33.859  26.604  25.227  1.00  0.00     0.070 C 
BRANCH  13  14
ATOM     14  C   UNL A   1      33.612  25.146  25.558  1.00  0.00    -0.043 A 
ATOM     15  C   UNL A   1      34.588  24.152  25.410  1.00  0.00     0.023 A 
ATOM     16  C   UNL A   1      32.327  24.740  25.957  1.00  0.00     0.023 A 
ATOM     17  C   UNL A   1      34.344  22.838  25.836  1.00  0.00     0.061 A 
ATOM     18  C   UNL A   1      32.060  23.410  26.306  1.00  0.00     0.061 A 
ATOM     19  Br  UNL A   1      35.781  21.602  25.817  1.00  0.00    -0.047 Br
ATOM     20  C   UNL A   1      33.084  22.465  26.303  1.00  0.00     0.143 A 
ATOM     21  Br  UNL A   1      30.286  22.948  26.796  1.00  0.00    -0.047 Br
BRANCH  20  22
ATOM     22  O   UNL A   1      32.836  21.201  26.763  1.00  0.00    -0.506 OA
ATOM     23  H   UNL A   1      32.583  20.526  26.165  1.00  0.00     0.293 HD
ENDBRANCH  20  22
ENDBRANCH  13  14
ENDBRANCH   7  13
ENDBRANCH   4   7
ENDBRANCH   2   3
ENDBRANCH   1   2
BRANCH   1  24
ATOM     24  C   UNL A   1      31.752  31.727  26.866  1.00  0.00     0.023 C 
BRANCH  24  25
ATOM     25  C   UNL A   1      32.866  32.686  27.277  1.00  0.00     0.116 C 
BRANCH  25  26
ATOM     26  N   UNL A   1      32.420  34.014  27.678  1.00  0.00    -0.352 N 
ATOM     27  C   UNL A   1      32.985  34.902  28.565  1.00  0.00     0.251 C 
ATOM     28  H   UNL A   1      31.589  34.323  27.249  1.00  0.00     0.163 HD
ATOM     29  O   UNL A   1      32.477  36.009  28.730  1.00  0.00    -0.269 OA
BRANCH  27  30
ATOM     30  C   UNL A   1      34.158  34.484  29.367  1.00  0.00     0.039 A 
ATOM     31  C   UNL A   1      33.944  33.893  30.615  1.00  0.00     0.014 A 
ATOM     32  C   UNL A   1      35.452  34.585  28.853  1.00  0.00     0.014 A 
ATOM     33  C   UNL A   1      35.012  33.297  31.292  1.00  0.00     0.010 A 
ATOM     34  C   UNL A   1      36.498  33.919  29.486  1.00  0.00     0.010 A 
ATOM     35  C   UNL A   1      36.286  33.248  30.703  1.00  0.00    -0.014 A 
BRANCH  35  36
ATOM     36  C   UNL A   1      37.398  32.468  31.312  1.00  0.00     0.031 A 
ATOM     37  C   UNL A   1      37.914  32.818  32.680  1.00  0.00     0.074 A 
ATOM     38  C   UNL A   1      38.014  31.509  30.592  1.00  0.00     0.049 A 
ATOM     39  N   UNL A   1      38.942  32.328  33.329  1.00  0.00    -0.248 NA
ATOM     40  C   UNL A   1      37.203  33.885  33.399  1.00  0.00     0.031 C 
ATOM     41  C   UNL A   1      37.663  31.116  29.226  1.00  0.00     0.029 A 
ATOM     42  N   UNL A   1      39.080  30.699  30.903  1.00  0.00    -0.354 N 
ATOM     43  C   UNL A   1      39.016  33.048  34.515  1.00  0.00     0.074 A 
ATOM     44  C   UNL A   1      37.959  34.035  34.477  1.00  0.00     0.031 C 
ATOM     45  C   UNL A   1      38.482  30.129  28.826  1.00  0.00     0.029 A 
ATOM     46  C   UNL A   1      39.437  29.841  29.892  1.00  0.00     0.049 A 
ATOM     47  H   UNL A   1      39.545  30.731  31.771  1.00  0.00     0.167 HD
ATOM     48  C   UNL A   1      39.874  32.887  35.550  1.00  0.00     0.037 A 
ATOM     49  C   UNL A   1      40.422  28.926  29.828  1.00  0.00     0.037 A 
ATOM     50  C   UNL A   1      40.899  31.877  35.611  1.00  0.00     0.049 A 
ATOM     51  C   UNL A   1      41.331  28.732  31.010  1.00  0.00     0.074 A 
ATOM     52  C   UNL A   1      41.765  31.587  36.651  1.00  0.00     0.029 A 
ATOM     53  N   UNL A   1      41.191  30.987  34.587  1.00  0.00    -0.354 N 
ATOM     54  N   UNL A   1      41.346  29.371  32.153  1.00  0.00    -0.248 NA
ATOM     55  C   UNL A   1      42.355  27.684  30.895  1.00  0.00     0.031 C 
ATOM     56  C   UNL A   1      42.602  30.541  36.245  1.00  0.00     0.029 A 
ATOM     57  C   UNL A   1      42.231  30.155  34.967  1.00  0.00     0.049 A 
ATOM     58  H   UNL A   1      40.727  30.952  33.720  1.00  0.00     0.167 HD
ATOM     59  C   UNL A   1      42.361  28.791  32.902  1.00  0.00     0.074 A 
ATOM     60  C   UNL A   1      42.930  27.737  32.089  1.00  0.00     0.031 C 
ATOM     61  C   UNL A   1      42.783  29.105  34.151  1.00  0.00     0.037 A 
BRANCH  48  62
ATOM     62  C   UNL A   1      39.735  33.825  36.713  1.00  0.00     0.064 A 
ATOM     63  C   UNL A   1      38.931  33.510  37.818  1.00  0.00     0.173 A 
ATOM     64  C   UNL A   1      40.430  35.043  36.732  1.00  0.00     0.173 A 
ATOM     65  F   UNL A   1      38.236  32.361  37.841  1.00  0.00    -0.203 F 
ATOM     66  C   UNL A   1      38.801  34.393  38.886  1.00  0.00     0.198 A 
ATOM     67  C   UNL A   1      40.321  35.912  37.816  1.00  0.00     0.198 A 
ATOM     68  F   UNL A   1      41.217  35.391  35.703  1.00  0.00    -0.203 F 
ATOM     69  F   UNL A   1      37.986  34.093  39.907  1.00  0.00    -0.200 F 
ATOM     70  C   UNL A   1      39.501  35.590  38.887  1.00  0.00     0.200 A 
ATOM     71  F   UNL A   1      41.005  37.064  37.820  1.00  0.00    -0.200 F 
ATOM     72  F   UNL A   1      39.377  36.439  39.916  1.00  0.00    -0.200 F 
ENDBRANCH  48  62
BRANCH  49  73
ATOM     73  C   UNL A   1      40.582  28.093  28.608  1.00  0.00     0.064 A 
ATOM     74  C   UNL A   1      39.926  26.858  28.494  1.00  0.00     0.173 A 
ATOM     75  C   UNL A   1      41.385  28.508  27.536  1.00  0.00     0.173 A 
ATOM     76  F   UNL A   1      39.166  26.410  29.504  1.00  0.00    -0.203 F 
ATOM     77  C   UNL A   1      40.082  26.063  27.361  1.00  0.00     0.198 A 
ATOM     78  C   UNL A   1      41.520  27.723  26.394  1.00  0.00     0.198 A 
ATOM     79  F   UNL A   1      42.028  29.683  27.595  1.00  0.00    -0.203 F 
ATOM     80  F   UNL A   1      39.475  24.870  27.296  1.00  0.00    -0.200 F 
ATOM     81  C   UNL A   1      40.873  26.498  26.310  1.00  0.00     0.200 A 
ATOM     82  F   UNL A   1      42.277  28.150  25.374  1.00  0.00    -0.200 F 
ATOM     83  F   UNL A   1      41.020  25.734  25.218  1.00  0.00    -0.200 F 
ENDBRANCH  49  73
BRANCH  61  84
ATOM     84  C   UNL A   1      43.895  28.280  34.726  1.00  0.00     0.064 A 
ATOM     85  C   UNL A   1      45.237  28.664  34.595  1.00  0.00     0.173 A 
ATOM     86  C   UNL A   1      43.612  27.108  35.444  1.00  0.00     0.173 A 
ATOM     87  F   UNL A   1      45.559  29.768  33.904  1.00  0.00    -0.203 F 
ATOM     88  C   UNL A   1      46.258  27.893  35.144  1.00  0.00     0.198 A 
ATOM     89  C   UNL A   1      44.633  26.353  36.012  1.00  0.00     0.198 A 
ATOM     90  F   UNL A   1      42.344  26.701  35.599  1.00  0.00    -0.203 F 
ATOM     91  F   UNL A   1      47.537  28.256  34.971  1.00  0.00    -0.200 F 
ATOM     92  C   UNL A   1      45.956  26.742  35.857  1.00  0.00     0.200 A 
ATOM     93  F   UNL A   1      44.339  25.246  36.708  1.00  0.00    -0.200 F 
ATOM     94  F   UNL A   1      46.939  26.002  36.386  1.00  0.00    -0.200 F 
ENDBRANCH  61  84
ENDBRANCH  35  36
ENDBRANCH  27  30
ENDBRANCH  25  26
ENDBRANCH  24  25
ENDBRANCH   1  24
TORSDOF 15
ENDMDL
