MODEL 1
REMARK VINA RESULT:     -13.8      0.000      0.000
REMARK SMILES CCc1ccc2[nH]c(C(=O)c3cc(C)ccn3)c(CC(=O)NCCCCNC(=O)c3ccc(-c4c5nc(c(-c6c(F)c(F)c(F)c(F)c6F)c6ccc([nH]6)c(-c6c(F)c(F)c(F)c(F)c6F)c6nc(c(-c7c(F)c(F)c(F)c(F)c7F)c7ccc4[nH]7)C=C6)C=C5)cc3)c2c1
REMARK SMILES IDX 24 1 23 2 22 3 20 4 21 5 19 7 18 8 3 9 4 10 94 11 5 12 93 13
REMARK SMILES IDX 6 14 7 15 8 16 2 18 1 19 9 20 10 21 11 22 12 23 17 24 13 25
REMARK SMILES IDX 16 26 14 27 15 28 25 29 26 30 27 31 28 32 29 34 30 35 31 36
REMARK SMILES IDX 92 37 32 38 91 39 33 40 34 41 35 42 85 43 36 44 90 45 84 46
REMARK SMILES IDX 86 47 37 48 89 49 83 50 82 51 38 53 70 54 50 55 69 56 51 57
REMARK SMILES IDX 54 58 68 59 87 60 52 61 53 62 67 64 88 65 55 66 39 67 40 68
REMARK SMILES IDX 48 69 41 70 42 71 46 72 49 73 43 74 44 75 47 76 45 77 71 78
REMARK SMILES IDX 72 79 80 80 73 81 74 82 78 83 81 84 75 85 76 86 79 87 77 88
REMARK SMILES IDX 56 89 57 90 65 91 58 92 59 93 63 94 66 95 60 96 61 97 64 98
REMARK SMILES IDX 62 99
REMARK H PARENT 22 6 7 17 27 33 86 52 54 63
REMARK Flexibility Score: inf
ROOT
ATOM      1  C   UNL A   1      31.818  30.676  26.313  1.00  0.00     0.023 C 
ENDROOT
BRANCH   1   2
ATOM      2  C   UNL A   1      33.245  30.206  26.581  1.00  0.00     0.116 C 
BRANCH   2   3
ATOM      3  N   UNL A   1      33.793  29.441  25.482  1.00  0.00    -0.356 N 
ATOM      4  C   UNL A   1      33.642  28.115  25.189  1.00  0.00     0.224 C 
ATOM      5  O   UNL A   1      34.030  27.747  24.076  1.00  0.00    -0.275 OA
ATOM      6  H   UNL A   1      34.356  29.949  24.854  1.00  0.00     0.163 HD
BRANCH   4   7
ATOM      7  C   UNL A   1      32.900  27.169  26.130  1.00  0.00     0.138 C 
BRANCH   7   8
ATOM      8  C   UNL A   1      31.663  26.528  25.553  1.00  0.00    -0.002 A 
ATOM      9  C   UNL A   1      29.443  28.858  23.436  1.00  0.00    -0.048 A 
ATOM     10  C   UNL A   1      28.439  27.910  23.218  1.00  0.00     0.006 A 
ATOM     11  C   UNL A   1      30.585  28.484  24.167  1.00  0.00     0.014 A 
ATOM     12  C   UNL A   1      28.529  26.612  23.736  1.00  0.00     0.027 A 
ATOM     13  C   UNL A   1      30.696  27.186  24.715  1.00  0.00     0.004 A 
ATOM     14  C   UNL A   1      29.666  26.285  24.481  1.00  0.00     0.046 A 
ATOM     15  N   UNL A   1      30.005  25.113  25.110  1.00  0.00    -0.352 N 
ATOM     16  C   UNL A   1      31.247  25.203  25.704  1.00  0.00     0.093 A 
ATOM     17  H   UNL A   1      29.435  24.310  25.135  1.00  0.00     0.167 HD
BRANCH   9  18
ATOM     18  C   UNL A   1      29.358  30.255  22.861  1.00  0.00     0.032 C 
ATOM     19  C   UNL A   1      28.290  31.137  23.495  1.00  0.00     0.009 C 
ENDBRANCH   9  18
BRANCH  16  20
ATOM     20  C   UNL A   1      31.939  24.110  26.381  1.00  0.00     0.227 C 
ATOM     21  O   UNL A   1      31.641  23.715  27.504  1.00  0.00    -0.285 OA
BRANCH  20  22
ATOM     22  C   UNL A   1      33.100  23.466  25.711  1.00  0.00     0.113 A 
ATOM     23  C   UNL A   1      34.388  23.930  25.964  1.00  0.00     0.036 A 
ATOM     24  N   UNL A   1      32.819  22.433  24.877  1.00  0.00    -0.253 NA
ATOM     25  C   UNL A   1      35.457  23.303  25.321  1.00  0.00    -0.047 A 
ATOM     26  C   UNL A   1      33.871  21.822  24.298  1.00  0.00     0.112 A 
ATOM     27  C   UNL A   1      36.869  23.761  25.533  1.00  0.00     0.044 C 
ATOM     28  C   UNL A   1      35.188  22.219  24.480  1.00  0.00     0.023 A 
ENDBRANCH  20  22
ENDBRANCH  16  20
ENDBRANCH   7   8
ENDBRANCH   4   7
ENDBRANCH   2   3
ENDBRANCH   1   2
BRANCH   1  29
ATOM     29  C   UNL A   1      31.544  32.131  26.695  1.00  0.00     0.023 C 
BRANCH  29  30
ATOM     30  C   UNL A   1      32.691  32.844  27.399  1.00  0.00     0.116 C 
BRANCH  30  31
ATOM     31  N   UNL A   1      32.403  34.238  27.703  1.00  0.00    -0.352 N 
ATOM     32  C   UNL A   1      33.009  35.062  28.619  1.00  0.00     0.251 C 
ATOM     33  H   UNL A   1      31.675  34.645  27.180  1.00  0.00     0.163 HD
ATOM     34  O   UNL A   1      32.565  36.186  28.837  1.00  0.00    -0.269 OA
BRANCH  32  35
ATOM     35  C   UNL A   1      34.180  34.572  29.376  1.00  0.00     0.039 A 
ATOM     36  C   UNL A   1      33.976  33.987  30.628  1.00  0.00     0.014 A 
ATOM     37  C   UNL A   1      35.468  34.660  28.841  1.00  0.00     0.014 A 
ATOM     38  C   UNL A   1      35.056  33.426  31.312  1.00  0.00     0.010 A 
ATOM     39  C   UNL A   1      36.528  34.032  29.487  1.00  0.00     0.010 A 
ATOM     40  C   UNL A   1      36.333  33.409  30.728  1.00  0.00    -0.014 A 
BRANCH  40  41
ATOM     41  C   UNL A   1      37.475  32.736  31.399  1.00  0.00     0.031 A 
ATOM     42  C   UNL A   1      38.146  31.559  30.749  1.00  0.00     0.074 A 
ATOM     43  C   UNL A   1      37.859  33.137  32.625  1.00  0.00     0.049 A 
ATOM     44  N   UNL A   1      39.110  30.798  31.205  1.00  0.00    -0.248 NA
ATOM     45  C   UNL A   1      37.647  31.167  29.422  1.00  0.00     0.031 C 
ATOM     46  C   UNL A   1      37.247  34.227  33.387  1.00  0.00     0.029 A 
ATOM     47  N   UNL A   1      38.845  32.664  33.455  1.00  0.00    -0.354 N 
ATOM     48  C   UNL A   1      39.326  29.837  30.226  1.00  0.00     0.074 A 
ATOM     49  C   UNL A   1      38.347  30.069  29.185  1.00  0.00     0.031 C 
ATOM     50  C   UNL A   1      37.879  34.348  34.565  1.00  0.00     0.029 A 
ATOM     51  C   UNL A   1      38.914  33.322  34.658  1.00  0.00     0.049 A 
ATOM     52  H   UNL A   1      39.446  31.924  33.211  1.00  0.00     0.167 HD
ATOM     53  C   UNL A   1      40.270  28.867  30.186  1.00  0.00     0.037 A 
ATOM     54  C   UNL A   1      39.710  33.114  35.723  1.00  0.00     0.037 A 
ATOM     55  C   UNL A   1      41.243  28.643  31.223  1.00  0.00     0.049 A 
ATOM     56  C   UNL A   1      40.746  32.023  35.664  1.00  0.00     0.074 A 
ATOM     57  C   UNL A   1      42.274  27.720  31.257  1.00  0.00     0.029 A 
ATOM     58  N   UNL A   1      41.299  29.347  32.419  1.00  0.00    -0.354 N 
ATOM     59  N   UNL A   1      40.992  31.169  34.702  1.00  0.00    -0.248 NA
ATOM     60  C   UNL A   1      41.621  31.877  36.835  1.00  0.00     0.031 C 
ATOM     61  C   UNL A   1      42.919  27.830  32.495  1.00  0.00     0.029 A 
ATOM     62  C   UNL A   1      42.331  28.862  33.207  1.00  0.00     0.049 A 
ATOM     63  H   UNL A   1      40.694  30.082  32.669  1.00  0.00     0.167 HD
ATOM     64  C   UNL A   1      42.061  30.397  35.138  1.00  0.00     0.074 A 
ATOM     65  C   UNL A   1      42.428  30.899  36.447  1.00  0.00     0.031 C 
ATOM     66  C   UNL A   1      42.682  29.368  34.511  1.00  0.00     0.037 A 
BRANCH  53  67
ATOM     67  C   UNL A   1      40.288  27.976  28.976  1.00  0.00     0.064 A 
ATOM     68  C   UNL A   1      39.596  26.754  28.950  1.00  0.00     0.173 A 
ATOM     69  C   UNL A   1      41.003  28.346  27.826  1.00  0.00     0.173 A 
ATOM     70  F   UNL A   1      38.905  26.346  30.025  1.00  0.00    -0.203 F 
ATOM     71  C   UNL A   1      39.656  25.917  27.838  1.00  0.00     0.198 A 
ATOM     72  C   UNL A   1      41.031  27.523  26.702  1.00  0.00     0.198 A 
ATOM     73  F   UNL A   1      41.676  29.505  27.791  1.00  0.00    -0.203 F 
ATOM     74  F   UNL A   1      39.044  24.726  27.866  1.00  0.00    -0.200 F 
ATOM     75  C   UNL A   1      40.369  26.305  26.714  1.00  0.00     0.200 A 
ATOM     76  F   UNL A   1      41.707  27.906  25.611  1.00  0.00    -0.200 F 
ATOM     77  F   UNL A   1      40.427  25.499  25.645  1.00  0.00    -0.200 F 
ENDBRANCH  53  67
BRANCH  54  78
ATOM     78  C   UNL A   1      39.564  33.972  36.928  1.00  0.00     0.064 A 
ATOM     79  C   UNL A   1      40.185  35.226  37.001  1.00  0.00     0.173 A 
ATOM     80  C   UNL A   1      38.783  33.565  38.020  1.00  0.00     0.173 A 
ATOM     81  F   UNL A   1      40.958  35.652  35.990  1.00  0.00    -0.203 F 
ATOM     82  C   UNL A   1      40.040  36.036  38.126  1.00  0.00     0.198 A 
ATOM     83  C   UNL A   1      38.615  34.388  39.131  1.00  0.00     0.198 A 
ATOM     84  F   UNL A   1      38.163  32.377  37.996  1.00  0.00    -0.203 F 
ATOM     85  F   UNL A   1      40.674  37.215  38.186  1.00  0.00    -0.200 F 
ATOM     86  C   UNL A   1      39.249  35.620  39.186  1.00  0.00     0.200 A 
ATOM     87  F   UNL A   1      37.835  33.990  40.146  1.00  0.00    -0.200 F 
ATOM     88  F   UNL A   1      39.100  36.405  40.262  1.00  0.00    -0.200 F 
ENDBRANCH  54  78
BRANCH  66  89
ATOM     89  C   UNL A   1      43.844  28.730  35.219  1.00  0.00     0.064 A 
ATOM     90  C   UNL A   1      43.672  27.637  36.082  1.00  0.00     0.173 A 
ATOM     91  C   UNL A   1      45.151  29.193  34.999  1.00  0.00     0.173 A 
ATOM     92  F   UNL A   1      42.443  27.165  36.338  1.00  0.00    -0.203 F 
ATOM     93  C   UNL A   1      44.763  27.049  36.717  1.00  0.00     0.198 A 
ATOM     94  C   UNL A   1      46.241  28.582  35.611  1.00  0.00     0.198 A 
ATOM     95  F   UNL A   1      45.371  30.231  34.179  1.00  0.00    -0.203 F 
ATOM     96  F   UNL A   1      44.571  26.037  37.576  1.00  0.00    -0.200 F 
ATOM     97  C   UNL A   1      46.047  27.516  36.475  1.00  0.00     0.200 A 
ATOM     98  F   UNL A   1      47.481  29.025  35.363  1.00  0.00    -0.200 F 
ATOM     99  F   UNL A   1      47.095  26.942  37.081  1.00  0.00    -0.200 F 
ENDBRANCH  66  89
ENDBRANCH  40  41
ENDBRANCH  32  35
ENDBRANCH  30  31
ENDBRANCH  29  30
ENDBRANCH   1  29
TORSDOF 15
ENDMDL
MODEL 2
REMARK VINA RESULT:     -13.6      1.142      8.067
REMARK SMILES CCc1ccc2[nH]c(C(=O)c3cc(C)ccn3)c(CC(=O)NCCCCNC(=O)c3ccc(-c4c5nc(c(-c6c(F)c(F)c(F)c(F)c6F)c6ccc([nH]6)c(-c6c(F)c(F)c(F)c(F)c6F)c6nc(c(-c7c(F)c(F)c(F)c(F)c7F)c7ccc4[nH]7)C=C6)C=C5)cc3)c2c1
REMARK SMILES IDX 24 1 23 2 22 3 20 4 21 5 19 7 18 8 3 9 4 10 94 11 5 12 93 13
REMARK SMILES IDX 6 14 7 15 8 16 2 18 1 19 9 20 10 21 11 22 12 23 17 24 13 25
REMARK SMILES IDX 16 26 14 27 15 28 25 29 26 30 27 31 28 32 29 34 30 35 31 36
REMARK SMILES IDX 92 37 32 38 91 39 33 40 34 41 35 42 85 43 36 44 90 45 84 46
REMARK SMILES IDX 86 47 37 48 89 49 83 50 82 51 38 53 70 54 50 55 69 56 51 57
REMARK SMILES IDX 54 58 68 59 87 60 52 61 53 62 67 64 88 65 55 66 39 67 40 68
REMARK SMILES IDX 48 69 41 70 42 71 46 72 49 73 43 74 44 75 47 76 45 77 71 78
REMARK SMILES IDX 72 79 80 80 73 81 74 82 78 83 81 84 75 85 76 86 79 87 77 88
REMARK SMILES IDX 56 89 57 90 65 91 58 92 59 93 63 94 66 95 60 96 61 97 64 98
REMARK SMILES IDX 62 99
REMARK H PARENT 22 6 7 17 27 33 86 52 54 63
REMARK Flexibility Score: inf
ROOT
ATOM      1  C   UNL A   1      31.610  30.757  26.061  1.00  0.00     0.023 C 
ENDROOT
BRANCH   1   2
ATOM      2  C   UNL A   1      32.267  29.824  27.075  1.00  0.00     0.116 C 
BRANCH   2   3
ATOM      3  N   UNL A   1      31.674  28.505  27.081  1.00  0.00    -0.356 N 
ATOM      4  C   UNL A   1      32.216  27.309  26.702  1.00  0.00     0.224 C 
ATOM      5  O   UNL A   1      31.582  26.294  27.007  1.00  0.00    -0.275 OA
ATOM      6  H   UNL A   1      30.745  28.463  27.405  1.00  0.00     0.163 HD
BRANCH   4   7
ATOM      7  C   UNL A   1      33.601  27.226  26.066  1.00  0.00     0.138 C 
BRANCH   7   8
ATOM      8  C   UNL A   1      33.681  26.400  24.808  1.00  0.00    -0.002 A 
ATOM      9  C   UNL A   1      34.717  22.725  25.318  1.00  0.00    -0.048 A 
ATOM     10  C   UNL A   1      34.749  22.414  23.955  1.00  0.00     0.006 A 
ATOM     11  C   UNL A   1      34.329  24.019  25.711  1.00  0.00     0.014 A 
ATOM     12  C   UNL A   1      34.437  23.366  22.976  1.00  0.00     0.027 A 
ATOM     13  C   UNL A   1      34.023  25.005  24.745  1.00  0.00     0.004 A 
ATOM     14  C   UNL A   1      34.082  24.649  23.405  1.00  0.00     0.046 A 
ATOM     15  N   UNL A   1      33.749  25.765  22.677  1.00  0.00    -0.352 N 
ATOM     16  C   UNL A   1      33.424  26.822  23.500  1.00  0.00     0.093 A 
ATOM     17  H   UNL A   1      33.743  25.805  21.693  1.00  0.00     0.167 HD
BRANCH   9  18
ATOM     18  C   UNL A   1      35.035  21.694  26.378  1.00  0.00     0.032 C 
ATOM     19  C   UNL A   1      34.114  21.728  27.592  1.00  0.00     0.009 C 
ENDBRANCH   9  18
BRANCH  16  20
ATOM     20  C   UNL A   1      32.945  28.126  23.048  1.00  0.00     0.227 C 
ATOM     21  O   UNL A   1      33.689  29.064  22.781  1.00  0.00    -0.285 OA
BRANCH  20  22
ATOM     22  C   UNL A   1      31.479  28.362  22.953  1.00  0.00     0.113 A 
ATOM     23  C   UNL A   1      30.593  27.420  23.470  1.00  0.00     0.036 A 
ATOM     24  N   UNL A   1      31.092  29.517  22.357  1.00  0.00    -0.253 NA
ATOM     25  C   UNL A   1      29.224  27.672  23.366  1.00  0.00    -0.047 A 
ATOM     26  C   UNL A   1      29.767  29.753  22.303  1.00  0.00     0.112 A 
ATOM     27  C   UNL A   1      28.212  26.695  23.885  1.00  0.00     0.044 C 
ATOM     28  C   UNL A   1      28.807  28.871  22.780  1.00  0.00     0.023 A 
ENDBRANCH  20  22
ENDBRANCH  16  20
ENDBRANCH   7   8
ENDBRANCH   4   7
ENDBRANCH   2   3
ENDBRANCH   1   2
BRANCH   1  29
ATOM     29  C   UNL A   1      31.380  32.183  26.563  1.00  0.00     0.023 C 
BRANCH  29  30
ATOM     30  C   UNL A   1      32.562  32.816  27.284  1.00  0.00     0.116 C 
BRANCH  30  31
ATOM     31  N   UNL A   1      32.333  34.204  27.658  1.00  0.00    -0.352 N 
ATOM     32  C   UNL A   1      32.980  34.957  28.607  1.00  0.00     0.251 C 
ATOM     33  H   UNL A   1      31.618  34.665  27.162  1.00  0.00     0.163 HD
ATOM     34  O   UNL A   1      32.583  36.086  28.883  1.00  0.00    -0.269 OA
BRANCH  32  35
ATOM     35  C   UNL A   1      34.136  34.385  29.327  1.00  0.00     0.039 A 
ATOM     36  C   UNL A   1      33.902  33.615  30.470  1.00  0.00     0.014 A 
ATOM     37  C   UNL A   1      35.439  34.578  28.862  1.00  0.00     0.014 A 
ATOM     38  C   UNL A   1      34.972  32.981  31.105  1.00  0.00     0.010 A 
ATOM     39  C   UNL A   1      36.491  33.883  29.448  1.00  0.00     0.010 A 
ATOM     40  C   UNL A   1      36.269  33.078  30.575  1.00  0.00    -0.014 A 
BRANCH  40  41
ATOM     41  C   UNL A   1      37.404  32.336  31.182  1.00  0.00     0.031 A 
ATOM     42  C   UNL A   1      37.928  32.730  32.535  1.00  0.00     0.074 A 
ATOM     43  C   UNL A   1      38.010  31.356  30.485  1.00  0.00     0.049 A 
ATOM     44  N   UNL A   1      38.950  32.251  33.199  1.00  0.00    -0.248 NA
ATOM     45  C   UNL A   1      37.227  33.828  33.217  1.00  0.00     0.031 C 
ATOM     46  C   UNL A   1      37.634  30.923  29.138  1.00  0.00     0.029 A 
ATOM     47  N   UNL A   1      39.082  30.560  30.804  1.00  0.00    -0.354 N 
ATOM     48  C   UNL A   1      39.017  32.993  34.371  1.00  0.00     0.074 A 
ATOM     49  C   UNL A   1      37.978  33.997  34.294  1.00  0.00     0.031 C 
ATOM     50  C   UNL A   1      38.452  29.931  28.752  1.00  0.00     0.029 A 
ATOM     51  C   UNL A   1      39.432  29.685  29.806  1.00  0.00     0.049 A 
ATOM     52  H   UNL A   1      39.553  30.611  31.666  1.00  0.00     0.167 HD
ATOM     53  C   UNL A   1      39.852  32.835  35.426  1.00  0.00     0.037 A 
ATOM     54  C   UNL A   1      40.440  28.794  29.740  1.00  0.00     0.037 A 
ATOM     55  C   UNL A   1      40.881  31.832  35.499  1.00  0.00     0.049 A 
ATOM     56  C   UNL A   1      41.363  28.640  30.919  1.00  0.00     0.074 A 
ATOM     57  C   UNL A   1      41.747  31.556  36.543  1.00  0.00     0.029 A 
ATOM     58  N   UNL A   1      41.192  30.944  34.477  1.00  0.00    -0.354 N 
ATOM     59  N   UNL A   1      41.371  29.295  32.054  1.00  0.00    -0.248 NA
ATOM     60  C   UNL A   1      42.411  27.616  30.810  1.00  0.00     0.031 C 
ATOM     61  C   UNL A   1      42.616  30.537  36.133  1.00  0.00     0.029 A 
ATOM     62  C   UNL A   1      42.253  30.136  34.857  1.00  0.00     0.049 A 
ATOM     63  H   UNL A   1      40.728  30.896  33.611  1.00  0.00     0.167 HD
ATOM     64  C   UNL A   1      42.405  28.752  32.803  1.00  0.00     0.074 A 
ATOM     65  C   UNL A   1      42.991  27.699  31.999  1.00  0.00     0.031 C 
ATOM     66  C   UNL A   1      42.830  29.094  34.045  1.00  0.00     0.037 A 
BRANCH  53  67
ATOM     67  C   UNL A   1      39.679  33.776  36.586  1.00  0.00     0.064 A 
ATOM     68  C   UNL A   1      40.314  35.028  36.621  1.00  0.00     0.173 A 
ATOM     69  C   UNL A   1      38.866  33.425  37.675  1.00  0.00     0.173 A 
ATOM     70  F   UNL A   1      41.110  35.409  35.610  1.00  0.00    -0.203 F 
ATOM     71  C   UNL A   1      40.180  35.872  37.720  1.00  0.00     0.198 A 
ATOM     72  C   UNL A   1      38.705  34.289  38.757  1.00  0.00     0.198 A 
ATOM     73  F   UNL A   1      38.228  32.246  37.692  1.00  0.00    -0.203 F 
ATOM     74  F   UNL A   1      40.852  37.030  37.758  1.00  0.00    -0.200 F 
ATOM     75  C   UNL A   1      39.372  35.504  38.784  1.00  0.00     0.200 A 
ATOM     76  F   UNL A   1      37.911  33.938  39.778  1.00  0.00    -0.200 F 
ATOM     77  F   UNL A   1      39.244  36.316  39.843  1.00  0.00    -0.200 F 
ENDBRANCH  53  67
BRANCH  54  78
ATOM     78  C   UNL A   1      40.610  27.968  28.516  1.00  0.00     0.064 A 
ATOM     79  C   UNL A   1      39.992  26.716  28.397  1.00  0.00     0.173 A 
ATOM     80  C   UNL A   1      41.375  28.424  27.433  1.00  0.00     0.173 A 
ATOM     81  F   UNL A   1      39.266  26.227  29.414  1.00  0.00    -0.203 F 
ATOM     82  C   UNL A   1      40.143  25.945  27.245  1.00  0.00     0.198 A 
ATOM     83  C   UNL A   1      41.501  27.667  26.271  1.00  0.00     0.198 A 
ATOM     84  F   UNL A   1      41.981  29.619  27.495  1.00  0.00    -0.203 F 
ATOM     85  F   UNL A   1      39.572  24.736  27.172  1.00  0.00    -0.200 F 
ATOM     86  C   UNL A   1      40.891  26.425  26.181  1.00  0.00     0.200 A 
ATOM     87  F   UNL A   1      42.210  28.142  25.237  1.00  0.00    -0.200 F 
ATOM     88  F   UNL A   1      41.025  25.690  25.068  1.00  0.00    -0.200 F 
ENDBRANCH  54  78
BRANCH  66  89
ATOM     89  C   UNL A   1      43.969  28.303  34.625  1.00  0.00     0.064 A 
ATOM     90  C   UNL A   1      45.299  28.731  34.506  1.00  0.00     0.173 A 
ATOM     91  C   UNL A   1      43.719  27.125  35.346  1.00  0.00     0.173 A 
ATOM     92  F   UNL A   1      45.594  29.842  33.815  1.00  0.00    -0.203 F 
ATOM     93  C   UNL A   1      46.340  27.993  35.065  1.00  0.00     0.198 A 
ATOM     94  C   UNL A   1      44.760  26.408  35.930  1.00  0.00     0.198 A 
ATOM     95  F   UNL A   1      42.465  26.676  35.495  1.00  0.00    -0.203 F 
ATOM     96  F   UNL A   1      47.609  28.393  34.896  1.00  0.00    -0.200 F 
ATOM     97  C   UNL A   1      46.069  26.837  35.783  1.00  0.00     0.200 A 
ATOM     98  F   UNL A   1      44.493  25.300  36.636  1.00  0.00    -0.200 F 
ATOM     99  F   UNL A   1      47.072  26.134  36.327  1.00  0.00    -0.200 F 
ENDBRANCH  66  89
ENDBRANCH  40  41
ENDBRANCH  32  35
ENDBRANCH  30  31
ENDBRANCH  29  30
ENDBRANCH   1  29
TORSDOF 15
ENDMDL
MODEL 3
REMARK VINA RESULT:     -13.6      5.587     11.196
REMARK SMILES CCc1ccc2[nH]c(C(=O)c3cc(C)ccn3)c(CC(=O)NCCCCNC(=O)c3ccc(-c4c5nc(c(-c6c(F)c(F)c(F)c(F)c6F)c6ccc([nH]6)c(-c6c(F)c(F)c(F)c(F)c6F)c6nc(c(-c7c(F)c(F)c(F)c(F)c7F)c7ccc4[nH]7)C=C6)C=C5)cc3)c2c1
REMARK SMILES IDX 24 1 23 2 22 3 20 4 21 5 19 7 18 8 3 9 4 10 94 11 5 12 93 13
REMARK SMILES IDX 6 14 7 15 8 16 2 18 1 19 9 20 10 21 11 22 12 23 17 24 13 25
REMARK SMILES IDX 16 26 14 27 15 28 25 29 26 30 27 31 28 32 29 34 30 35 31 36
REMARK SMILES IDX 92 37 32 38 91 39 33 40 34 41 35 42 85 43 36 44 90 45 84 46
REMARK SMILES IDX 86 47 37 48 89 49 83 50 82 51 38 53 70 54 50 55 69 56 51 57
REMARK SMILES IDX 54 58 68 59 87 60 52 61 53 62 67 64 88 65 55 66 39 67 40 68
REMARK SMILES IDX 48 69 41 70 42 71 46 72 49 73 43 74 44 75 47 76 45 77 71 78
REMARK SMILES IDX 72 79 80 80 73 81 74 82 78 83 81 84 75 85 76 86 79 87 77 88
REMARK SMILES IDX 56 89 57 90 65 91 58 92 59 93 63 94 66 95 60 96 61 97 64 98
REMARK SMILES IDX 62 99
REMARK H PARENT 22 6 7 17 27 33 86 52 54 63
REMARK Flexibility Score: inf
ROOT
ATOM      1  C   UNL A   1      37.001  20.755  25.092  1.00  0.00     0.023 C 
ENDROOT
BRANCH   1   2
ATOM      2  C   UNL A   1      37.351  22.083  25.760  1.00  0.00     0.116 C 
BRANCH   2   3
ATOM      3  N   UNL A   1      36.232  22.653  26.479  1.00  0.00    -0.356 N 
ATOM      4  C   UNL A   1      35.226  23.455  26.020  1.00  0.00     0.224 C 
ATOM      5  O   UNL A   1      34.269  23.632  26.781  1.00  0.00    -0.275 OA
ATOM      6  H   UNL A   1      36.190  22.431  27.437  1.00  0.00     0.163 HD
BRANCH   4   7
ATOM      7  C   UNL A   1      35.217  23.985  24.589  1.00  0.00     0.138 C 
BRANCH   7   8
ATOM      8  C   UNL A   1      34.058  23.526  23.741  1.00  0.00    -0.002 A 
ATOM      9  C   UNL A   1      33.183  19.786  24.045  1.00  0.00    -0.048 A 
ATOM     10  C   UNL A   1      32.183  19.812  23.068  1.00  0.00     0.006 A 
ATOM     11  C   UNL A   1      33.840  20.985  24.377  1.00  0.00     0.014 A 
ATOM     12  C   UNL A   1      31.846  20.991  22.392  1.00  0.00     0.027 A 
ATOM     13  C   UNL A   1      33.532  22.187  23.701  1.00  0.00     0.004 A 
ATOM     14  C   UNL A   1      32.541  22.157  22.730  1.00  0.00     0.046 A 
ATOM     15  N   UNL A   1      32.432  23.430  22.226  1.00  0.00    -0.352 N 
ATOM     16  C   UNL A   1      33.283  24.300  22.873  1.00  0.00     0.093 A 
ATOM     17  H   UNL A   1      31.824  23.688  21.496  1.00  0.00     0.167 HD
BRANCH   9  18
ATOM     18  C   UNL A   1      33.535  18.518  24.791  1.00  0.00     0.032 C 
ATOM     19  C   UNL A   1      34.731  17.762  24.226  1.00  0.00     0.009 C 
ENDBRANCH   9  18
BRANCH  16  20
ATOM     20  C   UNL A   1      33.355  25.740  22.638  1.00  0.00     0.227 C 
ATOM     21  O   UNL A   1      33.875  26.237  21.644  1.00  0.00    -0.285 OA
BRANCH  20  22
ATOM     22  C   UNL A   1      32.823  26.667  23.673  1.00  0.00     0.113 A 
ATOM     23  C   UNL A   1      33.660  27.126  24.685  1.00  0.00     0.036 A 
ATOM     24  N   UNL A   1      31.518  27.019  23.552  1.00  0.00    -0.253 NA
ATOM     25  C   UNL A   1      33.131  27.996  25.640  1.00  0.00    -0.047 A 
ATOM     26  C   UNL A   1      31.042  27.889  24.464  1.00  0.00     0.112 A 
ATOM     27  C   UNL A   1      33.969  28.516  26.768  1.00  0.00     0.044 C 
ATOM     28  C   UNL A   1      31.796  28.392  25.515  1.00  0.00     0.023 A 
ENDBRANCH  20  22
ENDBRANCH  16  20
ENDBRANCH   7   8
ENDBRANCH   4   7
ENDBRANCH   2   3
ENDBRANCH   1   2
BRANCH   1  29
ATOM     29  C   UNL A   1      38.177  19.788  24.944  1.00  0.00     0.023 C 
BRANCH  29  30
ATOM     30  C   UNL A   1      39.415  20.143  25.755  1.00  0.00     0.116 C 
BRANCH  30  31
ATOM     31  N   UNL A   1      40.377  19.054  25.845  1.00  0.00    -0.352 N 
ATOM     32  C   UNL A   1      41.727  19.116  26.089  1.00  0.00     0.251 C 
ATOM     33  H   UNL A   1      40.009  18.151  25.713  1.00  0.00     0.163 HD
ATOM     34  O   UNL A   1      42.421  18.107  26.015  1.00  0.00    -0.269 OA
BRANCH  32  35
ATOM     35  C   UNL A   1      42.351  20.419  26.404  1.00  0.00     0.039 A 
ATOM     36  C   UNL A   1      42.955  21.142  25.372  1.00  0.00     0.014 A 
ATOM     37  C   UNL A   1      42.312  20.939  27.700  1.00  0.00     0.014 A 
ATOM     38  C   UNL A   1      43.458  22.419  25.628  1.00  0.00     0.010 A 
ATOM     39  C   UNL A   1      42.742  22.240  27.934  1.00  0.00     0.010 A 
ATOM     40  C   UNL A   1      43.320  22.994  26.902  1.00  0.00    -0.014 A 
BRANCH  40  41
ATOM     41  C   UNL A   1      43.765  24.385  27.169  1.00  0.00     0.031 A 
ATOM     42  C   UNL A   1      42.779  25.419  27.637  1.00  0.00     0.074 A 
ATOM     43  C   UNL A   1      45.041  24.737  26.920  1.00  0.00     0.049 A 
ATOM     44  N   UNL A   1      42.959  26.697  27.857  1.00  0.00    -0.248 NA
ATOM     45  C   UNL A   1      41.400  24.958  27.857  1.00  0.00     0.031 C 
ATOM     46  C   UNL A   1      46.078  23.841  26.406  1.00  0.00     0.029 A 
ATOM     47  N   UNL A   1      45.679  25.945  27.049  1.00  0.00    -0.354 N 
ATOM     48  C   UNL A   1      41.718  27.192  28.234  1.00  0.00     0.074 A 
ATOM     49  C   UNL A   1      40.781  26.092  28.146  1.00  0.00     0.031 C 
ATOM     50  C   UNL A   1      47.225  24.526  26.276  1.00  0.00     0.029 A 
ATOM     51  C   UNL A   1      46.996  25.916  26.661  1.00  0.00     0.049 A 
ATOM     52  H   UNL A   1      45.235  26.755  27.388  1.00  0.00     0.167 HD
ATOM     53  C   UNL A   1      41.394  28.442  28.643  1.00  0.00     0.037 A 
ATOM     54  C   UNL A   1      47.912  26.901  26.606  1.00  0.00     0.037 A 
ATOM     55  C   UNL A   1      42.331  29.531  28.733  1.00  0.00     0.049 A 
ATOM     56  C   UNL A   1      47.530  28.286  27.054  1.00  0.00     0.074 A 
ATOM     57  C   UNL A   1      42.116  30.822  29.183  1.00  0.00     0.029 A 
ATOM     58  N   UNL A   1      43.665  29.458  28.355  1.00  0.00    -0.354 N 
ATOM     59  N   UNL A   1      46.372  28.726  27.481  1.00  0.00    -0.248 NA
ATOM     60  C   UNL A   1      48.586  29.307  27.022  1.00  0.00     0.031 C 
ATOM     61  C   UNL A   1      43.305  31.544  29.026  1.00  0.00     0.029 A 
ATOM     62  C   UNL A   1      44.279  30.688  28.537  1.00  0.00     0.049 A 
ATOM     63  H   UNL A   1      44.110  28.651  28.008  1.00  0.00     0.167 HD
ATOM     64  C   UNL A   1      46.562  30.067  27.789  1.00  0.00     0.074 A 
ATOM     65  C   UNL A   1      47.954  30.362  27.516  1.00  0.00     0.031 C 
ATOM     66  C   UNL A   1      45.665  30.970  28.256  1.00  0.00     0.037 A 
BRANCH  53  67
ATOM     67  C   UNL A   1      39.961  28.691  29.022  1.00  0.00     0.064 A 
ATOM     68  C   UNL A   1      39.490  28.451  30.323  1.00  0.00     0.173 A 
ATOM     69  C   UNL A   1      39.046  29.178  28.076  1.00  0.00     0.173 A 
ATOM     70  F   UNL A   1      40.320  27.976  31.265  1.00  0.00    -0.203 F 
ATOM     71  C   UNL A   1      38.151  28.645  30.651  1.00  0.00     0.198 A 
ATOM     72  C   UNL A   1      37.714  29.405  28.417  1.00  0.00     0.198 A 
ATOM     73  F   UNL A   1      39.441  29.433  26.820  1.00  0.00    -0.203 F 
ATOM     74  F   UNL A   1      37.714  28.343  31.880  1.00  0.00    -0.200 F 
ATOM     75  C   UNL A   1      37.266  29.127  29.699  1.00  0.00     0.200 A 
ATOM     76  F   UNL A   1      36.863  29.886  27.500  1.00  0.00    -0.200 F 
ATOM     77  F   UNL A   1      35.976  29.312  30.014  1.00  0.00    -0.200 F 
ENDBRANCH  53  67
BRANCH  54  78
ATOM     78  C   UNL A   1      49.285  26.599  26.123  1.00  0.00     0.064 A 
ATOM     79  C   UNL A   1      49.661  26.867  24.800  1.00  0.00     0.173 A 
ATOM     80  C   UNL A   1      50.254  26.056  26.980  1.00  0.00     0.173 A 
ATOM     81  F   UNL A   1      48.765  27.368  23.937  1.00  0.00    -0.203 F 
ATOM     82  C   UNL A   1      50.952  26.594  24.349  1.00  0.00     0.198 A 
ATOM     83  C   UNL A   1      51.551  25.811  26.537  1.00  0.00     0.198 A 
ATOM     84  F   UNL A   1      49.946  25.787  28.257  1.00  0.00    -0.203 F 
ATOM     85  F   UNL A   1      51.275  26.826  23.070  1.00  0.00    -0.200 F 
ATOM     86  C   UNL A   1      51.897  26.074  25.220  1.00  0.00     0.200 A 
ATOM     87  F   UNL A   1      52.467  25.325  27.386  1.00  0.00    -0.200 F 
ATOM     88  F   UNL A   1      53.141  25.824  24.790  1.00  0.00    -0.200 F 
ENDBRANCH  54  78
BRANCH  66  89
ATOM     89  C   UNL A   1      46.165  32.360  28.530  1.00  0.00     0.064 A 
ATOM     90  C   UNL A   1      46.717  32.714  29.770  1.00  0.00     0.173 A 
ATOM     91  C   UNL A   1      46.130  33.338  27.524  1.00  0.00     0.173 A 
ATOM     92  F   UNL A   1      46.762  31.822  30.770  1.00  0.00    -0.203 F 
ATOM     93  C   UNL A   1      47.190  34.004  30.000  1.00  0.00     0.198 A 
ATOM     94  C   UNL A   1      46.633  34.617  27.748  1.00  0.00     0.198 A 
ATOM     95  F   UNL A   1      45.618  33.050  26.318  1.00  0.00    -0.203 F 
ATOM     96  F   UNL A   1      47.668  34.335  31.209  1.00  0.00    -0.200 F 
ATOM     97  C   UNL A   1      47.155  34.951  28.987  1.00  0.00     0.200 A 
ATOM     98  F   UNL A   1      46.612  35.525  26.763  1.00  0.00    -0.200 F 
ATOM     99  F   UNL A   1      47.619  36.188  29.209  1.00  0.00    -0.200 F 
ENDBRANCH  66  89
ENDBRANCH  40  41
ENDBRANCH  32  35
ENDBRANCH  30  31
ENDBRANCH  29  30
ENDBRANCH   1  29
TORSDOF 15
ENDMDL
