MODEL 1
REMARK VINA RESULT:     -12.6      0.000      0.000
REMARK SMILES CC[C@@H]1[NH2+][C@@H](C(=O)NCCCCNC(=O)c2ccc(-c3c4nc(c(-c5c(F)c(F)c(F)c(F)c5F)c5ccc([nH]5)c(-c5c(F)c(F)c(F)c(F)c5F)c5nc(c(-c6c(F)c(F)c(F)c(F)c6F)c6ccc3[nH]6)C=C5)C=C4)cc2)Cc2c1[nH]c1ccccc21
REMARK SMILES IDX 11 1 10 2 9 3 8 4 6 5 7 6 5 8 3 9 4 10 81 11 80 14 82 15
REMARK SMILES IDX 79 16 88 17 83 18 87 20 84 21 86 22 85 23 2 24 1 25 12 26
REMARK SMILES IDX 13 27 14 28 15 30 16 31 17 32 78 33 18 34 77 35 19 36 20 37
REMARK SMILES IDX 21 38 71 39 22 40 76 41 70 42 72 43 23 44 75 45 69 46 68 47
REMARK SMILES IDX 24 49 56 50 36 51 55 52 37 53 40 54 54 55 73 56 38 57 39 58
REMARK SMILES IDX 53 60 74 61 41 62 25 63 26 64 34 65 27 66 28 67 32 68 35 69
REMARK SMILES IDX 29 70 30 71 33 72 31 73 57 74 58 75 66 76 59 77 60 78 64 79
REMARK SMILES IDX 67 80 61 81 62 82 65 83 63 84 42 85 43 86 51 87 44 88 45 89
REMARK SMILES IDX 49 90 52 91 46 92 47 93 50 94 48 95
REMARK H PARENT 8 7 4 12 4 13 82 19 13 29 72 48 40 59
REMARK Flexibility Score: inf
ROOT
ATOM      1  C   UNL A   1      35.868  23.097  24.206  1.00  0.00     0.023 C 
ENDROOT
BRANCH   1   2
ATOM      2  C   UNL A   1      34.449  23.636  24.418  1.00  0.00     0.023 C 
BRANCH   2   3
ATOM      3  C   UNL A   1      33.395  23.145  23.423  1.00  0.00     0.116 C 
BRANCH   3   4
ATOM      4  N   UNL A   1      33.382  23.938  22.209  1.00  0.00    -0.351 N 
ATOM      5  C   UNL A   1      33.051  25.208  21.891  1.00  0.00     0.278 C 
ATOM      6  O   UNL A   1      33.181  25.480  20.683  1.00  0.00    -0.268 OA
ATOM      7  H   UNL A   1      33.689  23.425  21.426  1.00  0.00     0.163 HD
BRANCH   5   8
ATOM      8  C   UNL A   1      32.538  26.321  22.842  1.00  0.00     0.277 C 
ATOM      9  C   UNL A   1      30.857  28.197  22.730  1.00  0.00     0.230 C 
ATOM     10  N   UNL A   1      31.630  27.174  22.009  1.00  0.00    -0.328 N 
ATOM     11  C   UNL A   1      31.660  28.766  23.849  1.00  0.00     0.078 A 
ATOM     12  H   UNL A   1      32.204  27.652  21.313  1.00  0.00     0.347 HD
ATOM     13  H   UNL A   1      30.938  26.536  21.617  1.00  0.00     0.347 HD
ATOM     14  C   UNL A   1      32.875  28.305  24.304  1.00  0.00    -0.007 A 
ATOM     15  N   UNL A   1      31.304  29.842  24.614  1.00  0.00    -0.353 N 
ATOM     16  C   UNL A   1      33.556  27.163  23.627  1.00  0.00     0.113 C 
ATOM     17  C   UNL A   1      33.239  29.076  25.439  1.00  0.00     0.003 A 
ATOM     18  C   UNL A   1      32.235  30.033  25.614  1.00  0.00     0.046 A 
ATOM     19  H   UNL A   1      30.503  30.398  24.474  1.00  0.00     0.166 HD
ATOM     20  C   UNL A   1      34.316  29.055  26.345  1.00  0.00     0.010 A 
ATOM     21  C   UNL A   1      32.259  30.972  26.652  1.00  0.00     0.026 A 
ATOM     22  C   UNL A   1      34.349  29.980  27.395  1.00  0.00     0.001 A 
ATOM     23  C   UNL A   1      33.335  30.924  27.542  1.00  0.00     0.002 A 
BRANCH   9  24
ATOM     24  C   UNL A   1      29.451  27.733  23.168  1.00  0.00     0.068 C 
ATOM     25  C   UNL A   1      29.387  26.528  24.096  1.00  0.00     0.011 C 
ENDBRANCH   9  24
ENDBRANCH   5   8
ENDBRANCH   3   4
ENDBRANCH   2   3
ENDBRANCH   1   2
BRANCH   1  26
ATOM     26  C   UNL A   1      36.943  23.699  25.107  1.00  0.00     0.116 C 
BRANCH  26  27
ATOM     27  N   UNL A   1      37.994  22.750  25.441  1.00  0.00    -0.352 N 
ATOM     28  C   UNL A   1      39.173  22.945  26.115  1.00  0.00     0.251 C 
ATOM     29  H   UNL A   1      37.834  21.827  25.137  1.00  0.00     0.163 HD
ATOM     30  O   UNL A   1      40.000  22.031  26.167  1.00  0.00    -0.269 OA
BRANCH  28  31
ATOM     31  C   UNL A   1      39.485  24.243  26.756  1.00  0.00     0.039 A 
ATOM     32  C   UNL A   1      39.056  24.463  28.069  1.00  0.00     0.014 A 
ATOM     33  C   UNL A   1      40.168  25.253  26.072  1.00  0.00     0.014 A 
ATOM     34  C   UNL A   1      39.370  25.662  28.717  1.00  0.00     0.010 A 
ATOM     35  C   UNL A   1      40.540  26.420  26.741  1.00  0.00     0.010 A 
ATOM     36  C   UNL A   1      40.147  26.636  28.071  1.00  0.00    -0.014 A 
BRANCH  36  37
ATOM     37  C   UNL A   1      40.567  27.879  28.773  1.00  0.00     0.031 A 
ATOM     38  C   UNL A   1      41.967  28.020  29.303  1.00  0.00     0.074 A 
ATOM     39  C   UNL A   1      39.667  28.857  28.991  1.00  0.00     0.049 A 
ATOM     40  N   UNL A   1      42.493  28.993  30.006  1.00  0.00    -0.248 NA
ATOM     41  C   UNL A   1      42.892  26.910  29.029  1.00  0.00     0.031 C 
ATOM     42  C   UNL A   1      38.267  28.829  28.567  1.00  0.00     0.029 A 
ATOM     43  N   UNL A   1      39.792  30.063  29.637  1.00  0.00    -0.354 N 
ATOM     44  C   UNL A   1      43.800  28.606  30.270  1.00  0.00     0.074 A 
ATOM     45  C   UNL A   1      43.974  27.289  29.693  1.00  0.00     0.031 C 
ATOM     46  C   UNL A   1      37.667  29.968  28.948  1.00  0.00     0.029 A 
ATOM     47  C   UNL A   1      38.628  30.792  29.675  1.00  0.00     0.049 A 
ATOM     48  H   UNL A   1      40.637  30.376  30.035  1.00  0.00     0.167 HD
ATOM     49  C   UNL A   1      44.773  29.293  30.916  1.00  0.00     0.037 A 
ATOM     50  C   UNL A   1      38.361  31.985  30.242  1.00  0.00     0.037 A 
ATOM     51  C   UNL A   1      44.608  30.613  31.467  1.00  0.00     0.049 A 
ATOM     52  C   UNL A   1      39.458  32.724  30.959  1.00  0.00     0.074 A 
ATOM     53  C   UNL A   1      45.553  31.414  32.084  1.00  0.00     0.029 A 
ATOM     54  N   UNL A   1      43.419  31.326  31.469  1.00  0.00    -0.354 N 
ATOM     55  N   UNL A   1      40.708  32.376  31.143  1.00  0.00    -0.248 NA
ATOM     56  C   UNL A   1      39.106  34.028  31.541  1.00  0.00     0.031 C 
ATOM     57  C   UNL A   1      44.925  32.593  32.499  1.00  0.00     0.029 A 
ATOM     58  C   UNL A   1      43.600  32.548  32.097  1.00  0.00     0.049 A 
ATOM     59  H   UNL A   1      42.570  31.010  31.082  1.00  0.00     0.167 HD
ATOM     60  C   UNL A   1      41.298  33.425  31.835  1.00  0.00     0.074 A 
ATOM     61  C   UNL A   1      40.272  34.430  32.026  1.00  0.00     0.031 C 
ATOM     62  C   UNL A   1      42.574  33.545  32.272  1.00  0.00     0.037 A 
BRANCH  49  63
ATOM     63  C   UNL A   1      46.112  28.629  31.062  1.00  0.00     0.064 A 
ATOM     64  C   UNL A   1      47.110  28.765  30.086  1.00  0.00     0.173 A 
ATOM     65  C   UNL A   1      46.417  27.884  32.211  1.00  0.00     0.173 A 
ATOM     66  F   UNL A   1      46.867  29.458  28.964  1.00  0.00    -0.203 F 
ATOM     67  C   UNL A   1      48.353  28.155  30.241  1.00  0.00     0.198 A 
ATOM     68  C   UNL A   1      47.670  27.301  32.378  1.00  0.00     0.198 A 
ATOM     69  F   UNL A   1      45.501  27.731  33.180  1.00  0.00    -0.203 F 
ATOM     70  F   UNL A   1      49.274  28.259  29.273  1.00  0.00    -0.200 F 
ATOM     71  C   UNL A   1      48.634  27.431  31.390  1.00  0.00     0.200 A 
ATOM     72  F   UNL A   1      47.945  26.614  33.495  1.00  0.00    -0.200 F 
ATOM     73  F   UNL A   1      49.834  26.852  31.541  1.00  0.00    -0.200 F 
ENDBRANCH  49  63
BRANCH  50  74
ATOM     74  C   UNL A   1      36.998  32.567  30.135  1.00  0.00     0.064 A 
ATOM     75  C   UNL A   1      36.610  33.284  28.994  1.00  0.00     0.173 A 
ATOM     76  C   UNL A   1      36.060  32.427  31.168  1.00  0.00     0.173 A 
ATOM     77  F   UNL A   1      37.480  33.463  27.990  1.00  0.00    -0.203 F 
ATOM     78  C   UNL A   1      35.343  33.854  28.899  1.00  0.00     0.198 A 
ATOM     79  C   UNL A   1      34.783  32.974  31.060  1.00  0.00     0.198 A 
ATOM     80  F   UNL A   1      36.381  31.747  32.279  1.00  0.00    -0.203 F 
ATOM     81  F   UNL A   1      35.014  34.573  27.817  1.00  0.00    -0.200 F 
ATOM     82  C   UNL A   1      34.428  33.695  29.930  1.00  0.00     0.200 A 
ATOM     83  F   UNL A   1      33.898  32.806  32.052  1.00  0.00    -0.200 F 
ATOM     84  F   UNL A   1      33.209  34.241  29.837  1.00  0.00    -0.200 F 
ENDBRANCH  50  74
BRANCH  62  85
ATOM     85  C   UNL A   1      42.949  34.821  32.968  1.00  0.00     0.064 A 
ATOM     86  C   UNL A   1      42.875  34.949  34.363  1.00  0.00     0.173 A 
ATOM     87  C   UNL A   1      43.425  35.916  32.232  1.00  0.00     0.173 A 
ATOM     88  F   UNL A   1      42.412  33.935  35.110  1.00  0.00    -0.203 F 
ATOM     89  C   UNL A   1      43.240  36.136  34.993  1.00  0.00     0.198 A 
ATOM     90  C   UNL A   1      43.817  37.092  32.867  1.00  0.00     0.198 A 
ATOM     91  F   UNL A   1      43.521  35.843  30.896  1.00  0.00    -0.203 F 
ATOM     92  F   UNL A   1      43.118  36.252  36.322  1.00  0.00    -0.200 F 
ATOM     93  C   UNL A   1      43.718  37.203  34.245  1.00  0.00     0.200 A 
ATOM     94  F   UNL A   1      44.290  38.116  32.145  1.00  0.00    -0.200 F 
ATOM     95  F   UNL A   1      44.076  38.341  34.855  1.00  0.00    -0.200 F 
ENDBRANCH  62  85
ENDBRANCH  36  37
ENDBRANCH  28  31
ENDBRANCH  26  27
ENDBRANCH   1  26
TORSDOF 12
ENDMDL
MODEL 2
REMARK VINA RESULT:     -12.6      0.771      1.516
REMARK SMILES CC[C@@H]1[NH2+][C@@H](C(=O)NCCCCNC(=O)c2ccc(-c3c4nc(c(-c5c(F)c(F)c(F)c(F)c5F)c5ccc([nH]5)c(-c5c(F)c(F)c(F)c(F)c5F)c5nc(c(-c6c(F)c(F)c(F)c(F)c6F)c6ccc3[nH]6)C=C5)C=C4)cc2)Cc2c1[nH]c1ccccc21
REMARK SMILES IDX 11 1 10 2 9 3 8 4 6 5 7 6 5 8 3 9 4 10 81 11 80 14 82 15
REMARK SMILES IDX 79 16 88 17 83 18 87 20 84 21 86 22 85 23 2 24 1 25 12 26
REMARK SMILES IDX 13 27 14 28 15 30 16 31 17 32 78 33 18 34 77 35 19 36 20 37
REMARK SMILES IDX 21 38 71 39 22 40 76 41 70 42 72 43 23 44 75 45 69 46 68 47
REMARK SMILES IDX 24 49 56 50 36 51 55 52 37 53 40 54 54 55 73 56 38 57 39 58
REMARK SMILES IDX 53 60 74 61 41 62 25 63 26 64 34 65 27 66 28 67 32 68 35 69
REMARK SMILES IDX 29 70 30 71 33 72 31 73 57 74 58 75 66 76 59 77 60 78 64 79
REMARK SMILES IDX 67 80 61 81 62 82 65 83 63 84 42 85 43 86 51 87 44 88 45 89
REMARK SMILES IDX 49 90 52 91 46 92 47 93 50 94 48 95
REMARK H PARENT 8 7 4 12 4 13 82 19 13 29 72 48 40 59
REMARK Flexibility Score: inf
ROOT
ATOM      1  C   UNL A   1      34.908  23.536  25.139  1.00  0.00     0.023 C 
ENDROOT
BRANCH   1   2
ATOM      2  C   UNL A   1      34.660  22.990  23.729  1.00  0.00     0.023 C 
BRANCH   2   3
ATOM      3  C   UNL A   1      33.238  23.155  23.191  1.00  0.00     0.116 C 
BRANCH   3   4
ATOM      4  N   UNL A   1      33.199  23.982  22.000  1.00  0.00    -0.351 N 
ATOM      5  C   UNL A   1      32.894  25.269  21.730  1.00  0.00     0.278 C 
ATOM      6  O   UNL A   1      32.982  25.570  20.526  1.00  0.00    -0.268 OA
ATOM      7  H   UNL A   1      33.459  23.483  21.192  1.00  0.00     0.163 HD
BRANCH   5   8
ATOM      8  C   UNL A   1      32.451  26.369  22.730  1.00  0.00     0.277 C 
ATOM      9  C   UNL A   1      30.893  28.351  22.705  1.00  0.00     0.230 C 
ATOM     10  N   UNL A   1      31.600  27.314  21.938  1.00  0.00    -0.328 N 
ATOM     11  C   UNL A   1      31.731  28.819  23.847  1.00  0.00     0.078 A 
ATOM     12  H   UNL A   1      32.204  27.785  21.263  1.00  0.00     0.347 HD
ATOM     13  H   UNL A   1      30.869  26.739  21.520  1.00  0.00     0.347 HD
ATOM     14  C   UNL A   1      32.914  28.261  24.278  1.00  0.00    -0.007 A 
ATOM     15  N   UNL A   1      31.444  29.880  24.660  1.00  0.00    -0.353 N 
ATOM     16  C   UNL A   1      33.521  27.109  23.550  1.00  0.00     0.113 C 
ATOM     17  C   UNL A   1      33.326  28.956  25.445  1.00  0.00     0.003 A 
ATOM     18  C   UNL A   1      32.385  29.967  25.665  1.00  0.00     0.046 A 
ATOM     19  H   UNL A   1      30.680  30.491  24.547  1.00  0.00     0.166 HD
ATOM     20  C   UNL A   1      34.399  28.826  26.347  1.00  0.00     0.010 A 
ATOM     21  C   UNL A   1      32.468  30.855  26.743  1.00  0.00     0.026 A 
ATOM     22  C   UNL A   1      34.491  29.701  27.437  1.00  0.00     0.001 A 
ATOM     23  C   UNL A   1      33.539  30.700  27.628  1.00  0.00     0.002 A 
BRANCH   9  24
ATOM     24  C   UNL A   1      29.461  27.959  23.126  1.00  0.00     0.068 C 
ATOM     25  C   UNL A   1      28.353  28.945  22.779  1.00  0.00     0.011 C 
ENDBRANCH   9  24
ENDBRANCH   5   8
ENDBRANCH   3   4
ENDBRANCH   2   3
ENDBRANCH   1   2
BRANCH   1  26
ATOM     26  C   UNL A   1      36.329  24.017  25.421  1.00  0.00     0.116 C 
BRANCH  26  27
ATOM     27  N   UNL A   1      37.269  22.922  25.601  1.00  0.00    -0.352 N 
ATOM     28  C   UNL A   1      38.538  22.929  26.124  1.00  0.00     0.251 C 
ATOM     29  H   UNL A   1      36.945  22.041  25.302  1.00  0.00     0.163 HD
ATOM     30  O   UNL A   1      39.229  21.910  26.052  1.00  0.00    -0.269 OA
BRANCH  28  31
ATOM     31  C   UNL A   1      39.105  24.148  26.745  1.00  0.00     0.039 A 
ATOM     32  C   UNL A   1      39.883  25.002  25.957  1.00  0.00     0.014 A 
ATOM     33  C   UNL A   1      38.902  24.445  28.095  1.00  0.00     0.014 A 
ATOM     34  C   UNL A   1      40.398  26.183  26.502  1.00  0.00     0.010 A 
ATOM     35  C   UNL A   1      39.357  25.655  28.620  1.00  0.00     0.010 A 
ATOM     36  C   UNL A   1      40.108  26.538  27.829  1.00  0.00    -0.014 A 
BRANCH  36  37
ATOM     37  C   UNL A   1      40.571  27.831  28.400  1.00  0.00     0.031 A 
ATOM     38  C   UNL A   1      42.016  28.029  28.768  1.00  0.00     0.074 A 
ATOM     39  C   UNL A   1      39.678  28.808  28.650  1.00  0.00     0.049 A 
ATOM     40  N   UNL A   1      42.592  29.054  29.346  1.00  0.00    -0.248 NA
ATOM     41  C   UNL A   1      42.931  26.917  28.469  1.00  0.00     0.031 C 
ATOM     42  C   UNL A   1      38.242  28.730  28.381  1.00  0.00     0.029 A 
ATOM     43  N   UNL A   1      39.844  30.056  29.200  1.00  0.00    -0.354 N 
ATOM     44  C   UNL A   1      43.928  28.705  29.493  1.00  0.00     0.074 A 
ATOM     45  C   UNL A   1      44.069  27.356  28.987  1.00  0.00     0.031 C 
ATOM     46  C   UNL A   1      37.660  29.883  28.749  1.00  0.00     0.029 A 
ATOM     47  C   UNL A   1      38.675  30.768  29.315  1.00  0.00     0.049 A 
ATOM     48  H   UNL A   1      40.718  30.408  29.484  1.00  0.00     0.167 HD
ATOM     49  C   UNL A   1      44.948  29.449  29.986  1.00  0.00     0.037 A 
ATOM     50  C   UNL A   1      38.442  31.992  29.828  1.00  0.00     0.037 A 
ATOM     51  C   UNL A   1      44.813  30.800  30.465  1.00  0.00     0.049 A 
ATOM     52  C   UNL A   1      39.592  32.794  30.374  1.00  0.00     0.074 A 
ATOM     53  C   UNL A   1      45.799  31.655  30.925  1.00  0.00     0.029 A 
ATOM     54  N   UNL A   1      43.614  31.493  30.548  1.00  0.00    -0.354 N 
ATOM     55  N   UNL A   1      40.862  32.478  30.447  1.00  0.00    -0.248 NA
ATOM     56  C   UNL A   1      39.274  34.128  30.906  1.00  0.00     0.031 C 
ATOM     57  C   UNL A   1      45.193  32.849  31.328  1.00  0.00     0.029 A 
ATOM     58  C   UNL A   1      43.834  32.757  31.073  1.00  0.00     0.049 A 
ATOM     59  H   UNL A   1      42.737  31.140  30.275  1.00  0.00     0.167 HD
ATOM     60  C   UNL A   1      41.498  33.579  31.003  1.00  0.00     0.074 A 
ATOM     61  C   UNL A   1      40.476  34.579  31.236  1.00  0.00     0.031 C 
ATOM     62  C   UNL A   1      42.811  33.747  31.292  1.00  0.00     0.037 A 
BRANCH  49  63
ATOM     63  C   UNL A   1      46.309  28.816  30.031  1.00  0.00     0.064 A 
ATOM     64  C   UNL A   1      46.750  28.100  31.154  1.00  0.00     0.173 A 
ATOM     65  C   UNL A   1      47.166  28.891  28.923  1.00  0.00     0.173 A 
ATOM     66  F   UNL A   1      45.973  28.007  32.243  1.00  0.00    -0.203 F 
ATOM     67  C   UNL A   1      48.010  27.506  31.176  1.00  0.00     0.198 A 
ATOM     68  C   UNL A   1      48.413  28.271  28.937  1.00  0.00     0.198 A 
ATOM     69  F   UNL A   1      46.790  29.556  27.820  1.00  0.00    -0.203 F 
ATOM     70  F   UNL A   1      48.428  26.868  32.278  1.00  0.00    -0.200 F 
ATOM     71  C   UNL A   1      48.837  27.586  30.066  1.00  0.00     0.200 A 
ATOM     72  F   UNL A   1      49.205  28.336  27.858  1.00  0.00    -0.200 F 
ATOM     73  F   UNL A   1      50.046  27.007  30.087  1.00  0.00    -0.200 F 
ENDBRANCH  49  63
BRANCH  50  74
ATOM     74  C   UNL A   1      37.063  32.544  29.830  1.00  0.00     0.064 A 
ATOM     75  C   UNL A   1      36.571  33.253  28.725  1.00  0.00     0.173 A 
ATOM     76  C   UNL A   1      36.213  32.384  30.934  1.00  0.00     0.173 A 
ATOM     77  F   UNL A   1      37.356  33.451  27.656  1.00  0.00    -0.203 F 
ATOM     78  C   UNL A   1      35.288  33.796  28.731  1.00  0.00     0.198 A 
ATOM     79  C   UNL A   1      34.920  32.904  30.927  1.00  0.00     0.198 A 
ATOM     80  F   UNL A   1      36.634  31.711  32.014  1.00  0.00    -0.203 F 
ATOM     81  F   UNL A   1      34.860  34.508  27.679  1.00  0.00    -0.200 F 
ATOM     82  C   UNL A   1      34.462  33.617  29.830  1.00  0.00     0.200 A 
ATOM     83  F   UNL A   1      34.119  32.717  31.986  1.00  0.00    -0.200 F 
ATOM     84  F   UNL A   1      33.228  34.137  29.834  1.00  0.00    -0.200 F 
ENDBRANCH  50  74
BRANCH  62  85
ATOM     85  C   UNL A   1      43.228  35.072  31.860  1.00  0.00     0.064 A 
ATOM     86  C   UNL A   1      43.221  35.317  33.241  1.00  0.00     0.173 A 
ATOM     87  C   UNL A   1      43.678  36.097  31.013  1.00  0.00     0.173 A 
ATOM     88  F   UNL A   1      42.785  34.375  34.092  1.00  0.00    -0.203 F 
ATOM     89  C   UNL A   1      43.625  36.549  33.751  1.00  0.00     0.198 A 
ATOM     90  C   UNL A   1      44.109  37.316  31.529  1.00  0.00     0.198 A 
ATOM     91  F   UNL A   1      43.710  35.911  29.685  1.00  0.00    -0.203 F 
ATOM     92  F   UNL A   1      43.567  36.776  35.071  1.00  0.00    -0.200 F 
ATOM     93  C   UNL A   1      44.076  37.543  32.896  1.00  0.00     0.200 A 
ATOM     94  F   UNL A   1      44.556  38.271  30.702  1.00  0.00    -0.200 F 
ATOM     95  F   UNL A   1      44.472  38.725  33.391  1.00  0.00    -0.200 F 
ENDBRANCH  62  85
ENDBRANCH  36  37
ENDBRANCH  28  31
ENDBRANCH  26  27
ENDBRANCH   1  26
TORSDOF 12
ENDMDL
MODEL 3
REMARK VINA RESULT:     -12.5      3.343      8.849
REMARK SMILES CC[C@@H]1[NH2+][C@@H](C(=O)NCCCCNC(=O)c2ccc(-c3c4nc(c(-c5c(F)c(F)c(F)c(F)c5F)c5ccc([nH]5)c(-c5c(F)c(F)c(F)c(F)c5F)c5nc(c(-c6c(F)c(F)c(F)c(F)c6F)c6ccc3[nH]6)C=C5)C=C4)cc2)Cc2c1[nH]c1ccccc21
REMARK SMILES IDX 11 1 10 2 9 3 8 4 6 5 7 6 5 8 3 9 4 10 81 11 80 14 82 15
REMARK SMILES IDX 79 16 88 17 83 18 87 20 84 21 86 22 85 23 2 24 1 25 12 26
REMARK SMILES IDX 13 27 14 28 15 30 16 31 17 32 78 33 18 34 77 35 19 36 20 37
REMARK SMILES IDX 21 38 71 39 22 40 76 41 70 42 72 43 23 44 75 45 69 46 68 47
REMARK SMILES IDX 24 49 56 50 36 51 55 52 37 53 40 54 54 55 73 56 38 57 39 58
REMARK SMILES IDX 53 60 74 61 41 62 25 63 26 64 34 65 27 66 28 67 32 68 35 69
REMARK SMILES IDX 29 70 30 71 33 72 31 73 57 74 58 75 66 76 59 77 60 78 64 79
REMARK SMILES IDX 67 80 61 81 62 82 65 83 63 84 42 85 43 86 51 87 44 88 45 89
REMARK SMILES IDX 49 90 52 91 46 92 47 93 50 94 48 95
REMARK H PARENT 8 7 4 12 4 13 82 19 13 29 72 48 40 59
REMARK Flexibility Score: inf
ROOT
ATOM      1  C   UNL A   1      32.248  27.813  26.793  1.00  0.00     0.023 C 
ENDROOT
BRANCH   1   2
ATOM      2  C   UNL A   1      32.279  26.887  25.573  1.00  0.00     0.023 C 
BRANCH   2   3
ATOM      3  C   UNL A   1      30.929  26.317  25.134  1.00  0.00     0.116 C 
BRANCH   3   4
ATOM      4  N   UNL A   1      30.443  25.302  26.048  1.00  0.00    -0.351 N 
ATOM      5  C   UNL A   1      30.849  24.070  26.423  1.00  0.00     0.278 C 
ATOM      6  O   UNL A   1      30.103  23.520  27.253  1.00  0.00    -0.268 OA
ATOM      7  H   UNL A   1      29.616  25.578  26.506  1.00  0.00     0.163 HD
BRANCH   5   8
ATOM      8  C   UNL A   1      32.102  23.295  25.937  1.00  0.00     0.277 C 
ATOM      9  C   UNL A   1      32.707  20.891  25.478  1.00  0.00     0.230 C 
ATOM     10  N   UNL A   1      31.750  21.843  26.060  1.00  0.00    -0.328 N 
ATOM     11  C   UNL A   1      34.105  21.377  25.659  1.00  0.00     0.078 A 
ATOM     12  H   UNL A   1      31.663  21.628  27.054  1.00  0.00     0.347 HD
ATOM     13  H   UNL A   1      30.889  21.725  25.527  1.00  0.00     0.347 HD
ATOM     14  C   UNL A   1      34.488  22.616  26.124  1.00  0.00    -0.007 A 
ATOM     15  N   UNL A   1      35.237  20.663  25.379  1.00  0.00    -0.353 N 
ATOM     16  C   UNL A   1      33.468  23.610  26.568  1.00  0.00     0.113 C 
ATOM     17  C   UNL A   1      35.903  22.691  26.050  1.00  0.00     0.003 A 
ATOM     18  C   UNL A   1      36.349  21.453  25.578  1.00  0.00     0.046 A 
ATOM     19  H   UNL A   1      35.256  19.725  25.080  1.00  0.00     0.166 HD
ATOM     20  C   UNL A   1      36.856  23.690  26.328  1.00  0.00     0.010 A 
ATOM     21  C   UNL A   1      37.703  21.166  25.373  1.00  0.00     0.026 A 
ATOM     22  C   UNL A   1      38.214  23.422  26.118  1.00  0.00     0.001 A 
ATOM     23  C   UNL A   1      38.628  22.177  25.648  1.00  0.00     0.002 A 
BRANCH   9  24
ATOM     24  C   UNL A   1      32.390  20.488  24.021  1.00  0.00     0.068 C 
ATOM     25  C   UNL A   1      32.526  19.012  23.674  1.00  0.00     0.011 C 
ENDBRANCH   9  24
ENDBRANCH   5   8
ENDBRANCH   3   4
ENDBRANCH   2   3
ENDBRANCH   1   2
BRANCH   1  26
ATOM     26  C   UNL A   1      33.602  28.349  27.251  1.00  0.00     0.116 C 
BRANCH  26  27
ATOM     27  N   UNL A   1      33.574  29.772  27.547  1.00  0.00    -0.352 N 
ATOM     28  C   UNL A   1      34.540  30.575  28.101  1.00  0.00     0.251 C 
ATOM     29  H   UNL A   1      32.734  30.230  27.313  1.00  0.00     0.163 HD
ATOM     30  O   UNL A   1      34.261  31.737  28.404  1.00  0.00    -0.269 OA
BRANCH  28  31
ATOM     31  C   UNL A   1      35.902  30.060  28.370  1.00  0.00     0.039 A 
ATOM     32  C   UNL A   1      36.859  30.132  27.353  1.00  0.00     0.014 A 
ATOM     33  C   UNL A   1      36.239  29.486  29.599  1.00  0.00     0.014 A 
ATOM     34  C   UNL A   1      38.166  29.692  27.588  1.00  0.00     0.010 A 
ATOM     35  C   UNL A   1      37.559  29.113  29.856  1.00  0.00     0.010 A 
ATOM     36  C   UNL A   1      38.537  29.214  28.855  1.00  0.00    -0.014 A 
BRANCH  36  37
ATOM     37  C   UNL A   1      39.942  28.825  29.152  1.00  0.00     0.031 A 
ATOM     38  C   UNL A   1      40.856  29.770  29.881  1.00  0.00     0.074 A 
ATOM     39  C   UNL A   1      40.416  27.645  28.706  1.00  0.00     0.049 A 
ATOM     40  N   UNL A   1      42.130  29.640  30.163  1.00  0.00    -0.248 NA
ATOM     41  C   UNL A   1      40.269  31.041  30.333  1.00  0.00     0.031 C 
ATOM     42  C   UNL A   1      39.647  26.657  27.951  1.00  0.00     0.029 A 
ATOM     43  N   UNL A   1      41.664  27.083  28.814  1.00  0.00    -0.354 N 
ATOM     44  C   UNL A   1      42.497  30.814  30.807  1.00  0.00     0.074 A 
ATOM     45  C   UNL A   1      41.326  31.664  30.835  1.00  0.00     0.031 C 
ATOM     46  C   UNL A   1      40.433  25.602  27.677  1.00  0.00     0.029 A 
ATOM     47  C   UNL A   1      41.771  25.856  28.204  1.00  0.00     0.049 A 
ATOM     48  H   UNL A   1      42.413  27.517  29.284  1.00  0.00     0.167 HD
ATOM     49  C   UNL A   1      43.696  31.144  31.346  1.00  0.00     0.037 A 
ATOM     50  C   UNL A   1      42.829  25.032  28.074  1.00  0.00     0.037 A 
ATOM     51  C   UNL A   1      44.854  30.288  31.342  1.00  0.00     0.049 A 
ATOM     52  C   UNL A   1      44.150  25.426  28.677  1.00  0.00     0.074 A 
ATOM     53  C   UNL A   1      46.093  30.511  31.917  1.00  0.00     0.029 A 
ATOM     54  N   UNL A   1      44.916  29.046  30.730  1.00  0.00    -0.354 N 
ATOM     55  N   UNL A   1      44.466  26.510  29.342  1.00  0.00    -0.248 NA
ATOM     56  C   UNL A   1      45.260  24.477  28.513  1.00  0.00     0.031 C 
ATOM     57  C   UNL A   1      46.919  29.424  31.615  1.00  0.00     0.029 A 
ATOM     58  C   UNL A   1      46.180  28.500  30.894  1.00  0.00     0.049 A 
ATOM     59  H   UNL A   1      44.173  28.614  30.250  1.00  0.00     0.167 HD
ATOM     60  C   UNL A   1      45.799  26.362  29.701  1.00  0.00     0.074 A 
ATOM     61  C   UNL A   1      46.228  25.077  29.192  1.00  0.00     0.031 C 
ATOM     62  C   UNL A   1      46.594  27.215  30.391  1.00  0.00     0.037 A 
BRANCH  49  63
ATOM     63  C   UNL A   1      43.818  32.495  31.991  1.00  0.00     0.064 A 
ATOM     64  C   UNL A   1      44.223  33.624  31.263  1.00  0.00     0.173 A 
ATOM     65  C   UNL A   1      43.486  32.672  33.343  1.00  0.00     0.173 A 
ATOM     66  F   UNL A   1      44.561  33.507  29.970  1.00  0.00    -0.203 F 
ATOM     67  C   UNL A   1      44.318  34.874  31.870  1.00  0.00     0.198 A 
ATOM     68  C   UNL A   1      43.553  33.927  33.940  1.00  0.00     0.198 A 
ATOM     69  F   UNL A   1      43.085  31.627  34.083  1.00  0.00    -0.203 F 
ATOM     70  F   UNL A   1      44.752  35.927  31.166  1.00  0.00    -0.200 F 
ATOM     71  C   UNL A   1      43.976  35.026  33.206  1.00  0.00     0.200 A 
ATOM     72  F   UNL A   1      43.209  34.076  35.226  1.00  0.00    -0.200 F 
ATOM     73  F   UNL A   1      44.060  36.231  33.787  1.00  0.00    -0.200 F 
ENDBRANCH  49  63
BRANCH  50  74
ATOM     74  C   UNL A   1      42.676  23.738  27.360  1.00  0.00     0.064 A 
ATOM     75  C   UNL A   1      42.087  22.634  27.991  1.00  0.00     0.173 A 
ATOM     76  C   UNL A   1      43.121  23.575  26.040  1.00  0.00     0.173 A 
ATOM     77  F   UNL A   1      41.668  22.735  29.261  1.00  0.00    -0.203 F 
ATOM     78  C   UNL A   1      41.965  21.410  27.336  1.00  0.00     0.198 A 
ATOM     79  C   UNL A   1      42.973  22.359  25.376  1.00  0.00     0.198 A 
ATOM     80  F   UNL A   1      43.688  24.602  25.390  1.00  0.00    -0.203 F 
ATOM     81  F   UNL A   1      41.440  20.359  27.979  1.00  0.00    -0.200 F 
ATOM     82  C   UNL A   1      42.404  21.275  26.027  1.00  0.00     0.200 A 
ATOM     83  F   UNL A   1      43.386  22.236  24.107  1.00  0.00    -0.200 F 
ATOM     84  F   UNL A   1      42.285  20.100  25.397  1.00  0.00    -0.200 F 
ENDBRANCH  50  74
BRANCH  62  85
ATOM     85  C   UNL A   1      48.001  26.773  30.671  1.00  0.00     0.064 A 
ATOM     86  C   UNL A   1      48.311  25.953  31.766  1.00  0.00     0.173 A 
ATOM     87  C   UNL A   1      49.045  27.144  29.811  1.00  0.00     0.173 A 
ATOM     88  F   UNL A   1      47.351  25.584  32.627  1.00  0.00    -0.203 F 
ATOM     89  C   UNL A   1      49.621  25.542  32.003  1.00  0.00     0.198 A 
ATOM     90  C   UNL A   1      50.348  26.707  30.034  1.00  0.00     0.198 A 
ATOM     91  F   UNL A   1      48.800  27.922  28.746  1.00  0.00    -0.203 F 
ATOM     92  F   UNL A   1      49.902  24.796  33.081  1.00  0.00    -0.200 F 
ATOM     93  C   UNL A   1      50.635  25.912  31.133  1.00  0.00     0.200 A 
ATOM     94  F   UNL A   1      51.324  27.055  29.185  1.00  0.00    -0.200 F 
ATOM     95  F   UNL A   1      51.893  25.508  31.359  1.00  0.00    -0.200 F 
ENDBRANCH  62  85
ENDBRANCH  36  37
ENDBRANCH  28  31
ENDBRANCH  26  27
ENDBRANCH   1  26
TORSDOF 12
ENDMDL
