MODEL 1
REMARK VINA RESULT:     -11.8      0.000      0.000
REMARK SMILES O=C(COCCNC(=O)Nc1cccc(F)c1)NCCCCNC(=O)c1ccc(-c2c3nc(c(-c4c(F)c(F)c(F)c(F)c4F)c4ccc([nH]4)c(-c4c(F)c(F)c(F)c(F)c4F)c4nc(c(-c5c(F)c(F)c(F)c(F)c5F)c5ccc2[nH]5)C=C4)C=C3)cc1
REMARK SMILES IDX 19 1 18 2 1 3 2 4 3 6 4 7 5 8 6 9 7 10 8 11 9 13 10 14 11 16
REMARK SMILES IDX 12 17 17 18 13 19 15 20 14 21 16 22 20 23 21 24 22 25 23 26
REMARK SMILES IDX 24 27 25 29 26 30 27 31 88 32 28 33 87 34 29 35 30 36 31 37
REMARK SMILES IDX 81 38 32 39 86 40 80 41 82 42 33 43 85 44 79 45 78 46 34 48
REMARK SMILES IDX 66 49 46 50 65 51 47 52 50 53 64 54 83 55 48 56 49 57 63 59
REMARK SMILES IDX 84 60 51 61 35 62 36 63 44 64 37 65 38 66 42 67 45 68 39 69
REMARK SMILES IDX 40 70 43 71 41 72 67 73 68 74 76 75 69 76 70 77 74 78 77 79
REMARK SMILES IDX 71 80 72 81 75 82 73 83 52 84 53 85 61 86 54 87 55 88 59 89
REMARK SMILES IDX 62 90 56 91 57 92 60 93 58 94
REMARK H PARENT 18 5 7 12 10 15 23 28 82 47 50 58
REMARK Flexibility Score: inf
ROOT
ATOM      1  C   UNL A   1      32.711  29.930  26.829  1.00  0.00     0.116 C 
ENDROOT
BRANCH   1   2
ATOM      2  N   UNL A   1      32.771  28.544  26.429  1.00  0.00    -0.354 N 
ATOM      3  O   UNL A   1      31.257  27.768  27.981  1.00  0.00    -0.272 OA
ATOM      4  C   UNL A   1      32.006  27.567  27.032  1.00  0.00     0.245 C 
ATOM      5  H   UNL A   1      33.380  28.287  25.699  1.00  0.00     0.163 HD
BRANCH   4   6
ATOM      6  C   UNL A   1      32.212  26.181  26.416  1.00  0.00     0.260 C 
BRANCH   6   7
ATOM      7  O   UNL A   1      31.285  25.184  26.818  1.00  0.00    -0.370 OA
BRANCH   7   8
ATOM      8  C   UNL A   1      31.778  23.843  26.778  1.00  0.00     0.182 C 
BRANCH   8   9
ATOM      9  C   UNL A   1      31.053  22.913  25.804  1.00  0.00     0.146 C 
BRANCH   9  10
ATOM     10  N   UNL A   1      31.476  21.512  25.823  1.00  0.00    -0.336 N 
ATOM     11  C   UNL A   1      32.174  20.721  24.982  1.00  0.00     0.319 C 
ATOM     12  H   UNL A   1      31.185  21.038  26.636  1.00  0.00     0.165 HD
ATOM     13  O   UNL A   1      32.178  19.508  25.200  1.00  0.00    -0.249 OA
ATOM     14  N   UNL A   1      32.777  21.181  23.865  1.00  0.00    -0.308 N 
ATOM     15  H   UNL A   1      32.909  20.503  23.163  1.00  0.00     0.171 HD
BRANCH  14  16
ATOM     16  C   UNL A   1      33.246  22.453  23.535  1.00  0.00     0.045 A 
ATOM     17  C   UNL A   1      34.371  23.014  24.153  1.00  0.00     0.026 A 
ATOM     18  C   UNL A   1      32.518  23.189  22.604  1.00  0.00     0.065 A 
ATOM     19  C   UNL A   1      34.666  24.366  23.967  1.00  0.00     0.005 A 
ATOM     20  C   UNL A   1      32.813  24.536  22.439  1.00  0.00     0.125 A 
ATOM     21  C   UNL A   1      33.859  25.138  23.132  1.00  0.00     0.039 A 
ATOM     22  F   UNL A   1      32.038  25.282  21.642  1.00  0.00    -0.207 F 
ENDBRANCH  14  16
ENDBRANCH   9  10
ENDBRANCH   8   9
ENDBRANCH   7   8
ENDBRANCH   6   7
ENDBRANCH   4   6
ENDBRANCH   1   2
BRANCH   1  23
ATOM     23  C   UNL A   1      31.658  30.700  26.041  1.00  0.00     0.023 C 
BRANCH  23  24
ATOM     24  C   UNL A   1      31.419  32.130  26.533  1.00  0.00     0.023 C 
BRANCH  24  25
ATOM     25  C   UNL A   1      32.561  32.741  27.338  1.00  0.00     0.116 C 
BRANCH  25  26
ATOM     26  N   UNL A   1      32.347  34.146  27.639  1.00  0.00    -0.352 N 
ATOM     27  C   UNL A   1      32.976  34.949  28.562  1.00  0.00     0.251 C 
ATOM     28  H   UNL A   1      31.650  34.590  27.105  1.00  0.00     0.163 HD
ATOM     29  O   UNL A   1      32.554  36.077  28.785  1.00  0.00    -0.269 OA
BRANCH  27  30
ATOM     30  C   UNL A   1      34.149  34.442  29.310  1.00  0.00     0.039 A 
ATOM     31  C   UNL A   1      33.939  33.824  30.547  1.00  0.00     0.014 A 
ATOM     32  C   UNL A   1      35.445  34.578  28.806  1.00  0.00     0.014 A 
ATOM     33  C   UNL A   1      35.022  33.283  31.244  1.00  0.00     0.010 A 
ATOM     34  C   UNL A   1      36.514  33.974  29.467  1.00  0.00     0.010 A 
ATOM     35  C   UNL A   1      36.313  33.318  30.692  1.00  0.00    -0.014 A 
BRANCH  35  36
ATOM     36  C   UNL A   1      37.460  32.661  31.373  1.00  0.00     0.031 A 
ATOM     37  C   UNL A   1      38.184  31.520  30.715  1.00  0.00     0.074 A 
ATOM     38  C   UNL A   1      37.815  33.058  32.611  1.00  0.00     0.049 A 
ATOM     39  N   UNL A   1      39.157  30.779  31.183  1.00  0.00    -0.248 NA
ATOM     40  C   UNL A   1      37.744  31.146  29.361  1.00  0.00     0.031 C 
ATOM     41  C   UNL A   1      37.168  34.129  33.371  1.00  0.00     0.029 A 
ATOM     42  N   UNL A   1      38.802  32.603  33.452  1.00  0.00    -0.354 N 
ATOM     43  C   UNL A   1      39.439  29.852  30.188  1.00  0.00     0.074 A 
ATOM     44  C   UNL A   1      38.500  30.086  29.112  1.00  0.00     0.031 C 
ATOM     45  C   UNL A   1      37.790  34.266  34.552  1.00  0.00     0.029 A 
ATOM     46  C   UNL A   1      38.850  33.267  34.654  1.00  0.00     0.049 A 
ATOM     47  H   UNL A   1      39.416  31.871  33.216  1.00  0.00     0.167 HD
ATOM     48  C   UNL A   1      40.411  28.910  30.164  1.00  0.00     0.037 A 
ATOM     49  C   UNL A   1      39.649  33.085  35.723  1.00  0.00     0.037 A 
ATOM     50  C   UNL A   1      41.360  28.695  31.226  1.00  0.00     0.049 A 
ATOM     51  C   UNL A   1      40.706  32.016  35.681  1.00  0.00     0.074 A 
ATOM     52  C   UNL A   1      42.410  27.795  31.270  1.00  0.00     0.029 A 
ATOM     53  N   UNL A   1      41.375  29.388  32.428  1.00  0.00    -0.354 N 
ATOM     54  N   UNL A   1      40.994  31.178  34.714  1.00  0.00    -0.248 NA
ATOM     55  C   UNL A   1      41.552  31.866  36.874  1.00  0.00     0.031 C 
ATOM     56  C   UNL A   1      43.029  27.907  32.518  1.00  0.00     0.029 A 
ATOM     57  C   UNL A   1      42.403  28.918  33.228  1.00  0.00     0.049 A 
ATOM     58  H   UNL A   1      40.749  30.107  32.674  1.00  0.00     0.167 HD
ATOM     59  C   UNL A   1      42.065  30.421  35.170  1.00  0.00     0.074 A 
ATOM     60  C   UNL A   1      42.387  30.907  36.496  1.00  0.00     0.031 C 
ATOM     61  C   UNL A   1      42.721  29.414  34.543  1.00  0.00     0.037 A 
BRANCH  48  62
ATOM     62  C   UNL A   1      40.520  28.042  28.945  1.00  0.00     0.064 A 
ATOM     63  C   UNL A   1      41.292  28.448  27.846  1.00  0.00     0.173 A 
ATOM     64  C   UNL A   1      39.789  26.850  28.827  1.00  0.00     0.173 A 
ATOM     65  F   UNL A   1      42.006  29.584  27.903  1.00  0.00    -0.203 F 
ATOM     66  C   UNL A   1      41.316  27.702  26.670  1.00  0.00     0.198 A 
ATOM     67  C   UNL A   1      39.838  26.092  27.661  1.00  0.00     0.198 A 
ATOM     68  F   UNL A   1      39.042  26.413  29.852  1.00  0.00    -0.203 F 
ATOM     69  F   UNL A   1      42.030  28.130  25.621  1.00  0.00    -0.200 F 
ATOM     70  C   UNL A   1      40.590  26.524  26.580  1.00  0.00     0.200 A 
ATOM     71  F   UNL A   1      39.155  24.940  27.585  1.00  0.00    -0.200 F 
ATOM     72  F   UNL A   1      40.618  25.804  25.450  1.00  0.00    -0.200 F 
ENDBRANCH  48  62
BRANCH  49  73
ATOM     73  C   UNL A   1      39.493  33.962  36.915  1.00  0.00     0.064 A 
ATOM     74  C   UNL A   1      40.116  35.217  36.986  1.00  0.00     0.173 A 
ATOM     75  C   UNL A   1      38.736  33.546  38.018  1.00  0.00     0.173 A 
ATOM     76  F   UNL A   1      40.855  35.660  35.958  1.00  0.00    -0.203 F 
ATOM     77  C   UNL A   1      40.005  36.012  38.125  1.00  0.00     0.198 A 
ATOM     78  C   UNL A   1      38.601  34.355  39.145  1.00  0.00     0.198 A 
ATOM     79  F   UNL A   1      38.103  32.364  37.988  1.00  0.00    -0.203 F 
ATOM     80  F   UNL A   1      40.641  37.190  38.182  1.00  0.00    -0.200 F 
ATOM     81  C   UNL A   1      39.244  35.583  39.201  1.00  0.00     0.200 A 
ATOM     82  F   UNL A   1      37.842  33.948  40.172  1.00  0.00    -0.200 F 
ATOM     83  F   UNL A   1      39.126  36.354  40.291  1.00  0.00    -0.200 F 
ENDBRANCH  49  73
BRANCH  61  84
ATOM     84  C   UNL A   1      43.874  28.774  35.262  1.00  0.00     0.064 A 
ATOM     85  C   UNL A   1      45.190  29.192  35.005  1.00  0.00     0.173 A 
ATOM     86  C   UNL A   1      43.686  27.689  36.129  1.00  0.00     0.173 A 
ATOM     87  F   UNL A   1      45.422  30.220  34.175  1.00  0.00    -0.203 F 
ATOM     88  C   UNL A   1      46.275  28.533  35.576  1.00  0.00     0.198 A 
ATOM     89  C   UNL A   1      44.773  27.052  36.722  1.00  0.00     0.198 A 
ATOM     90  F   UNL A   1      42.448  27.260  36.416  1.00  0.00    -0.203 F 
ATOM     91  F   UNL A   1      47.523  28.923  35.282  1.00  0.00    -0.200 F 
ATOM     92  C   UNL A   1      46.066  27.466  36.435  1.00  0.00     0.200 A 
ATOM     93  F   UNL A   1      44.569  26.035  37.571  1.00  0.00    -0.200 F 
ATOM     94  F   UNL A   1      47.111  26.836  36.989  1.00  0.00    -0.200 F 
ENDBRANCH  61  84
ENDBRANCH  35  36
ENDBRANCH  27  30
ENDBRANCH  25  26
ENDBRANCH  24  25
ENDBRANCH  23  24
ENDBRANCH   1  23
TORSDOF 16
ENDMDL
MODEL 2
REMARK VINA RESULT:     -11.6      2.778      8.154
REMARK SMILES O=C(COCCNC(=O)Nc1cccc(F)c1)NCCCCNC(=O)c1ccc(-c2c3nc(c(-c4c(F)c(F)c(F)c(F)c4F)c4ccc([nH]4)c(-c4c(F)c(F)c(F)c(F)c4F)c4nc(c(-c5c(F)c(F)c(F)c(F)c5F)c5ccc2[nH]5)C=C4)C=C3)cc1
REMARK SMILES IDX 19 1 18 2 1 3 2 4 3 6 4 7 5 8 6 9 7 10 8 11 9 13 10 14 11 16
REMARK SMILES IDX 12 17 17 18 13 19 15 20 14 21 16 22 20 23 21 24 22 25 23 26
REMARK SMILES IDX 24 27 25 29 26 30 27 31 88 32 28 33 87 34 29 35 30 36 31 37
REMARK SMILES IDX 81 38 32 39 86 40 80 41 82 42 33 43 85 44 79 45 78 46 34 48
REMARK SMILES IDX 66 49 46 50 65 51 47 52 50 53 64 54 83 55 48 56 49 57 63 59
REMARK SMILES IDX 84 60 51 61 35 62 36 63 44 64 37 65 38 66 42 67 45 68 39 69
REMARK SMILES IDX 40 70 43 71 41 72 67 73 68 74 76 75 69 76 70 77 74 78 77 79
REMARK SMILES IDX 71 80 72 81 75 82 73 83 52 84 53 85 61 86 54 87 55 88 59 89
REMARK SMILES IDX 62 90 56 91 57 92 60 93 58 94
REMARK H PARENT 18 5 7 12 10 15 23 28 82 47 50 58
REMARK Flexibility Score: inf
ROOT
ATOM      1  C   UNL A   1      34.392  32.583  29.565  1.00  0.00     0.116 C 
ENDROOT
BRANCH   1   2
ATOM      2  N   UNL A   1      34.729  31.474  28.705  1.00  0.00    -0.354 N 
ATOM      3  O   UNL A   1      32.772  31.494  27.491  1.00  0.00    -0.272 OA
ATOM      4  C   UNL A   1      33.887  31.032  27.706  1.00  0.00     0.245 C 
ATOM      5  H   UNL A   1      35.591  31.016  28.835  1.00  0.00     0.163 HD
BRANCH   4   6
ATOM      6  C   UNL A   1      34.472  29.868  26.902  1.00  0.00     0.260 C 
BRANCH   6   7
ATOM      7  O   UNL A   1      33.806  28.623  27.046  1.00  0.00    -0.370 OA
BRANCH   7   8
ATOM      8  C   UNL A   1      33.036  28.209  25.916  1.00  0.00     0.182 C 
BRANCH   8   9
ATOM      9  C   UNL A   1      32.871  29.263  24.820  1.00  0.00     0.146 C 
BRANCH   9  10
ATOM     10  N   UNL A   1      33.650  29.046  23.601  1.00  0.00    -0.336 N 
ATOM     11  C   UNL A   1      33.421  28.418  22.429  1.00  0.00     0.319 C 
ATOM     12  H   UNL A   1      34.547  29.451  23.646  1.00  0.00     0.165 HD
ATOM     13  O   UNL A   1      34.379  28.234  21.676  1.00  0.00    -0.249 OA
ATOM     14  N   UNL A   1      32.223  27.896  22.093  1.00  0.00    -0.308 N 
ATOM     15  H   UNL A   1      32.266  27.162  21.437  1.00  0.00     0.171 HD
BRANCH  14  16
ATOM     16  C   UNL A   1      30.932  28.219  22.514  1.00  0.00     0.045 A 
ATOM     17  C   UNL A   1      30.165  27.347  23.295  1.00  0.00     0.026 A 
ATOM     18  C   UNL A   1      30.393  29.426  22.077  1.00  0.00     0.065 A 
ATOM     19  C   UNL A   1      28.807  27.603  23.496  1.00  0.00     0.005 A 
ATOM     20  C   UNL A   1      29.038  29.662  22.271  1.00  0.00     0.125 A 
ATOM     21  C   UNL A   1      28.235  28.751  22.950  1.00  0.00     0.039 A 
ATOM     22  F   UNL A   1      28.485  30.762  21.744  1.00  0.00    -0.207 F 
ENDBRANCH  14  16
ENDBRANCH   9  10
ENDBRANCH   8   9
ENDBRANCH   7   8
ENDBRANCH   6   7
ENDBRANCH   4   6
ENDBRANCH   1   2
BRANCH   1  23
ATOM     23  C   UNL A   1      34.658  33.923  28.888  1.00  0.00     0.023 C 
BRANCH  23  24
ATOM     24  C   UNL A   1      33.433  34.837  28.792  1.00  0.00     0.023 C 
BRANCH  24  25
ATOM     25  C   UNL A   1      33.512  36.119  29.614  1.00  0.00     0.116 C 
BRANCH  25  26
ATOM     26  N   UNL A   1      32.513  36.172  30.669  1.00  0.00    -0.352 N 
ATOM     27  C   UNL A   1      32.535  35.609  31.923  1.00  0.00     0.251 C 
ATOM     28  H   UNL A   1      31.703  36.687  30.454  1.00  0.00     0.163 HD
ATOM     29  O   UNL A   1      31.531  35.630  32.623  1.00  0.00    -0.269 OA
BRANCH  27  30
ATOM     30  C   UNL A   1      33.764  34.950  32.420  1.00  0.00     0.039 A 
ATOM     31  C   UNL A   1      33.663  33.666  32.965  1.00  0.00     0.014 A 
ATOM     32  C   UNL A   1      35.006  35.589  32.360  1.00  0.00     0.014 A 
ATOM     33  C   UNL A   1      34.816  32.998  33.384  1.00  0.00     0.010 A 
ATOM     34  C   UNL A   1      36.162  34.894  32.711  1.00  0.00     0.010 A 
ATOM     35  C   UNL A   1      36.079  33.590  33.224  1.00  0.00    -0.014 A 
BRANCH  35  36
ATOM     36  C   UNL A   1      37.324  32.855  33.574  1.00  0.00     0.031 A 
ATOM     37  C   UNL A   1      38.052  33.158  34.853  1.00  0.00     0.074 A 
ATOM     38  C   UNL A   1      37.827  31.950  32.712  1.00  0.00     0.049 A 
ATOM     39  N   UNL A   1      39.187  32.673  35.293  1.00  0.00    -0.248 NA
ATOM     40  C   UNL A   1      37.440  34.154  35.747  1.00  0.00     0.031 C 
ATOM     41  C   UNL A   1      37.233  31.592  31.423  1.00  0.00     0.029 A 
ATOM     42  N   UNL A   1      38.956  31.171  32.784  1.00  0.00    -0.354 N 
ATOM     43  C   UNL A   1      39.424  33.307  36.506  1.00  0.00     0.074 A 
ATOM     44  C   UNL A   1      38.347  34.250  36.709  1.00  0.00     0.031 C 
ATOM     45  C   UNL A   1      37.987  30.648  30.839  1.00  0.00     0.029 A 
ATOM     46  C   UNL A   1      39.140  30.363  31.688  1.00  0.00     0.049 A 
ATOM     47  H   UNL A   1      39.575  31.190  33.549  1.00  0.00     0.167 HD
ATOM     48  C   UNL A   1      40.436  33.099  37.382  1.00  0.00     0.037 A 
ATOM     49  C   UNL A   1      40.130  29.498  31.393  1.00  0.00     0.037 A 
ATOM     50  C   UNL A   1      41.494  32.141  37.189  1.00  0.00     0.049 A 
ATOM     51  C   UNL A   1      41.255  29.303  32.373  1.00  0.00     0.074 A 
ATOM     52  C   UNL A   1      42.536  31.828  38.044  1.00  0.00     0.029 A 
ATOM     53  N   UNL A   1      41.644  31.343  36.064  1.00  0.00    -0.354 N 
ATOM     54  N   UNL A   1      41.442  29.873  33.538  1.00  0.00    -0.248 NA
ATOM     55  C   UNL A   1      42.305  28.344  32.000  1.00  0.00     0.031 C 
ATOM     56  C   UNL A   1      43.345  30.877  37.416  1.00  0.00     0.029 A 
ATOM     57  C   UNL A   1      42.775  30.554  36.196  1.00  0.00     0.049 A 
ATOM     58  H   UNL A   1      41.037  31.337  35.289  1.00  0.00     0.167 HD
ATOM     59  C   UNL A   1      42.612  29.326  34.049  1.00  0.00     0.074 A 
ATOM     60  C   UNL A   1      43.087  28.368  33.072  1.00  0.00     0.031 C 
ATOM     61  C   UNL A   1      43.235  29.597  35.221  1.00  0.00     0.037 A 
BRANCH  48  62
ATOM     62  C   UNL A   1      40.448  33.906  38.646  1.00  0.00     0.064 A 
ATOM     63  C   UNL A   1      41.218  35.075  38.739  1.00  0.00     0.173 A 
ATOM     64  C   UNL A   1      39.768  33.476  39.796  1.00  0.00     0.173 A 
ATOM     65  F   UNL A   1      41.894  35.527  37.672  1.00  0.00    -0.203 F 
ATOM     66  C   UNL A   1      41.320  35.774  39.940  1.00  0.00     0.198 A 
ATOM     67  C   UNL A   1      39.849  34.193  40.987  1.00  0.00     0.198 A 
ATOM     68  F   UNL A   1      39.010  32.369  39.758  1.00  0.00    -0.203 F 
ATOM     69  F   UNL A   1      42.092  36.866  40.015  1.00  0.00    -0.200 F 
ATOM     70  C   UNL A   1      40.633  35.333  41.061  1.00  0.00     0.200 A 
ATOM     71  F   UNL A   1      39.164  33.779  42.062  1.00  0.00    -0.200 F 
ATOM     72  F   UNL A   1      40.728  36.010  42.214  1.00  0.00    -0.200 F 
ENDBRANCH  48  62
BRANCH  49  73
ATOM     73  C   UNL A   1      40.081  28.732  30.120  1.00  0.00     0.064 A 
ATOM     74  C   UNL A   1      39.472  27.470  30.049  1.00  0.00     0.173 A 
ATOM     75  C   UNL A   1      40.667  29.239  28.952  1.00  0.00     0.173 A 
ATOM     76  F   UNL A   1      38.900  26.937  31.139  1.00  0.00    -0.203 F 
ATOM     77  C   UNL A   1      39.473  26.736  28.864  1.00  0.00     0.198 A 
ATOM     78  C   UNL A   1      40.640  28.517  27.761  1.00  0.00     0.198 A 
ATOM     79  F   UNL A   1      41.241  30.452  28.964  1.00  0.00    -0.203 F 
ATOM     80  F   UNL A   1      38.918  25.516  28.834  1.00  0.00    -0.200 F 
ATOM     81  C   UNL A   1      40.052  27.262  27.720  1.00  0.00     0.200 A 
ATOM     82  F   UNL A   1      41.177  29.041  26.650  1.00  0.00    -0.200 F 
ATOM     83  F   UNL A   1      40.039  26.562  26.578  1.00  0.00    -0.200 F 
ENDBRANCH  49  73
BRANCH  61  84
ATOM     84  C   UNL A   1      44.489  28.835  35.541  1.00  0.00     0.064 A 
ATOM     85  C   UNL A   1      44.426  27.644  36.283  1.00  0.00     0.173 A 
ATOM     86  C   UNL A   1      45.755  29.329  35.197  1.00  0.00     0.173 A 
ATOM     87  F   UNL A   1      43.238  27.136  36.646  1.00  0.00    -0.203 F 
ATOM     88  C   UNL A   1      45.586  26.989  36.686  1.00  0.00     0.198 A 
ATOM     89  C   UNL A   1      46.913  28.653  35.575  1.00  0.00     0.198 A 
ATOM     90  F   UNL A   1      45.867  30.456  34.478  1.00  0.00    -0.203 F 
ATOM     91  F   UNL A   1      45.501  25.878  37.430  1.00  0.00    -0.200 F 
ATOM     92  C   UNL A   1      46.827  27.492  36.329  1.00  0.00     0.200 A 
ATOM     93  F   UNL A   1      48.111  29.128  35.210  1.00  0.00    -0.200 F 
ATOM     94  F   UNL A   1      47.944  26.857  36.711  1.00  0.00    -0.200 F 
ENDBRANCH  61  84
ENDBRANCH  35  36
ENDBRANCH  27  30
ENDBRANCH  25  26
ENDBRANCH  24  25
ENDBRANCH  23  24
ENDBRANCH   1  23
TORSDOF 16
ENDMDL
MODEL 3
REMARK VINA RESULT:     -11.5      5.623     11.211
REMARK SMILES O=C(COCCNC(=O)Nc1cccc(F)c1)NCCCCNC(=O)c1ccc(-c2c3nc(c(-c4c(F)c(F)c(F)c(F)c4F)c4ccc([nH]4)c(-c4c(F)c(F)c(F)c(F)c4F)c4nc(c(-c5c(F)c(F)c(F)c(F)c5F)c5ccc2[nH]5)C=C4)C=C3)cc1
REMARK SMILES IDX 19 1 18 2 1 3 2 4 3 6 4 7 5 8 6 9 7 10 8 11 9 13 10 14 11 16
REMARK SMILES IDX 12 17 17 18 13 19 15 20 14 21 16 22 20 23 21 24 22 25 23 26
REMARK SMILES IDX 24 27 25 29 26 30 27 31 88 32 28 33 87 34 29 35 30 36 31 37
REMARK SMILES IDX 81 38 32 39 86 40 80 41 82 42 33 43 85 44 79 45 78 46 34 48
REMARK SMILES IDX 66 49 46 50 65 51 47 52 50 53 64 54 83 55 48 56 49 57 63 59
REMARK SMILES IDX 84 60 51 61 35 62 36 63 44 64 37 65 38 66 42 67 45 68 39 69
REMARK SMILES IDX 40 70 43 71 41 72 67 73 68 74 76 75 69 76 70 77 74 78 77 79
REMARK SMILES IDX 71 80 72 81 75 82 73 83 52 84 53 85 61 86 54 87 55 88 59 89
REMARK SMILES IDX 62 90 56 91 57 92 60 93 58 94
REMARK H PARENT 18 5 7 12 10 15 23 28 82 47 50 58
REMARK Flexibility Score: inf
ROOT
ATOM      1  C   UNL A   1      36.588  21.825  25.333  1.00  0.00     0.116 C 
ENDROOT
BRANCH   1   2
ATOM      2  N   UNL A   1      35.450  22.494  24.749  1.00  0.00    -0.354 N 
ATOM      3  O   UNL A   1      36.441  22.952  22.722  1.00  0.00    -0.272 OA
ATOM      4  C   UNL A   1      35.464  22.987  23.460  1.00  0.00     0.245 C 
ATOM      5  H   UNL A   1      34.634  22.603  25.289  1.00  0.00     0.163 HD
BRANCH   4   6
ATOM      6  C   UNL A   1      34.134  23.623  23.049  1.00  0.00     0.260 C 
BRANCH   6   7
ATOM      7  O   UNL A   1      33.949  24.974  23.443  1.00  0.00    -0.370 OA
BRANCH   7   8
ATOM      8  C   UNL A   1      33.550  25.864  22.399  1.00  0.00     0.182 C 
BRANCH   8   9
ATOM      9  C   UNL A   1      32.068  25.805  22.024  1.00  0.00     0.146 C 
BRANCH   9  10
ATOM     10  N   UNL A   1      31.404  27.096  21.837  1.00  0.00    -0.336 N 
ATOM     11  C   UNL A   1      30.505  27.810  22.545  1.00  0.00     0.319 C 
ATOM     12  H   UNL A   1      31.675  27.546  21.003  1.00  0.00     0.165 HD
ATOM     13  O   UNL A   1      29.982  28.782  21.999  1.00  0.00    -0.249 OA
ATOM     14  N   UNL A   1      30.082  27.452  23.776  1.00  0.00    -0.308 N 
ATOM     15  H   UNL A   1      29.193  27.799  24.019  1.00  0.00     0.171 HD
BRANCH  14  16
ATOM     16  C   UNL A   1      30.690  26.677  24.764  1.00  0.00     0.045 A 
ATOM     17  C   UNL A   1      31.773  27.146  25.517  1.00  0.00     0.026 A 
ATOM     18  C   UNL A   1      30.223  25.377  24.943  1.00  0.00     0.065 A 
ATOM     19  C   UNL A   1      32.496  26.263  26.322  1.00  0.00     0.005 A 
ATOM     20  C   UNL A   1      30.959  24.506  25.736  1.00  0.00     0.125 A 
ATOM     21  C   UNL A   1      32.105  24.928  26.403  1.00  0.00     0.039 A 
ATOM     22  F   UNL A   1      30.589  23.221  25.812  1.00  0.00    -0.207 F 
ENDBRANCH  14  16
ENDBRANCH   9  10
ENDBRANCH   8   9
ENDBRANCH   7   8
ENDBRANCH   6   7
ENDBRANCH   4   6
ENDBRANCH   1   2
BRANCH   1  23
ATOM     23  C   UNL A   1      36.599  20.337  25.001  1.00  0.00     0.023 C 
BRANCH  23  24
ATOM     24  C   UNL A   1      37.990  19.761  24.725  1.00  0.00     0.023 C 
BRANCH  24  25
ATOM     25  C   UNL A   1      39.060  20.120  25.750  1.00  0.00     0.116 C 
BRANCH  25  26
ATOM     26  N   UNL A   1      40.068  19.084  25.898  1.00  0.00    -0.352 N 
ATOM     27  C   UNL A   1      41.418  19.204  26.126  1.00  0.00     0.251 C 
ATOM     28  H   UNL A   1      39.735  18.161  25.825  1.00  0.00     0.163 HD
ATOM     29  O   UNL A   1      42.142  18.217  26.066  1.00  0.00    -0.269 OA
BRANCH  27  30
ATOM     30  C   UNL A   1      42.009  20.530  26.416  1.00  0.00     0.039 A 
ATOM     31  C   UNL A   1      42.358  21.357  25.344  1.00  0.00     0.014 A 
ATOM     32  C   UNL A   1      42.224  20.957  27.728  1.00  0.00     0.014 A 
ATOM     33  C   UNL A   1      42.858  22.638  25.590  1.00  0.00     0.010 A 
ATOM     34  C   UNL A   1      42.655  22.260  27.972  1.00  0.00     0.010 A 
ATOM     35  C   UNL A   1      42.974  23.115  26.906  1.00  0.00    -0.014 A 
BRANCH  35  36
ATOM     36  C   UNL A   1      43.412  24.509  27.183  1.00  0.00     0.031 A 
ATOM     37  C   UNL A   1      42.442  25.516  27.734  1.00  0.00     0.074 A 
ATOM     38  C   UNL A   1      44.673  24.881  26.887  1.00  0.00     0.049 A 
ATOM     39  N   UNL A   1      42.621  26.792  27.972  1.00  0.00    -0.248 NA
ATOM     40  C   UNL A   1      41.085  25.034  28.038  1.00  0.00     0.031 C 
ATOM     41  C   UNL A   1      45.698  24.008  26.315  1.00  0.00     0.029 A 
ATOM     42  N   UNL A   1      45.306  26.094  27.019  1.00  0.00    -0.354 N 
ATOM     43  C   UNL A   1      41.403  27.262  28.445  1.00  0.00     0.074 A 
ATOM     44  C   UNL A   1      40.477  26.152  28.410  1.00  0.00     0.031 C 
ATOM     45  C   UNL A   1      46.837  24.704  26.170  1.00  0.00     0.029 A 
ATOM     46  C   UNL A   1      46.613  26.082  26.595  1.00  0.00     0.049 A 
ATOM     47  H   UNL A   1      44.864  26.896  27.381  1.00  0.00     0.167 HD
ATOM     48  C   UNL A   1      41.095  28.503  28.893  1.00  0.00     0.037 A 
ATOM     49  C   UNL A   1      47.526  27.071  26.545  1.00  0.00     0.037 A 
ATOM     50  C   UNL A   1      42.025  29.600  28.949  1.00  0.00     0.049 A 
ATOM     51  C   UNL A   1      47.151  28.447  27.026  1.00  0.00     0.074 A 
ATOM     52  C   UNL A   1      41.816  30.880  29.432  1.00  0.00     0.029 A 
ATOM     53  N   UNL A   1      43.341  29.547  28.510  1.00  0.00    -0.354 N 
ATOM     54  N   UNL A   1      46.010  28.867  27.516  1.00  0.00    -0.248 NA
ATOM     55  C   UNL A   1      48.189  29.485  26.951  1.00  0.00     0.031 C 
ATOM     56  C   UNL A   1      42.987  31.617  29.239  1.00  0.00     0.029 A 
ATOM     57  C   UNL A   1      43.946  30.780  28.691  1.00  0.00     0.049 A 
ATOM     58  H   UNL A   1      43.778  28.752  28.129  1.00  0.00     0.167 HD
ATOM     59  C   UNL A   1      46.199  30.206  27.831  1.00  0.00     0.074 A 
ATOM     60  C   UNL A   1      47.569  30.528  27.488  1.00  0.00     0.031 C 
ATOM     61  C   UNL A   1      45.313  31.088  28.355  1.00  0.00     0.037 A 
BRANCH  48  62
ATOM     62  C   UNL A   1      39.697  28.748  29.379  1.00  0.00     0.064 A 
ATOM     63  C   UNL A   1      38.735  29.314  28.529  1.00  0.00     0.173 A 
ATOM     64  C   UNL A   1      39.332  28.505  30.712  1.00  0.00     0.173 A 
ATOM     65  F   UNL A   1      39.033  29.573  27.246  1.00  0.00    -0.203 F 
ATOM     66  C   UNL A   1      37.466  29.643  29.000  1.00  0.00     0.198 A 
ATOM     67  C   UNL A   1      38.053  28.808  31.171  1.00  0.00     0.198 A 
ATOM     68  F   UNL A   1      40.212  27.957  31.563  1.00  0.00    -0.203 F 
ATOM     69  F   UNL A   1      36.576  30.218  28.179  1.00  0.00    -0.200 F 
ATOM     70  C   UNL A   1      37.126  29.388  30.319  1.00  0.00     0.200 A 
ATOM     71  F   UNL A   1      37.719  28.538  32.441  1.00  0.00    -0.200 F 
ATOM     72  F   UNL A   1      35.903  29.699  30.770  1.00  0.00    -0.200 F 
ENDBRANCH  48  62
BRANCH  49  73
ATOM     73  C   UNL A   1      48.895  26.782  26.040  1.00  0.00     0.064 A 
ATOM     74  C   UNL A   1      49.900  26.297  26.891  1.00  0.00     0.173 A 
ATOM     75  C   UNL A   1      49.231  27.012  24.699  1.00  0.00     0.173 A 
ATOM     76  F   UNL A   1      49.631  26.063  28.184  1.00  0.00    -0.203 F 
ATOM     77  C   UNL A   1      51.193  26.074  26.422  1.00  0.00     0.198 A 
ATOM     78  C   UNL A   1      50.517  26.760  24.226  1.00  0.00     0.198 A 
ATOM     79  F   UNL A   1      48.298  27.455  23.843  1.00  0.00    -0.203 F 
ATOM     80  F   UNL A   1      52.144  25.646  27.265  1.00  0.00    -0.200 F 
ATOM     81  C   UNL A   1      51.499  26.301  25.090  1.00  0.00     0.200 A 
ATOM     82  F   UNL A   1      50.802  26.956  22.931  1.00  0.00    -0.200 F 
ATOM     83  F   UNL A   1      52.740  26.073  24.637  1.00  0.00    -0.200 F 
ENDBRANCH  49  73
BRANCH  61  84
ATOM     84  C   UNL A   1      45.791  32.486  28.622  1.00  0.00     0.064 A 
ATOM     85  C   UNL A   1      45.681  33.474  27.629  1.00  0.00     0.173 A 
ATOM     86  C   UNL A   1      46.439  32.825  29.817  1.00  0.00     0.173 A 
ATOM     87  F   UNL A   1      45.078  33.197  26.464  1.00  0.00    -0.203 F 
ATOM     88  C   UNL A   1      46.221  34.742  27.818  1.00  0.00     0.198 A 
ATOM     89  C   UNL A   1      46.951  34.105  30.015  1.00  0.00     0.198 A 
ATOM     90  F   UNL A   1      46.558  31.921  30.801  1.00  0.00    -0.203 F 
ATOM     91  F   UNL A   1      46.142  35.655  26.840  1.00  0.00    -0.200 F 
ATOM     92  C   UNL A   1      46.853  35.058  29.011  1.00  0.00     0.200 A 
ATOM     93  F   UNL A   1      47.541  34.416  31.177  1.00  0.00    -0.200 F 
ATOM     94  F   UNL A   1      47.368  36.282  29.195  1.00  0.00    -0.200 F 
ENDBRANCH  61  84
ENDBRANCH  35  36
ENDBRANCH  27  30
ENDBRANCH  25  26
ENDBRANCH  24  25
ENDBRANCH  23  24
ENDBRANCH   1  23
TORSDOF 16
ENDMDL
