MODEL 1
REMARK VINA RESULT:     -12.3      0.000      0.000
REMARK SMILES C[C@H]1CCC[C@H](C)N1C(=O)[C@H]1[C@@H](C(=O)NCCCCNC(=O)c2ccc(-c3c4nc(c(-c5c(F)c(F)c(F)c(F)c5F)c5ccc([nH]5)c(-c5c(F)c(F)c(F)c(F)c5F)c5nc(c(-c6c(F)c(F)c(F)c(F)c6F)c6ccc3[nH]6)C=C5)C=C4)cc2)[C@H]2CC[C@@H]1O2
REMARK SMILES IDX 18 1 17 2 16 3 15 4 13 5 14 6 12 8 11 9 89 10 86 11 88 12
REMARK SMILES IDX 90 13 87 14 9 15 1 16 2 17 3 18 8 19 4 20 6 21 5 22 7 23
REMARK SMILES IDX 10 24 19 25 20 26 21 27 22 29 23 30 24 31 85 32 25 33 84 34
REMARK SMILES IDX 26 35 27 36 28 37 78 38 29 39 83 40 77 41 79 42 30 43 82 44
REMARK SMILES IDX 76 45 75 46 31 48 63 49 43 50 62 51 44 52 47 53 61 54 80 55
REMARK SMILES IDX 45 56 46 57 60 59 81 60 48 61 32 62 33 63 41 64 34 65 35 66
REMARK SMILES IDX 39 67 42 68 36 69 37 70 40 71 38 72 64 73 65 74 73 75 66 76
REMARK SMILES IDX 67 77 71 78 74 79 68 80 69 81 72 82 70 83 49 84 50 85 58 86
REMARK SMILES IDX 51 87 52 88 56 89 59 90 53 91 54 92 57 93 55 94
REMARK H PARENT 15 7 20 28 79 47 47 58
REMARK Flexibility Score: inf
ROOT
ATOM      1  C   UNL A   1      31.707  29.216  26.660  1.00  0.00     0.023 C 
ENDROOT
BRANCH   1   2
ATOM      2  C   UNL A   1      31.950  28.046  27.612  1.00  0.00     0.023 C 
BRANCH   2   3
ATOM      3  C   UNL A   1      32.388  26.742  26.944  1.00  0.00     0.116 C 
BRANCH   3   4
ATOM      4  N   UNL A   1      31.382  25.689  26.985  1.00  0.00    -0.356 N 
ATOM      5  C   UNL A   1      31.456  24.359  26.659  1.00  0.00     0.226 C 
ATOM      6  O   UNL A   1      30.537  23.635  27.032  1.00  0.00    -0.275 OA
ATOM      7  H   UNL A   1      30.498  25.982  27.301  1.00  0.00     0.163 HD
BRANCH   5   8
ATOM      8  C   UNL A   1      32.634  23.837  25.859  1.00  0.00     0.122 C 
ATOM      9  C   UNL A   1      32.820  24.283  24.415  1.00  0.00     0.122 C 
ATOM     10  C   UNL A   1      33.492  23.028  23.830  1.00  0.00     0.132 C 
ATOM     11  C   UNL A   1      32.741  22.293  25.790  1.00  0.00     0.132 C 
ATOM     12  C   UNL A   1      32.665  21.891  23.317  1.00  0.00     0.035 C 
ATOM     13  O   UNL A   1      33.952  22.352  25.058  1.00  0.00    -0.373 OA
ATOM     14  C   UNL A   1      32.226  21.290  24.630  1.00  0.00     0.035 C 
BRANCH   9  15
ATOM     15  C   UNL A   1      31.606  24.899  23.725  1.00  0.00     0.229 C 
ATOM     16  C   UNL A   1      34.027  26.976  23.587  1.00  0.00     0.031 C 
ATOM     17  C   UNL A   1      32.551  27.350  23.751  1.00  0.00     0.082 C 
ATOM     18  C   UNL A   1      32.401  28.630  22.891  1.00  0.00     0.025 C 
ATOM     19  N   UNL A   1      31.546  26.283  23.433  1.00  0.00    -0.337 N 
ATOM     20  C   UNL A   1      30.980  29.109  22.716  1.00  0.00     0.004 C 
ATOM     21  C   UNL A   1      30.175  26.758  23.084  1.00  0.00     0.082 C 
ATOM     22  C   UNL A   1      30.166  27.968  22.148  1.00  0.00     0.025 C 
ATOM     23  C   UNL A   1      29.343  27.043  24.345  1.00  0.00     0.031 C 
ATOM     24  O   UNL A   1      30.669  24.159  23.408  1.00  0.00    -0.274 OA
ENDBRANCH   9  15
ENDBRANCH   5   8
ENDBRANCH   3   4
ENDBRANCH   2   3
ENDBRANCH   1   2
BRANCH   1  25
ATOM     25  C   UNL A   1      32.975  29.968  26.291  1.00  0.00     0.116 C 
BRANCH  25  26
ATOM     26  N   UNL A   1      32.841  31.399  26.528  1.00  0.00    -0.352 N 
ATOM     27  C   UNL A   1      33.529  32.199  27.409  1.00  0.00     0.251 C 
ATOM     28  H   UNL A   1      32.164  31.857  25.980  1.00  0.00     0.163 HD
ATOM     29  O   UNL A   1      33.133  33.317  27.676  1.00  0.00    -0.269 OA
BRANCH  27  30
ATOM     30  C   UNL A   1      34.760  31.666  28.024  1.00  0.00     0.039 A 
ATOM     31  C   UNL A   1      35.885  32.485  28.128  1.00  0.00     0.014 A 
ATOM     32  C   UNL A   1      34.779  30.357  28.511  1.00  0.00     0.014 A 
ATOM     33  C   UNL A   1      37.021  31.999  28.772  1.00  0.00     0.010 A 
ATOM     34  C   UNL A   1      35.868  29.915  29.242  1.00  0.00     0.010 A 
ATOM     35  C   UNL A   1      37.007  30.723  29.361  1.00  0.00    -0.014 A 
BRANCH  35  36
ATOM     36  C   UNL A   1      38.182  30.190  30.083  1.00  0.00     0.031 A 
ATOM     37  C   UNL A   1      38.446  30.634  31.494  1.00  0.00     0.074 A 
ATOM     38  C   UNL A   1      39.044  29.379  29.441  1.00  0.00     0.049 A 
ATOM     39  N   UNL A   1      39.462  30.363  32.271  1.00  0.00    -0.248 NA
ATOM     40  C   UNL A   1      37.455  31.539  32.101  1.00  0.00     0.031 C 
ATOM     41  C   UNL A   1      38.912  28.935  28.052  1.00  0.00     0.029 A 
ATOM     42  N   UNL A   1      40.206  28.793  29.868  1.00  0.00    -0.354 N 
ATOM     43  C   UNL A   1      39.240  31.075  33.442  1.00  0.00     0.074 A 
ATOM     44  C   UNL A   1      38.034  31.847  33.250  1.00  0.00     0.031 C 
ATOM     45  C   UNL A   1      39.937  28.122  27.752  1.00  0.00     0.029 A 
ATOM     46  C   UNL A   1      40.819  28.024  28.909  1.00  0.00     0.049 A 
ATOM     47  H   UNL A   1      40.568  28.911  30.776  1.00  0.00     0.167 HD
ATOM     48  C   UNL A   1      39.962  31.059  34.586  1.00  0.00     0.037 A 
ATOM     49  C   UNL A   1      41.970  27.326  28.963  1.00  0.00     0.037 A 
ATOM     50  C   UNL A   1      41.144  30.262  34.770  1.00  0.00     0.049 A 
ATOM     51  C   UNL A   1      42.757  27.328  30.246  1.00  0.00     0.074 A 
ATOM     52  C   UNL A   1      41.919  30.117  35.906  1.00  0.00     0.029 A 
ATOM     53  N   UNL A   1      41.722  29.474  33.785  1.00  0.00    -0.354 N 
ATOM     54  N   UNL A   1      42.497  27.943  31.376  1.00  0.00    -0.248 NA
ATOM     55  C   UNL A   1      43.991  26.534  30.266  1.00  0.00     0.031 C 
ATOM     56  C   UNL A   1      42.998  29.286  35.591  1.00  0.00     0.029 A 
ATOM     57  C   UNL A   1      42.859  28.859  34.279  1.00  0.00     0.049 A 
ATOM     58  H   UNL A   1      41.375  29.367  32.870  1.00  0.00     0.167 HD
ATOM     59  C   UNL A   1      43.513  27.583  32.249  1.00  0.00     0.074 A 
ATOM     60  C   UNL A   1      44.389  26.688  31.522  1.00  0.00     0.031 C 
ATOM     61  C   UNL A   1      43.705  27.958  33.538  1.00  0.00     0.037 A 
BRANCH  48  62
ATOM     62  C   UNL A   1      39.491  31.924  35.721  1.00  0.00     0.064 A 
ATOM     63  C   UNL A   1      38.528  31.476  36.639  1.00  0.00     0.173 A 
ATOM     64  C   UNL A   1      40.030  33.205  35.912  1.00  0.00     0.173 A 
ATOM     65  F   UNL A   1      37.969  30.264  36.496  1.00  0.00    -0.203 F 
ATOM     66  C   UNL A   1      38.098  32.291  37.683  1.00  0.00     0.198 A 
ATOM     67  C   UNL A   1      39.624  34.002  36.979  1.00  0.00     0.198 A 
ATOM     68  F   UNL A   1      40.956  33.683  35.068  1.00  0.00    -0.203 F 
ATOM     69  F   UNL A   1      37.134  31.862  38.512  1.00  0.00    -0.200 F 
ATOM     70  C   UNL A   1      38.652  33.549  37.858  1.00  0.00     0.200 A 
ATOM     71  F   UNL A   1      40.172  35.213  37.154  1.00  0.00    -0.200 F 
ATOM     72  F   UNL A   1      38.244  34.329  38.869  1.00  0.00    -0.200 F 
ENDBRANCH  48  62
BRANCH  49  73
ATOM     73  C   UNL A   1      42.425  26.549  27.780  1.00  0.00     0.064 A 
ATOM     74  C   UNL A   1      41.944  25.255  27.540  1.00  0.00     0.173 A 
ATOM     75  C   UNL A   1      43.345  27.082  26.866  1.00  0.00     0.173 A 
ATOM     76  F   UNL A   1      41.073  24.697  28.393  1.00  0.00    -0.203 F 
ATOM     77  C   UNL A   1      42.386  24.512  26.447  1.00  0.00     0.198 A 
ATOM     78  C   UNL A   1      43.763  26.351  25.754  1.00  0.00     0.198 A 
ATOM     79  F   UNL A   1      43.829  28.320  27.040  1.00  0.00    -0.203 F 
ATOM     80  F   UNL A   1      41.946  23.259  26.270  1.00  0.00    -0.200 F 
ATOM     81  C   UNL A   1      43.290  25.063  25.551  1.00  0.00     0.200 A 
ATOM     82  F   UNL A   1      44.620  26.894  24.881  1.00  0.00    -0.200 F 
ATOM     83  F   UNL A   1      43.711  24.351  24.497  1.00  0.00    -0.200 F 
ENDBRANCH  49  73
BRANCH  61  84
ATOM     84  C   UNL A   1      44.878  27.366  34.262  1.00  0.00     0.064 A 
ATOM     85  C   UNL A   1      46.115  28.021  34.326  1.00  0.00     0.173 A 
ATOM     86  C   UNL A   1      44.738  26.155  34.958  1.00  0.00     0.173 A 
ATOM     87  F   UNL A   1      46.304  29.174  33.666  1.00  0.00    -0.203 F 
ATOM     88  C   UNL A   1      47.176  27.477  35.045  1.00  0.00     0.198 A 
ATOM     89  C   UNL A   1      45.789  25.632  35.704  1.00  0.00     0.198 A 
ATOM     90  F   UNL A   1      43.570  25.493  34.935  1.00  0.00    -0.203 F 
ATOM     91  F   UNL A   1      48.362  28.099  35.057  1.00  0.00    -0.200 F 
ATOM     92  C   UNL A   1      47.008  26.289  35.741  1.00  0.00     0.200 A 
ATOM     93  F   UNL A   1      45.619  24.493  36.392  1.00  0.00    -0.200 F 
ATOM     94  F   UNL A   1      48.025  25.776  36.446  1.00  0.00    -0.200 F 
ENDBRANCH  61  84
ENDBRANCH  35  36
ENDBRANCH  27  30
ENDBRANCH  25  26
ENDBRANCH   1  25
TORSDOF 12
ENDMDL
MODEL 2
REMARK VINA RESULT:     -12.2      0.234      1.600
REMARK SMILES C[C@H]1CCC[C@H](C)N1C(=O)[C@H]1[C@@H](C(=O)NCCCCNC(=O)c2ccc(-c3c4nc(c(-c5c(F)c(F)c(F)c(F)c5F)c5ccc([nH]5)c(-c5c(F)c(F)c(F)c(F)c5F)c5nc(c(-c6c(F)c(F)c(F)c(F)c6F)c6ccc3[nH]6)C=C5)C=C4)cc2)[C@H]2CC[C@@H]1O2
REMARK SMILES IDX 18 1 17 2 16 3 15 4 13 5 14 6 12 8 11 9 89 10 86 11 88 12
REMARK SMILES IDX 90 13 87 14 9 15 1 16 2 17 3 18 8 19 4 20 6 21 5 22 7 23
REMARK SMILES IDX 10 24 19 25 20 26 21 27 22 29 23 30 24 31 85 32 25 33 84 34
REMARK SMILES IDX 26 35 27 36 28 37 78 38 29 39 83 40 77 41 79 42 30 43 82 44
REMARK SMILES IDX 76 45 75 46 31 48 63 49 43 50 62 51 44 52 47 53 61 54 80 55
REMARK SMILES IDX 45 56 46 57 60 59 81 60 48 61 32 62 33 63 41 64 34 65 35 66
REMARK SMILES IDX 39 67 42 68 36 69 37 70 40 71 38 72 64 73 65 74 73 75 66 76
REMARK SMILES IDX 67 77 71 78 74 79 68 80 69 81 72 82 70 83 49 84 50 85 58 86
REMARK SMILES IDX 51 87 52 88 56 89 59 90 53 91 54 92 57 93 55 94
REMARK H PARENT 15 7 20 28 79 47 47 58
REMARK Flexibility Score: inf
ROOT
ATOM      1  C   UNL A   1      31.643  29.426  26.745  1.00  0.00     0.023 C 
ENDROOT
BRANCH   1   2
ATOM      2  C   UNL A   1      31.815  28.190  27.626  1.00  0.00     0.023 C 
BRANCH   2   3
ATOM      3  C   UNL A   1      32.330  26.942  26.906  1.00  0.00     0.116 C 
BRANCH   3   4
ATOM      4  N   UNL A   1      31.375  25.843  26.870  1.00  0.00    -0.356 N 
ATOM      5  C   UNL A   1      31.525  24.530  26.503  1.00  0.00     0.226 C 
ATOM      6  O   UNL A   1      30.628  23.751  26.814  1.00  0.00    -0.275 OA
ATOM      7  H   UNL A   1      30.466  26.083  27.160  1.00  0.00     0.163 HD
BRANCH   5   8
ATOM      8  C   UNL A   1      32.757  24.092  25.734  1.00  0.00     0.122 C 
ATOM      9  C   UNL A   1      32.966  24.580  24.307  1.00  0.00     0.122 C 
ATOM     10  C   UNL A   1      33.727  23.378  23.720  1.00  0.00     0.132 C 
ATOM     11  C   UNL A   1      32.953  22.559  25.636  1.00  0.00     0.132 C 
ATOM     12  C   UNL A   1      32.983  22.209  23.155  1.00  0.00     0.035 C 
ATOM     13  O   UNL A   1      34.182  22.701  24.949  1.00  0.00    -0.373 OA
ATOM     14  C   UNL A   1      32.535  21.555  24.439  1.00  0.00     0.035 C 
BRANCH   9  15
ATOM     15  C   UNL A   1      31.743  25.144  23.587  1.00  0.00     0.229 C 
ATOM     16  C   UNL A   1      34.027  27.375  23.628  1.00  0.00     0.031 C 
ATOM     17  C   UNL A   1      32.524  27.648  23.742  1.00  0.00     0.082 C 
ATOM     18  C   UNL A   1      32.326  28.947  22.923  1.00  0.00     0.025 C 
ATOM     19  N   UNL A   1      31.605  26.531  23.343  1.00  0.00    -0.337 N 
ATOM     20  C   UNL A   1      30.885  29.341  22.704  1.00  0.00     0.004 C 
ATOM     21  C   UNL A   1      30.222  26.931  22.953  1.00  0.00     0.082 C 
ATOM     22  C   UNL A   1      30.172  28.172  22.061  1.00  0.00     0.025 C 
ATOM     23  C   UNL A   1      29.322  27.113  24.186  1.00  0.00     0.031 C 
ATOM     24  O   UNL A   1      30.871  24.358  23.204  1.00  0.00    -0.274 OA
ENDBRANCH   9  15
ENDBRANCH   5   8
ENDBRANCH   3   4
ENDBRANCH   2   3
ENDBRANCH   1   2
BRANCH   1  25
ATOM     25  C   UNL A   1      32.956  30.106  26.395  1.00  0.00     0.116 C 
BRANCH  25  26
ATOM     26  N   UNL A   1      32.885  31.547  26.589  1.00  0.00    -0.352 N 
ATOM     27  C   UNL A   1      33.611  32.342  27.444  1.00  0.00     0.251 C 
ATOM     28  H   UNL A   1      32.226  32.018  26.030  1.00  0.00     0.163 HD
ATOM     29  O   UNL A   1      33.264  33.485  27.678  1.00  0.00    -0.269 OA
BRANCH  27  30
ATOM     30  C   UNL A   1      34.819  31.776  28.072  1.00  0.00     0.039 A 
ATOM     31  C   UNL A   1      35.964  32.564  28.191  1.00  0.00     0.014 A 
ATOM     32  C   UNL A   1      34.797  30.465  28.555  1.00  0.00     0.014 A 
ATOM     33  C   UNL A   1      37.079  32.046  28.847  1.00  0.00     0.010 A 
ATOM     34  C   UNL A   1      35.865  29.993  29.298  1.00  0.00     0.010 A 
ATOM     35  C   UNL A   1      37.024  30.770  29.432  1.00  0.00    -0.014 A 
BRANCH  35  36
ATOM     36  C   UNL A   1      38.176  30.203  30.167  1.00  0.00     0.031 A 
ATOM     37  C   UNL A   1      38.442  30.644  31.578  1.00  0.00     0.074 A 
ATOM     38  C   UNL A   1      39.017  29.363  29.535  1.00  0.00     0.049 A 
ATOM     39  N   UNL A   1      39.443  30.346  32.365  1.00  0.00    -0.248 NA
ATOM     40  C   UNL A   1      37.474  31.583  32.173  1.00  0.00     0.031 C 
ATOM     41  C   UNL A   1      38.883  28.917  28.147  1.00  0.00     0.029 A 
ATOM     42  N   UNL A   1      40.158  28.743  29.975  1.00  0.00    -0.354 N 
ATOM     43  C   UNL A   1      39.233  31.069  33.531  1.00  0.00     0.074 A 
ATOM     44  C   UNL A   1      38.053  31.878  33.325  1.00  0.00     0.031 C 
ATOM     45  C   UNL A   1      39.886  28.072  27.859  1.00  0.00     0.029 A 
ATOM     46  C   UNL A   1      40.754  27.951  29.024  1.00  0.00     0.049 A 
ATOM     47  H   UNL A   1      40.515  28.854  30.886  1.00  0.00     0.167 HD
ATOM     48  C   UNL A   1      39.944  31.036  34.681  1.00  0.00     0.037 A 
ATOM     49  C   UNL A   1      41.882  27.218  29.091  1.00  0.00     0.037 A 
ATOM     50  C   UNL A   1      41.100  30.204  34.878  1.00  0.00     0.049 A 
ATOM     51  C   UNL A   1      42.658  27.201  30.380  1.00  0.00     0.074 A 
ATOM     52  C   UNL A   1      41.860  30.039  36.022  1.00  0.00     0.029 A 
ATOM     53  N   UNL A   1      41.660  29.393  33.902  1.00  0.00    -0.354 N 
ATOM     54  N   UNL A   1      42.408  27.829  31.505  1.00  0.00    -0.248 NA
ATOM     55  C   UNL A   1      43.867  26.370  30.414  1.00  0.00     0.031 C 
ATOM     56  C   UNL A   1      42.915  29.174  35.720  1.00  0.00     0.029 A 
ATOM     57  C   UNL A   1      42.774  28.746  34.408  1.00  0.00     0.049 A 
ATOM     58  H   UNL A   1      41.318  29.293  32.984  1.00  0.00     0.167 HD
ATOM     59  C   UNL A   1      43.405  27.441  32.389  1.00  0.00     0.074 A 
ATOM     60  C   UNL A   1      44.260  26.517  31.673  1.00  0.00     0.031 C 
ATOM     61  C   UNL A   1      43.597  27.816  33.678  1.00  0.00     0.037 A 
BRANCH  48  62
ATOM     62  C   UNL A   1      39.491  31.919  35.808  1.00  0.00     0.064 A 
ATOM     63  C   UNL A   1      40.046  33.192  36.017  1.00  0.00     0.173 A 
ATOM     64  C   UNL A   1      38.468  31.503  36.673  1.00  0.00     0.173 A 
ATOM     65  F   UNL A   1      41.037  33.636  35.229  1.00  0.00    -0.203 F 
ATOM     66  C   UNL A   1      39.619  33.998  37.070  1.00  0.00     0.198 A 
ATOM     67  C   UNL A   1      38.018  32.327  37.701  1.00  0.00     0.198 A 
ATOM     68  F   UNL A   1      37.898  30.299  36.518  1.00  0.00    -0.203 F 
ATOM     69  F   UNL A   1      40.207  35.184  37.284  1.00  0.00    -0.200 F 
ATOM     70  C   UNL A   1      38.600  33.569  37.906  1.00  0.00     0.200 A 
ATOM     71  F   UNL A   1      37.022  31.916  38.500  1.00  0.00    -0.200 F 
ATOM     72  F   UNL A   1      38.183  34.349  38.912  1.00  0.00    -0.200 F 
ENDBRANCH  48  62
BRANCH  49  73
ATOM     73  C   UNL A   1      42.324  26.423  27.915  1.00  0.00     0.064 A 
ATOM     74  C   UNL A   1      43.252  26.942  27.003  1.00  0.00     0.173 A 
ATOM     75  C   UNL A   1      41.833  25.131  27.679  1.00  0.00     0.173 A 
ATOM     76  F   UNL A   1      43.742  28.178  27.176  1.00  0.00    -0.203 F 
ATOM     77  C   UNL A   1      43.652  26.211  25.885  1.00  0.00     0.198 A 
ATOM     78  C   UNL A   1      42.257  24.387  26.579  1.00  0.00     0.198 A 
ATOM     79  F   UNL A   1      40.952  24.581  28.527  1.00  0.00    -0.203 F 
ATOM     80  F   UNL A   1      44.503  26.753  25.003  1.00  0.00    -0.200 F 
ATOM     81  C   UNL A   1      43.159  24.932  25.677  1.00  0.00     0.200 A 
ATOM     82  F   UNL A   1      41.793  23.145  26.393  1.00  0.00    -0.200 F 
ATOM     83  F   UNL A   1      43.547  24.228  24.605  1.00  0.00    -0.200 F 
ENDBRANCH  49  73
BRANCH  61  84
ATOM     84  C   UNL A   1      44.746  27.191  34.414  1.00  0.00     0.064 A 
ATOM     85  C   UNL A   1      46.010  27.794  34.463  1.00  0.00     0.173 A 
ATOM     86  C   UNL A   1      44.555  26.002  35.137  1.00  0.00     0.173 A 
ATOM     87  F   UNL A   1      46.246  28.923  33.777  1.00  0.00    -0.203 F 
ATOM     88  C   UNL A   1      47.047  27.221  35.193  1.00  0.00     0.198 A 
ATOM     89  C   UNL A   1      45.584  25.452  35.894  1.00  0.00     0.198 A 
ATOM     90  F   UNL A   1      43.361  25.390  35.129  1.00  0.00    -0.203 F 
ATOM     91  F   UNL A   1      48.259  27.793  35.191  1.00  0.00    -0.200 F 
ATOM     92  C   UNL A   1      46.831  26.058  35.916  1.00  0.00     0.200 A 
ATOM     93  F   UNL A   1      45.367  24.337  36.607  1.00  0.00    -0.200 F 
ATOM     94  F   UNL A   1      47.826  25.517  36.632  1.00  0.00    -0.200 F 
ENDBRANCH  61  84
ENDBRANCH  35  36
ENDBRANCH  27  30
ENDBRANCH  25  26
ENDBRANCH   1  25
TORSDOF 12
ENDMDL
MODEL 3
REMARK VINA RESULT:     -12.0      4.814      8.126
REMARK SMILES C[C@H]1CCC[C@H](C)N1C(=O)[C@H]1[C@@H](C(=O)NCCCCNC(=O)c2ccc(-c3c4nc(c(-c5c(F)c(F)c(F)c(F)c5F)c5ccc([nH]5)c(-c5c(F)c(F)c(F)c(F)c5F)c5nc(c(-c6c(F)c(F)c(F)c(F)c6F)c6ccc3[nH]6)C=C5)C=C4)cc2)[C@H]2CC[C@@H]1O2
REMARK SMILES IDX 18 1 17 2 16 3 15 4 13 5 14 6 12 8 11 9 89 10 86 11 88 12
REMARK SMILES IDX 90 13 87 14 9 15 1 16 2 17 3 18 8 19 4 20 6 21 5 22 7 23
REMARK SMILES IDX 10 24 19 25 20 26 21 27 22 29 23 30 24 31 85 32 25 33 84 34
REMARK SMILES IDX 26 35 27 36 28 37 78 38 29 39 83 40 77 41 79 42 30 43 82 44
REMARK SMILES IDX 76 45 75 46 31 48 63 49 43 50 62 51 44 52 47 53 61 54 80 55
REMARK SMILES IDX 45 56 46 57 60 59 81 60 48 61 32 62 33 63 41 64 34 65 35 66
REMARK SMILES IDX 39 67 42 68 36 69 37 70 40 71 38 72 64 73 65 74 73 75 66 76
REMARK SMILES IDX 67 77 71 78 74 79 68 80 69 81 72 82 70 83 49 84 50 85 58 86
REMARK SMILES IDX 51 87 52 88 56 89 59 90 53 91 54 92 57 93 55 94
REMARK H PARENT 15 7 20 28 79 47 47 58
REMARK Flexibility Score: inf
ROOT
ATOM      1  C   UNL A   1      38.037  19.826  24.940  1.00  0.00     0.023 C 
ENDROOT
BRANCH   1   2
ATOM      2  C   UNL A   1      37.102  20.975  24.562  1.00  0.00     0.023 C 
BRANCH   2   3
ATOM      3  C   UNL A   1      37.003  22.102  25.592  1.00  0.00     0.116 C 
BRANCH   3   4
ATOM      4  N   UNL A   1      35.784  22.070  26.389  1.00  0.00    -0.356 N 
ATOM      5  C   UNL A   1      34.674  21.270  26.307  1.00  0.00     0.226 C 
ATOM      6  O   UNL A   1      33.902  21.276  27.262  1.00  0.00    -0.275 OA
ATOM      7  H   UNL A   1      35.751  22.738  27.110  1.00  0.00     0.163 HD
BRANCH   5   8
ATOM      8  C   UNL A   1      34.433  20.429  25.068  1.00  0.00     0.122 C 
ATOM      9  C   UNL A   1      33.261  20.757  24.154  1.00  0.00     0.122 C 
ATOM     10  C   UNL A   1      32.929  19.349  23.627  1.00  0.00     0.132 C 
ATOM     11  C   UNL A   1      34.290  18.909  25.328  1.00  0.00     0.132 C 
ATOM     12  C   UNL A   1      32.012  18.447  24.393  1.00  0.00     0.035 C 
ATOM     13  O   UNL A   1      34.172  18.623  23.947  1.00  0.00    -0.373 OA
ATOM     14  C   UNL A   1      32.944  18.030  25.504  1.00  0.00     0.035 C 
BRANCH   9  15
ATOM     15  C   UNL A   1      32.160  21.640  24.736  1.00  0.00     0.229 C 
ATOM     16  C   UNL A   1      33.574  23.209  22.341  1.00  0.00     0.031 C 
ATOM     17  C   UNL A   1      33.034  23.853  23.622  1.00  0.00     0.082 C 
ATOM     18  C   UNL A   1      32.424  25.189  23.129  1.00  0.00     0.025 C 
ATOM     19  N   UNL A   1      32.096  23.024  24.448  1.00  0.00    -0.337 N 
ATOM     20  C   UNL A   1      31.639  25.946  24.173  1.00  0.00     0.004 C 
ATOM     21  C   UNL A   1      31.187  23.779  25.360  1.00  0.00     0.082 C 
ATOM     22  C   UNL A   1      30.571  25.023  24.718  1.00  0.00     0.025 C 
ATOM     23  C   UNL A   1      31.890  24.141  26.679  1.00  0.00     0.031 C 
ATOM     24  O   UNL A   1      31.308  21.118  25.462  1.00  0.00    -0.274 OA
ENDBRANCH   9  15
ENDBRANCH   5   8
ENDBRANCH   3   4
ENDBRANCH   2   3
ENDBRANCH   1   2
BRANCH   1  25
ATOM     25  C   UNL A   1      39.182  20.253  25.844  1.00  0.00     0.116 C 
BRANCH  25  26
ATOM     26  N   UNL A   1      40.175  19.198  25.989  1.00  0.00    -0.352 N 
ATOM     27  C   UNL A   1      41.542  19.303  26.089  1.00  0.00     0.251 C 
ATOM     28  H   UNL A   1      39.818  18.281  26.020  1.00  0.00     0.163 HD
ATOM     29  O   UNL A   1      42.254  18.327  25.948  1.00  0.00    -0.269 OA
BRANCH  27  30
ATOM     30  C   UNL A   1      42.123  20.629  26.371  1.00  0.00     0.039 A 
ATOM     31  C   UNL A   1      42.408  21.492  25.313  1.00  0.00     0.014 A 
ATOM     32  C   UNL A   1      42.365  21.011  27.693  1.00  0.00     0.014 A 
ATOM     33  C   UNL A   1      42.893  22.769  25.591  1.00  0.00     0.010 A 
ATOM     34  C   UNL A   1      42.744  22.312  27.970  1.00  0.00     0.010 A 
ATOM     35  C   UNL A   1      43.033  23.197  26.922  1.00  0.00    -0.014 A 
BRANCH  35  36
ATOM     36  C   UNL A   1      43.510  24.557  27.253  1.00  0.00     0.031 A 
ATOM     37  C   UNL A   1      42.540  25.568  27.796  1.00  0.00     0.074 A 
ATOM     38  C   UNL A   1      44.785  24.896  26.987  1.00  0.00     0.049 A 
ATOM     39  N   UNL A   1      42.727  26.835  28.062  1.00  0.00    -0.248 NA
ATOM     40  C   UNL A   1      41.162  25.105  28.031  1.00  0.00     0.031 C 
ATOM     41  C   UNL A   1      45.792  24.007  26.405  1.00  0.00     0.029 A 
ATOM     42  N   UNL A   1      45.450  26.081  27.162  1.00  0.00    -0.354 N 
ATOM     43  C   UNL A   1      41.494  27.317  28.477  1.00  0.00     0.074 A 
ATOM     44  C   UNL A   1      40.548  26.231  28.358  1.00  0.00     0.031 C 
ATOM     45  C   UNL A   1      46.955  24.670  26.298  1.00  0.00     0.029 A 
ATOM     46  C   UNL A   1      46.763  26.039  26.763  1.00  0.00     0.049 A 
ATOM     47  H   UNL A   1      45.026  26.887  27.538  1.00  0.00     0.167 HD
ATOM     48  C   UNL A   1      41.186  28.549  28.946  1.00  0.00     0.037 A 
ATOM     49  C   UNL A   1      47.701  27.006  26.766  1.00  0.00     0.037 A 
ATOM     50  C   UNL A   1      42.146  29.610  29.085  1.00  0.00     0.049 A 
ATOM     51  C   UNL A   1      47.333  28.368  27.289  1.00  0.00     0.074 A 
ATOM     52  C   UNL A   1      41.962  30.876  29.609  1.00  0.00     0.029 A 
ATOM     53  N   UNL A   1      43.475  29.523  28.696  1.00  0.00    -0.354 N 
ATOM     54  N   UNL A   1      46.182  28.793  27.753  1.00  0.00    -0.248 NA
ATOM     55  C   UNL A   1      48.394  29.383  27.296  1.00  0.00     0.031 C 
ATOM     56  C   UNL A   1      43.166  31.576  29.482  1.00  0.00     0.029 A 
ATOM     57  C   UNL A   1      44.118  30.724  28.943  1.00  0.00     0.049 A 
ATOM     58  H   UNL A   1      43.899  28.727  28.301  1.00  0.00     0.167 HD
ATOM     59  C   UNL A   1      46.388  30.110  28.140  1.00  0.00     0.074 A 
ATOM     60  C   UNL A   1      47.778  30.411  27.864  1.00  0.00     0.031 C 
ATOM     61  C   UNL A   1      45.508  30.991  28.675  1.00  0.00     0.037 A 
BRANCH  48  62
ATOM     62  C   UNL A   1      39.761  28.809  29.343  1.00  0.00     0.064 A 
ATOM     63  C   UNL A   1      38.820  29.309  28.429  1.00  0.00     0.173 A 
ATOM     64  C   UNL A   1      39.320  28.527  30.645  1.00  0.00     0.173 A 
ATOM     65  F   UNL A   1      39.189  29.609  27.174  1.00  0.00    -0.203 F 
ATOM     66  C   UNL A   1      37.503  29.550  28.813  1.00  0.00     0.198 A 
ATOM     67  C   UNL A   1      37.994  28.734  31.014  1.00  0.00     0.198 A 
ATOM     68  F   UNL A   1      40.175  28.043  31.558  1.00  0.00    -0.203 F 
ATOM     69  F   UNL A   1      36.639  30.084  27.937  1.00  0.00    -0.200 F 
ATOM     70  C   UNL A   1      37.089  29.254  30.102  1.00  0.00     0.200 A 
ATOM     71  F   UNL A   1      37.592  28.434  32.257  1.00  0.00    -0.200 F 
ATOM     72  F   UNL A   1      35.819  29.478  30.468  1.00  0.00    -0.200 F 
ENDBRANCH  48  62
BRANCH  49  73
ATOM     73  C   UNL A   1      49.078  26.710  26.288  1.00  0.00     0.064 A 
ATOM     74  C   UNL A   1      50.041  26.175  27.155  1.00  0.00     0.173 A 
ATOM     75  C   UNL A   1      49.459  26.949  24.960  1.00  0.00     0.173 A 
ATOM     76  F   UNL A   1      49.730  25.941  28.438  1.00  0.00    -0.203 F 
ATOM     77  C   UNL A   1      51.340  25.919  26.720  1.00  0.00     0.198 A 
ATOM     78  C   UNL A   1      50.749  26.661  24.517  1.00  0.00     0.198 A 
ATOM     79  F   UNL A   1      48.573  27.448  24.085  1.00  0.00    -0.203 F 
ATOM     80  F   UNL A   1      52.253  25.454  27.583  1.00  0.00    -0.200 F 
ATOM     81  C   UNL A   1      51.691  26.156  25.400  1.00  0.00     0.200 A 
ATOM     82  F   UNL A   1      51.078  26.873  23.236  1.00  0.00    -0.200 F 
ATOM     83  F   UNL A   1      52.938  25.903  24.980  1.00  0.00    -0.200 F 
ENDBRANCH  49  73
BRANCH  61  84
ATOM     84  C   UNL A   1      46.029  32.349  29.045  1.00  0.00     0.064 A 
ATOM     85  C   UNL A   1      46.608  32.604  30.296  1.00  0.00     0.173 A 
ATOM     86  C   UNL A   1      46.008  33.392  28.105  1.00  0.00     0.173 A 
ATOM     87  F   UNL A   1      46.640  31.644  31.233  1.00  0.00    -0.203 F 
ATOM     88  C   UNL A   1      47.130  33.858  30.599  1.00  0.00     0.198 A 
ATOM     89  C   UNL A   1      46.561  34.633  28.399  1.00  0.00     0.198 A 
ATOM     90  F   UNL A   1      45.471  33.196  26.890  1.00  0.00    -0.203 F 
ATOM     91  F   UNL A   1      47.641  34.091  31.816  1.00  0.00    -0.200 F 
ATOM     92  C   UNL A   1      47.116  34.867  29.648  1.00  0.00     0.200 A 
ATOM     93  F   UNL A   1      46.564  35.602  27.472  1.00  0.00    -0.200 F 
ATOM     94  F   UNL A   1      47.634  36.069  29.937  1.00  0.00    -0.200 F 
ENDBRANCH  61  84
ENDBRANCH  35  36
ENDBRANCH  27  30
ENDBRANCH  25  26
ENDBRANCH   1  25
TORSDOF 12
ENDMDL
