MODEL 1
REMARK VINA RESULT:     -12.7      0.000      0.000
REMARK SMILES C[C@H](NC(=O)N(C)C)c1ccc(/C=C/C(=O)NCCCCNC(=O)c2ccc(-c3c4nc(c(-c5c(F)c(F)c(F)c(F)c5F)c5ccc([nH]5)c(-c5c(F)c(F)c(F)c(F)c5F)c5nc(c(-c6c(F)c(F)c(F)c(F)c6F)c6ccc3[nH]6)C=C5)C=C4)cc2)cc1
REMARK SMILES IDX 19 1 18 2 17 3 15 4 16 5 14 7 13 8 12 9 9 10 10 11 89 12
REMARK SMILES IDX 11 13 88 14 2 15 1 16 3 17 4 18 5 20 6 21 7 22 8 23 20 24
REMARK SMILES IDX 21 25 22 26 23 27 24 29 25 30 26 31 87 32 27 33 86 34 28 35
REMARK SMILES IDX 29 36 30 37 80 38 31 39 85 40 79 41 81 42 32 43 84 44 78 45
REMARK SMILES IDX 77 46 33 48 65 49 45 50 64 51 46 52 49 53 63 54 82 55 47 56
REMARK SMILES IDX 48 57 62 59 83 60 50 61 34 62 35 63 43 64 36 65 37 66 41 67
REMARK SMILES IDX 44 68 38 69 39 70 42 71 40 72 66 73 67 74 75 75 68 76 69 77
REMARK SMILES IDX 73 78 76 79 70 80 71 81 74 82 72 83 51 84 52 85 60 86 53 87
REMARK SMILES IDX 54 88 58 89 61 90 55 91 56 92 59 93 57 94
REMARK H PARENT 17 6 3 19 22 28 81 47 49 58
REMARK Flexibility Score: inf
ROOT
ATOM      1  C   UNL A   1      31.952  30.302  26.783  1.00  0.00     0.023 C 
ENDROOT
BRANCH   1   2
ATOM      2  C   UNL A   1      32.191  29.710  25.393  1.00  0.00     0.116 C 
BRANCH   2   3
ATOM      3  N   UNL A   1      31.024  29.870  24.543  1.00  0.00    -0.353 N 
ATOM      4  C   UNL A   1      30.351  28.953  23.794  1.00  0.00     0.243 C 
ATOM      5  O   UNL A   1      29.313  29.271  23.219  1.00  0.00    -0.270 OA
ATOM      6  H   UNL A   1      30.663  30.785  24.502  1.00  0.00     0.163 HD
BRANCH   4   7
ATOM      7  C   UNL A   1      30.820  27.551  23.741  1.00  0.00     0.072 C 
ATOM      8  C   UNL A   1      30.246  26.584  24.468  1.00  0.00     0.014 C 
BRANCH   8   9
ATOM      9  C   UNL A   1      30.623  25.173  24.417  1.00  0.00    -0.025 A 
ATOM     10  C   UNL A   1      31.743  22.572  24.481  1.00  0.00    -0.026 A 
ATOM     11  C   UNL A   1      31.519  23.239  23.263  1.00  0.00     0.006 A 
ATOM     12  C   UNL A   1      31.237  23.178  25.646  1.00  0.00     0.006 A 
ATOM     13  C   UNL A   1      30.985  24.535  23.233  1.00  0.00     0.008 A 
ATOM     14  C   UNL A   1      30.707  24.469  25.619  1.00  0.00     0.008 A 
BRANCH  10  15
ATOM     15  C   UNL A   1      32.546  21.261  24.597  1.00  0.00     0.111 C 
ATOM     16  C   UNL A   1      34.054  21.577  24.609  1.00  0.00     0.036 C 
BRANCH  15  17
ATOM     17  N   UNL A   1      32.247  20.319  23.520  1.00  0.00    -0.331 N 
ATOM     18  C   UNL A   1      32.437  19.002  23.326  1.00  0.00     0.317 C 
ATOM     19  H   UNL A   1      31.803  20.752  22.755  1.00  0.00     0.165 HD
ATOM     20  O   UNL A   1      32.244  18.603  22.173  1.00  0.00    -0.249 OA
ATOM     21  N   UNL A   1      32.890  18.169  24.309  1.00  0.00    -0.331 N 
ATOM     22  C   UNL A   1      32.709  18.317  25.741  1.00  0.00     0.148 C 
ATOM     23  C   UNL A   1      33.482  16.911  23.883  1.00  0.00     0.148 C 
ENDBRANCH  15  17
ENDBRANCH  10  15
ENDBRANCH   8   9
ENDBRANCH   4   7
ENDBRANCH   2   3
ENDBRANCH   1   2
BRANCH   1  24
ATOM     24  C   UNL A   1      31.680  31.810  26.787  1.00  0.00     0.023 C 
BRANCH  24  25
ATOM     25  C   UNL A   1      32.843  32.673  27.267  1.00  0.00     0.116 C 
BRANCH  25  26
ATOM     26  N   UNL A   1      32.452  34.029  27.614  1.00  0.00    -0.352 N 
ATOM     27  C   UNL A   1      32.990  34.856  28.572  1.00  0.00     0.251 C 
ATOM     28  H   UNL A   1      31.705  34.406  27.093  1.00  0.00     0.163 HD
ATOM     29  O   UNL A   1      32.485  35.941  28.816  1.00  0.00    -0.269 OA
BRANCH  27  30
ATOM     30  C   UNL A   1      34.166  34.393  29.340  1.00  0.00     0.039 A 
ATOM     31  C   UNL A   1      33.958  33.743  30.559  1.00  0.00     0.014 A 
ATOM     32  C   UNL A   1      35.459  34.567  28.840  1.00  0.00     0.014 A 
ATOM     33  C   UNL A   1      35.047  33.204  31.245  1.00  0.00     0.010 A 
ATOM     34  C   UNL A   1      36.534  33.972  29.492  1.00  0.00     0.010 A 
ATOM     35  C   UNL A   1      36.338  33.282  30.698  1.00  0.00    -0.014 A 
BRANCH  35  36
ATOM     36  C   UNL A   1      37.496  32.640  31.367  1.00  0.00     0.031 A 
ATOM     37  C   UNL A   1      38.216  31.502  30.703  1.00  0.00     0.074 A 
ATOM     38  C   UNL A   1      37.850  33.037  32.605  1.00  0.00     0.049 A 
ATOM     39  N   UNL A   1      39.197  30.765  31.157  1.00  0.00    -0.248 NA
ATOM     40  C   UNL A   1      37.751  31.122  29.360  1.00  0.00     0.031 C 
ATOM     41  C   UNL A   1      37.195  34.096  33.374  1.00  0.00     0.029 A 
ATOM     42  N   UNL A   1      38.841  32.585  33.440  1.00  0.00    -0.354 N 
ATOM     43  C   UNL A   1      39.454  29.828  30.167  1.00  0.00     0.074 A 
ATOM     44  C   UNL A   1      38.494  30.055  29.108  1.00  0.00     0.031 C 
ATOM     45  C   UNL A   1      37.815  34.226  34.559  1.00  0.00     0.029 A 
ATOM     46  C   UNL A   1      38.886  33.239  34.646  1.00  0.00     0.049 A 
ATOM     47  H   UNL A   1      39.462  31.860  33.196  1.00  0.00     0.167 HD
ATOM     48  C   UNL A   1      40.417  28.875  30.135  1.00  0.00     0.037 A 
ATOM     49  C   UNL A   1      39.699  33.058  35.706  1.00  0.00     0.037 A 
ATOM     50  C   UNL A   1      41.391  28.674  31.176  1.00  0.00     0.049 A 
ATOM     51  C   UNL A   1      40.766  32.000  35.640  1.00  0.00     0.074 A 
ATOM     52  C   UNL A   1      42.450  27.784  31.206  1.00  0.00     0.029 A 
ATOM     53  N   UNL A   1      41.421  29.373  32.373  1.00  0.00    -0.354 N 
ATOM     54  N   UNL A   1      41.047  31.166  34.667  1.00  0.00    -0.248 NA
ATOM     55  C   UNL A   1      41.634  31.860  36.817  1.00  0.00     0.031 C 
ATOM     56  C   UNL A   1      43.098  27.917  32.438  1.00  0.00     0.029 A 
ATOM     57  C   UNL A   1      42.470  28.922  33.157  1.00  0.00     0.049 A 
ATOM     58  H   UNL A   1      40.791  30.086  32.627  1.00  0.00     0.167 HD
ATOM     59  C   UNL A   1      42.138  30.427  35.101  1.00  0.00     0.074 A 
ATOM     60  C   UNL A   1      42.477  30.919  36.420  1.00  0.00     0.031 C 
ATOM     61  C   UNL A   1      42.800  29.431  34.463  1.00  0.00     0.037 A 
BRANCH  48  62
ATOM     62  C   UNL A   1      40.471  27.983  28.930  1.00  0.00     0.064 A 
ATOM     63  C   UNL A   1      39.739  26.787  28.868  1.00  0.00     0.173 A 
ATOM     64  C   UNL A   1      41.234  28.344  27.809  1.00  0.00     0.173 A 
ATOM     65  F   UNL A   1      39.004  26.390  29.918  1.00  0.00    -0.203 F 
ATOM     66  C   UNL A   1      39.793  25.973  27.739  1.00  0.00     0.198 A 
ATOM     67  C   UNL A   1      41.262  27.542  26.672  1.00  0.00     0.198 A 
ATOM     68  F   UNL A   1      41.948  29.480  27.816  1.00  0.00    -0.203 F 
ATOM     69  F   UNL A   1      39.123  24.812  27.721  1.00  0.00    -0.200 F 
ATOM     70  C   UNL A   1      40.547  26.354  26.640  1.00  0.00     0.200 A 
ATOM     71  F   UNL A   1      41.982  27.917  25.606  1.00  0.00    -0.200 F 
ATOM     72  F   UNL A   1      40.591  25.573  25.553  1.00  0.00    -0.200 F 
ENDBRANCH  48  62
BRANCH  49  73
ATOM     73  C   UNL A   1      39.556  33.919  36.908  1.00  0.00     0.064 A 
ATOM     74  C   UNL A   1      38.811  33.489  38.014  1.00  0.00     0.173 A 
ATOM     75  C   UNL A   1      40.152  35.186  36.975  1.00  0.00     0.173 A 
ATOM     76  F   UNL A   1      38.205  32.293  37.987  1.00  0.00    -0.203 F 
ATOM     77  C   UNL A   1      38.648  34.301  39.133  1.00  0.00     0.198 A 
ATOM     78  C   UNL A   1      40.011  35.988  38.107  1.00  0.00     0.198 A 
ATOM     79  F   UNL A   1      40.880  35.643  35.945  1.00  0.00    -0.203 F 
ATOM     80  F   UNL A   1      37.892  33.883  40.158  1.00  0.00    -0.200 F 
ATOM     81  C   UNL A   1      39.253  35.549  39.180  1.00  0.00     0.200 A 
ATOM     82  F   UNL A   1      40.608  37.187  38.154  1.00  0.00    -0.200 F 
ATOM     83  F   UNL A   1      39.098  36.330  40.258  1.00  0.00    -0.200 F 
ENDBRANCH  49  73
BRANCH  61  84
ATOM     84  C   UNL A   1      43.980  28.829  35.168  1.00  0.00     0.064 A 
ATOM     85  C   UNL A   1      45.277  29.331  34.993  1.00  0.00     0.173 A 
ATOM     86  C   UNL A   1      43.802  27.762  36.062  1.00  0.00     0.173 A 
ATOM     87  F   UNL A   1      45.499  30.340  34.137  1.00  0.00    -0.203 F 
ATOM     88  C   UNL A   1      46.357  28.772  35.669  1.00  0.00     0.198 A 
ATOM     89  C   UNL A   1      44.880  27.223  36.758  1.00  0.00     0.198 A 
ATOM     90  F   UNL A   1      42.580  27.249  36.267  1.00  0.00    -0.203 F 
ATOM     91  F   UNL A   1      47.595  29.239  35.453  1.00  0.00    -0.200 F 
ATOM     92  C   UNL A   1      46.157  27.724  36.557  1.00  0.00     0.200 A 
ATOM     93  F   UNL A   1      44.683  26.219  37.624  1.00  0.00    -0.200 F 
ATOM     94  F   UNL A   1      47.198  27.193  37.213  1.00  0.00    -0.200 F 
ENDBRANCH  61  84
ENDBRANCH  35  36
ENDBRANCH  27  30
ENDBRANCH  25  26
ENDBRANCH  24  25
ENDBRANCH   1  24
TORSDOF 14
ENDMDL
MODEL 2
REMARK VINA RESULT:     -12.7      4.738     10.657
REMARK SMILES C[C@H](NC(=O)N(C)C)c1ccc(/C=C/C(=O)NCCCCNC(=O)c2ccc(-c3c4nc(c(-c5c(F)c(F)c(F)c(F)c5F)c5ccc([nH]5)c(-c5c(F)c(F)c(F)c(F)c5F)c5nc(c(-c6c(F)c(F)c(F)c(F)c6F)c6ccc3[nH]6)C=C5)C=C4)cc2)cc1
REMARK SMILES IDX 19 1 18 2 17 3 15 4 16 5 14 7 13 8 12 9 9 10 10 11 89 12
REMARK SMILES IDX 11 13 88 14 2 15 1 16 3 17 4 18 5 20 6 21 7 22 8 23 20 24
REMARK SMILES IDX 21 25 22 26 23 27 24 29 25 30 26 31 87 32 27 33 86 34 28 35
REMARK SMILES IDX 29 36 30 37 80 38 31 39 85 40 79 41 81 42 32 43 84 44 78 45
REMARK SMILES IDX 77 46 33 48 65 49 45 50 64 51 46 52 49 53 63 54 82 55 47 56
REMARK SMILES IDX 48 57 62 59 83 60 50 61 34 62 35 63 43 64 36 65 37 66 41 67
REMARK SMILES IDX 44 68 38 69 39 70 42 71 40 72 66 73 67 74 75 75 68 76 69 77
REMARK SMILES IDX 73 78 76 79 70 80 71 81 74 82 72 83 51 84 52 85 60 86 53 87
REMARK SMILES IDX 54 88 58 89 61 90 55 91 56 92 59 93 57 94
REMARK H PARENT 17 6 3 19 22 28 81 47 49 58
REMARK Flexibility Score: inf
ROOT
ATOM      1  C   UNL A   1      32.791  35.812  29.862  1.00  0.00     0.023 C 
ENDROOT
BRANCH   1   2
ATOM      2  C   UNL A   1      33.466  36.005  31.221  1.00  0.00     0.116 C 
BRANCH   2   3
ATOM      3  N   UNL A   1      33.200  34.884  32.106  1.00  0.00    -0.353 N 
ATOM      4  C   UNL A   1      34.034  33.907  32.559  1.00  0.00     0.243 C 
ATOM      5  O   UNL A   1      33.637  33.098  33.394  1.00  0.00    -0.270 OA
ATOM      6  H   UNL A   1      32.272  34.820  32.429  1.00  0.00     0.163 HD
BRANCH   4   7
ATOM      7  C   UNL A   1      35.444  33.871  32.115  1.00  0.00     0.072 C 
ATOM      8  C   UNL A   1      36.392  34.612  32.702  1.00  0.00     0.014 C 
BRANCH   8   9
ATOM      9  C   UNL A   1      37.810  34.578  32.350  1.00  0.00    -0.025 A 
ATOM     10  C   UNL A   1      40.501  34.076  31.621  1.00  0.00    -0.026 A 
ATOM     11  C   UNL A   1      40.156  34.431  32.938  1.00  0.00     0.006 A 
ATOM     12  C   UNL A   1      39.482  34.144  30.653  1.00  0.00     0.006 A 
ATOM     13  C   UNL A   1      38.822  34.658  33.303  1.00  0.00     0.008 A 
ATOM     14  C   UNL A   1      38.153  34.368  31.013  1.00  0.00     0.008 A 
BRANCH  10  15
ATOM     15  C   UNL A   1      41.901  33.577  31.213  1.00  0.00     0.111 C 
ATOM     16  C   UNL A   1      42.517  34.545  30.185  1.00  0.00     0.036 C 
BRANCH  15  17
ATOM     17  N   UNL A   1      41.879  32.222  30.664  1.00  0.00    -0.331 N 
ATOM     18  C   UNL A   1      42.719  31.172  30.685  1.00  0.00     0.317 C 
ATOM     19  H   UNL A   1      41.055  32.035  30.158  1.00  0.00     0.165 HD
ATOM     20  O   UNL A   1      42.441  30.256  29.903  1.00  0.00    -0.249 OA
ATOM     21  N   UNL A   1      43.848  31.144  31.452  1.00  0.00    -0.331 N 
ATOM     22  C   UNL A   1      44.075  31.833  32.709  1.00  0.00     0.148 C 
ATOM     23  C   UNL A   1      44.885  30.203  31.061  1.00  0.00     0.148 C 
ENDBRANCH  15  17
ENDBRANCH  10  15
ENDBRANCH   8   9
ENDBRANCH   4   7
ENDBRANCH   2   3
ENDBRANCH   1   2
BRANCH   1  24
ATOM     24  C   UNL A   1      33.738  35.360  28.746  1.00  0.00     0.023 C 
BRANCH  24  25
ATOM     25  C   UNL A   1      34.184  33.904  28.831  1.00  0.00     0.116 C 
BRANCH  25  26
ATOM     26  N   UNL A   1      33.467  33.026  27.920  1.00  0.00    -0.352 N 
ATOM     27  C   UNL A   1      33.831  31.778  27.473  1.00  0.00     0.251 C 
ATOM     28  H   UNL A   1      32.609  33.371  27.579  1.00  0.00     0.163 HD
ATOM     29  O   UNL A   1      33.168  31.201  26.624  1.00  0.00    -0.269 OA
BRANCH  27  30
ATOM     30  C   UNL A   1      35.065  31.158  28.000  1.00  0.00     0.039 A 
ATOM     31  C   UNL A   1      36.224  31.935  28.081  1.00  0.00     0.014 A 
ATOM     32  C   UNL A   1      35.066  29.835  28.446  1.00  0.00     0.014 A 
ATOM     33  C   UNL A   1      37.369  31.402  28.676  1.00  0.00     0.010 A 
ATOM     34  C   UNL A   1      36.186  29.328  29.097  1.00  0.00     0.010 A 
ATOM     35  C   UNL A   1      37.346  30.109  29.222  1.00  0.00    -0.014 A 
BRANCH  35  36
ATOM     36  C   UNL A   1      38.524  29.555  29.935  1.00  0.00     0.031 A 
ATOM     37  C   UNL A   1      38.853  30.023  31.323  1.00  0.00     0.074 A 
ATOM     38  C   UNL A   1      39.336  28.687  29.301  1.00  0.00     0.049 A 
ATOM     39  N   UNL A   1      39.877  29.718  32.079  1.00  0.00    -0.248 NA
ATOM     40  C   UNL A   1      37.923  30.986  31.933  1.00  0.00     0.031 C 
ATOM     41  C   UNL A   1      39.151  28.199  27.934  1.00  0.00     0.029 A 
ATOM     42  N   UNL A   1      40.490  28.073  29.720  1.00  0.00    -0.354 N 
ATOM     43  C   UNL A   1      39.722  30.461  33.241  1.00  0.00     0.074 A 
ATOM     44  C   UNL A   1      38.534  31.270  33.073  1.00  0.00     0.031 C 
ATOM     45  C   UNL A   1      40.143  27.344  27.635  1.00  0.00     0.029 A 
ATOM     46  C   UNL A   1      41.050  27.252  28.773  1.00  0.00     0.049 A 
ATOM     47  H   UNL A   1      40.878  28.208  30.615  1.00  0.00     0.167 HD
ATOM     48  C   UNL A   1      40.491  30.454  34.356  1.00  0.00     0.037 A 
ATOM     49  C   UNL A   1      42.176  26.511  28.819  1.00  0.00     0.037 A 
ATOM     50  C   UNL A   1      41.653  29.623  34.533  1.00  0.00     0.049 A 
ATOM     51  C   UNL A   1      43.006  26.515  30.073  1.00  0.00     0.074 A 
ATOM     52  C   UNL A   1      42.458  29.490  35.651  1.00  0.00     0.029 A 
ATOM     53  N   UNL A   1      42.177  28.784  33.561  1.00  0.00    -0.354 N 
ATOM     54  N   UNL A   1      42.810  27.166  31.194  1.00  0.00    -0.248 NA
ATOM     55  C   UNL A   1      44.211  25.674  30.071  1.00  0.00     0.031 C 
ATOM     56  C   UNL A   1      43.492  28.600  35.342  1.00  0.00     0.029 A 
ATOM     57  C   UNL A   1      43.306  28.144  34.047  1.00  0.00     0.049 A 
ATOM     58  H   UNL A   1      41.802  28.660  32.659  1.00  0.00     0.167 HD
ATOM     59  C   UNL A   1      43.847  26.793  32.038  1.00  0.00     0.074 A 
ATOM     60  C   UNL A   1      44.663  25.848  31.305  1.00  0.00     0.031 C 
ATOM     61  C   UNL A   1      44.099  27.197  33.307  1.00  0.00     0.037 A 
BRANCH  48  62
ATOM     62  C   UNL A   1      40.095  31.367  35.479  1.00  0.00     0.064 A 
ATOM     63  C   UNL A   1      38.952  31.122  36.257  1.00  0.00     0.173 A 
ATOM     64  C   UNL A   1      40.884  32.480  35.804  1.00  0.00     0.173 A 
ATOM     65  F   UNL A   1      38.158  30.078  35.978  1.00  0.00    -0.203 F 
ATOM     66  C   UNL A   1      38.601  31.974  37.300  1.00  0.00     0.198 A 
ATOM     67  C   UNL A   1      40.545  33.313  36.866  1.00  0.00     0.198 A 
ATOM     68  F   UNL A   1      41.988  32.757  35.094  1.00  0.00    -0.203 F 
ATOM     69  F   UNL A   1      37.480  31.747  38.000  1.00  0.00    -0.200 F 
ATOM     70  C   UNL A   1      39.400  33.064  37.610  1.00  0.00     0.200 A 
ATOM     71  F   UNL A   1      41.324  34.360  37.172  1.00  0.00    -0.200 F 
ATOM     72  F   UNL A   1      39.064  33.879  38.618  1.00  0.00    -0.200 F 
ENDBRANCH  48  62
BRANCH  49  73
ATOM     73  C   UNL A   1      42.566  25.680  27.651  1.00  0.00     0.064 A 
ATOM     74  C   UNL A   1      43.454  26.172  26.685  1.00  0.00     0.173 A 
ATOM     75  C   UNL A   1      42.059  24.385  27.472  1.00  0.00     0.173 A 
ATOM     76  F   UNL A   1      43.949  27.413  26.803  1.00  0.00    -0.203 F 
ATOM     77  C   UNL A   1      43.803  25.411  25.572  1.00  0.00     0.198 A 
ATOM     78  C   UNL A   1      42.430  23.613  26.372  1.00  0.00     0.198 A 
ATOM     79  F   UNL A   1      41.210  23.865  28.371  1.00  0.00    -0.203 F 
ATOM     80  F   UNL A   1      44.619  25.924  24.641  1.00  0.00    -0.200 F 
ATOM     81  C   UNL A   1      43.294  24.130  25.420  1.00  0.00     0.200 A 
ATOM     82  F   UNL A   1      41.946  22.371  26.234  1.00  0.00    -0.200 F 
ATOM     83  F   UNL A   1      43.632  23.396  24.350  1.00  0.00    -0.200 F 
ENDBRANCH  49  73
BRANCH  61  84
ATOM     84  C   UNL A   1      45.286  26.592  33.997  1.00  0.00     0.064 A 
ATOM     85  C   UNL A   1      46.545  27.210  33.974  1.00  0.00     0.173 A 
ATOM     86  C   UNL A   1      45.151  25.400  34.725  1.00  0.00     0.173 A 
ATOM     87  F   UNL A   1      46.727  28.343  33.278  1.00  0.00    -0.203 F 
ATOM     88  C   UNL A   1      47.630  26.644  34.635  1.00  0.00     0.198 A 
ATOM     89  C   UNL A   1      46.232  24.852  35.408  1.00  0.00     0.198 A 
ATOM     90  F   UNL A   1      43.967  24.774  34.782  1.00  0.00    -0.203 F 
ATOM     91  F   UNL A   1      48.835  27.229  34.563  1.00  0.00    -0.200 F 
ATOM     92  C   UNL A   1      47.472  25.471  35.358  1.00  0.00     0.200 A 
ATOM     93  F   UNL A   1      46.075  23.725  36.116  1.00  0.00    -0.200 F 
ATOM     94  F   UNL A   1      48.518  24.932  36.001  1.00  0.00    -0.200 F 
ENDBRANCH  61  84
ENDBRANCH  35  36
ENDBRANCH  27  30
ENDBRANCH  25  26
ENDBRANCH  24  25
ENDBRANCH   1  24
TORSDOF 14
ENDMDL
MODEL 3
REMARK VINA RESULT:     -12.6      1.299      7.541
REMARK SMILES C[C@H](NC(=O)N(C)C)c1ccc(/C=C/C(=O)NCCCCNC(=O)c2ccc(-c3c4nc(c(-c5c(F)c(F)c(F)c(F)c5F)c5ccc([nH]5)c(-c5c(F)c(F)c(F)c(F)c5F)c5nc(c(-c6c(F)c(F)c(F)c(F)c6F)c6ccc3[nH]6)C=C5)C=C4)cc2)cc1
REMARK SMILES IDX 19 1 18 2 17 3 15 4 16 5 14 7 13 8 12 9 9 10 10 11 89 12
REMARK SMILES IDX 11 13 88 14 2 15 1 16 3 17 4 18 5 20 6 21 7 22 8 23 20 24
REMARK SMILES IDX 21 25 22 26 23 27 24 29 25 30 26 31 87 32 27 33 86 34 28 35
REMARK SMILES IDX 29 36 30 37 80 38 31 39 85 40 79 41 81 42 32 43 84 44 78 45
REMARK SMILES IDX 77 46 33 48 65 49 45 50 64 51 46 52 49 53 63 54 82 55 47 56
REMARK SMILES IDX 48 57 62 59 83 60 50 61 34 62 35 63 43 64 36 65 37 66 41 67
REMARK SMILES IDX 44 68 38 69 39 70 42 71 40 72 66 73 67 74 75 75 68 76 69 77
REMARK SMILES IDX 73 78 76 79 70 80 71 81 74 82 72 83 51 84 52 85 60 86 53 87
REMARK SMILES IDX 54 88 58 89 61 90 55 91 56 92 59 93 57 94
REMARK H PARENT 17 6 3 19 22 28 81 47 49 58
REMARK Flexibility Score: inf
ROOT
ATOM      1  C   UNL A   1      31.766  30.322  26.732  1.00  0.00     0.023 C 
ENDROOT
BRANCH   1   2
ATOM      2  C   UNL A   1      33.110  29.828  26.192  1.00  0.00     0.116 C 
BRANCH   2   3
ATOM      3  N   UNL A   1      33.129  29.834  24.740  1.00  0.00    -0.353 N 
ATOM      4  C   UNL A   1      33.222  28.798  23.859  1.00  0.00     0.243 C 
ATOM      5  O   UNL A   1      33.116  29.006  22.653  1.00  0.00    -0.270 OA
ATOM      6  H   UNL A   1      33.067  30.725  24.327  1.00  0.00     0.163 HD
BRANCH   4   7
ATOM      7  C   UNL A   1      33.361  27.412  24.357  1.00  0.00     0.072 C 
ATOM      8  C   UNL A   1      33.707  26.401  23.551  1.00  0.00     0.014 C 
BRANCH   8   9
ATOM      9  C   UNL A   1      33.918  25.024  23.990  1.00  0.00    -0.025 A 
ATOM     10  C   UNL A   1      33.928  22.390  25.034  1.00  0.00    -0.026 A 
ATOM     11  C   UNL A   1      34.765  23.388  25.566  1.00  0.00     0.006 A 
ATOM     12  C   UNL A   1      33.215  22.709  23.864  1.00  0.00     0.006 A 
ATOM     13  C   UNL A   1      34.744  24.697  25.064  1.00  0.00     0.008 A 
ATOM     14  C   UNL A   1      33.191  24.012  23.362  1.00  0.00     0.008 A 
BRANCH  10  15
ATOM     15  C   UNL A   1      33.725  21.011  25.692  1.00  0.00     0.111 C 
ATOM     16  C   UNL A   1      33.780  21.156  27.225  1.00  0.00     0.036 C 
BRANCH  15  17
ATOM     17  N   UNL A   1      34.711  20.026  25.253  1.00  0.00    -0.331 N 
ATOM     18  C   UNL A   1      34.658  18.848  24.605  1.00  0.00     0.317 C 
ATOM     19  H   UNL A   1      35.631  20.285  25.489  1.00  0.00     0.165 HD
ATOM     20  O   UNL A   1      35.705  18.192  24.613  1.00  0.00    -0.249 OA
ATOM     21  N   UNL A   1      33.511  18.365  24.044  1.00  0.00    -0.331 N 
ATOM     22  C   UNL A   1      32.395  19.132  23.523  1.00  0.00     0.148 C 
ATOM     23  C   UNL A   1      33.456  16.934  23.790  1.00  0.00     0.148 C 
ENDBRANCH  15  17
ENDBRANCH  10  15
ENDBRANCH   8   9
ENDBRANCH   4   7
ENDBRANCH   2   3
ENDBRANCH   1   2
BRANCH   1  24
ATOM     24  C   UNL A   1      31.599  31.845  26.711  1.00  0.00     0.023 C 
BRANCH  24  25
ATOM     25  C   UNL A   1      32.818  32.632  27.181  1.00  0.00     0.116 C 
BRANCH  25  26
ATOM     26  N   UNL A   1      32.503  33.988  27.603  1.00  0.00    -0.352 N 
ATOM     27  C   UNL A   1      33.095  34.733  28.596  1.00  0.00     0.251 C 
ATOM     28  H   UNL A   1      31.772  34.430  27.113  1.00  0.00     0.163 HD
ATOM     29  O   UNL A   1      32.651  35.829  28.903  1.00  0.00    -0.269 OA
BRANCH  27  30
ATOM     30  C   UNL A   1      34.253  34.169  29.322  1.00  0.00     0.039 A 
ATOM     31  C   UNL A   1      34.016  33.330  30.414  1.00  0.00     0.014 A 
ATOM     32  C   UNL A   1      35.558  34.438  28.904  1.00  0.00     0.014 A 
ATOM     33  C   UNL A   1      35.092  32.702  31.045  1.00  0.00     0.010 A 
ATOM     34  C   UNL A   1      36.622  33.761  29.491  1.00  0.00     0.010 A 
ATOM     35  C   UNL A   1      36.398  32.884  30.564  1.00  0.00    -0.014 A 
BRANCH  35  36
ATOM     36  C   UNL A   1      37.545  32.160  31.165  1.00  0.00     0.031 A 
ATOM     37  C   UNL A   1      38.033  32.526  32.537  1.00  0.00     0.074 A 
ATOM     38  C   UNL A   1      38.192  31.224  30.442  1.00  0.00     0.049 A 
ATOM     39  N   UNL A   1      39.062  32.064  33.201  1.00  0.00    -0.248 NA
ATOM     40  C   UNL A   1      37.280  33.571  33.247  1.00  0.00     0.031 C 
ATOM     41  C   UNL A   1      37.845  30.819  29.080  1.00  0.00     0.029 A 
ATOM     42  N   UNL A   1      39.285  30.454  30.750  1.00  0.00    -0.354 N 
ATOM     43  C   UNL A   1      39.090  32.773  34.394  1.00  0.00     0.074 A 
ATOM     44  C   UNL A   1      38.005  33.730  34.344  1.00  0.00     0.031 C 
ATOM     45  C   UNL A   1      38.696  29.860  28.676  1.00  0.00     0.029 A 
ATOM     46  C   UNL A   1      39.665  29.609  29.737  1.00  0.00     0.049 A 
ATOM     47  H   UNL A   1      39.752  30.503  31.615  1.00  0.00     0.167 HD
ATOM     48  C   UNL A   1      39.932  32.624  35.445  1.00  0.00     0.037 A 
ATOM     49  C   UNL A   1      40.687  28.733  29.671  1.00  0.00     0.037 A 
ATOM     50  C   UNL A   1      40.988  31.648  35.503  1.00  0.00     0.049 A 
ATOM     51  C   UNL A   1      41.602  28.581  30.856  1.00  0.00     0.074 A 
ATOM     52  C   UNL A   1      41.850  31.371  36.550  1.00  0.00     0.029 A 
ATOM     53  N   UNL A   1      41.328  30.791  34.467  1.00  0.00    -0.354 N 
ATOM     54  N   UNL A   1      41.574  29.206  32.009  1.00  0.00    -0.248 NA
ATOM     55  C   UNL A   1      42.687  27.598  30.733  1.00  0.00     0.031 C 
ATOM     56  C   UNL A   1      42.736  30.372  36.134  1.00  0.00     0.029 A 
ATOM     57  C   UNL A   1      42.399  29.996  34.843  1.00  0.00     0.049 A 
ATOM     58  H   UNL A   1      40.875  30.752  33.594  1.00  0.00     0.167 HD
ATOM     59  C   UNL A   1      42.614  28.672  32.757  1.00  0.00     0.074 A 
ATOM     60  C   UNL A   1      43.246  27.663  31.933  1.00  0.00     0.031 C 
ATOM     61  C   UNL A   1      43.008  28.989  34.014  1.00  0.00     0.037 A 
BRANCH  48  62
ATOM     62  C   UNL A   1      39.738  33.533  36.623  1.00  0.00     0.064 A 
ATOM     63  C   UNL A   1      40.413  34.759  36.722  1.00  0.00     0.173 A 
ATOM     64  C   UNL A   1      38.842  33.192  37.646  1.00  0.00     0.173 A 
ATOM     65  F   UNL A   1      41.291  35.126  35.777  1.00  0.00    -0.203 F 
ATOM     66  C   UNL A   1      40.218  35.597  37.818  1.00  0.00     0.198 A 
ATOM     67  C   UNL A   1      38.627  34.045  38.725  1.00  0.00     0.198 A 
ATOM     68  F   UNL A   1      38.168  32.032  37.596  1.00  0.00    -0.203 F 
ATOM     69  F   UNL A   1      40.908  36.741  37.915  1.00  0.00    -0.200 F 
ATOM     70  C   UNL A   1      39.320  35.243  38.814  1.00  0.00     0.200 A 
ATOM     71  F   UNL A   1      37.751  33.707  39.682  1.00  0.00    -0.200 F 
ATOM     72  F   UNL A   1      39.128  36.053  39.864  1.00  0.00    -0.200 F 
ENDBRANCH  48  62
BRANCH  49  73
ATOM     73  C   UNL A   1      40.882  27.908  28.451  1.00  0.00     0.064 A 
ATOM     74  C   UNL A   1      41.682  28.366  27.396  1.00  0.00     0.173 A 
ATOM     75  C   UNL A   1      40.271  26.654  28.310  1.00  0.00     0.173 A 
ATOM     76  F   UNL A   1      42.270  29.569  27.476  1.00  0.00    -0.203 F 
ATOM     77  C   UNL A   1      41.846  27.612  26.236  1.00  0.00     0.198 A 
ATOM     78  C   UNL A   1      40.458  25.888  27.161  1.00  0.00     0.198 A 
ATOM     79  F   UNL A   1      39.499  26.168  29.294  1.00  0.00    -0.203 F 
ATOM     80  F   UNL A   1      42.581  28.095  25.224  1.00  0.00    -0.200 F 
ATOM     81  C   UNL A   1      41.238  26.371  26.122  1.00  0.00     0.200 A 
ATOM     82  F   UNL A   1      39.878  24.684  27.059  1.00  0.00    -0.200 F 
ATOM     83  F   UNL A   1      41.398  25.645  25.007  1.00  0.00    -0.200 F 
ENDBRANCH  49  73
BRANCH  61  84
ATOM     84  C   UNL A   1      44.156  28.214  34.590  1.00  0.00     0.064 A 
ATOM     85  C   UNL A   1      45.478  28.671  34.490  1.00  0.00     0.173 A 
ATOM     86  C   UNL A   1      43.925  27.017  35.286  1.00  0.00     0.173 A 
ATOM     87  F   UNL A   1      45.751  29.801  33.820  1.00  0.00    -0.203 F 
ATOM     88  C   UNL A   1      46.528  27.948  35.046  1.00  0.00     0.198 A 
ATOM     89  C   UNL A   1      44.974  26.312  35.865  1.00  0.00     0.198 A 
ATOM     90  F   UNL A   1      42.678  26.540  35.414  1.00  0.00    -0.203 F 
ATOM     91  F   UNL A   1      47.789  28.381  34.900  1.00  0.00    -0.200 F 
ATOM     92  C   UNL A   1      46.276  26.773  35.740  1.00  0.00     0.200 A 
ATOM     93  F   UNL A   1      44.728  25.183  36.546  1.00  0.00    -0.200 F 
ATOM     94  F   UNL A   1      47.289  26.083  36.281  1.00  0.00    -0.200 F 
ENDBRANCH  61  84
ENDBRANCH  35  36
ENDBRANCH  27  30
ENDBRANCH  25  26
ENDBRANCH  24  25
ENDBRANCH   1  24
TORSDOF 14
ENDMDL
