MODEL 1
REMARK VINA RESULT:     -13.4      0.000      0.000
REMARK SMILES O=C(NCCCCNC(=O)[C@]12C[NH2+]C[C@H]1CN(C(=O)c1ccccc1-n1cncn1)C2)c1ccc(-c2c3nc(c(-c4c(F)c(F)c(F)c(F)c4F)c4ccc([nH]4)c(-c4c(F)c(F)c(F)c(F)c4F)c4nc(c(-c5c(F)c(F)c(F)c(F)c5F)c5ccc2[nH]5)C=C4)C=C3)cc1
REMARK SMILES IDX 6 1 5 2 4 3 3 4 1 5 2 6 32 8 33 9 94 10 34 11 93 12 35 13
REMARK SMILES IDX 36 14 37 15 87 16 38 17 92 18 86 19 88 20 39 21 91 22 85 23
REMARK SMILES IDX 84 24 40 26 72 27 52 28 71 29 53 30 56 31 70 32 89 33 54 34
REMARK SMILES IDX 55 35 69 37 90 38 57 39 41 40 42 41 50 42 43 43 44 44 48 45
REMARK SMILES IDX 51 46 45 47 46 48 49 49 47 50 73 51 74 52 82 53 75 54 76 55
REMARK SMILES IDX 80 56 83 57 77 58 78 59 81 60 79 61 58 62 59 63 67 64 60 65
REMARK SMILES IDX 61 66 65 67 68 68 62 69 63 70 66 71 64 72 7 73 8 74 9 75
REMARK SMILES IDX 10 77 11 78 12 79 15 80 31 81 13 82 14 83 16 84 17 85 18 88
REMARK SMILES IDX 19 89 20 90 21 91 25 92 22 93 24 94 23 95 26 96 27 97 30 98
REMARK SMILES IDX 28 99 29 100
REMARK H PARENT 3 7 88 25 56 36 8 76 13 86 13 87
REMARK Flexibility Score: inf
ROOT
ATOM      1  C   UNL A   1      36.652  22.918  23.587  1.00  0.00     0.023 C 
ENDROOT
BRANCH   1   2
ATOM      2  C   UNL A   1      36.949  21.737  24.522  1.00  0.00     0.023 C 
BRANCH   2   3
ATOM      3  C   UNL A   1      37.790  22.119  25.742  1.00  0.00     0.116 C 
BRANCH   3   4
ATOM      4  N   UNL A   1      39.170  21.690  25.648  1.00  0.00    -0.352 N 
ATOM      5  O   UNL A   1      41.374  21.570  25.872  1.00  0.00    -0.269 OA
ATOM      6  C   UNL A   1      40.345  22.198  26.126  1.00  0.00     0.251 C 
ATOM      7  H   UNL A   1      39.286  20.860  25.133  1.00  0.00     0.163 HD
BRANCH   6   8
ATOM      8  C   UNL A   1      40.448  23.486  26.853  1.00  0.00     0.039 A 
ATOM      9  C   UNL A   1      39.692  24.627  26.572  1.00  0.00     0.014 A 
ATOM     10  C   UNL A   1      41.401  23.540  27.882  1.00  0.00     0.014 A 
ATOM     11  C   UNL A   1      39.980  25.835  27.180  1.00  0.00     0.010 A 
ATOM     12  C   UNL A   1      41.650  24.730  28.544  1.00  0.00     0.010 A 
ATOM     13  C   UNL A   1      40.978  25.886  28.146  1.00  0.00    -0.014 A 
BRANCH  13  14
ATOM     14  C   UNL A   1      41.201  27.159  28.815  1.00  0.00     0.031 A 
ATOM     15  C   UNL A   1      42.397  27.931  28.343  1.00  0.00     0.074 A 
ATOM     16  C   UNL A   1      40.270  27.646  29.658  1.00  0.00     0.049 A 
ATOM     17  N   UNL A   1      43.291  28.571  29.032  1.00  0.00    -0.248 NA
ATOM     18  C   UNL A   1      42.666  27.928  26.891  1.00  0.00     0.031 C 
ATOM     19  C   UNL A   1      38.951  27.077  29.962  1.00  0.00     0.029 A 
ATOM     20  N   UNL A   1      40.245  28.836  30.312  1.00  0.00    -0.354 N 
ATOM     21  C   UNL A   1      44.138  29.176  28.099  1.00  0.00     0.074 A 
ATOM     22  C   UNL A   1      43.775  28.659  26.809  1.00  0.00     0.031 C 
ATOM     23  C   UNL A   1      38.173  28.035  30.509  1.00  0.00     0.029 A 
ATOM     24  C   UNL A   1      38.973  29.231  30.698  1.00  0.00     0.049 A 
ATOM     25  H   UNL A   1      41.052  29.367  30.494  1.00  0.00     0.167 HD
ATOM     26  C   UNL A   1      44.955  30.216  28.419  1.00  0.00     0.037 A 
ATOM     27  C   UNL A   1      38.592  30.490  31.022  1.00  0.00     0.037 A 
ATOM     28  C   UNL A   1      45.271  30.239  29.817  1.00  0.00     0.049 A 
ATOM     29  C   UNL A   1      39.822  31.271  31.315  1.00  0.00     0.074 A 
ATOM     30  C   UNL A   1      45.941  29.384  30.671  1.00  0.00     0.029 A 
ATOM     31  N   UNL A   1      44.616  31.124  30.634  1.00  0.00    -0.354 N 
ATOM     32  N   UNL A   1      40.602  31.045  32.335  1.00  0.00    -0.248 NA
ATOM     33  C   UNL A   1      40.427  32.006  30.214  1.00  0.00     0.031 C 
ATOM     34  C   UNL A   1      45.244  29.481  31.910  1.00  0.00     0.029 A 
ATOM     35  C   UNL A   1      44.224  30.416  31.739  1.00  0.00     0.049 A 
ATOM     36  H   UNL A   1      44.458  32.080  30.459  1.00  0.00     0.167 HD
ATOM     37  C   UNL A   1      41.888  31.251  31.854  1.00  0.00     0.074 A 
ATOM     38  C   UNL A   1      41.713  31.913  30.564  1.00  0.00     0.031 C 
ATOM     39  C   UNL A   1      42.963  30.617  32.408  1.00  0.00     0.037 A 
BRANCH  26  40
ATOM     40  C   UNL A   1      45.187  31.403  27.514  1.00  0.00     0.064 A 
ATOM     41  C   UNL A   1      46.480  31.654  27.013  1.00  0.00     0.173 A 
ATOM     42  C   UNL A   1      44.267  32.466  27.379  1.00  0.00     0.173 A 
ATOM     43  F   UNL A   1      47.440  30.720  27.098  1.00  0.00    -0.203 F 
ATOM     44  C   UNL A   1      46.845  32.903  26.500  1.00  0.00     0.198 A 
ATOM     45  C   UNL A   1      44.620  33.694  26.822  1.00  0.00     0.198 A 
ATOM     46  F   UNL A   1      43.027  32.403  27.881  1.00  0.00    -0.203 F 
ATOM     47  F   UNL A   1      48.118  33.135  26.156  1.00  0.00    -0.200 F 
ATOM     48  C   UNL A   1      45.916  33.924  26.415  1.00  0.00     0.200 A 
ATOM     49  F   UNL A   1      43.709  34.675  26.762  1.00  0.00    -0.200 F 
ATOM     50  F   UNL A   1      46.279  35.142  25.990  1.00  0.00    -0.200 F 
ENDBRANCH  26  40
BRANCH  27  51
ATOM     51  C   UNL A   1      37.291  31.121  30.697  1.00  0.00     0.064 A 
ATOM     52  C   UNL A   1      36.402  31.521  31.705  1.00  0.00     0.173 A 
ATOM     53  C   UNL A   1      36.996  31.562  29.390  1.00  0.00     0.173 A 
ATOM     54  F   UNL A   1      36.644  31.197  32.983  1.00  0.00    -0.203 F 
ATOM     55  C   UNL A   1      35.283  32.312  31.420  1.00  0.00     0.198 A 
ATOM     56  C   UNL A   1      35.873  32.338  29.105  1.00  0.00     0.198 A 
ATOM     57  F   UNL A   1      37.839  31.324  28.375  1.00  0.00    -0.203 F 
ATOM     58  F   UNL A   1      34.480  32.717  32.415  1.00  0.00    -0.200 F 
ATOM     59  C   UNL A   1      35.021  32.721  30.122  1.00  0.00     0.200 A 
ATOM     60  F   UNL A   1      35.656  32.757  27.850  1.00  0.00    -0.200 F 
ATOM     61  F   UNL A   1      33.974  33.514  29.857  1.00  0.00    -0.200 F 
ENDBRANCH  27  51
BRANCH  39  62
ATOM     62  C   UNL A   1      42.741  29.839  33.673  1.00  0.00     0.064 A 
ATOM     63  C   UNL A   1      42.747  30.429  34.949  1.00  0.00     0.173 A 
ATOM     64  C   UNL A   1      42.340  28.502  33.586  1.00  0.00     0.173 A 
ATOM     65  F   UNL A   1      43.003  31.733  35.102  1.00  0.00    -0.203 F 
ATOM     66  C   UNL A   1      42.414  29.701  36.089  1.00  0.00     0.198 A 
ATOM     67  C   UNL A   1      41.971  27.785  34.721  1.00  0.00     0.198 A 
ATOM     68  F   UNL A   1      42.246  27.907  32.386  1.00  0.00    -0.203 F 
ATOM     69  F   UNL A   1      42.432  30.292  37.293  1.00  0.00    -0.200 F 
ATOM     70  C   UNL A   1      42.019  28.381  35.972  1.00  0.00     0.200 A 
ATOM     71  F   UNL A   1      41.533  26.524  34.599  1.00  0.00    -0.200 F 
ATOM     72  F   UNL A   1      41.648  27.692  37.061  1.00  0.00    -0.200 F 
ENDBRANCH  39  62
ENDBRANCH  13  14
ENDBRANCH   6   8
ENDBRANCH   3   4
ENDBRANCH   2   3
ENDBRANCH   1   2
BRANCH   1  73
ATOM     73  C   UNL A   1      35.355  23.646  23.925  1.00  0.00     0.116 C 
BRANCH  73  74
ATOM     74  N   UNL A   1      34.273  23.108  23.128  1.00  0.00    -0.355 N 
ATOM     75  C   UNL A   1      33.181  22.444  23.606  1.00  0.00     0.234 C 
ATOM     76  H   UNL A   1      34.331  23.232  22.153  1.00  0.00     0.163 HD
ATOM     77  O   UNL A   1      32.494  21.787  22.825  1.00  0.00    -0.274 OA
BRANCH  75  78
ATOM     78  C   UNL A   1      32.908  22.647  25.096  1.00  0.00     0.125 C 
ATOM     79  C   UNL A   1      33.270  21.108  25.300  1.00  0.00     0.280 C 
ATOM     80  C   UNL A   1      32.318  22.622  26.525  1.00  0.00     0.087 C 
ATOM     81  C   UNL A   1      31.597  23.450  24.615  1.00  0.00     0.143 C 
ATOM     82  N   UNL A   1      33.988  21.031  26.597  1.00  0.00    -0.345 N 
ATOM     83  C   UNL A   1      33.353  22.029  27.444  1.00  0.00     0.267 C 
ATOM     84  C   UNL A   1      31.921  24.035  26.876  1.00  0.00     0.130 C 
ATOM     85  N   UNL A   1      31.355  24.474  25.635  1.00  0.00    -0.337 N 
ATOM     86  H   UNL A   1      34.977  21.245  26.471  1.00  0.00     0.346 HD
ATOM     87  H   UNL A   1      33.940  20.097  27.004  1.00  0.00     0.346 HD
BRANCH  85  88
ATOM     88  C   UNL A   1      30.788  25.733  25.525  1.00  0.00     0.256 C 
ATOM     89  O   UNL A   1      29.592  25.911  25.368  1.00  0.00    -0.269 OA
BRANCH  88  90
ATOM     90  C   UNL A   1      31.660  26.931  25.607  1.00  0.00     0.065 A 
ATOM     91  C   UNL A   1      31.769  27.525  26.876  1.00  0.00     0.016 A 
ATOM     92  C   UNL A   1      32.398  27.451  24.534  1.00  0.00     0.079 A 
ATOM     93  C   UNL A   1      32.633  28.601  27.082  1.00  0.00     0.001 A 
ATOM     94  C   UNL A   1      33.307  28.500  24.762  1.00  0.00     0.029 A 
ATOM     95  C   UNL A   1      33.410  29.079  26.029  1.00  0.00     0.002 A 
BRANCH  92  96
ATOM     96  N   UNL A   1      32.266  26.957  23.217  1.00  0.00    -0.220 N 
ATOM     97  C   UNL A   1      31.258  27.149  22.302  1.00  0.00     0.225 A 
ATOM     98  N   UNL A   1      33.180  26.102  22.695  1.00  0.00    -0.155 NA
ATOM     99  N   UNL A   1      31.403  26.329  21.286  1.00  0.00    -0.223 NA
ATOM    100  C   UNL A   1      32.571  25.695  21.580  1.00  0.00     0.246 A 
ENDBRANCH  92  96
ENDBRANCH  88  90
ENDBRANCH  85  88
ENDBRANCH  75  78
ENDBRANCH  73  74
ENDBRANCH   1  73
TORSDOF 14
ENDMDL
MODEL 2
REMARK VINA RESULT:     -13.2      2.866      8.359
REMARK SMILES O=C(NCCCCNC(=O)[C@]12C[NH2+]C[C@H]1CN(C(=O)c1ccccc1-n1cncn1)C2)c1ccc(-c2c3nc(c(-c4c(F)c(F)c(F)c(F)c4F)c4ccc([nH]4)c(-c4c(F)c(F)c(F)c(F)c4F)c4nc(c(-c5c(F)c(F)c(F)c(F)c5F)c5ccc2[nH]5)C=C4)C=C3)cc1
REMARK SMILES IDX 6 1 5 2 4 3 3 4 1 5 2 6 32 8 33 9 94 10 34 11 93 12 35 13
REMARK SMILES IDX 36 14 37 15 87 16 38 17 92 18 86 19 88 20 39 21 91 22 85 23
REMARK SMILES IDX 84 24 40 26 72 27 52 28 71 29 53 30 56 31 70 32 89 33 54 34
REMARK SMILES IDX 55 35 69 37 90 38 57 39 41 40 42 41 50 42 43 43 44 44 48 45
REMARK SMILES IDX 51 46 45 47 46 48 49 49 47 50 73 51 74 52 82 53 75 54 76 55
REMARK SMILES IDX 80 56 83 57 77 58 78 59 81 60 79 61 58 62 59 63 67 64 60 65
REMARK SMILES IDX 61 66 65 67 68 68 62 69 63 70 66 71 64 72 7 73 8 74 9 75
REMARK SMILES IDX 10 77 11 78 12 79 15 80 31 81 13 82 14 83 16 84 17 85 18 88
REMARK SMILES IDX 19 89 20 90 21 91 25 92 22 93 24 94 23 95 26 96 27 97 30 98
REMARK SMILES IDX 28 99 29 100
REMARK H PARENT 3 7 88 25 56 36 8 76 13 86 13 87
REMARK Flexibility Score: inf
ROOT
ATOM      1  C   UNL A   1      31.770  28.872  27.331  1.00  0.00     0.023 C 
ENDROOT
BRANCH   1   2
ATOM      2  C   UNL A   1      32.504  30.075  26.723  1.00  0.00     0.023 C 
BRANCH   2   3
ATOM      3  C   UNL A   1      33.929  30.254  27.252  1.00  0.00     0.116 C 
BRANCH   3   4
ATOM      4  N   UNL A   1      34.027  31.209  28.336  1.00  0.00    -0.352 N 
ATOM      5  O   UNL A   1      34.791  32.442  30.014  1.00  0.00    -0.269 OA
ATOM      6  C   UNL A   1      35.035  31.563  29.187  1.00  0.00     0.251 C 
ATOM      7  H   UNL A   1      33.193  31.708  28.492  1.00  0.00     0.163 HD
BRANCH   6   8
ATOM      8  C   UNL A   1      36.359  30.895  29.215  1.00  0.00     0.039 A 
ATOM      9  C   UNL A   1      36.560  29.514  29.150  1.00  0.00     0.014 A 
ATOM     10  C   UNL A   1      37.474  31.738  29.341  1.00  0.00     0.014 A 
ATOM     11  C   UNL A   1      37.814  28.970  29.363  1.00  0.00     0.010 A 
ATOM     12  C   UNL A   1      38.743  31.204  29.488  1.00  0.00     0.010 A 
ATOM     13  C   UNL A   1      38.896  29.819  29.558  1.00  0.00    -0.014 A 
BRANCH  13  14
ATOM     14  C   UNL A   1      40.210  29.210  29.707  1.00  0.00     0.031 A 
ATOM     15  C   UNL A   1      40.714  29.107  31.115  1.00  0.00     0.074 A 
ATOM     16  C   UNL A   1      40.805  28.633  28.645  1.00  0.00     0.049 A 
ATOM     17  N   UNL A   1      41.897  29.352  31.589  1.00  0.00    -0.248 NA
ATOM     18  C   UNL A   1      39.729  28.740  32.154  1.00  0.00     0.031 C 
ATOM     19  C   UNL A   1      40.255  28.456  27.295  1.00  0.00     0.029 A 
ATOM     20  N   UNL A   1      41.975  27.947  28.587  1.00  0.00    -0.354 N 
ATOM     21  C   UNL A   1      41.846  29.022  32.946  1.00  0.00     0.074 A 
ATOM     22  C   UNL A   1      40.468  28.759  33.260  1.00  0.00     0.031 C 
ATOM     23  C   UNL A   1      40.958  27.498  26.654  1.00  0.00     0.029 A 
ATOM     24  C   UNL A   1      42.065  27.092  27.500  1.00  0.00     0.049 A 
ATOM     25  H   UNL A   1      42.691  28.048  29.254  1.00  0.00     0.167 HD
ATOM     26  C   UNL A   1      42.964  28.789  33.685  1.00  0.00     0.037 A 
ATOM     27  C   UNL A   1      42.913  26.043  27.377  1.00  0.00     0.037 A 
ATOM     28  C   UNL A   1      44.116  29.441  33.133  1.00  0.00     0.049 A 
ATOM     29  C   UNL A   1      43.999  26.222  28.375  1.00  0.00     0.074 A 
ATOM     30  C   UNL A   1      44.471  30.758  32.917  1.00  0.00     0.029 A 
ATOM     31  N   UNL A   1      45.017  28.700  32.411  1.00  0.00    -0.354 N 
ATOM     32  N   UNL A   1      44.882  27.181  28.327  1.00  0.00    -0.248 NA
ATOM     33  C   UNL A   1      43.819  25.602  29.680  1.00  0.00     0.031 C 
ATOM     34  C   UNL A   1      45.209  30.745  31.698  1.00  0.00     0.029 A 
ATOM     35  C   UNL A   1      45.287  29.418  31.276  1.00  0.00     0.049 A 
ATOM     36  H   UNL A   1      45.394  27.826  32.661  1.00  0.00     0.167 HD
ATOM     37  C   UNL A   1      45.078  27.553  29.649  1.00  0.00     0.074 A 
ATOM     38  C   UNL A   1      44.453  26.497  30.442  1.00  0.00     0.031 C 
ATOM     39  C   UNL A   1      45.477  28.817  29.980  1.00  0.00     0.037 A 
BRANCH  26  40
ATOM     40  C   UNL A   1      43.068  27.692  34.718  1.00  0.00     0.064 A 
ATOM     41  C   UNL A   1      43.366  28.021  36.056  1.00  0.00     0.173 A 
ATOM     42  C   UNL A   1      43.196  26.325  34.386  1.00  0.00     0.173 A 
ATOM     43  F   UNL A   1      43.290  29.292  36.480  1.00  0.00    -0.203 F 
ATOM     44  C   UNL A   1      43.842  27.069  36.962  1.00  0.00     0.198 A 
ATOM     45  C   UNL A   1      43.623  25.369  35.306  1.00  0.00     0.198 A 
ATOM     46  F   UNL A   1      43.025  25.877  33.136  1.00  0.00    -0.203 F 
ATOM     47  F   UNL A   1      44.235  27.452  38.184  1.00  0.00    -0.200 F 
ATOM     48  C   UNL A   1      43.979  25.746  36.583  1.00  0.00     0.200 A 
ATOM     49  F   UNL A   1      43.763  24.095  34.915  1.00  0.00    -0.200 F 
ATOM     50  F   UNL A   1      44.500  24.845  37.427  1.00  0.00    -0.200 F 
ENDBRANCH  26  40
BRANCH  27  51
ATOM     51  C   UNL A   1      42.606  24.739  26.741  1.00  0.00     0.064 A 
ATOM     52  C   UNL A   1      43.330  24.280  25.632  1.00  0.00     0.173 A 
ATOM     53  C   UNL A   1      41.747  23.806  27.359  1.00  0.00     0.173 A 
ATOM     54  F   UNL A   1      44.214  25.086  25.025  1.00  0.00    -0.203 F 
ATOM     55  C   UNL A   1      43.199  22.967  25.166  1.00  0.00     0.198 A 
ATOM     56  C   UNL A   1      41.608  22.502  26.887  1.00  0.00     0.198 A 
ATOM     57  F   UNL A   1      41.093  24.113  28.489  1.00  0.00    -0.203 F 
ATOM     58  F   UNL A   1      43.942  22.546  24.132  1.00  0.00    -0.200 F 
ATOM     59  C   UNL A   1      42.340  22.079  25.795  1.00  0.00     0.200 A 
ATOM     60  F   UNL A   1      40.801  21.645  27.530  1.00  0.00    -0.200 F 
ATOM     61  F   UNL A   1      42.248  20.809  25.376  1.00  0.00    -0.200 F 
ENDBRANCH  27  51
BRANCH  39  62
ATOM     62  C   UNL A   1      45.881  29.737  28.865  1.00  0.00     0.064 A 
ATOM     63  C   UNL A   1      44.970  30.558  28.177  1.00  0.00     0.173 A 
ATOM     64  C   UNL A   1      47.242  29.925  28.600  1.00  0.00     0.173 A 
ATOM     65  F   UNL A   1      43.664  30.523  28.461  1.00  0.00    -0.203 F 
ATOM     66  C   UNL A   1      45.399  31.490  27.235  1.00  0.00     0.198 A 
ATOM     67  C   UNL A   1      47.672  30.882  27.684  1.00  0.00     0.198 A 
ATOM     68  F   UNL A   1      48.161  29.220  29.278  1.00  0.00    -0.203 F 
ATOM     69  F   UNL A   1      44.505  32.257  26.593  1.00  0.00    -0.200 F 
ATOM     70  C   UNL A   1      46.751  31.656  26.995  1.00  0.00     0.200 A 
ATOM     71  F   UNL A   1      48.984  31.082  27.497  1.00  0.00    -0.200 F 
ATOM     72  F   UNL A   1      47.170  32.587  26.126  1.00  0.00    -0.200 F 
ENDBRANCH  39  62
ENDBRANCH  13  14
ENDBRANCH   6   8
ENDBRANCH   3   4
ENDBRANCH   2   3
ENDBRANCH   1   2
BRANCH   1  73
ATOM     73  C   UNL A   1      32.219  27.535  26.750  1.00  0.00     0.116 C 
BRANCH  73  74
ATOM     74  N   UNL A   1      31.060  26.757  26.366  1.00  0.00    -0.355 N 
ATOM     75  C   UNL A   1      30.593  26.591  25.095  1.00  0.00     0.234 C 
ATOM     76  H   UNL A   1      30.564  26.308  27.088  1.00  0.00     0.163 HD
ATOM     77  O   UNL A   1      29.452  26.163  24.930  1.00  0.00    -0.274 OA
BRANCH  75  78
ATOM     78  C   UNL A   1      31.600  26.922  23.993  1.00  0.00     0.125 C 
ATOM     79  C   UNL A   1      30.790  28.273  23.756  1.00  0.00     0.280 C 
ATOM     80  C   UNL A   1      32.305  27.192  22.644  1.00  0.00     0.087 C 
ATOM     81  C   UNL A   1      31.409  25.389  23.537  1.00  0.00     0.143 C 
ATOM     82  N   UNL A   1      31.809  29.304  23.435  1.00  0.00    -0.345 N 
ATOM     83  C   UNL A   1      32.831  28.604  22.671  1.00  0.00     0.267 C 
ATOM     84  C   UNL A   1      33.374  26.142  22.472  1.00  0.00     0.130 C 
ATOM     85  N   UNL A   1      32.691  24.979  22.957  1.00  0.00    -0.337 N 
ATOM     86  H   UNL A   1      32.205  29.694  24.290  1.00  0.00     0.346 HD
ATOM     87  H   UNL A   1      31.410  30.085  22.913  1.00  0.00     0.346 HD
BRANCH  85  88
ATOM     88  C   UNL A   1      33.301  23.735  22.917  1.00  0.00     0.256 C 
ATOM     89  O   UNL A   1      33.037  22.893  22.075  1.00  0.00    -0.269 OA
BRANCH  88  90
ATOM     90  C   UNL A   1      34.328  23.398  23.934  1.00  0.00     0.065 A 
ATOM     91  C   UNL A   1      35.665  23.532  23.521  1.00  0.00     0.016 A 
ATOM     92  C   UNL A   1      34.045  23.020  25.253  1.00  0.00     0.079 A 
ATOM     93  C   UNL A   1      36.708  23.327  24.425  1.00  0.00     0.001 A 
ATOM     94  C   UNL A   1      35.100  22.869  26.172  1.00  0.00     0.029 A 
ATOM     95  C   UNL A   1      36.425  23.008  25.752  1.00  0.00     0.002 A 
BRANCH  92  96
ATOM     96  N   UNL A   1      32.728  22.782  25.705  1.00  0.00    -0.220 N 
ATOM     97  C   UNL A   1      31.851  21.778  25.372  1.00  0.00     0.225 A 
ATOM     98  N   UNL A   1      32.109  23.647  26.547  1.00  0.00    -0.155 NA
ATOM     99  N   UNL A   1      30.650  22.050  25.830  1.00  0.00    -0.223 NA
ATOM    100  C   UNL A   1      30.850  23.208  26.517  1.00  0.00     0.246 A 
ENDBRANCH  92  96
ENDBRANCH  88  90
ENDBRANCH  85  88
ENDBRANCH  75  78
ENDBRANCH  73  74
ENDBRANCH   1  73
TORSDOF 14
ENDMDL
MODEL 3
REMARK VINA RESULT:     -13.1      2.866      8.317
REMARK SMILES O=C(NCCCCNC(=O)[C@]12C[NH2+]C[C@H]1CN(C(=O)c1ccccc1-n1cncn1)C2)c1ccc(-c2c3nc(c(-c4c(F)c(F)c(F)c(F)c4F)c4ccc([nH]4)c(-c4c(F)c(F)c(F)c(F)c4F)c4nc(c(-c5c(F)c(F)c(F)c(F)c5F)c5ccc2[nH]5)C=C4)C=C3)cc1
REMARK SMILES IDX 6 1 5 2 4 3 3 4 1 5 2 6 32 8 33 9 94 10 34 11 93 12 35 13
REMARK SMILES IDX 36 14 37 15 87 16 38 17 92 18 86 19 88 20 39 21 91 22 85 23
REMARK SMILES IDX 84 24 40 26 72 27 52 28 71 29 53 30 56 31 70 32 89 33 54 34
REMARK SMILES IDX 55 35 69 37 90 38 57 39 41 40 42 41 50 42 43 43 44 44 48 45
REMARK SMILES IDX 51 46 45 47 46 48 49 49 47 50 73 51 74 52 82 53 75 54 76 55
REMARK SMILES IDX 80 56 83 57 77 58 78 59 81 60 79 61 58 62 59 63 67 64 60 65
REMARK SMILES IDX 61 66 65 67 68 68 62 69 63 70 66 71 64 72 7 73 8 74 9 75
REMARK SMILES IDX 10 77 11 78 12 79 15 80 31 81 13 82 14 83 16 84 17 85 18 88
REMARK SMILES IDX 19 89 20 90 21 91 25 92 22 93 24 94 23 95 26 96 27 97 30 98
REMARK SMILES IDX 28 99 29 100
REMARK H PARENT 3 7 88 25 56 36 8 76 13 86 13 87
REMARK Flexibility Score: inf
ROOT
ATOM      1  C   UNL A   1      35.027  30.362  27.480  1.00  0.00     0.023 C 
ENDROOT
BRANCH   1   2
ATOM      2  C   UNL A   1      33.875  31.344  27.727  1.00  0.00     0.023 C 
BRANCH   2   3
ATOM      3  C   UNL A   1      34.306  32.627  28.440  1.00  0.00     0.116 C 
BRANCH   3   4
ATOM      4  N   UNL A   1      34.151  32.568  29.879  1.00  0.00    -0.352 N 
ATOM      5  O   UNL A   1      34.517  32.226  32.040  1.00  0.00    -0.269 OA
ATOM      6  C   UNL A   1      34.953  32.124  30.892  1.00  0.00     0.251 C 
ATOM      7  H   UNL A   1      33.288  32.923  30.192  1.00  0.00     0.163 HD
BRANCH   6   8
ATOM      8  C   UNL A   1      36.262  31.462  30.674  1.00  0.00     0.039 A 
ATOM      9  C   UNL A   1      36.480  30.083  30.719  1.00  0.00     0.014 A 
ATOM     10  C   UNL A   1      37.350  32.315  30.428  1.00  0.00     0.014 A 
ATOM     11  C   UNL A   1      37.763  29.567  30.682  1.00  0.00     0.010 A 
ATOM     12  C   UNL A   1      38.631  31.800  30.322  1.00  0.00     0.010 A 
ATOM     13  C   UNL A   1      38.836  30.433  30.510  1.00  0.00    -0.014 A 
BRANCH  13  14
ATOM     14  C   UNL A   1      40.163  29.845  30.403  1.00  0.00     0.031 A 
ATOM     15  C   UNL A   1      40.912  29.711  31.696  1.00  0.00     0.074 A 
ATOM     16  C   UNL A   1      40.567  29.310  29.235  1.00  0.00     0.049 A 
ATOM     17  N   UNL A   1      42.156  29.964  31.958  1.00  0.00    -0.248 NA
ATOM     18  C   UNL A   1      40.133  29.295  32.880  1.00  0.00     0.031 C 
ATOM     19  C   UNL A   1      39.787  29.163  27.999  1.00  0.00     0.029 A 
ATOM     20  N   UNL A   1      41.717  28.649  28.948  1.00  0.00    -0.354 N 
ATOM     21  C   UNL A   1      42.353  29.594  33.292  1.00  0.00     0.074 A 
ATOM     22  C   UNL A   1      41.057  29.296  33.837  1.00  0.00     0.031 C 
ATOM     23  C   UNL A   1      40.378  28.237  27.213  1.00  0.00     0.029 A 
ATOM     24  C   UNL A   1      41.623  27.827  27.835  1.00  0.00     0.049 A 
ATOM     25  H   UNL A   1      42.539  28.743  29.479  1.00  0.00     0.167 HD
ATOM     26  C   UNL A   1      43.589  29.361  33.813  1.00  0.00     0.037 A 
ATOM     27  C   UNL A   1      42.450  26.798  27.530  1.00  0.00     0.037 A 
ATOM     28  C   UNL A   1      44.614  30.050  33.086  1.00  0.00     0.049 A 
ATOM     29  C   UNL A   1      43.694  26.969  28.324  1.00  0.00     0.074 A 
ATOM     30  C   UNL A   1      44.908  31.380  32.852  1.00  0.00     0.029 A 
ATOM     31  N   UNL A   1      45.382  29.348  32.192  1.00  0.00    -0.354 N 
ATOM     32  N   UNL A   1      44.541  27.946  28.151  1.00  0.00    -0.248 NA
ATOM     33  C   UNL A   1      43.757  26.308  29.620  1.00  0.00     0.031 C 
ATOM     34  C   UNL A   1      45.416  31.416  31.521  1.00  0.00     0.029 A 
ATOM     35  C   UNL A   1      45.436  30.103  31.050  1.00  0.00     0.049 A 
ATOM     36  H   UNL A   1      45.810  28.474  32.342  1.00  0.00     0.167 HD
ATOM     37  C   UNL A   1      44.965  28.283  29.428  1.00  0.00     0.074 A 
ATOM     38  C   UNL A   1      44.506  27.192  30.285  1.00  0.00     0.031 C 
ATOM     39  C   UNL A   1      45.399  29.544  29.723  1.00  0.00     0.037 A 
BRANCH  26  40
ATOM     40  C   UNL A   1      43.890  28.236  34.775  1.00  0.00     0.064 A 
ATOM     41  C   UNL A   1      43.493  26.922  34.456  1.00  0.00     0.173 A 
ATOM     42  C   UNL A   1      44.265  28.448  36.121  1.00  0.00     0.173 A 
ATOM     43  F   UNL A   1      43.104  26.609  33.210  1.00  0.00    -0.203 F 
ATOM     44  C   UNL A   1      43.395  25.923  35.429  1.00  0.00     0.198 A 
ATOM     45  C   UNL A   1      44.213  27.436  37.078  1.00  0.00     0.198 A 
ATOM     46  F   UNL A   1      44.586  29.660  36.588  1.00  0.00    -0.203 F 
ATOM     47  F   UNL A   1      42.890  24.726  35.104  1.00  0.00    -0.200 F 
ATOM     48  C   UNL A   1      43.745  26.184  36.741  1.00  0.00     0.200 A 
ATOM     49  F   UNL A   1      44.543  27.714  38.347  1.00  0.00    -0.200 F 
ATOM     50  F   UNL A   1      43.586  25.251  37.688  1.00  0.00    -0.200 F 
ENDBRANCH  26  40
BRANCH  27  51
ATOM     51  C   UNL A   1      42.052  25.508  26.917  1.00  0.00     0.064 A 
ATOM     52  C   UNL A   1      42.796  24.935  25.876  1.00  0.00     0.173 A 
ATOM     53  C   UNL A   1      41.063  24.692  27.504  1.00  0.00     0.173 A 
ATOM     54  F   UNL A   1      43.795  25.622  25.306  1.00  0.00    -0.203 F 
ATOM     55  C   UNL A   1      42.560  23.624  25.446  1.00  0.00     0.198 A 
ATOM     56  C   UNL A   1      40.820  23.391  27.067  1.00  0.00     0.198 A 
ATOM     57  F   UNL A   1      40.371  25.108  28.575  1.00  0.00    -0.203 F 
ATOM     58  F   UNL A   1      43.322  23.090  24.480  1.00  0.00    -0.200 F 
ATOM     59  C   UNL A   1      41.575  22.853  26.042  1.00  0.00     0.200 A 
ATOM     60  F   UNL A   1      39.889  22.646  27.680  1.00  0.00    -0.200 F 
ATOM     61  F   UNL A   1      41.379  21.583  25.660  1.00  0.00    -0.200 F 
ENDBRANCH  27  51
BRANCH  39  62
ATOM     62  C   UNL A   1      45.586  30.503  28.583  1.00  0.00     0.064 A 
ATOM     63  C   UNL A   1      44.555  31.324  28.093  1.00  0.00     0.173 A 
ATOM     64  C   UNL A   1      46.875  30.727  28.089  1.00  0.00     0.173 A 
ATOM     65  F   UNL A   1      43.320  31.254  28.601  1.00  0.00    -0.203 F 
ATOM     66  C   UNL A   1      44.796  32.291  27.120  1.00  0.00     0.198 A 
ATOM     67  C   UNL A   1      47.122  31.719  27.143  1.00  0.00     0.198 A 
ATOM     68  F   UNL A   1      47.911  30.022  28.572  1.00  0.00    -0.203 F 
ATOM     69  F   UNL A   1      43.791  33.057  26.670  1.00  0.00    -0.200 F 
ATOM     70  C   UNL A   1      46.082  32.492  26.651  1.00  0.00     0.200 A 
ATOM     71  F   UNL A   1      48.377  31.951  26.733  1.00  0.00    -0.200 F 
ATOM     72  F   UNL A   1      46.326  33.456  25.751  1.00  0.00    -0.200 F 
ENDBRANCH  39  62
ENDBRANCH  13  14
ENDBRANCH   6   8
ENDBRANCH   3   4
ENDBRANCH   2   3
ENDBRANCH   1   2
BRANCH   1  73
ATOM     73  C   UNL A   1      34.558  28.979  27.039  1.00  0.00     0.116 C 
BRANCH  73  74
ATOM     74  N   UNL A   1      33.348  28.626  27.751  1.00  0.00    -0.355 N 
ATOM     75  C   UNL A   1      32.197  28.158  27.188  1.00  0.00     0.234 C 
ATOM     76  H   UNL A   1      33.358  28.733  28.729  1.00  0.00     0.163 HD
ATOM     77  O   UNL A   1      31.160  28.176  27.850  1.00  0.00    -0.274 OA
BRANCH  75  78
ATOM     78  C   UNL A   1      32.354  27.603  25.772  1.00  0.00     0.125 C 
ATOM     79  C   UNL A   1      31.487  28.841  25.267  1.00  0.00     0.280 C 
ATOM     80  C   UNL A   1      32.125  26.968  24.382  1.00  0.00     0.087 C 
ATOM     81  C   UNL A   1      32.013  26.174  26.434  1.00  0.00     0.143 C 
ATOM     82  N   UNL A   1      32.072  29.237  23.961  1.00  0.00    -0.345 N 
ATOM     83  C   UNL A   1      32.492  27.990  23.338  1.00  0.00     0.267 C 
ATOM     84  C   UNL A   1      32.946  25.703  24.320  1.00  0.00     0.130 C 
ATOM     85  N   UNL A   1      32.736  25.179  25.636  1.00  0.00    -0.337 N 
ATOM     86  H   UNL A   1      32.871  29.855  24.099  1.00  0.00     0.346 HD
ATOM     87  H   UNL A   1      31.404  29.746  23.383  1.00  0.00     0.346 HD
BRANCH  85  88
ATOM     88  C   UNL A   1      33.272  23.955  26.002  1.00  0.00     0.256 C 
ATOM     89  O   UNL A   1      32.728  23.201  26.791  1.00  0.00    -0.269 OA
BRANCH  88  90
ATOM     90  C   UNL A   1      34.563  23.524  25.411  1.00  0.00     0.065 A 
ATOM     91  C   UNL A   1      35.704  24.207  25.866  1.00  0.00     0.016 A 
ATOM     92  C   UNL A   1      34.706  22.471  24.496  1.00  0.00     0.079 A 
ATOM     93  C   UNL A   1      36.977  23.821  25.443  1.00  0.00     0.001 A 
ATOM     94  C   UNL A   1      35.994  22.053  24.117  1.00  0.00     0.029 A 
ATOM     95  C   UNL A   1      37.121  22.737  24.580  1.00  0.00     0.002 A 
BRANCH  92  96
ATOM     96  N   UNL A   1      33.595  21.804  23.933  1.00  0.00    -0.220 N 
ATOM     97  C   UNL A   1      33.066  20.571  24.228  1.00  0.00     0.225 A 
ATOM     98  N   UNL A   1      32.912  22.340  22.891  1.00  0.00    -0.155 NA
ATOM     99  N   UNL A   1      32.184  20.223  23.319  1.00  0.00    -0.223 NA
ATOM    100  C   UNL A   1      32.142  21.319  22.512  1.00  0.00     0.246 A 
ENDBRANCH  92  96
ENDBRANCH  88  90
ENDBRANCH  85  88
ENDBRANCH  75  78
ENDBRANCH  73  74
ENDBRANCH   1  73
TORSDOF 14
ENDMDL
