MODEL 1
REMARK VINA RESULT:     -11.3      0.000      0.000
REMARK SMILES CC(C)(C)OC(=O)NC[C@H]1CC[C@@H](C(=O)NCCCCNC(=O)c2ccc(-c3c4nc(c(-c5c(F)c(F)c(F)c(F)c5F)c5ccc([nH]5)c(-c5c(F)c(F)c(F)c(F)c5F)c5nc(c(-c6c(F)c(F)c(F)c(F)c6F)c6ccc3[nH]6)C=C5)C=C4)cc2)CC1
REMARK SMILES IDX 17 1 16 2 14 3 15 4 13 6 10 7 11 8 88 9 12 10 87 11 9 12
REMARK SMILES IDX 8 13 6 14 7 15 5 17 2 18 1 19 3 20 4 21 18 22 19 23 20 24
REMARK SMILES IDX 21 25 22 26 23 28 24 29 25 30 86 31 26 32 85 33 27 34 28 35
REMARK SMILES IDX 29 36 79 37 30 38 84 39 78 40 80 41 31 42 83 43 77 44 76 45
REMARK SMILES IDX 32 47 64 48 44 49 63 50 45 51 48 52 62 53 81 54 46 55 47 56
REMARK SMILES IDX 61 58 82 59 49 60 33 61 34 62 42 63 35 64 36 65 40 66 43 67
REMARK SMILES IDX 37 68 38 69 41 70 39 71 65 72 66 73 74 74 67 75 68 76 72 77
REMARK SMILES IDX 75 78 69 79 70 80 73 81 71 82 50 83 51 84 59 85 52 86 53 87
REMARK SMILES IDX 57 88 60 89 54 90 55 91 58 92 56 93
REMARK H PARENT 16 5 8 16 21 27 80 46 48 57
REMARK Flexibility Score: inf
ROOT
ATOM      1  C   UNL A   1      34.566  31.582  28.433  1.00  0.00     0.116 C 
ENDROOT
BRANCH   1   2
ATOM      2  N   UNL A   1      33.509  31.539  27.461  1.00  0.00    -0.356 N 
ATOM      3  C   UNL A   1      32.764  30.503  27.000  1.00  0.00     0.223 C 
ATOM      4  O   UNL A   1      31.804  30.815  26.284  1.00  0.00    -0.275 OA
ATOM      5  H   UNL A   1      33.287  32.410  27.060  1.00  0.00     0.163 HD
BRANCH   3   6
ATOM      6  C   UNL A   1      33.039  29.013  27.287  1.00  0.00     0.078 C 
ATOM      7  C   UNL A   1      32.187  26.861  25.322  1.00  0.00     0.008 C 
ATOM      8  C   UNL A   1      33.562  27.558  25.196  1.00  0.00     0.006 C 
ATOM      9  C   UNL A   1      31.213  27.447  26.370  1.00  0.00     0.006 C 
ATOM     10  C   UNL A   1      34.076  28.296  26.428  1.00  0.00     0.014 C 
ATOM     11  C   UNL A   1      31.820  28.145  27.572  1.00  0.00     0.014 C 
BRANCH   7  12
ATOM     12  C   UNL A   1      31.477  26.829  23.938  1.00  0.00     0.123 C 
BRANCH  12  13
ATOM     13  N   UNL A   1      32.380  26.700  22.823  1.00  0.00    -0.321 N 
ATOM     14  C   UNL A   1      32.597  25.558  22.104  1.00  0.00     0.407 C 
ATOM     15  O   UNL A   1      33.354  25.557  21.141  1.00  0.00    -0.225 OA
ATOM     16  H   UNL A   1      32.884  27.502  22.556  1.00  0.00     0.167 HD
BRANCH  14  17
ATOM     17  O   UNL A   1      31.919  24.489  22.588  1.00  0.00    -0.444 OA
BRANCH  17  18
ATOM     18  C   UNL A   1      32.604  23.428  23.301  1.00  0.00     0.106 C 
ATOM     19  C   UNL A   1      31.752  23.165  24.554  1.00  0.00     0.056 C 
ATOM     20  C   UNL A   1      33.991  23.900  23.749  1.00  0.00     0.056 C 
ATOM     21  C   UNL A   1      32.665  22.135  22.481  1.00  0.00     0.056 C 
ENDBRANCH  17  18
ENDBRANCH  14  17
ENDBRANCH  12  13
ENDBRANCH   7  12
ENDBRANCH   3   6
ENDBRANCH   1   2
BRANCH   1  22
ATOM     22  C   UNL A   1      34.521  32.801  29.349  1.00  0.00     0.023 C 
BRANCH  22  23
ATOM     23  C   UNL A   1      33.648  33.937  28.844  1.00  0.00     0.023 C 
BRANCH  23  24
ATOM     24  C   UNL A   1      33.885  35.281  29.519  1.00  0.00     0.116 C 
BRANCH  24  25
ATOM     25  N   UNL A   1      32.806  35.733  30.390  1.00  0.00    -0.352 N 
ATOM     26  C   UNL A   1      32.741  35.641  31.765  1.00  0.00     0.251 C 
ATOM     27  H   UNL A   1      32.034  36.153  29.945  1.00  0.00     0.163 HD
ATOM     28  O   UNL A   1      31.751  36.011  32.383  1.00  0.00    -0.269 OA
BRANCH  26  29
ATOM     29  C   UNL A   1      33.879  35.019  32.472  1.00  0.00     0.039 A 
ATOM     30  C   UNL A   1      33.750  33.711  32.939  1.00  0.00     0.014 A 
ATOM     31  C   UNL A   1      35.112  35.674  32.513  1.00  0.00     0.014 A 
ATOM     32  C   UNL A   1      34.889  33.020  33.354  1.00  0.00     0.010 A 
ATOM     33  C   UNL A   1      36.255  34.947  32.817  1.00  0.00     0.010 A 
ATOM     34  C   UNL A   1      36.158  33.612  33.239  1.00  0.00    -0.014 A 
BRANCH  34  35
ATOM     35  C   UNL A   1      37.398  32.854  33.552  1.00  0.00     0.031 A 
ATOM     36  C   UNL A   1      38.149  33.145  34.822  1.00  0.00     0.074 A 
ATOM     37  C   UNL A   1      37.883  31.961  32.667  1.00  0.00     0.049 A 
ATOM     38  N   UNL A   1      39.283  32.647  35.246  1.00  0.00    -0.248 NA
ATOM     39  C   UNL A   1      37.569  34.159  35.716  1.00  0.00     0.031 C 
ATOM     40  C   UNL A   1      37.283  31.633  31.372  1.00  0.00     0.029 A 
ATOM     41  N   UNL A   1      39.003  31.165  32.720  1.00  0.00    -0.354 N 
ATOM     42  C   UNL A   1      39.553  33.299  36.442  1.00  0.00     0.074 A 
ATOM     43  C   UNL A   1      38.508  34.278  36.640  1.00  0.00     0.031 C 
ATOM     44  C   UNL A   1      38.018  30.683  30.771  1.00  0.00     0.029 A 
ATOM     45  C   UNL A   1      39.166  30.365  31.614  1.00  0.00     0.049 A 
ATOM     46  H   UNL A   1      39.629  31.168  33.480  1.00  0.00     0.167 HD
ATOM     47  C   UNL A   1      40.563  33.076  37.316  1.00  0.00     0.037 A 
ATOM     48  C   UNL A   1      40.136  29.479  31.314  1.00  0.00     0.037 A 
ATOM     49  C   UNL A   1      41.584  32.081  37.130  1.00  0.00     0.049 A 
ATOM     50  C   UNL A   1      41.254  29.256  32.299  1.00  0.00     0.074 A 
ATOM     51  C   UNL A   1      42.614  31.733  37.984  1.00  0.00     0.029 A 
ATOM     52  N   UNL A   1      41.706  31.278  36.005  1.00  0.00    -0.354 N 
ATOM     53  N   UNL A   1      41.454  29.819  33.466  1.00  0.00    -0.248 NA
ATOM     54  C   UNL A   1      42.276  28.268  31.929  1.00  0.00     0.031 C 
ATOM     55  C   UNL A   1      43.394  30.760  37.352  1.00  0.00     0.029 A 
ATOM     56  C   UNL A   1      42.812  30.453  36.132  1.00  0.00     0.049 A 
ATOM     57  H   UNL A   1      41.097  31.291  35.232  1.00  0.00     0.167 HD
ATOM     58  C   UNL A   1      42.603  29.234  33.982  1.00  0.00     0.074 A 
ATOM     59  C   UNL A   1      43.046  28.258  33.008  1.00  0.00     0.031 C 
ATOM     60  C   UNL A   1      43.234  29.481  35.156  1.00  0.00     0.037 A 
BRANCH  47  61
ATOM     61  C   UNL A   1      40.607  33.925  38.555  1.00  0.00     0.064 A 
ATOM     62  C   UNL A   1      39.892  33.578  39.713  1.00  0.00     0.173 A 
ATOM     63  C   UNL A   1      41.396  35.084  38.596  1.00  0.00     0.173 A 
ATOM     64  F   UNL A   1      39.111  32.488  39.724  1.00  0.00    -0.203 F 
ATOM     65  C   UNL A   1      39.937  34.380  40.851  1.00  0.00     0.198 A 
ATOM     66  C   UNL A   1      41.467  35.862  39.748  1.00  0.00     0.198 A 
ATOM     67  F   UNL A   1      42.102  35.460  37.519  1.00  0.00    -0.203 F 
ATOM     68  F   UNL A   1      39.197  34.062  41.922  1.00  0.00    -0.200 F 
ATOM     69  C   UNL A   1      40.731  35.516  40.870  1.00  0.00     0.200 A 
ATOM     70  F   UNL A   1      42.247  36.953  39.769  1.00  0.00    -0.200 F 
ATOM     71  F   UNL A   1      40.780  36.282  41.969  1.00  0.00    -0.200 F 
ENDBRANCH  47  61
BRANCH  48  72
ATOM     72  C   UNL A   1      40.086  28.718  30.035  1.00  0.00     0.064 A 
ATOM     73  C   UNL A   1      39.459  27.466  29.963  1.00  0.00     0.173 A 
ATOM     74  C   UNL A   1      40.676  29.217  28.864  1.00  0.00     0.173 A 
ATOM     75  F   UNL A   1      38.898  26.935  31.060  1.00  0.00    -0.203 F 
ATOM     76  C   UNL A   1      39.447  26.731  28.779  1.00  0.00     0.198 A 
ATOM     77  C   UNL A   1      40.634  28.496  27.672  1.00  0.00     0.198 A 
ATOM     78  F   UNL A   1      41.284  30.413  28.874  1.00  0.00    -0.203 F 
ATOM     79  F   UNL A   1      38.888  25.514  28.755  1.00  0.00    -0.200 F 
ATOM     80  C   UNL A   1      40.030  27.250  27.633  1.00  0.00     0.200 A 
ATOM     81  F   UNL A   1      41.184  29.008  26.562  1.00  0.00    -0.200 F 
ATOM     82  F   UNL A   1      40.015  26.544  26.493  1.00  0.00    -0.200 F 
ENDBRANCH  48  72
BRANCH  60  83
ATOM     83  C   UNL A   1      44.448  28.656  35.475  1.00  0.00     0.064 A 
ATOM     84  C   UNL A   1      45.741  29.073  35.126  1.00  0.00     0.173 A 
ATOM     85  C   UNL A   1      44.317  27.450  36.183  1.00  0.00     0.173 A 
ATOM     86  F   UNL A   1      45.920  30.211  34.439  1.00  0.00    -0.203 F 
ATOM     87  C   UNL A   1      46.853  28.300  35.448  1.00  0.00     0.198 A 
ATOM     88  C   UNL A   1      45.434  26.698  36.534  1.00  0.00     0.198 A 
ATOM     89  F   UNL A   1      43.104  27.009  36.550  1.00  0.00    -0.203 F 
ATOM     90  F   UNL A   1      48.073  28.692  35.056  1.00  0.00    -0.200 F 
ATOM     91  C   UNL A   1      46.700  27.119  36.158  1.00  0.00     0.200 A 
ATOM     92  F   UNL A   1      45.285  25.568  37.238  1.00  0.00    -0.200 F 
ATOM     93  F   UNL A   1      47.774  26.383  36.476  1.00  0.00    -0.200 F 
ENDBRANCH  60  83
ENDBRANCH  34  35
ENDBRANCH  26  29
ENDBRANCH  24  25
ENDBRANCH  23  24
ENDBRANCH  22  23
ENDBRANCH   1  22
TORSDOF 15
ENDMDL
MODEL 2
REMARK VINA RESULT:     -11.2      0.129      2.015
REMARK SMILES CC(C)(C)OC(=O)NC[C@H]1CC[C@@H](C(=O)NCCCCNC(=O)c2ccc(-c3c4nc(c(-c5c(F)c(F)c(F)c(F)c5F)c5ccc([nH]5)c(-c5c(F)c(F)c(F)c(F)c5F)c5nc(c(-c6c(F)c(F)c(F)c(F)c6F)c6ccc3[nH]6)C=C5)C=C4)cc2)CC1
REMARK SMILES IDX 17 1 16 2 14 3 15 4 13 6 10 7 11 8 88 9 12 10 87 11 9 12
REMARK SMILES IDX 8 13 6 14 7 15 5 17 2 18 1 19 3 20 4 21 18 22 19 23 20 24
REMARK SMILES IDX 21 25 22 26 23 28 24 29 25 30 86 31 26 32 85 33 27 34 28 35
REMARK SMILES IDX 29 36 79 37 30 38 84 39 78 40 80 41 31 42 83 43 77 44 76 45
REMARK SMILES IDX 32 47 64 48 44 49 63 50 45 51 48 52 62 53 81 54 46 55 47 56
REMARK SMILES IDX 61 58 82 59 49 60 33 61 34 62 42 63 35 64 36 65 40 66 43 67
REMARK SMILES IDX 37 68 38 69 41 70 39 71 65 72 66 73 74 74 67 75 68 76 72 77
REMARK SMILES IDX 75 78 69 79 70 80 73 81 71 82 50 83 51 84 59 85 52 86 53 87
REMARK SMILES IDX 57 88 60 89 54 90 55 91 58 92 56 93
REMARK H PARENT 16 5 8 16 21 27 80 46 48 57
REMARK Flexibility Score: inf
ROOT
ATOM      1  C   UNL A   1      34.664  31.534  28.397  1.00  0.00     0.116 C 
ENDROOT
BRANCH   1   2
ATOM      2  N   UNL A   1      33.587  31.504  27.447  1.00  0.00    -0.356 N 
ATOM      3  C   UNL A   1      32.811  30.480  27.011  1.00  0.00     0.223 C 
ATOM      4  O   UNL A   1      31.843  30.805  26.311  1.00  0.00    -0.275 OA
ATOM      5  H   UNL A   1      33.375  32.376  27.042  1.00  0.00     0.163 HD
BRANCH   3   6
ATOM      6  C   UNL A   1      33.060  28.987  27.308  1.00  0.00     0.078 C 
ATOM      7  C   UNL A   1      32.177  26.838  25.353  1.00  0.00     0.008 C 
ATOM      8  C   UNL A   1      33.564  27.511  25.226  1.00  0.00     0.006 C 
ATOM      9  C   UNL A   1      31.210  27.446  26.395  1.00  0.00     0.006 C 
ATOM     10  C   UNL A   1      34.087  28.247  26.456  1.00  0.00     0.014 C 
ATOM     11  C   UNL A   1      31.826  28.142  27.594  1.00  0.00     0.014 C 
BRANCH   7  12
ATOM     12  C   UNL A   1      31.470  26.810  23.967  1.00  0.00     0.123 C 
BRANCH  12  13
ATOM     13  N   UNL A   1      32.378  26.764  22.850  1.00  0.00    -0.321 N 
ATOM     14  C   UNL A   1      32.659  25.657  22.099  1.00  0.00     0.407 C 
ATOM     15  O   UNL A   1      33.414  25.727  21.138  1.00  0.00    -0.225 OA
ATOM     16  H   UNL A   1      32.837  27.601  22.608  1.00  0.00     0.167 HD
BRANCH  14  17
ATOM     17  O   UNL A   1      32.042  24.539  22.551  1.00  0.00    -0.444 OA
BRANCH  17  18
ATOM     18  C   UNL A   1      32.780  23.511  23.259  1.00  0.00     0.106 C 
ATOM     19  C   UNL A   1      32.679  22.257  22.374  1.00  0.00     0.056 C 
ATOM     20  C   UNL A   1      32.111  23.210  24.604  1.00  0.00     0.056 C 
ATOM     21  C   UNL A   1      34.261  23.872  23.412  1.00  0.00     0.056 C 
ENDBRANCH  17  18
ENDBRANCH  14  17
ENDBRANCH  12  13
ENDBRANCH   7  12
ENDBRANCH   3   6
ENDBRANCH   1   2
BRANCH   1  22
ATOM     22  C   UNL A   1      34.677  32.773  29.285  1.00  0.00     0.023 C 
BRANCH  22  23
ATOM     23  C   UNL A   1      33.687  33.851  28.878  1.00  0.00     0.023 C 
BRANCH  23  24
ATOM     24  C   UNL A   1      33.927  35.218  29.505  1.00  0.00     0.116 C 
BRANCH  24  25
ATOM     25  N   UNL A   1      32.853  35.700  30.366  1.00  0.00    -0.352 N 
ATOM     26  C   UNL A   1      32.788  35.640  31.742  1.00  0.00     0.251 C 
ATOM     27  H   UNL A   1      32.084  36.116  29.912  1.00  0.00     0.163 HD
ATOM     28  O   UNL A   1      31.803  36.033  32.353  1.00  0.00    -0.269 OA
BRANCH  26  29
ATOM     29  C   UNL A   1      33.922  35.025  32.463  1.00  0.00     0.039 A 
ATOM     30  C   UNL A   1      33.796  33.715  32.925  1.00  0.00     0.014 A 
ATOM     31  C   UNL A   1      35.148  35.690  32.522  1.00  0.00     0.014 A 
ATOM     32  C   UNL A   1      34.935  33.032  33.354  1.00  0.00     0.010 A 
ATOM     33  C   UNL A   1      36.293  34.971  32.840  1.00  0.00     0.010 A 
ATOM     34  C   UNL A   1      36.201  33.634  33.257  1.00  0.00    -0.014 A 
BRANCH  34  35
ATOM     35  C   UNL A   1      37.442  32.885  33.584  1.00  0.00     0.031 A 
ATOM     36  C   UNL A   1      38.179  33.185  34.861  1.00  0.00     0.074 A 
ATOM     37  C   UNL A   1      37.942  31.992  32.708  1.00  0.00     0.049 A 
ATOM     38  N   UNL A   1      39.311  32.695  35.298  1.00  0.00    -0.248 NA
ATOM     39  C   UNL A   1      37.584  34.198  35.747  1.00  0.00     0.031 C 
ATOM     40  C   UNL A   1      37.357  31.657  31.408  1.00  0.00     0.029 A 
ATOM     41  N   UNL A   1      39.067  31.204  32.774  1.00  0.00    -0.354 N 
ATOM     42  C   UNL A   1      39.566  33.352  36.495  1.00  0.00     0.074 A 
ATOM     43  C   UNL A   1      38.513  34.325  36.679  1.00  0.00     0.031 C 
ATOM     44  C   UNL A   1      38.104  30.709  30.817  1.00  0.00     0.029 A 
ATOM     45  C   UNL A   1      39.246  30.401  31.673  1.00  0.00     0.049 A 
ATOM     46  H   UNL A   1      39.685  31.213  33.540  1.00  0.00     0.167 HD
ATOM     47  C   UNL A   1      40.568  33.138  37.380  1.00  0.00     0.037 A 
ATOM     48  C   UNL A   1      40.224  29.520  31.385  1.00  0.00     0.037 A 
ATOM     49  C   UNL A   1      41.597  32.149  37.206  1.00  0.00     0.049 A 
ATOM     50  C   UNL A   1      41.333  29.308  32.382  1.00  0.00     0.074 A 
ATOM     51  C   UNL A   1      42.621  31.810  38.072  1.00  0.00     0.029 A 
ATOM     52  N   UNL A   1      41.735  31.344  36.085  1.00  0.00    -0.354 N 
ATOM     53  N   UNL A   1      41.518  29.875  33.549  1.00  0.00    -0.248 NA
ATOM     54  C   UNL A   1      42.365  28.325  32.024  1.00  0.00     0.031 C 
ATOM     55  C   UNL A   1      43.413  30.840  37.450  1.00  0.00     0.029 A 
ATOM     56  C   UNL A   1      42.845  30.526  36.226  1.00  0.00     0.049 A 
ATOM     57  H   UNL A   1      41.134  31.350  35.306  1.00  0.00     0.167 HD
ATOM     58  C   UNL A   1      42.665  29.299  34.077  1.00  0.00     0.074 A 
ATOM     59  C   UNL A   1      43.124  28.323  33.111  1.00  0.00     0.031 C 
ATOM     60  C   UNL A   1      43.283  29.553  35.258  1.00  0.00     0.037 A 
BRANCH  47  61
ATOM     61  C   UNL A   1      40.595  33.991  38.617  1.00  0.00     0.064 A 
ATOM     62  C   UNL A   1      41.326  35.188  38.672  1.00  0.00     0.173 A 
ATOM     63  C   UNL A   1      39.860  33.620  39.752  1.00  0.00     0.173 A 
ATOM     64  F   UNL A   1      42.059  35.583  37.620  1.00  0.00    -0.203 F 
ATOM     65  C   UNL A   1      41.348  35.962  39.829  1.00  0.00     0.198 A 
ATOM     66  C   UNL A   1      39.854  34.416  40.894  1.00  0.00     0.198 A 
ATOM     67  F   UNL A   1      39.141  32.487  39.752  1.00  0.00    -0.203 F 
ATOM     68  F   UNL A   1      42.102  37.069  39.879  1.00  0.00    -0.200 F 
ATOM     69  C   UNL A   1      40.605  35.580  40.936  1.00  0.00     0.200 A 
ATOM     70  F   UNL A   1      39.123  34.053  41.958  1.00  0.00    -0.200 F 
ATOM     71  F   UNL A   1      40.620  36.331  42.046  1.00  0.00    -0.200 F 
ENDBRANCH  47  61
BRANCH  48  72
ATOM     72  C   UNL A   1      40.191  28.755  30.107  1.00  0.00     0.064 A 
ATOM     73  C   UNL A   1      40.806  29.257  28.951  1.00  0.00     0.173 A 
ATOM     74  C   UNL A   1      39.535  27.519  30.011  1.00  0.00     0.173 A 
ATOM     75  F   UNL A   1      41.428  30.444  28.984  1.00  0.00    -0.203 F 
ATOM     76  C   UNL A   1      40.742  28.565  27.742  1.00  0.00     0.198 A 
ATOM     77  C   UNL A   1      39.501  26.813  28.810  1.00  0.00     0.198 A 
ATOM     78  F   UNL A   1      38.936  26.990  31.088  1.00  0.00    -0.203 F 
ATOM     79  F   UNL A   1      41.290  29.095  26.640  1.00  0.00    -0.200 F 
ATOM     80  C   UNL A   1      40.094  27.341  27.674  1.00  0.00     0.200 A 
ATOM     81  F   UNL A   1      38.888  25.622  28.753  1.00  0.00    -0.200 F 
ATOM     82  F   UNL A   1      40.036  26.675  26.513  1.00  0.00    -0.200 F 
ENDBRANCH  48  72
BRANCH  60  83
ATOM     83  C   UNL A   1      44.499  28.737  35.591  1.00  0.00     0.064 A 
ATOM     84  C   UNL A   1      44.407  27.512  36.268  1.00  0.00     0.173 A 
ATOM     85  C   UNL A   1      45.773  29.167  35.185  1.00  0.00     0.173 A 
ATOM     86  F   UNL A   1      43.215  27.061  36.689  1.00  0.00    -0.203 F 
ATOM     87  C   UNL A   1      45.546  26.763  36.552  1.00  0.00     0.198 A 
ATOM     88  C   UNL A   1      46.905  28.399  35.439  1.00  0.00     0.198 A 
ATOM     89  F   UNL A   1      45.917  30.328  34.527  1.00  0.00    -0.203 F 
ATOM     90  F   UNL A   1      45.439  25.623  37.247  1.00  0.00    -0.200 F 
ATOM     91  C   UNL A   1      46.792  27.203  36.130  1.00  0.00     0.200 A 
ATOM     92  F   UNL A   1      48.104  28.816  35.013  1.00  0.00    -0.200 F 
ATOM     93  F   UNL A   1      47.885  26.475  36.395  1.00  0.00    -0.200 F 
ENDBRANCH  60  83
ENDBRANCH  34  35
ENDBRANCH  26  29
ENDBRANCH  24  25
ENDBRANCH  23  24
ENDBRANCH  22  23
ENDBRANCH   1  22
TORSDOF 15
ENDMDL
MODEL 3
REMARK VINA RESULT:     -11.1      6.974     12.465
REMARK SMILES CC(C)(C)OC(=O)NC[C@H]1CC[C@@H](C(=O)NCCCCNC(=O)c2ccc(-c3c4nc(c(-c5c(F)c(F)c(F)c(F)c5F)c5ccc([nH]5)c(-c5c(F)c(F)c(F)c(F)c5F)c5nc(c(-c6c(F)c(F)c(F)c(F)c6F)c6ccc3[nH]6)C=C5)C=C4)cc2)CC1
REMARK SMILES IDX 17 1 16 2 14 3 15 4 13 6 10 7 11 8 88 9 12 10 87 11 9 12
REMARK SMILES IDX 8 13 6 14 7 15 5 17 2 18 1 19 3 20 4 21 18 22 19 23 20 24
REMARK SMILES IDX 21 25 22 26 23 28 24 29 25 30 86 31 26 32 85 33 27 34 28 35
REMARK SMILES IDX 29 36 79 37 30 38 84 39 78 40 80 41 31 42 83 43 77 44 76 45
REMARK SMILES IDX 32 47 64 48 44 49 63 50 45 51 48 52 62 53 81 54 46 55 47 56
REMARK SMILES IDX 61 58 82 59 49 60 33 61 34 62 42 63 35 64 36 65 40 66 43 67
REMARK SMILES IDX 37 68 38 69 41 70 39 71 65 72 66 73 74 74 67 75 68 76 72 77
REMARK SMILES IDX 75 78 69 79 70 80 73 81 71 82 50 83 51 84 59 85 52 86 53 87
REMARK SMILES IDX 57 88 60 89 54 90 55 91 58 92 56 93
REMARK H PARENT 16 5 8 16 21 27 80 46 48 57
REMARK Flexibility Score: inf
ROOT
ATOM      1  C   UNL A   1      39.878  22.463  26.258  1.00  0.00     0.116 C 
ENDROOT
BRANCH   1   2
ATOM      2  N   UNL A   1      38.871  21.490  25.937  1.00  0.00    -0.356 N 
ATOM      3  C   UNL A   1      37.697  21.610  25.267  1.00  0.00     0.223 C 
ATOM      4  O   UNL A   1      37.126  20.545  25.000  1.00  0.00    -0.275 OA
ATOM      5  H   UNL A   1      39.065  20.580  26.259  1.00  0.00     0.163 HD
BRANCH   3   6
ATOM      6  C   UNL A   1      37.045  22.943  24.847  1.00  0.00     0.078 C 
ATOM      7  C   UNL A   1      34.026  23.227  24.704  1.00  0.00     0.008 C 
ATOM      8  C   UNL A   1      34.791  23.493  26.022  1.00  0.00     0.006 C 
ATOM      9  C   UNL A   1      34.850  22.634  23.538  1.00  0.00     0.006 C 
ATOM     10  C   UNL A   1      36.292  23.739  25.909  1.00  0.00     0.014 C 
ATOM     11  C   UNL A   1      36.333  22.951  23.501  1.00  0.00     0.014 C 
BRANCH   7  12
ATOM     12  C   UNL A   1      32.802  22.305  24.974  1.00  0.00     0.123 C 
BRANCH  12  13
ATOM     13  N   UNL A   1      32.060  22.654  26.158  1.00  0.00    -0.321 N 
ATOM     14  C   UNL A   1      30.978  23.488  26.200  1.00  0.00     0.407 C 
ATOM     15  O   UNL A   1      30.383  23.691  27.251  1.00  0.00    -0.225 OA
ATOM     16  H   UNL A   1      32.358  22.260  27.009  1.00  0.00     0.167 HD
BRANCH  14  17
ATOM     17  O   UNL A   1      30.687  24.042  24.998  1.00  0.00    -0.444 OA
BRANCH  17  18
ATOM     18  C   UNL A   1      30.863  25.462  24.765  1.00  0.00     0.106 C 
ATOM     19  C   UNL A   1      31.455  25.571  23.350  1.00  0.00     0.056 C 
ATOM     20  C   UNL A   1      31.875  26.041  25.759  1.00  0.00     0.056 C 
ATOM     21  C   UNL A   1      29.529  26.215  24.787  1.00  0.00     0.056 C 
ENDBRANCH  17  18
ENDBRANCH  14  17
ENDBRANCH  12  13
ENDBRANCH   7  12
ENDBRANCH   3   6
ENDBRANCH   1   2
BRANCH   1  22
ATOM     22  C   UNL A   1      41.287  21.889  26.365  1.00  0.00     0.023 C 
BRANCH  22  23
ATOM     23  C   UNL A   1      41.411  20.437  25.935  1.00  0.00     0.023 C 
BRANCH  23  24
ATOM     24  C   UNL A   1      42.729  19.767  26.298  1.00  0.00     0.116 C 
BRANCH  24  25
ATOM     25  N   UNL A   1      43.386  19.064  25.203  1.00  0.00    -0.352 N 
ATOM     26  C   UNL A   1      44.395  19.534  24.387  1.00  0.00     0.251 C 
ATOM     27  H   UNL A   1      43.074  18.147  25.024  1.00  0.00     0.163 HD
ATOM     28  O   UNL A   1      44.832  18.864  23.461  1.00  0.00    -0.269 OA
BRANCH  26  29
ATOM     29  C   UNL A   1      44.893  20.905  24.622  1.00  0.00     0.039 A 
ATOM     30  C   UNL A   1      44.452  21.935  23.791  1.00  0.00     0.014 A 
ATOM     31  C   UNL A   1      45.653  21.181  25.761  1.00  0.00     0.014 A 
ATOM     32  C   UNL A   1      44.688  23.259  24.163  1.00  0.00     0.010 A 
ATOM     33  C   UNL A   1      45.784  22.496  26.185  1.00  0.00     0.010 A 
ATOM     34  C   UNL A   1      45.302  23.550  25.393  1.00  0.00    -0.014 A 
BRANCH  34  35
ATOM     35  C   UNL A   1      45.449  24.949  25.873  1.00  0.00     0.031 A 
ATOM     36  C   UNL A   1      46.796  25.617  25.824  1.00  0.00     0.074 A 
ATOM     37  C   UNL A   1      44.395  25.591  26.415  1.00  0.00     0.049 A 
ATOM     38  N   UNL A   1      47.149  26.801  26.254  1.00  0.00    -0.248 NA
ATOM     39  C   UNL A   1      47.901  24.835  25.248  1.00  0.00     0.031 C 
ATOM     40  C   UNL A   1      43.051  25.032  26.579  1.00  0.00     0.029 A 
ATOM     41  N   UNL A   1      44.289  26.858  26.939  1.00  0.00    -0.354 N 
ATOM     42  C   UNL A   1      48.515  26.894  26.015  1.00  0.00     0.074 A 
ATOM     43  C   UNL A   1      48.940  25.624  25.472  1.00  0.00     0.031 C 
ATOM     44  C   UNL A   1      42.250  25.960  27.128  1.00  0.00     0.029 A 
ATOM     45  C   UNL A   1      43.030  27.164  27.397  1.00  0.00     0.049 A 
ATOM     46  H   UNL A   1      45.045  27.487  26.980  1.00  0.00     0.167 HD
ATOM     47  C   UNL A   1      49.334  27.956  26.198  1.00  0.00     0.037 A 
ATOM     48  C   UNL A   1      42.560  28.287  27.975  1.00  0.00     0.037 A 
ATOM     49  C   UNL A   1      48.902  29.227  26.712  1.00  0.00     0.049 A 
ATOM     50  C   UNL A   1      43.495  29.451  28.176  1.00  0.00     0.074 A 
ATOM     51  C   UNL A   1      49.638  30.386  26.876  1.00  0.00     0.029 A 
ATOM     52  N   UNL A   1      47.614  29.504  27.149  1.00  0.00    -0.354 N 
ATOM     53  N   UNL A   1      44.766  29.556  27.870  1.00  0.00    -0.248 NA
ATOM     54  C   UNL A   1      42.928  30.656  28.796  1.00  0.00     0.031 C 
ATOM     55  C   UNL A   1      48.813  31.346  27.468  1.00  0.00     0.029 A 
ATOM     56  C   UNL A   1      47.543  30.809  27.610  1.00  0.00     0.049 A 
ATOM     57  H   UNL A   1      46.863  28.869  27.134  1.00  0.00     0.167 HD
ATOM     58  C   UNL A   1      45.141  30.843  28.229  1.00  0.00     0.074 A 
ATOM     59  C   UNL A   1      43.959  31.489  28.760  1.00  0.00     0.031 C 
ATOM     60  C   UNL A   1      46.355  31.439  28.128  1.00  0.00     0.037 A 
BRANCH  47  61
ATOM     61  C   UNL A   1      50.782  27.785  25.837  1.00  0.00     0.064 A 
ATOM     62  C   UNL A   1      51.753  27.472  26.802  1.00  0.00     0.173 A 
ATOM     63  C   UNL A   1      51.203  27.908  24.504  1.00  0.00     0.173 A 
ATOM     64  F   UNL A   1      51.408  27.357  28.094  1.00  0.00    -0.203 F 
ATOM     65  C   UNL A   1      53.092  27.326  26.452  1.00  0.00     0.198 A 
ATOM     66  C   UNL A   1      52.537  27.724  24.152  1.00  0.00     0.198 A 
ATOM     67  F   UNL A   1      50.317  28.203  23.541  1.00  0.00    -0.203 F 
ATOM     68  F   UNL A   1      54.009  27.088  27.401  1.00  0.00    -0.200 F 
ATOM     69  C   UNL A   1      53.482  27.443  25.127  1.00  0.00     0.200 A 
ATOM     70  F   UNL A   1      52.908  27.823  22.868  1.00  0.00    -0.200 F 
ATOM     71  F   UNL A   1      54.770  27.293  24.790  1.00  0.00    -0.200 F 
ENDBRANCH  47  61
BRANCH  48  72
ATOM     72  C   UNL A   1      41.132  28.378  28.386  1.00  0.00     0.064 A 
ATOM     73  C   UNL A   1      40.162  28.898  27.517  1.00  0.00     0.173 A 
ATOM     74  C   UNL A   1      40.710  27.963  29.658  1.00  0.00     0.173 A 
ATOM     75  F   UNL A   1      40.518  29.328  26.298  1.00  0.00    -0.203 F 
ATOM     76  C   UNL A   1      38.832  29.025  27.913  1.00  0.00     0.198 A 
ATOM     77  C   UNL A   1      39.373  28.059  30.040  1.00  0.00     0.198 A 
ATOM     78  F   UNL A   1      41.595  27.452  30.527  1.00  0.00    -0.203 F 
ATOM     79  F   UNL A   1      37.938  29.576  27.082  1.00  0.00    -0.200 F 
ATOM     80  C   UNL A   1      38.437  28.600  29.173  1.00  0.00     0.200 A 
ATOM     81  F   UNL A   1      38.993  27.631  31.252  1.00  0.00    -0.200 F 
ATOM     82  F   UNL A   1      37.158  28.718  29.552  1.00  0.00    -0.200 F 
ENDBRANCH  48  72
BRANCH  60  83
ATOM     83  C   UNL A   1      46.460  32.873  28.561  1.00  0.00     0.064 A 
ATOM     84  C   UNL A   1      46.228  33.935  27.674  1.00  0.00     0.173 A 
ATOM     85  C   UNL A   1      46.753  33.188  29.898  1.00  0.00     0.173 A 
ATOM     86  F   UNL A   1      45.957  33.689  26.383  1.00  0.00    -0.203 F 
ATOM     87  C   UNL A   1      46.314  35.257  28.102  1.00  0.00     0.198 A 
ATOM     88  C   UNL A   1      46.802  34.510  30.330  1.00  0.00     0.198 A 
ATOM     89  F   UNL A   1      46.975  32.211  30.791  1.00  0.00    -0.203 F 
ATOM     90  F   UNL A   1      46.142  36.255  27.224  1.00  0.00    -0.200 F 
ATOM     91  C   UNL A   1      46.592  35.543  29.430  1.00  0.00     0.200 A 
ATOM     92  F   UNL A   1      47.052  34.783  31.617  1.00  0.00    -0.200 F 
ATOM     93  F   UNL A   1      46.663  36.816  29.841  1.00  0.00    -0.200 F 
ENDBRANCH  60  83
ENDBRANCH  34  35
ENDBRANCH  26  29
ENDBRANCH  24  25
ENDBRANCH  23  24
ENDBRANCH  22  23
ENDBRANCH   1  22
TORSDOF 15
ENDMDL
