MODEL 1
REMARK VINA RESULT:     -13.5      0.000      0.000
REMARK SMILES COc1ccc(F)c(NC(=O)N[C@H]2CCC[C@H]2C(=O)NCCCCNC(=O)c2ccc(-c3c4nc(c(-c5c(F)c(F)c(F)c(F)c5F)c5ccc([nH]5)c(-c5c(F)c(F)c(F)c(F)c5F)c5nc(c(-c6c(F)c(F)c(F)c(F)c6F)c6ccc3[nH]6)C=C5)C=C4)cc2)c1
REMARK SMILES IDX 22 1 21 2 20 3 18 4 19 5 17 7 13 8 14 9 15 10 16 11 12 12
REMARK SMILES IDX 9 13 10 14 11 16 8 18 3 19 4 20 91 21 5 22 6 23 7 24 2 25
REMARK SMILES IDX 1 26 23 27 24 28 25 29 26 30 27 32 28 33 29 34 90 35 30 36
REMARK SMILES IDX 89 37 31 38 32 39 33 40 83 41 34 42 88 43 82 44 84 45 35 46
REMARK SMILES IDX 87 47 81 48 80 49 36 51 68 52 48 53 67 54 49 55 52 56 66 57
REMARK SMILES IDX 85 58 50 59 51 60 65 62 86 63 53 64 37 65 38 66 46 67 39 68
REMARK SMILES IDX 40 69 44 70 47 71 41 72 42 73 45 74 43 75 69 76 70 77 78 78
REMARK SMILES IDX 71 79 72 80 76 81 79 82 73 83 74 84 77 85 75 86 54 87 55 88
REMARK SMILES IDX 63 89 56 90 57 91 61 92 64 93 58 94 59 95 62 96 60 97
REMARK H PARENT 20 6 9 15 12 17 25 31 84 50 52 61
REMARK Flexibility Score: inf
ROOT
ATOM      1  C   UNL A   1      31.768  30.674  26.847  1.00  0.00     0.023 C 
ENDROOT
BRANCH   1   2
ATOM      2  C   UNL A   1      33.225  30.187  26.873  1.00  0.00     0.116 C 
BRANCH   2   3
ATOM      3  N   UNL A   1      33.753  29.429  25.678  1.00  0.00    -0.356 N 
ATOM      4  C   UNL A   1      33.844  28.248  24.991  1.00  0.00     0.225 C 
ATOM      5  O   UNL A   1      34.283  28.447  23.838  1.00  0.00    -0.275 OA
ATOM      6  H   UNL A   1      34.269  30.084  25.152  1.00  0.00     0.163 HD
BRANCH   4   7
ATOM      7  C   UNL A   1      33.611  26.686  25.361  1.00  0.00     0.101 C 
ATOM      8  C   UNL A   1      32.277  26.327  24.874  1.00  0.00     0.096 C 
ATOM      9  C   UNL A   1      32.017  25.037  25.691  1.00  0.00     0.026 C 
ATOM     10  C   UNL A   1      33.212  24.165  25.396  1.00  0.00     0.003 C 
ATOM     11  C   UNL A   1      34.286  25.206  25.093  1.00  0.00     0.016 C 
BRANCH   8  12
ATOM     12  N   UNL A   1      32.443  26.135  23.420  1.00  0.00    -0.334 N 
ATOM     13  N   UNL A   1      30.823  27.430  22.024  1.00  0.00    -0.305 N 
ATOM     14  C   UNL A   1      31.837  26.553  22.285  1.00  0.00     0.319 C 
ATOM     15  H   UNL A   1      30.550  27.184  21.111  1.00  0.00     0.171 HD
ATOM     16  O   UNL A   1      32.230  25.921  21.286  1.00  0.00    -0.248 OA
ATOM     17  H   UNL A   1      33.203  25.540  23.223  1.00  0.00     0.165 HD
BRANCH  13  18
ATOM     18  C   UNL A   1      29.914  28.541  22.351  1.00  0.00     0.082 A 
ATOM     19  C   UNL A   1      28.884  30.835  22.276  1.00  0.00     0.121 A 
ATOM     20  C   UNL A   1      27.716  30.362  22.834  1.00  0.00     0.049 A 
ATOM     21  C   UNL A   1      29.955  29.936  22.121  1.00  0.00     0.075 A 
ATOM     22  C   UNL A   1      27.661  29.034  23.249  1.00  0.00     0.045 A 
ATOM     23  C   UNL A   1      28.728  28.155  22.993  1.00  0.00     0.147 A 
ATOM     24  F   UNL A   1      28.608  26.883  23.409  1.00  0.00    -0.205 F 
BRANCH  19  25
ATOM     25  O   UNL A   1      28.885  32.164  21.932  1.00  0.00    -0.497 OA
ATOM     26  C   UNL A   1      28.959  33.158  22.956  1.00  0.00     0.278 C 
ENDBRANCH  19  25
ENDBRANCH  13  18
ENDBRANCH   8  12
ENDBRANCH   4   7
ENDBRANCH   2   3
ENDBRANCH   1   2
BRANCH   1  27
ATOM     27  C   UNL A   1      31.595  32.213  26.859  1.00  0.00     0.023 C 
BRANCH  27  28
ATOM     28  C   UNL A   1      32.755  33.068  27.377  1.00  0.00     0.116 C 
BRANCH  28  29
ATOM     29  N   UNL A   1      32.385  34.425  27.760  1.00  0.00    -0.352 N 
ATOM     30  C   UNL A   1      32.940  35.218  28.757  1.00  0.00     0.251 C 
ATOM     31  H   UNL A   1      31.648  34.831  27.249  1.00  0.00     0.163 HD
ATOM     32  O   UNL A   1      32.482  36.295  29.057  1.00  0.00    -0.269 OA
BRANCH  30  33
ATOM     33  C   UNL A   1      34.124  34.685  29.471  1.00  0.00     0.039 A 
ATOM     34  C   UNL A   1      33.960  33.979  30.665  1.00  0.00     0.014 A 
ATOM     35  C   UNL A   1      35.379  34.799  28.872  1.00  0.00     0.014 A 
ATOM     36  C   UNL A   1      35.056  33.312  31.216  1.00  0.00     0.010 A 
ATOM     37  C   UNL A   1      36.436  34.045  29.359  1.00  0.00     0.010 A 
ATOM     38  C   UNL A   1      36.292  33.311  30.546  1.00  0.00    -0.014 A 
BRANCH  38  39
ATOM     39  C   UNL A   1      37.471  32.603  31.105  1.00  0.00     0.031 A 
ATOM     40  C   UNL A   1      37.958  32.974  32.480  1.00  0.00     0.074 A 
ATOM     41  C   UNL A   1      38.106  31.664  30.377  1.00  0.00     0.049 A 
ATOM     42  N   UNL A   1      38.973  32.497  33.154  1.00  0.00    -0.248 NA
ATOM     43  C   UNL A   1      37.233  34.050  33.180  1.00  0.00     0.031 C 
ATOM     44  C   UNL A   1      37.752  31.268  29.012  1.00  0.00     0.029 A 
ATOM     45  N   UNL A   1      39.172  30.858  30.687  1.00  0.00    -0.354 N 
ATOM     46  C   UNL A   1      38.998  33.214  34.344  1.00  0.00     0.074 A 
ATOM     47  C   UNL A   1      37.970  34.222  34.264  1.00  0.00     0.031 C 
ATOM     48  C   UNL A   1      38.545  30.254  28.626  1.00  0.00     0.029 A 
ATOM     49  C   UNL A   1      39.483  29.949  29.702  1.00  0.00     0.049 A 
ATOM     50  H   UNL A   1      39.669  30.923  31.534  1.00  0.00     0.167 HD
ATOM     51  C   UNL A   1      39.773  33.011  35.433  1.00  0.00     0.037 A 
ATOM     52  C   UNL A   1      40.409  28.970  29.687  1.00  0.00     0.037 A 
ATOM     53  C   UNL A   1      40.762  31.975  35.520  1.00  0.00     0.049 A 
ATOM     54  C   UNL A   1      41.268  28.773  30.910  1.00  0.00     0.074 A 
ATOM     55  C   UNL A   1      41.585  31.657  36.584  1.00  0.00     0.029 A 
ATOM     56  N   UNL A   1      41.048  31.078  34.501  1.00  0.00    -0.354 N 
ATOM     57  N   UNL A   1      41.245  29.422  32.049  1.00  0.00    -0.248 NA
ATOM     58  C   UNL A   1      42.274  27.705  30.849  1.00  0.00     0.031 C 
ATOM     59  C   UNL A   1      42.400  30.592  36.194  1.00  0.00     0.029 A 
ATOM     60  C   UNL A   1      42.046  30.211  34.908  1.00  0.00     0.049 A 
ATOM     61  H   UNL A   1      40.609  31.062  33.620  1.00  0.00     0.167 HD
ATOM     62  C   UNL A   1      42.206  28.822  32.851  1.00  0.00     0.074 A 
ATOM     63  C   UNL A   1      42.783  27.746  32.073  1.00  0.00     0.031 C 
ATOM     64  C   UNL A   1      42.582  29.134  34.116  1.00  0.00     0.037 A 
BRANCH  51  65
ATOM     65  C   UNL A   1      39.547  33.890  36.627  1.00  0.00     0.064 A 
ATOM     66  C   UNL A   1      40.192  35.131  36.737  1.00  0.00     0.173 A 
ATOM     67  C   UNL A   1      38.738  33.474  37.695  1.00  0.00     0.173 A 
ATOM     68  F   UNL A   1      40.974  35.577  35.743  1.00  0.00    -0.203 F 
ATOM     69  C   UNL A   1      40.050  35.911  37.881  1.00  0.00     0.198 A 
ATOM     70  C   UNL A   1      38.573  34.272  38.824  1.00  0.00     0.198 A 
ATOM     71  F   UNL A   1      38.082  32.305  37.632  1.00  0.00    -0.203 F 
ATOM     72  F   UNL A   1      40.704  37.078  37.980  1.00  0.00    -0.200 F 
ATOM     73  C   UNL A   1      39.240  35.484  38.922  1.00  0.00     0.200 A 
ATOM     74  F   UNL A   1      37.764  33.869  39.815  1.00  0.00    -0.200 F 
ATOM     75  F   UNL A   1      39.098  36.240  40.019  1.00  0.00    -0.200 F 
ENDBRANCH  51  65
BRANCH  52  76
ATOM     76  C   UNL A   1      40.524  28.062  28.512  1.00  0.00     0.064 A 
ATOM     77  C   UNL A   1      41.296  28.401  27.392  1.00  0.00     0.173 A 
ATOM     78  C   UNL A   1      39.854  26.830  28.489  1.00  0.00     0.173 A 
ATOM     79  F   UNL A   1      41.954  29.568  27.356  1.00  0.00    -0.203 F 
ATOM     80  C   UNL A   1      41.384  27.549  26.291  1.00  0.00     0.198 A 
ATOM     81  C   UNL A   1      39.967  25.965  27.400  1.00  0.00     0.198 A 
ATOM     82  F   UNL A   1      39.115  26.448  29.542  1.00  0.00    -0.203 F 
ATOM     83  F   UNL A   1      42.105  27.912  25.221  1.00  0.00    -0.200 F 
ATOM     84  C   UNL A   1      40.725  26.329  26.299  1.00  0.00     0.200 A 
ATOM     85  F   UNL A   1      39.350  24.775  27.425  1.00  0.00    -0.200 F 
ATOM     86  F   UNL A   1      40.828  25.502  25.250  1.00  0.00    -0.200 F 
ENDBRANCH  52  76
BRANCH  64  87
ATOM     87  C   UNL A   1      43.638  28.284  34.757  1.00  0.00     0.064 A 
ATOM     88  C   UNL A   1      44.996  28.609  34.604  1.00  0.00     0.173 A 
ATOM     89  C   UNL A   1      43.315  27.103  35.438  1.00  0.00     0.173 A 
ATOM     90  F   UNL A   1      45.355  29.722  33.947  1.00  0.00    -0.203 F 
ATOM     91  C   UNL A   1      45.990  27.769  35.094  1.00  0.00     0.198 A 
ATOM     92  C   UNL A   1      44.313  26.283  35.957  1.00  0.00     0.198 A 
ATOM     93  F   UNL A   1      42.032  26.755  35.616  1.00  0.00    -0.203 F 
ATOM     94  F   UNL A   1      47.279  28.076  34.895  1.00  0.00    -0.200 F 
ATOM     95  C   UNL A   1      45.649  26.611  35.773  1.00  0.00     0.200 A 
ATOM     96  F   UNL A   1      43.981  25.176  36.636  1.00  0.00    -0.200 F 
ATOM     97  F   UNL A   1      46.608  25.808  36.254  1.00  0.00    -0.200 F 
ENDBRANCH  64  87
ENDBRANCH  38  39
ENDBRANCH  30  33
ENDBRANCH  28  29
ENDBRANCH  27  28
ENDBRANCH   1  27
TORSDOF 14
ENDMDL
MODEL 2
REMARK VINA RESULT:     -13.3      6.080     11.719
REMARK SMILES COc1ccc(F)c(NC(=O)N[C@H]2CCC[C@H]2C(=O)NCCCCNC(=O)c2ccc(-c3c4nc(c(-c5c(F)c(F)c(F)c(F)c5F)c5ccc([nH]5)c(-c5c(F)c(F)c(F)c(F)c5F)c5nc(c(-c6c(F)c(F)c(F)c(F)c6F)c6ccc3[nH]6)C=C5)C=C4)cc2)c1
REMARK SMILES IDX 22 1 21 2 20 3 18 4 19 5 17 7 13 8 14 9 15 10 16 11 12 12
REMARK SMILES IDX 9 13 10 14 11 16 8 18 3 19 4 20 91 21 5 22 6 23 7 24 2 25
REMARK SMILES IDX 1 26 23 27 24 28 25 29 26 30 27 32 28 33 29 34 90 35 30 36
REMARK SMILES IDX 89 37 31 38 32 39 33 40 83 41 34 42 88 43 82 44 84 45 35 46
REMARK SMILES IDX 87 47 81 48 80 49 36 51 68 52 48 53 67 54 49 55 52 56 66 57
REMARK SMILES IDX 85 58 50 59 51 60 65 62 86 63 53 64 37 65 38 66 46 67 39 68
REMARK SMILES IDX 40 69 44 70 47 71 41 72 42 73 45 74 43 75 69 76 70 77 78 78
REMARK SMILES IDX 71 79 72 80 76 81 79 82 73 83 74 84 77 85 75 86 54 87 55 88
REMARK SMILES IDX 63 89 56 90 57 91 61 92 64 93 58 94 59 95 62 96 60 97
REMARK H PARENT 20 6 9 15 12 17 25 31 84 50 52 61
REMARK Flexibility Score: inf
ROOT
ATOM      1  C   UNL A   1      37.504  20.882  24.685  1.00  0.00     0.023 C 
ENDROOT
BRANCH   1   2
ATOM      2  C   UNL A   1      37.699  22.122  25.571  1.00  0.00     0.116 C 
BRANCH   2   3
ATOM      3  N   UNL A   1      36.496  22.696  26.283  1.00  0.00    -0.356 N 
ATOM      4  C   UNL A   1      35.290  23.340  26.202  1.00  0.00     0.225 C 
ATOM      5  O   UNL A   1      34.677  23.254  27.289  1.00  0.00    -0.275 OA
ATOM      6  H   UNL A   1      36.647  22.532  27.242  1.00  0.00     0.163 HD
BRANCH   4   7
ATOM      7  C   UNL A   1      34.547  24.246  25.081  1.00  0.00     0.101 C 
ATOM      8  C   UNL A   1      33.721  23.340  24.279  1.00  0.00     0.096 C 
ATOM      9  C   UNL A   1      33.483  24.214  23.023  1.00  0.00     0.026 C 
ATOM     10  C   UNL A   1      32.917  25.501  23.570  1.00  0.00     0.003 C 
ATOM     11  C   UNL A   1      33.529  25.538  24.967  1.00  0.00     0.016 C 
BRANCH   8  12
ATOM     12  N   UNL A   1      32.528  23.081  25.108  1.00  0.00    -0.334 N 
ATOM     13  N   UNL A   1      31.791  20.692  25.124  1.00  0.00    -0.305 N 
ATOM     14  C   UNL A   1      31.740  22.025  25.416  1.00  0.00     0.319 C 
ATOM     15  H   UNL A   1      30.873  20.391  25.312  1.00  0.00     0.171 HD
ATOM     16  O   UNL A   1      30.699  22.375  26.005  1.00  0.00    -0.248 OA
ATOM     17  H   UNL A   1      32.222  23.900  25.560  1.00  0.00     0.165 HD
BRANCH  13  18
ATOM     18  C   UNL A   1      32.460  19.455  24.687  1.00  0.00     0.082 A 
ATOM     19  C   UNL A   1      33.513  17.175  24.831  1.00  0.00     0.121 A 
ATOM     20  C   UNL A   1      33.321  16.967  23.483  1.00  0.00     0.049 A 
ATOM     21  C   UNL A   1      33.146  18.423  25.368  1.00  0.00     0.075 A 
ATOM     22  C   UNL A   1      32.810  18.007  22.710  1.00  0.00     0.045 A 
ATOM     23  C   UNL A   1      32.378  19.204  23.309  1.00  0.00     0.147 A 
ATOM     24  F   UNL A   1      31.884  20.164  22.509  1.00  0.00    -0.205 F 
BRANCH  19  25
ATOM     25  O   UNL A   1      34.063  16.126  25.525  1.00  0.00    -0.497 OA
ATOM     26  C   UNL A   1      35.439  15.795  25.330  1.00  0.00     0.278 C 
ENDBRANCH  19  25
ENDBRANCH  13  18
ENDBRANCH   8  12
ENDBRANCH   4   7
ENDBRANCH   2   3
ENDBRANCH   1   2
BRANCH   1  27
ATOM     27  C   UNL A   1      38.429  19.687  25.023  1.00  0.00     0.023 C 
BRANCH  27  28
ATOM     28  C   UNL A   1      39.647  19.944  25.915  1.00  0.00     0.116 C 
BRANCH  28  29
ATOM     29  N   UNL A   1      40.633  18.869  25.921  1.00  0.00    -0.352 N 
ATOM     30  C   UNL A   1      42.010  18.968  26.078  1.00  0.00     0.251 C 
ATOM     31  H   UNL A   1      40.279  17.959  25.797  1.00  0.00     0.163 HD
ATOM     32  O   UNL A   1      42.744  18.015  25.960  1.00  0.00    -0.269 OA
BRANCH  30  33
ATOM     33  C   UNL A   1      42.567  20.307  26.380  1.00  0.00     0.039 A 
ATOM     34  C   UNL A   1      42.975  21.145  25.339  1.00  0.00     0.014 A 
ATOM     35  C   UNL A   1      42.565  20.754  27.701  1.00  0.00     0.014 A 
ATOM     36  C   UNL A   1      43.304  22.472  25.624  1.00  0.00     0.010 A 
ATOM     37  C   UNL A   1      42.784  22.098  27.965  1.00  0.00     0.010 A 
ATOM     38  C   UNL A   1      43.175  22.966  26.934  1.00  0.00    -0.014 A 
BRANCH  38  39
ATOM     39  C   UNL A   1      43.511  24.374  27.263  1.00  0.00     0.031 A 
ATOM     40  C   UNL A   1      44.907  24.870  27.001  1.00  0.00     0.074 A 
ATOM     41  C   UNL A   1      42.582  25.181  27.812  1.00  0.00     0.049 A 
ATOM     42  N   UNL A   1      45.421  26.052  27.224  1.00  0.00    -0.248 NA
ATOM     43  C   UNL A   1      45.869  23.899  26.448  1.00  0.00     0.031 C 
ATOM     44  C   UNL A   1      41.216  24.786  28.160  1.00  0.00     0.029 A 
ATOM     45  N   UNL A   1      42.640  26.508  28.159  1.00  0.00    -0.354 N 
ATOM     46  C   UNL A   1      46.752  25.957  26.839  1.00  0.00     0.074 A 
ATOM     47  C   UNL A   1      46.998  24.586  26.465  1.00  0.00     0.031 C 
ATOM     48  C   UNL A   1      40.546  25.861  28.611  1.00  0.00     0.029 A 
ATOM     49  C   UNL A   1      41.444  27.012  28.616  1.00  0.00     0.049 A 
ATOM     50  H   UNL A   1      43.459  27.048  28.087  1.00  0.00     0.167 HD
ATOM     51  C   UNL A   1      47.674  26.942  26.749  1.00  0.00     0.037 A 
ATOM     52  C   UNL A   1      41.113  28.268  28.975  1.00  0.00     0.037 A 
ATOM     53  C   UNL A   1      47.405  28.312  27.079  1.00  0.00     0.049 A 
ATOM     54  C   UNL A   1      42.164  29.344  28.877  1.00  0.00     0.074 A 
ATOM     55  C   UNL A   1      48.254  29.400  26.999  1.00  0.00     0.029 A 
ATOM     56  N   UNL A   1      46.184  28.781  27.542  1.00  0.00    -0.354 N 
ATOM     57  N   UNL A   1      43.404  29.253  28.460  1.00  0.00    -0.248 NA
ATOM     58  C   UNL A   1      41.769  30.697  29.291  1.00  0.00     0.031 C 
ATOM     59  C   UNL A   1      47.558  30.523  27.452  1.00  0.00     0.029 A 
ATOM     60  C   UNL A   1      46.260  30.145  27.762  1.00  0.00     0.049 A 
ATOM     61  H   UNL A   1      45.384  28.228  27.692  1.00  0.00     0.167 HD
ATOM     62  C   UNL A   1      43.926  30.538  28.528  1.00  0.00     0.074 A 
ATOM     63  C   UNL A   1      42.863  31.393  29.012  1.00  0.00     0.031 C 
ATOM     64  C   UNL A   1      45.174  30.972  28.222  1.00  0.00     0.037 A 
BRANCH  51  65
ATOM     65  C   UNL A   1      49.035  26.583  26.230  1.00  0.00     0.064 A 
ATOM     66  C   UNL A   1      50.011  26.049  27.083  1.00  0.00     0.173 A 
ATOM     67  C   UNL A   1      49.392  26.825  24.895  1.00  0.00     0.173 A 
ATOM     68  F   UNL A   1      49.720  25.795  28.368  1.00  0.00    -0.203 F 
ATOM     69  C   UNL A   1      51.299  25.792  26.625  1.00  0.00     0.198 A 
ATOM     70  C   UNL A   1      50.673  26.538  24.431  1.00  0.00     0.198 A 
ATOM     71  F   UNL A   1      48.490  27.316  24.031  1.00  0.00    -0.203 F 
ATOM     72  F   UNL A   1      52.227  25.315  27.466  1.00  0.00    -0.200 F 
ATOM     73  C   UNL A   1      51.629  26.033  25.299  1.00  0.00     0.200 A 
ATOM     74  F   UNL A   1      50.979  26.743  23.142  1.00  0.00    -0.200 F 
ATOM     75  F   UNL A   1      52.868  25.778  24.857  1.00  0.00    -0.200 F 
ENDBRANCH  51  65
BRANCH  52  76
ATOM     76  C   UNL A   1      39.720  28.589  29.390  1.00  0.00     0.064 A 
ATOM     77  C   UNL A   1      38.775  29.083  28.480  1.00  0.00     0.173 A 
ATOM     78  C   UNL A   1      39.307  28.410  30.719  1.00  0.00     0.173 A 
ATOM     79  F   UNL A   1      39.115  29.279  27.198  1.00  0.00    -0.203 F 
ATOM     80  C   UNL A   1      37.477  29.395  28.884  1.00  0.00     0.198 A 
ATOM     81  C   UNL A   1      38.001  28.694  31.116  1.00  0.00     0.198 A 
ATOM     82  F   UNL A   1      40.167  27.924  31.628  1.00  0.00    -0.203 F 
ATOM     83  F   UNL A   1      36.603  29.893  27.999  1.00  0.00    -0.200 F 
ATOM     84  C   UNL A   1      37.089  29.193  30.200  1.00  0.00     0.200 A 
ATOM     85  F   UNL A   1      37.624  28.471  32.383  1.00  0.00    -0.200 F 
ATOM     86  F   UNL A   1      35.836  29.473  30.582  1.00  0.00    -0.200 F 
ENDBRANCH  52  76
BRANCH  64  87
ATOM     87  C   UNL A   1      45.454  32.438  28.363  1.00  0.00     0.064 A 
ATOM     88  C   UNL A   1      45.233  33.307  27.283  1.00  0.00     0.173 A 
ATOM     89  C   UNL A   1      46.029  32.965  29.528  1.00  0.00     0.173 A 
ATOM     90  F   UNL A   1      44.699  32.846  26.142  1.00  0.00    -0.203 F 
ATOM     91  C   UNL A   1      45.595  34.648  27.359  1.00  0.00     0.198 A 
ATOM     92  C   UNL A   1      46.358  34.315  29.612  1.00  0.00     0.198 A 
ATOM     93  F   UNL A   1      46.252  32.175  30.588  1.00  0.00    -0.203 F 
ATOM     94  F   UNL A   1      45.417  35.448  26.299  1.00  0.00    -0.200 F 
ATOM     95  C   UNL A   1      46.152  35.151  28.523  1.00  0.00     0.200 A 
ATOM     96  F   UNL A   1      46.874  34.806  30.747  1.00  0.00    -0.200 F 
ATOM     97  F   UNL A   1      46.492  36.445  28.600  1.00  0.00    -0.200 F 
ENDBRANCH  64  87
ENDBRANCH  38  39
ENDBRANCH  30  33
ENDBRANCH  28  29
ENDBRANCH  27  28
ENDBRANCH   1  27
TORSDOF 14
ENDMDL
MODEL 3
REMARK VINA RESULT:     -13.3      0.623      7.369
REMARK SMILES COc1ccc(F)c(NC(=O)N[C@H]2CCC[C@H]2C(=O)NCCCCNC(=O)c2ccc(-c3c4nc(c(-c5c(F)c(F)c(F)c(F)c5F)c5ccc([nH]5)c(-c5c(F)c(F)c(F)c(F)c5F)c5nc(c(-c6c(F)c(F)c(F)c(F)c6F)c6ccc3[nH]6)C=C5)C=C4)cc2)c1
REMARK SMILES IDX 22 1 21 2 20 3 18 4 19 5 17 7 13 8 14 9 15 10 16 11 12 12
REMARK SMILES IDX 9 13 10 14 11 16 8 18 3 19 4 20 91 21 5 22 6 23 7 24 2 25
REMARK SMILES IDX 1 26 23 27 24 28 25 29 26 30 27 32 28 33 29 34 90 35 30 36
REMARK SMILES IDX 89 37 31 38 32 39 33 40 83 41 34 42 88 43 82 44 84 45 35 46
REMARK SMILES IDX 87 47 81 48 80 49 36 51 68 52 48 53 67 54 49 55 52 56 66 57
REMARK SMILES IDX 85 58 50 59 51 60 65 62 86 63 53 64 37 65 38 66 46 67 39 68
REMARK SMILES IDX 40 69 44 70 47 71 41 72 42 73 45 74 43 75 69 76 70 77 78 78
REMARK SMILES IDX 71 79 72 80 76 81 79 82 73 83 74 84 77 85 75 86 54 87 55 88
REMARK SMILES IDX 63 89 56 90 57 91 61 92 64 93 58 94 59 95 62 96 60 97
REMARK H PARENT 20 6 9 15 12 17 25 31 84 50 52 61
REMARK Flexibility Score: inf
ROOT
ATOM      1  C   UNL A   1      31.840  30.709  26.749  1.00  0.00     0.023 C 
ENDROOT
BRANCH   1   2
ATOM      2  C   UNL A   1      33.294  30.213  26.778  1.00  0.00     0.116 C 
BRANCH   2   3
ATOM      3  N   UNL A   1      33.812  29.430  25.594  1.00  0.00    -0.356 N 
ATOM      4  C   UNL A   1      33.891  28.235  24.930  1.00  0.00     0.225 C 
ATOM      5  O   UNL A   1      34.326  28.410  23.771  1.00  0.00    -0.275 OA
ATOM      6  H   UNL A   1      34.329  30.070  25.054  1.00  0.00     0.163 HD
BRANCH   4   7
ATOM      7  C   UNL A   1      33.649  26.682  25.330  1.00  0.00     0.101 C 
ATOM      8  C   UNL A   1      32.311  26.322  24.854  1.00  0.00     0.096 C 
ATOM      9  C   UNL A   1      32.045  25.050  25.696  1.00  0.00     0.026 C 
ATOM     10  C   UNL A   1      33.234  24.165  25.415  1.00  0.00     0.003 C 
ATOM     11  C   UNL A   1      34.313  25.193  25.088  1.00  0.00     0.016 C 
BRANCH   8  12
ATOM     12  N   UNL A   1      32.471  26.102  23.404  1.00  0.00    -0.334 N 
ATOM     13  N   UNL A   1      30.842  27.366  21.990  1.00  0.00    -0.305 N 
ATOM     14  C   UNL A   1      31.858  26.496  22.264  1.00  0.00     0.319 C 
ATOM     15  H   UNL A   1      30.565  27.101  21.084  1.00  0.00     0.171 HD
ATOM     16  O   UNL A   1      32.248  25.845  21.276  1.00  0.00    -0.248 OA
ATOM     17  H   UNL A   1      33.230  25.505  23.216  1.00  0.00     0.165 HD
BRANCH  13  18
ATOM     18  C   UNL A   1      29.932  28.482  22.299  1.00  0.00     0.082 A 
ATOM     19  C   UNL A   1      28.874  30.760  22.159  1.00  0.00     0.121 A 
ATOM     20  C   UNL A   1      27.732  30.301  22.777  1.00  0.00     0.049 A 
ATOM     21  C   UNL A   1      29.949  29.865  22.006  1.00  0.00     0.075 A 
ATOM     22  C   UNL A   1      27.706  28.993  23.253  1.00  0.00     0.045 A 
ATOM     23  C   UNL A   1      28.774  28.113  22.999  1.00  0.00     0.147 A 
ATOM     24  F   UNL A   1      28.682  26.860  23.476  1.00  0.00    -0.205 F 
BRANCH  19  25
ATOM     25  O   UNL A   1      28.849  32.072  21.755  1.00  0.00    -0.497 OA
ATOM     26  C   UNL A   1      27.965  32.471  20.706  1.00  0.00     0.278 C 
ENDBRANCH  19  25
ENDBRANCH  13  18
ENDBRANCH   8  12
ENDBRANCH   4   7
ENDBRANCH   2   3
ENDBRANCH   1   2
BRANCH   1  27
ATOM     27  C   UNL A   1      31.673  32.245  26.855  1.00  0.00     0.023 C 
BRANCH  27  28
ATOM     28  C   UNL A   1      32.799  33.053  27.506  1.00  0.00     0.116 C 
BRANCH  28  29
ATOM     29  N   UNL A   1      32.479  34.455  27.746  1.00  0.00    -0.352 N 
ATOM     30  C   UNL A   1      33.009  35.304  28.711  1.00  0.00     0.251 C 
ATOM     31  H   UNL A   1      31.803  34.851  27.150  1.00  0.00     0.163 HD
ATOM     32  O   UNL A   1      32.591  36.424  28.886  1.00  0.00    -0.269 OA
BRANCH  30  33
ATOM     33  C   UNL A   1      34.109  34.777  29.552  1.00  0.00     0.039 A 
ATOM     34  C   UNL A   1      33.830  34.234  30.808  1.00  0.00     0.014 A 
ATOM     35  C   UNL A   1      35.397  34.726  29.019  1.00  0.00     0.014 A 
ATOM     36  C   UNL A   1      34.841  33.561  31.497  1.00  0.00     0.010 A 
ATOM     37  C   UNL A   1      36.366  33.963  29.653  1.00  0.00     0.010 A 
ATOM     38  C   UNL A   1      36.105  33.390  30.907  1.00  0.00    -0.014 A 
BRANCH  38  39
ATOM     39  C   UNL A   1      37.195  32.672  31.615  1.00  0.00     0.031 A 
ATOM     40  C   UNL A   1      37.895  31.539  30.915  1.00  0.00     0.074 A 
ATOM     41  C   UNL A   1      37.529  33.019  32.873  1.00  0.00     0.049 A 
ATOM     42  N   UNL A   1      38.860  30.769  31.347  1.00  0.00    -0.248 NA
ATOM     43  C   UNL A   1      37.425  31.197  29.560  1.00  0.00     0.031 C 
ATOM     44  C   UNL A   1      36.877  34.064  33.665  1.00  0.00     0.029 A 
ATOM     45  N   UNL A   1      38.512  32.541  33.704  1.00  0.00    -0.354 N 
ATOM     46  C   UNL A   1      39.102  29.865  30.321  1.00  0.00     0.074 A 
ATOM     47  C   UNL A   1      38.126  30.110  29.288  1.00  0.00     0.031 C 
ATOM     48  C   UNL A   1      37.516  34.192  34.840  1.00  0.00     0.029 A 
ATOM     49  C   UNL A   1      38.601  33.216  34.899  1.00  0.00     0.049 A 
ATOM     50  H   UNL A   1      39.098  31.787  33.467  1.00  0.00     0.167 HD
ATOM     51  C   UNL A   1      40.092  28.949  30.223  1.00  0.00     0.037 A 
ATOM     52  C   UNL A   1      39.477  33.072  35.913  1.00  0.00     0.037 A 
ATOM     53  C   UNL A   1      41.088  28.746  31.236  1.00  0.00     0.049 A 
ATOM     54  C   UNL A   1      40.563  32.034  35.783  1.00  0.00     0.074 A 
ATOM     55  C   UNL A   1      42.154  27.867  31.232  1.00  0.00     0.029 A 
ATOM     56  N   UNL A   1      41.142  29.447  32.432  1.00  0.00    -0.354 N 
ATOM     57  N   UNL A   1      40.816  31.223  34.784  1.00  0.00    -0.248 NA
ATOM     58  C   UNL A   1      41.490  31.898  36.914  1.00  0.00     0.031 C 
ATOM     59  C   UNL A   1      42.832  28.007  32.445  1.00  0.00     0.029 A 
ATOM     60  C   UNL A   1      42.221  29.011  33.180  1.00  0.00     0.049 A 
ATOM     61  H   UNL A   1      40.508  30.147  32.708  1.00  0.00     0.167 HD
ATOM     62  C   UNL A   1      41.946  30.505  35.150  1.00  0.00     0.074 A 
ATOM     63  C   UNL A   1      42.340  30.989  36.457  1.00  0.00     0.031 C 
ATOM     64  C   UNL A   1      42.599  29.531  34.469  1.00  0.00     0.037 A 
BRANCH  51  65
ATOM     65  C   UNL A   1      40.175  28.140  28.963  1.00  0.00     0.064 A 
ATOM     66  C   UNL A   1      39.567  26.879  28.878  1.00  0.00     0.173 A 
ATOM     67  C   UNL A   1      40.913  28.588  27.856  1.00  0.00     0.173 A 
ATOM     68  F   UNL A   1      38.848  26.405  29.907  1.00  0.00    -0.203 F 
ATOM     69  C   UNL A   1      39.711  26.090  27.741  1.00  0.00     0.198 A 
ATOM     70  C   UNL A   1      41.029  27.809  26.708  1.00  0.00     0.198 A 
ATOM     71  F   UNL A   1      41.497  29.796  27.877  1.00  0.00    -0.203 F 
ATOM     72  F   UNL A   1      39.151  24.873  27.695  1.00  0.00    -0.200 F 
ATOM     73  C   UNL A   1      40.439  26.555  26.656  1.00  0.00     0.200 A 
ATOM     74  F   UNL A   1      41.707  28.276  25.650  1.00  0.00    -0.200 F 
ATOM     75  F   UNL A   1      40.571  25.798  25.559  1.00  0.00    -0.200 F 
ENDBRANCH  51  65
BRANCH  52  76
ATOM     76  C   UNL A   1      39.409  33.969  37.099  1.00  0.00     0.064 A 
ATOM     77  C   UNL A   1      38.698  33.613  38.253  1.00  0.00     0.173 A 
ATOM     78  C   UNL A   1      40.059  35.213  37.097  1.00  0.00     0.173 A 
ATOM     79  F   UNL A   1      38.053  32.438  38.311  1.00  0.00    -0.203 F 
ATOM     80  C   UNL A   1      38.628  34.468  39.353  1.00  0.00     0.198 A 
ATOM     81  C   UNL A   1      40.014  36.055  38.208  1.00  0.00     0.198 A 
ATOM     82  F   UNL A   1      40.768  35.596  36.025  1.00  0.00    -0.203 F 
ATOM     83  F   UNL A   1      37.917  34.114  40.431  1.00  0.00    -0.200 F 
ATOM     84  C   UNL A   1      39.293  35.685  39.332  1.00  0.00     0.200 A 
ATOM     85  F   UNL A   1      40.681  37.217  38.192  1.00  0.00    -0.200 F 
ATOM     86  F   UNL A   1      39.243  36.497  40.397  1.00  0.00    -0.200 F 
ENDBRANCH  52  76
BRANCH  64  87
ATOM     87  C   UNL A   1      43.827  28.945  35.101  1.00  0.00     0.064 A 
ATOM     88  C   UNL A   1      45.098  29.438  34.766  1.00  0.00     0.173 A 
ATOM     89  C   UNL A   1      43.752  27.838  35.957  1.00  0.00     0.173 A 
ATOM     90  F   UNL A   1      45.220  30.487  33.938  1.00  0.00    -0.203 F 
ATOM     91  C   UNL A   1      46.250  28.831  35.254  1.00  0.00     0.198 A 
ATOM     92  C   UNL A   1      44.907  27.255  36.470  1.00  0.00     0.198 A 
ATOM     93  F   UNL A   1      42.560  27.336  36.311  1.00  0.00    -0.203 F 
ATOM     94  F   UNL A   1      47.453  29.290  34.885  1.00  0.00    -0.200 F 
ATOM     95  C   UNL A   1      46.154  27.744  36.108  1.00  0.00     0.200 A 
ATOM     96  F   UNL A   1      44.813  26.220  37.316  1.00  0.00    -0.200 F 
ATOM     97  F   UNL A   1      47.265  27.166  36.585  1.00  0.00    -0.200 F 
ENDBRANCH  64  87
ENDBRANCH  38  39
ENDBRANCH  30  33
ENDBRANCH  28  29
ENDBRANCH  27  28
ENDBRANCH   1  27
TORSDOF 14
ENDMDL
