MODEL 1
REMARK VINA RESULT:     -12.8      0.000      0.000
REMARK SMILES [NH3+][C@]1(C(=O)NCCCCNC(=O)c2ccc(-c3c4nc(c(-c5c(F)c(F)c(F)c(F)c5F)c5ccc([nH]5)c(-c5c(F)c(F)c(F)c(F)c5F)c5nc(c(-c6c(F)c(F)c(F)c(F)c6F)c6ccc3[nH]6)C=C5)C=C4)cc2)CC[N@H+](Cc2ccccc2O)C1
REMARK SMILES IDX 7 1 6 2 5 3 3 4 4 5 2 7 76 8 87 9 77 10 78 11 1 13 79 17
REMARK SMILES IDX 80 18 81 19 85 20 82 21 84 22 83 23 86 24 8 26 9 27 10 28
REMARK SMILES IDX 11 29 12 31 13 32 14 33 75 34 15 35 74 36 16 37 17 38 18 39
REMARK SMILES IDX 68 40 19 41 73 42 67 43 69 44 20 45 72 46 66 47 65 48 21 50
REMARK SMILES IDX 53 51 33 52 52 53 34 54 37 55 51 56 70 57 35 58 36 59 50 61
REMARK SMILES IDX 71 62 38 63 22 64 23 65 31 66 24 67 25 68 29 69 32 70 26 71
REMARK SMILES IDX 27 72 30 73 28 74 54 75 55 76 63 77 56 78 57 79 61 80 64 81
REMARK SMILES IDX 58 82 59 83 62 84 60 85 39 86 40 87 48 88 41 89 42 90 46 91
REMARK SMILES IDX 49 92 43 93 44 94 47 95 45 96
REMARK H PARENT 5 6 78 12 1 14 1 15 1 16 86 25 10 30 69 49 37 60
REMARK Flexibility Score: inf
ROOT
ATOM      1  C   UNL A   1      32.028  27.399  26.768  1.00  0.00     0.023 C 
ENDROOT
BRANCH   1   2
ATOM      2  C   UNL A   1      31.923  26.050  26.058  1.00  0.00     0.116 C 
BRANCH   2   3
ATOM      3  N   UNL A   1      31.069  25.126  26.776  1.00  0.00    -0.350 N 
ATOM      4  C   UNL A   1      30.843  23.791  26.560  1.00  0.00     0.287 C 
ATOM      5  O   UNL A   1      30.064  23.222  27.332  1.00  0.00    -0.268 OA
ATOM      6  H   UNL A   1      30.575  25.516  27.533  1.00  0.00     0.163 HD
BRANCH   4   7
ATOM      7  C   UNL A   1      31.556  23.040  25.403  1.00  0.00     0.228 C 
ATOM      8  C   UNL A   1      33.075  23.245  25.407  1.00  0.00     0.146 C 
ATOM      9  C   UNL A   1      31.517  21.516  25.617  1.00  0.00     0.342 C 
ATOM     10  C   UNL A   1      33.600  22.036  24.630  1.00  0.00     0.270 C 
ATOM     11  N   UNL A   1      32.684  20.941  24.944  1.00  0.00    -0.325 N 
ATOM     12  H   UNL A   1      33.174  20.309  25.577  1.00  0.00     0.348 HD
BRANCH   7  13
ATOM     13  N   UNL A   1      30.992  23.504  24.106  1.00  0.00    -0.340 N 
ATOM     14  H   UNL A   1      30.028  23.182  24.019  1.00  0.00     0.345 HD
ATOM     15  H   UNL A   1      31.546  23.125  23.338  1.00  0.00     0.345 HD
ATOM     16  H   UNL A   1      31.014  24.523  24.070  1.00  0.00     0.345 HD
ENDBRANCH   7  13
BRANCH  11  17
ATOM     17  C   UNL A   1      32.398  19.959  23.895  1.00  0.00     0.303 C 
BRANCH  17  18
ATOM     18  C   UNL A   1      32.933  18.551  24.100  1.00  0.00     0.048 A 
ATOM     19  C   UNL A   1      33.412  17.836  22.981  1.00  0.00     0.013 A 
ATOM     20  C   UNL A   1      33.024  17.927  25.350  1.00  0.00     0.124 A 
ATOM     21  C   UNL A   1      34.028  16.590  23.118  1.00  0.00     0.001 A 
ATOM     22  C   UNL A   1      33.646  16.685  25.492  1.00  0.00     0.046 A 
ATOM     23  C   UNL A   1      34.159  16.022  24.381  1.00  0.00     0.004 A 
BRANCH  20  24
ATOM     24  O   UNL A   1      32.528  18.466  26.502  1.00  0.00    -0.507 OA
ATOM     25  H   UNL A   1      31.604  18.578  26.606  1.00  0.00     0.293 HD
ENDBRANCH  20  24
ENDBRANCH  17  18
ENDBRANCH  11  17
ENDBRANCH   4   7
ENDBRANCH   2   3
ENDBRANCH   1   2
BRANCH   1  26
ATOM     26  C   UNL A   1      31.821  28.613  25.874  1.00  0.00     0.023 C 
BRANCH  26  27
ATOM     27  C   UNL A   1      32.977  29.597  25.862  1.00  0.00     0.116 C 
BRANCH  27  28
ATOM     28  N   UNL A   1      32.630  30.919  26.366  1.00  0.00    -0.352 N 
ATOM     29  C   UNL A   1      33.340  31.700  27.249  1.00  0.00     0.251 C 
ATOM     30  H   UNL A   1      31.785  31.300  26.034  1.00  0.00     0.163 HD
ATOM     31  O   UNL A   1      32.897  32.765  27.655  1.00  0.00    -0.269 OA
BRANCH  29  32
ATOM     32  C   UNL A   1      34.636  31.189  27.731  1.00  0.00     0.039 A 
ATOM     33  C   UNL A   1      35.666  32.094  27.988  1.00  0.00     0.014 A 
ATOM     34  C   UNL A   1      34.774  29.834  28.041  1.00  0.00     0.014 A 
ATOM     35  C   UNL A   1      36.817  31.648  28.638  1.00  0.00     0.010 A 
ATOM     36  C   UNL A   1      35.879  29.411  28.763  1.00  0.00     0.010 A 
ATOM     37  C   UNL A   1      36.910  30.315  29.068  1.00  0.00    -0.014 A 
BRANCH  37  38
ATOM     38  C   UNL A   1      38.084  29.827  29.830  1.00  0.00     0.031 A 
ATOM     39  C   UNL A   1      38.312  30.328  31.227  1.00  0.00     0.074 A 
ATOM     40  C   UNL A   1      38.981  29.019  29.237  1.00  0.00     0.049 A 
ATOM     41  N   UNL A   1      39.331  30.128  32.023  1.00  0.00    -0.248 NA
ATOM     42  C   UNL A   1      37.274  31.208  31.789  1.00  0.00     0.031 C 
ATOM     43  C   UNL A   1      38.898  28.518  27.864  1.00  0.00     0.029 A 
ATOM     44  N   UNL A   1      40.153  28.486  29.714  1.00  0.00    -0.354 N 
ATOM     45  C   UNL A   1      39.070  30.881  33.160  1.00  0.00     0.074 A 
ATOM     46  C   UNL A   1      37.825  31.581  32.933  1.00  0.00     0.031 C 
ATOM     47  C   UNL A   1      39.960  27.734  27.616  1.00  0.00     0.029 A 
ATOM     48  C   UNL A   1      40.814  27.703  28.800  1.00  0.00     0.049 A 
ATOM     49  H   UNL A   1      40.488  28.650  30.625  1.00  0.00     0.167 HD
ATOM     50  C   UNL A   1      39.792  30.958  34.302  1.00  0.00     0.037 A 
ATOM     51  C   UNL A   1      41.978  27.037  28.909  1.00  0.00     0.037 A 
ATOM     52  C   UNL A   1      40.999  30.217  34.541  1.00  0.00     0.049 A 
ATOM     53  C   UNL A   1      42.738  27.103  30.206  1.00  0.00     0.074 A 
ATOM     54  C   UNL A   1      41.766  30.163  35.692  1.00  0.00     0.029 A 
ATOM     55  N   UNL A   1      41.611  29.390  33.610  1.00  0.00    -0.354 N 
ATOM     56  N   UNL A   1      42.450  27.764  31.300  1.00  0.00    -0.248 NA
ATOM     57  C   UNL A   1      43.983  26.325  30.285  1.00  0.00     0.031 C 
ATOM     58  C   UNL A   1      42.857  29.322  35.447  1.00  0.00     0.029 A 
ATOM     59  C   UNL A   1      42.750  28.825  34.157  1.00  0.00     0.049 A 
ATOM     60  H   UNL A   1      41.281  29.227  32.697  1.00  0.00     0.167 HD
ATOM     61  C   UNL A   1      43.459  27.465  32.205  1.00  0.00     0.074 A 
ATOM     62  C   UNL A   1      44.362  26.551  31.535  1.00  0.00     0.031 C 
ATOM     63  C   UNL A   1      43.625  27.907  33.474  1.00  0.00     0.037 A 
BRANCH  50  64
ATOM     64  C   UNL A   1      39.280  31.866  35.379  1.00  0.00     0.064 A 
ATOM     65  C   UNL A   1      39.616  33.228  35.412  1.00  0.00     0.173 A 
ATOM     66  C   UNL A   1      38.436  31.372  36.385  1.00  0.00     0.173 A 
ATOM     67  F   UNL A   1      40.435  33.743  34.483  1.00  0.00    -0.203 F 
ATOM     68  C   UNL A   1      39.149  34.056  36.428  1.00  0.00     0.198 A 
ATOM     69  C   UNL A   1      37.949  32.210  37.384  1.00  0.00     0.198 A 
ATOM     70  F   UNL A   1      38.085  30.078  36.398  1.00  0.00    -0.203 F 
ATOM     71  F   UNL A   1      39.527  35.341  36.469  1.00  0.00    -0.200 F 
ATOM     72  C   UNL A   1      38.311  33.549  37.410  1.00  0.00     0.200 A 
ATOM     73  F   UNL A   1      37.132  31.720  38.327  1.00  0.00    -0.200 F 
ATOM     74  F   UNL A   1      37.863  34.347  38.387  1.00  0.00    -0.200 F 
ENDBRANCH  50  64
BRANCH  51  75
ATOM     75  C   UNL A   1      42.476  26.218  27.775  1.00  0.00     0.064 A 
ATOM     76  C   UNL A   1      42.003  24.915  27.573  1.00  0.00     0.173 A 
ATOM     77  C   UNL A   1      43.426  26.716  26.873  1.00  0.00     0.173 A 
ATOM     78  F   UNL A   1      41.106  24.390  28.421  1.00  0.00    -0.203 F 
ATOM     79  C   UNL A   1      42.474  24.132  26.520  1.00  0.00     0.198 A 
ATOM     80  C   UNL A   1      43.881  25.941  25.807  1.00  0.00     0.198 A 
ATOM     81  F   UNL A   1      43.906  27.960  27.020  1.00  0.00    -0.203 F 
ATOM     82  F   UNL A   1      42.033  22.876  26.373  1.00  0.00    -0.200 F 
ATOM     83  C   UNL A   1      43.409  24.648  25.636  1.00  0.00     0.200 A 
ATOM     84  F   UNL A   1      44.776  26.446  24.947  1.00  0.00    -0.200 F 
ATOM     85  F   UNL A   1      43.861  23.896  24.622  1.00  0.00    -0.200 F 
ENDBRANCH  51  75
BRANCH  63  86
ATOM     86  C   UNL A   1      44.805  27.384  34.234  1.00  0.00     0.064 A 
ATOM     87  C   UNL A   1      46.031  28.064  34.241  1.00  0.00     0.173 A 
ATOM     88  C   UNL A   1      44.691  26.218  35.006  1.00  0.00     0.173 A 
ATOM     89  F   UNL A   1      46.190  29.175  33.505  1.00  0.00    -0.203 F 
ATOM     90  C   UNL A   1      47.107  27.586  34.982  1.00  0.00     0.198 A 
ATOM     91  C   UNL A   1      45.762  25.756  35.764  1.00  0.00     0.198 A 
ATOM     92  F   UNL A   1      43.536  25.536  35.033  1.00  0.00    -0.203 F 
ATOM     93  F   UNL A   1      48.281  28.231  34.948  1.00  0.00    -0.200 F 
ATOM     94  C   UNL A   1      46.969  26.438  35.749  1.00  0.00     0.200 A 
ATOM     95  F   UNL A   1      45.624  24.652  36.512  1.00  0.00    -0.200 F 
ATOM     96  F   UNL A   1      48.004  25.984  36.468  1.00  0.00    -0.200 F 
ENDBRANCH  63  86
ENDBRANCH  37  38
ENDBRANCH  29  32
ENDBRANCH  27  28
ENDBRANCH  26  27
ENDBRANCH   1  26
TORSDOF 15
ENDMDL
MODEL 2
REMARK VINA RESULT:     -12.7      0.448      7.408
REMARK SMILES [NH3+][C@]1(C(=O)NCCCCNC(=O)c2ccc(-c3c4nc(c(-c5c(F)c(F)c(F)c(F)c5F)c5ccc([nH]5)c(-c5c(F)c(F)c(F)c(F)c5F)c5nc(c(-c6c(F)c(F)c(F)c(F)c6F)c6ccc3[nH]6)C=C5)C=C4)cc2)CC[N@H+](Cc2ccccc2O)C1
REMARK SMILES IDX 7 1 6 2 5 3 3 4 4 5 2 7 76 8 87 9 77 10 78 11 1 13 79 17
REMARK SMILES IDX 80 18 81 19 85 20 82 21 84 22 83 23 86 24 8 26 9 27 10 28
REMARK SMILES IDX 11 29 12 31 13 32 14 33 75 34 15 35 74 36 16 37 17 38 18 39
REMARK SMILES IDX 68 40 19 41 73 42 67 43 69 44 20 45 72 46 66 47 65 48 21 50
REMARK SMILES IDX 53 51 33 52 52 53 34 54 37 55 51 56 70 57 35 58 36 59 50 61
REMARK SMILES IDX 71 62 38 63 22 64 23 65 31 66 24 67 25 68 29 69 32 70 26 71
REMARK SMILES IDX 27 72 30 73 28 74 54 75 55 76 63 77 56 78 57 79 61 80 64 81
REMARK SMILES IDX 58 82 59 83 62 84 60 85 39 86 40 87 48 88 41 89 42 90 46 91
REMARK SMILES IDX 49 92 43 93 44 94 47 95 45 96
REMARK H PARENT 5 6 78 12 1 14 1 15 1 16 86 25 10 30 69 49 37 60
REMARK Flexibility Score: inf
ROOT
ATOM      1  C   UNL A   1      31.841  27.531  26.302  1.00  0.00     0.023 C 
ENDROOT
BRANCH   1   2
ATOM      2  C   UNL A   1      31.887  26.090  25.792  1.00  0.00     0.116 C 
BRANCH   2   3
ATOM      3  N   UNL A   1      31.143  25.190  26.650  1.00  0.00    -0.350 N 
ATOM      4  C   UNL A   1      30.931  23.840  26.531  1.00  0.00     0.287 C 
ATOM      5  O   UNL A   1      30.258  23.299  27.414  1.00  0.00    -0.268 OA
ATOM      6  H   UNL A   1      30.727  25.611  27.436  1.00  0.00     0.163 HD
BRANCH   4   7
ATOM      7  C   UNL A   1      31.530  23.042  25.342  1.00  0.00     0.228 C 
ATOM      8  C   UNL A   1      33.036  23.271  25.169  1.00  0.00     0.146 C 
ATOM      9  C   UNL A   1      31.548  21.530  25.635  1.00  0.00     0.342 C 
ATOM     10  C   UNL A   1      33.500  22.032  24.400  1.00  0.00     0.270 C 
ATOM     11  N   UNL A   1      32.647  20.940  24.867  1.00  0.00    -0.325 N 
ATOM     12  H   UNL A   1      33.216  20.350  25.474  1.00  0.00     0.348 HD
BRANCH   7  13
ATOM     13  N   UNL A   1      30.819  23.429  24.092  1.00  0.00    -0.340 N 
ATOM     14  H   UNL A   1      29.814  23.446  24.264  1.00  0.00     0.345 HD
ATOM     15  H   UNL A   1      31.026  22.751  23.358  1.00  0.00     0.345 HD
ATOM     16  H   UNL A   1      31.129  24.355  23.797  1.00  0.00     0.345 HD
ENDBRANCH   7  13
BRANCH  11  17
ATOM     17  C   UNL A   1      32.270  19.900  23.906  1.00  0.00     0.303 C 
BRANCH  17  18
ATOM     18  C   UNL A   1      32.866  18.518  24.113  1.00  0.00     0.048 A 
ATOM     19  C   UNL A   1      33.329  17.802  22.987  1.00  0.00     0.013 A 
ATOM     20  C   UNL A   1      33.030  17.920  25.368  1.00  0.00     0.124 A 
ATOM     21  C   UNL A   1      33.997  16.582  23.121  1.00  0.00     0.001 A 
ATOM     22  C   UNL A   1      33.704  16.705  25.505  1.00  0.00     0.046 A 
ATOM     23  C   UNL A   1      34.199  16.042  24.386  1.00  0.00     0.004 A 
BRANCH  20  24
ATOM     24  O   UNL A   1      32.558  18.460  26.530  1.00  0.00    -0.507 OA
ATOM     25  H   UNL A   1      33.134  18.941  27.090  1.00  0.00     0.293 HD
ENDBRANCH  20  24
ENDBRANCH  17  18
ENDBRANCH  11  17
ENDBRANCH   4   7
ENDBRANCH   2   3
ENDBRANCH   1   2
BRANCH   1  26
ATOM     26  C   UNL A   1      32.139  28.593  25.253  1.00  0.00     0.023 C 
BRANCH  26  27
ATOM     27  C   UNL A   1      33.216  29.588  25.646  1.00  0.00     0.116 C 
BRANCH  27  28
ATOM     28  N   UNL A   1      32.696  30.833  26.194  1.00  0.00    -0.352 N 
ATOM     29  C   UNL A   1      33.271  31.642  27.147  1.00  0.00     0.251 C 
ATOM     30  H   UNL A   1      31.827  31.131  25.841  1.00  0.00     0.163 HD
ATOM     31  O   UNL A   1      32.690  32.626  27.581  1.00  0.00    -0.269 OA
BRANCH  29  32
ATOM     32  C   UNL A   1      34.597  31.259  27.666  1.00  0.00     0.039 A 
ATOM     33  C   UNL A   1      35.561  32.249  27.853  1.00  0.00     0.014 A 
ATOM     34  C   UNL A   1      34.825  29.943  28.078  1.00  0.00     0.014 A 
ATOM     35  C   UNL A   1      36.736  31.932  28.535  1.00  0.00     0.010 A 
ATOM     36  C   UNL A   1      35.953  29.653  28.829  1.00  0.00     0.010 A 
ATOM     37  C   UNL A   1      36.918  30.645  29.065  1.00  0.00    -0.014 A 
BRANCH  37  38
ATOM     38  C   UNL A   1      38.118  30.297  29.862  1.00  0.00     0.031 A 
ATOM     39  C   UNL A   1      39.122  29.335  29.297  1.00  0.00     0.074 A 
ATOM     40  C   UNL A   1      38.251  30.768  31.116  1.00  0.00     0.049 A 
ATOM     41  N   UNL A   1      40.173  28.804  29.868  1.00  0.00    -0.248 NA
ATOM     42  C   UNL A   1      38.891  28.877  27.918  1.00  0.00     0.031 C 
ATOM     43  C   UNL A   1      37.307  31.658  31.794  1.00  0.00     0.029 A 
ATOM     44  N   UNL A   1      39.231  30.550  32.051  1.00  0.00    -0.354 N 
ATOM     45  C   UNL A   1      40.704  27.928  28.930  1.00  0.00     0.074 A 
ATOM     46  C   UNL A   1      39.834  27.960  27.775  1.00  0.00     0.031 C 
ATOM     47  C   UNL A   1      37.764  31.928  33.028  1.00  0.00     0.029 A 
ATOM     48  C   UNL A   1      39.016  31.205  33.238  1.00  0.00     0.049 A 
ATOM     49  H   UNL A   1      40.014  29.977  31.886  1.00  0.00     0.167 HD
ATOM     50  C   UNL A   1      41.832  27.185  29.017  1.00  0.00     0.037 A 
ATOM     51  C   UNL A   1      39.747  31.217  34.368  1.00  0.00     0.037 A 
ATOM     52  C   UNL A   1      42.720  27.201  30.146  1.00  0.00     0.049 A 
ATOM     53  C   UNL A   1      41.021  30.418  34.421  1.00  0.00     0.074 A 
ATOM     54  C   UNL A   1      43.928  26.546  30.304  1.00  0.00     0.029 A 
ATOM     55  N   UNL A   1      42.496  27.920  31.311  1.00  0.00    -0.354 N 
ATOM     56  N   UNL A   1      41.550  29.644  33.506  1.00  0.00    -0.248 NA
ATOM     57  C   UNL A   1      41.802  30.499  35.663  1.00  0.00     0.031 C 
ATOM     58  C   UNL A   1      44.424  26.849  31.576  1.00  0.00     0.029 A 
ATOM     59  C   UNL A   1      43.541  27.720  32.197  1.00  0.00     0.049 A 
ATOM     60  H   UNL A   1      41.711  28.490  31.481  1.00  0.00     0.167 HD
ATOM     61  C   UNL A   1      42.735  29.167  34.047  1.00  0.00     0.074 A 
ATOM     62  C   UNL A   1      42.854  29.748  35.369  1.00  0.00     0.031 C 
ATOM     63  C   UNL A   1      43.643  28.322  33.501  1.00  0.00     0.037 A 
BRANCH  50  64
ATOM     64  C   UNL A   1      42.169  26.308  27.849  1.00  0.00     0.064 A 
ATOM     65  C   UNL A   1      41.589  25.041  27.691  1.00  0.00     0.173 A 
ATOM     66  C   UNL A   1      43.075  26.743  26.870  1.00  0.00     0.173 A 
ATOM     67  F   UNL A   1      40.730  24.573  28.610  1.00  0.00    -0.203 F 
ATOM     68  C   UNL A   1      41.924  24.228  26.612  1.00  0.00     0.198 A 
ATOM     69  C   UNL A   1      43.387  25.939  25.778  1.00  0.00     0.198 A 
ATOM     70  F   UNL A   1      43.657  27.947  26.974  1.00  0.00    -0.203 F 
ATOM     71  F   UNL A   1      41.398  23.000  26.512  1.00  0.00    -0.200 F 
ATOM     72  C   UNL A   1      42.818  24.680  25.653  1.00  0.00     0.200 A 
ATOM     73  F   UNL A   1      44.245  26.380  24.846  1.00  0.00    -0.200 F 
ATOM     74  F   UNL A   1      43.140  23.897  24.615  1.00  0.00    -0.200 F 
ENDBRANCH  50  64
BRANCH  51  75
ATOM     75  C   UNL A   1      39.317  32.044  35.524  1.00  0.00     0.064 A 
ATOM     76  C   UNL A   1      38.471  31.511  36.507  1.00  0.00     0.173 A 
ATOM     77  C   UNL A   1      39.739  33.371  35.674  1.00  0.00     0.173 A 
ATOM     78  F   UNL A   1      38.027  30.250  36.396  1.00  0.00    -0.203 F 
ATOM     79  C   UNL A   1      38.049  32.281  37.589  1.00  0.00     0.198 A 
ATOM     80  C   UNL A   1      39.334  34.135  36.768  1.00  0.00     0.198 A 
ATOM     81  F   UNL A   1      40.554  33.925  34.764  1.00  0.00    -0.203 F 
ATOM     82  F   UNL A   1      37.210  31.759  38.493  1.00  0.00    -0.200 F 
ATOM     83  C   UNL A   1      38.485  33.591  37.720  1.00  0.00     0.200 A 
ATOM     84  F   UNL A   1      39.767  35.396  36.899  1.00  0.00    -0.200 F 
ATOM     85  F   UNL A   1      38.081  34.332  38.762  1.00  0.00    -0.200 F 
ENDBRANCH  51  75
BRANCH  63  86
ATOM     86  C   UNL A   1      44.859  28.002  34.316  1.00  0.00     0.064 A 
ATOM     87  C   UNL A   1      46.003  28.811  34.270  1.00  0.00     0.173 A 
ATOM     88  C   UNL A   1      44.858  26.906  35.190  1.00  0.00     0.173 A 
ATOM     89  F   UNL A   1      46.053  29.861  33.436  1.00  0.00    -0.203 F 
ATOM     90  C   UNL A   1      47.111  28.523  35.061  1.00  0.00     0.198 A 
ATOM     91  C   UNL A   1      45.959  26.636  35.996  1.00  0.00     0.198 A 
ATOM     92  F   UNL A   1      43.784  26.106  35.271  1.00  0.00    -0.203 F 
ATOM     93  F   UNL A   1      48.208  29.288  34.976  1.00  0.00    -0.200 F 
ATOM     94  C   UNL A   1      47.085  27.441  35.929  1.00  0.00     0.200 A 
ATOM     95  F   UNL A   1      45.929  25.595  36.842  1.00  0.00    -0.200 F 
ATOM     96  F   UNL A   1      48.150  27.171  36.696  1.00  0.00    -0.200 F 
ENDBRANCH  63  86
ENDBRANCH  37  38
ENDBRANCH  29  32
ENDBRANCH  27  28
ENDBRANCH  26  27
ENDBRANCH   1  26
TORSDOF 15
ENDMDL
MODEL 3
REMARK VINA RESULT:     -12.6      3.822      8.848
REMARK SMILES [NH3+][C@]1(C(=O)NCCCCNC(=O)c2ccc(-c3c4nc(c(-c5c(F)c(F)c(F)c(F)c5F)c5ccc([nH]5)c(-c5c(F)c(F)c(F)c(F)c5F)c5nc(c(-c6c(F)c(F)c(F)c(F)c6F)c6ccc3[nH]6)C=C5)C=C4)cc2)CC[N@H+](Cc2ccccc2O)C1
REMARK SMILES IDX 7 1 6 2 5 3 3 4 4 5 2 7 76 8 87 9 77 10 78 11 1 13 79 17
REMARK SMILES IDX 80 18 81 19 85 20 82 21 84 22 83 23 86 24 8 26 9 27 10 28
REMARK SMILES IDX 11 29 12 31 13 32 14 33 75 34 15 35 74 36 16 37 17 38 18 39
REMARK SMILES IDX 68 40 19 41 73 42 67 43 69 44 20 45 72 46 66 47 65 48 21 50
REMARK SMILES IDX 53 51 33 52 52 53 34 54 37 55 51 56 70 57 35 58 36 59 50 61
REMARK SMILES IDX 71 62 38 63 22 64 23 65 31 66 24 67 25 68 29 69 32 70 26 71
REMARK SMILES IDX 27 72 30 73 28 74 54 75 55 76 63 77 56 78 57 79 61 80 64 81
REMARK SMILES IDX 58 82 59 83 62 84 60 85 39 86 40 87 48 88 41 89 42 90 46 91
REMARK SMILES IDX 49 92 43 93 44 94 47 95 45 96
REMARK H PARENT 5 6 78 12 1 14 1 15 1 16 86 25 10 30 69 49 37 60
REMARK Flexibility Score: inf
ROOT
ATOM      1  C   UNL A   1      34.573  30.823  27.965  1.00  0.00     0.023 C 
ENDROOT
BRANCH   1   2
ATOM      2  C   UNL A   1      34.283  29.496  27.264  1.00  0.00     0.116 C 
BRANCH   2   3
ATOM      3  N   UNL A   1      33.050  28.896  27.734  1.00  0.00    -0.350 N 
ATOM      4  C   UNL A   1      31.991  28.396  27.021  1.00  0.00     0.287 C 
ATOM      5  O   UNL A   1      31.052  27.924  27.669  1.00  0.00    -0.268 OA
ATOM      6  H   UNL A   1      32.960  28.838  28.712  1.00  0.00     0.163 HD
BRANCH   4   7
ATOM      7  C   UNL A   1      31.996  28.417  25.468  1.00  0.00     0.228 C 
ATOM      8  C   UNL A   1      33.307  27.895  24.870  1.00  0.00     0.146 C 
ATOM      9  C   UNL A   1      31.032  27.363  24.892  1.00  0.00     0.342 C 
ATOM     10  C   UNL A   1      32.908  27.462  23.458  1.00  0.00     0.270 C 
ATOM     11  N   UNL A   1      31.535  26.973  23.572  1.00  0.00    -0.325 N 
ATOM     12  H   UNL A   1      31.569  25.956  23.500  1.00  0.00     0.348 HD
BRANCH   7  13
ATOM     13  N   UNL A   1      31.752  29.810  25.002  1.00  0.00    -0.340 N 
ATOM     14  H   UNL A   1      32.502  30.416  25.334  1.00  0.00     0.345 HD
ATOM     15  H   UNL A   1      30.860  30.141  25.372  1.00  0.00     0.345 HD
ATOM     16  H   UNL A   1      31.725  29.828  23.983  1.00  0.00     0.345 HD
ENDBRANCH   7  13
BRANCH  11  17
ATOM     17  C   UNL A   1      30.625  27.204  22.447  1.00  0.00     0.303 C 
BRANCH  17  18
ATOM     18  C   UNL A   1      29.619  28.333  22.590  1.00  0.00     0.048 A 
ATOM     19  C   UNL A   1      28.343  28.043  23.122  1.00  0.00     0.013 A 
ATOM     20  C   UNL A   1      29.894  29.667  22.268  1.00  0.00     0.124 A 
ATOM     21  C   UNL A   1      27.418  29.053  23.394  1.00  0.00     0.001 A 
ATOM     22  C   UNL A   1      28.974  30.680  22.546  1.00  0.00     0.046 A 
ATOM     23  C   UNL A   1      27.742  30.377  23.119  1.00  0.00     0.004 A 
BRANCH  20  24
ATOM     24  O   UNL A   1      31.052  30.078  21.673  1.00  0.00    -0.507 OA
ATOM     25  H   UNL A   1      31.602  30.703  22.102  1.00  0.00     0.293 HD
ENDBRANCH  20  24
ENDBRANCH  17  18
ENDBRANCH  11  17
ENDBRANCH   4   7
ENDBRANCH   2   3
ENDBRANCH   1   2
BRANCH   1  26
ATOM     26  C   UNL A   1      33.406  31.798  28.002  1.00  0.00     0.023 C 
BRANCH  26  27
ATOM     27  C   UNL A   1      33.583  33.033  27.136  1.00  0.00     0.116 C 
BRANCH  27  28
ATOM     28  N   UNL A   1      32.866  34.203  27.626  1.00  0.00    -0.352 N 
ATOM     29  C   UNL A   1      33.113  34.928  28.768  1.00  0.00     0.251 C 
ATOM     30  H   UNL A   1      32.112  34.510  27.072  1.00  0.00     0.163 HD
ATOM     31  O   UNL A   1      32.383  35.848  29.109  1.00  0.00    -0.269 OA
BRANCH  29  32
ATOM     32  C   UNL A   1      34.264  34.531  29.600  1.00  0.00     0.039 A 
ATOM     33  C   UNL A   1      34.029  33.904  30.824  1.00  0.00     0.014 A 
ATOM     34  C   UNL A   1      35.560  34.673  29.100  1.00  0.00     0.014 A 
ATOM     35  C   UNL A   1      35.101  33.341  31.516  1.00  0.00     0.010 A 
ATOM     36  C   UNL A   1      36.610  34.038  29.745  1.00  0.00     0.010 A 
ATOM     37  C   UNL A   1      36.390  33.366  30.959  1.00  0.00    -0.014 A 
BRANCH  37  38
ATOM     38  C   UNL A   1      37.536  32.709  31.628  1.00  0.00     0.031 A 
ATOM     39  C   UNL A   1      38.230  31.567  30.944  1.00  0.00     0.074 A 
ATOM     40  C   UNL A   1      37.885  33.074  32.876  1.00  0.00     0.049 A 
ATOM     41  N   UNL A   1      39.169  30.776  31.398  1.00  0.00    -0.248 NA
ATOM     42  C   UNL A   1      37.778  31.243  29.582  1.00  0.00     0.031 C 
ATOM     43  C   UNL A   1      37.242  34.126  33.665  1.00  0.00     0.029 A 
ATOM     44  N   UNL A   1      38.861  32.586  33.707  1.00  0.00    -0.354 N 
ATOM     45  C   UNL A   1      39.394  29.847  30.391  1.00  0.00     0.074 A 
ATOM     46  C   UNL A   1      38.460  30.138  29.325  1.00  0.00     0.031 C 
ATOM     47  C   UNL A   1      37.855  34.221  34.856  1.00  0.00     0.029 A 
ATOM     48  C   UNL A   1      38.912  33.215  34.927  1.00  0.00     0.049 A 
ATOM     49  H   UNL A   1      39.469  31.855  33.454  1.00  0.00     0.167 HD
ATOM     50  C   UNL A   1      40.315  28.857  30.350  1.00  0.00     0.037 A 
ATOM     51  C   UNL A   1      39.720  33.000  35.981  1.00  0.00     0.037 A 
ATOM     52  C   UNL A   1      41.275  28.609  31.389  1.00  0.00     0.049 A 
ATOM     53  C   UNL A   1      40.766  31.923  35.892  1.00  0.00     0.074 A 
ATOM     54  C   UNL A   1      42.302  27.681  31.414  1.00  0.00     0.029 A 
ATOM     55  N   UNL A   1      41.330  29.303  32.590  1.00  0.00    -0.354 N 
ATOM     56  N   UNL A   1      41.015  31.092  34.910  1.00  0.00    -0.248 NA
ATOM     57  C   UNL A   1      41.648  31.757  37.056  1.00  0.00     0.031 C 
ATOM     58  C   UNL A   1      42.963  27.798  32.641  1.00  0.00     0.029 A 
ATOM     59  C   UNL A   1      42.370  28.820  33.366  1.00  0.00     0.049 A 
ATOM     60  H   UNL A   1      40.722  30.032  32.849  1.00  0.00     0.167 HD
ATOM     61  C   UNL A   1      42.095  30.324  35.323  1.00  0.00     0.074 A 
ATOM     62  C   UNL A   1      42.461  30.796  36.642  1.00  0.00     0.031 C 
ATOM     63  C   UNL A   1      42.724  29.317  34.670  1.00  0.00     0.037 A 
BRANCH  50  64
ATOM     64  C   UNL A   1      40.332  27.983  29.132  1.00  0.00     0.064 A 
ATOM     65  C   UNL A   1      39.611  26.781  29.081  1.00  0.00     0.173 A 
ATOM     66  C   UNL A   1      41.069  28.356  27.998  1.00  0.00     0.173 A 
ATOM     67  F   UNL A   1      38.905  26.372  30.147  1.00  0.00    -0.203 F 
ATOM     68  C   UNL A   1      39.649  25.969  27.952  1.00  0.00     0.198 A 
ATOM     69  C   UNL A   1      41.084  27.555  26.860  1.00  0.00     0.198 A 
ATOM     70  F   UNL A   1      41.776  29.496  27.996  1.00  0.00    -0.203 F 
ATOM     71  F   UNL A   1      38.996  24.799  27.946  1.00  0.00    -0.200 F 
ATOM     72  C   UNL A   1      40.381  26.359  26.839  1.00  0.00     0.200 A 
ATOM     73  F   UNL A   1      41.783  27.938  25.783  1.00  0.00    -0.200 F 
ATOM     74  F   UNL A   1      40.417  25.577  25.753  1.00  0.00    -0.200 F 
ENDBRANCH  50  64
BRANCH  51  75
ATOM     75  C   UNL A   1      39.600  33.847  37.196  1.00  0.00     0.064 A 
ATOM     76  C   UNL A   1      38.791  33.448  38.268  1.00  0.00     0.173 A 
ATOM     77  C   UNL A   1      40.287  35.063  37.312  1.00  0.00     0.173 A 
ATOM     78  F   UNL A   1      38.100  32.300  38.193  1.00  0.00    -0.203 F 
ATOM     79  C   UNL A   1      38.658  34.241  39.406  1.00  0.00     0.198 A 
ATOM     80  C   UNL A   1      40.172  35.846  38.460  1.00  0.00     0.198 A 
ATOM     81  F   UNL A   1      41.079  35.486  36.316  1.00  0.00    -0.203 F 
ATOM     82  F   UNL A   1      37.848  33.854  40.399  1.00  0.00    -0.200 F 
ATOM     83  C   UNL A   1      39.353  35.437  39.502  1.00  0.00     0.200 A 
ATOM     84  F   UNL A   1      40.855  36.995  38.556  1.00  0.00    -0.200 F 
ATOM     85  F   UNL A   1      39.229  36.200  40.598  1.00  0.00    -0.200 F 
ENDBRANCH  51  75
BRANCH  63  86
ATOM     86  C   UNL A   1      43.895  28.682  35.357  1.00  0.00     0.064 A 
ATOM     87  C   UNL A   1      45.203  29.138  35.144  1.00  0.00     0.173 A 
ATOM     88  C   UNL A   1      43.698  27.642  36.277  1.00  0.00     0.173 A 
ATOM     89  F   UNL A   1      45.439  30.120  34.261  1.00  0.00    -0.203 F 
ATOM     90  C   UNL A   1      46.276  28.563  35.817  1.00  0.00     0.198 A 
ATOM     91  C   UNL A   1      44.771  27.086  36.965  1.00  0.00     0.198 A 
ATOM     92  F   UNL A   1      42.463  27.175  36.516  1.00  0.00    -0.203 F 
ATOM     93  F   UNL A   1      47.523  28.990  35.573  1.00  0.00    -0.200 F 
ATOM     94  C   UNL A   1      46.059  27.543  36.733  1.00  0.00     0.200 A 
ATOM     95  F   UNL A   1      44.558  26.108  37.858  1.00  0.00    -0.200 F 
ATOM     96  F   UNL A   1      47.093  26.998  37.386  1.00  0.00    -0.200 F 
ENDBRANCH  63  86
ENDBRANCH  37  38
ENDBRANCH  29  32
ENDBRANCH  27  28
ENDBRANCH  26  27
ENDBRANCH   1  26
TORSDOF 15
ENDMDL
