MODEL 1
REMARK VINA RESULT:     -11.9      0.000      0.000
REMARK SMILES CCc1ccsc1C(=O)N(CC(=O)NCCCCNC(=O)c1ccc(-c2c3nc(c(-c4c(F)c(F)c(F)c(F)c4F)c4ccc([nH]4)c(-c4c(F)c(F)c(F)c(F)c4F)c4nc(c(-c5c(F)c(F)c(F)c(F)c5F)c5ccc2[nH]5)C=C4)C=C3)cc1)c1ccccc1N
REMARK SMILES IDX 15 1 14 2 12 3 13 4 11 6 10 7 8 8 9 9 7 10 3 11 4 12 5 13
REMARK SMILES IDX 6 14 2 15 1 16 85 17 86 18 90 19 87 20 89 21 88 22 91 23
REMARK SMILES IDX 16 26 17 27 18 28 19 29 20 30 21 32 22 33 23 34 84 35 24 36
REMARK SMILES IDX 83 37 25 38 26 39 27 40 77 41 28 42 82 43 76 44 78 45 29 46
REMARK SMILES IDX 81 47 75 48 74 49 30 51 62 52 42 53 61 54 43 55 46 56 60 57
REMARK SMILES IDX 79 58 44 59 45 60 59 62 80 63 47 64 31 65 32 66 40 67 33 68
REMARK SMILES IDX 34 69 38 70 41 71 35 72 36 73 39 74 37 75 63 76 64 77 72 78
REMARK SMILES IDX 65 79 66 80 70 81 73 82 67 83 68 84 71 85 69 86 48 87 49 88
REMARK SMILES IDX 57 89 50 90 51 91 55 92 58 93 52 94 53 95 56 96 54 97
REMARK H PARENT 14 5 91 24 91 25 19 31 78 50 46 61
REMARK Flexibility Score: inf
ROOT
ATOM      1  C   UNL A   1      32.521  29.712  26.894  1.00  0.00     0.116 C 
ENDROOT
BRANCH   1   2
ATOM      2  N   UNL A   1      31.847  28.439  27.012  1.00  0.00    -0.355 N 
ATOM      3  C   UNL A   1      32.099  27.227  26.453  1.00  0.00     0.240 C 
ATOM      4  O   UNL A   1      31.500  26.269  26.959  1.00  0.00    -0.273 OA
ATOM      5  H   UNL A   1      31.062  28.452  27.608  1.00  0.00     0.163 HD
BRANCH   3   6
ATOM      6  C   UNL A   1      33.140  26.958  25.348  1.00  0.00     0.226 C 
BRANCH   6   7
ATOM      7  N   UNL A   1      32.764  26.435  24.041  1.00  0.00    -0.296 N 
BRANCH   7   8
ATOM      8  C   UNL A   1      33.388  25.354  23.363  1.00  0.00     0.269 C 
ATOM      9  O   UNL A   1      33.766  25.595  22.203  1.00  0.00    -0.268 OA
BRANCH   8  10
ATOM     10  C   UNL A   1      33.741  23.992  23.934  1.00  0.00     0.096 A 
ATOM     11  C   UNL A   1      34.676  23.345  24.780  1.00  0.00    -0.025 A 
ATOM     12  C   UNL A   1      34.482  21.905  24.779  1.00  0.00     0.016 A 
ATOM     13  C   UNL A   1      33.452  21.469  23.999  1.00  0.00     0.066 A 
ATOM     14  S   UNL A   1      32.646  22.754  23.279  1.00  0.00    -0.138 S 
BRANCH  11  15
ATOM     15  C   UNL A   1      35.799  23.920  25.616  1.00  0.00     0.034 C 
ATOM     16  C   UNL A   1      37.233  23.624  25.189  1.00  0.00     0.009 C 
ENDBRANCH  11  15
ENDBRANCH   8  10
ENDBRANCH   7   8
BRANCH   7  17
ATOM     17  C   UNL A   1      31.519  27.045  23.541  1.00  0.00     0.068 A 
ATOM     18  C   UNL A   1      31.592  28.346  22.987  1.00  0.00     0.028 A 
ATOM     19  C   UNL A   1      30.227  26.484  23.711  1.00  0.00     0.056 A 
ATOM     20  C   UNL A   1      30.456  29.107  22.708  1.00  0.00     0.002 A 
ATOM     21  C   UNL A   1      29.094  27.288  23.471  1.00  0.00     0.028 A 
ATOM     22  C   UNL A   1      29.203  28.585  22.975  1.00  0.00     0.002 A 
BRANCH  19  23
ATOM     23  N   UNL A   1      29.994  25.241  24.318  1.00  0.00    -0.397 N 
ATOM     24  H   UNL A   1      29.096  25.019  24.656  1.00  0.00     0.156 HD
ATOM     25  H   UNL A   1      30.728  24.591  24.407  1.00  0.00     0.156 HD
ENDBRANCH  19  23
ENDBRANCH   7  17
ENDBRANCH   6   7
ENDBRANCH   3   6
ENDBRANCH   1   2
BRANCH   1  26
ATOM     26  C   UNL A   1      31.771  30.734  26.050  1.00  0.00     0.023 C 
BRANCH  26  27
ATOM     27  C   UNL A   1      31.426  32.029  26.783  1.00  0.00     0.023 C 
BRANCH  27  28
ATOM     28  C   UNL A   1      32.616  32.810  27.331  1.00  0.00     0.116 C 
BRANCH  28  29
ATOM     29  N   UNL A   1      32.317  34.202  27.630  1.00  0.00    -0.352 N 
ATOM     30  C   UNL A   1      32.928  35.033  28.539  1.00  0.00     0.251 C 
ATOM     31  H   UNL A   1      31.579  34.600  27.115  1.00  0.00     0.163 HD
ATOM     32  O   UNL A   1      32.496  36.164  28.739  1.00  0.00    -0.269 OA
BRANCH  30  33
ATOM     33  C   UNL A   1      34.090  34.542  29.309  1.00  0.00     0.039 A 
ATOM     34  C   UNL A   1      33.868  33.933  30.546  1.00  0.00     0.014 A 
ATOM     35  C   UNL A   1      35.387  34.650  28.800  1.00  0.00     0.014 A 
ATOM     36  C   UNL A   1      34.939  33.365  31.239  1.00  0.00     0.010 A 
ATOM     37  C   UNL A   1      36.442  34.022  29.457  1.00  0.00     0.010 A 
ATOM     38  C   UNL A   1      36.228  33.370  30.681  1.00  0.00    -0.014 A 
BRANCH  38  39
ATOM     39  C   UNL A   1      37.362  32.694  31.362  1.00  0.00     0.031 A 
ATOM     40  C   UNL A   1      38.049  31.527  30.708  1.00  0.00     0.074 A 
ATOM     41  C   UNL A   1      37.740  33.099  32.591  1.00  0.00     0.049 A 
ATOM     42  N   UNL A   1      39.012  30.770  31.168  1.00  0.00    -0.248 NA
ATOM     43  C   UNL A   1      37.574  31.148  29.368  1.00  0.00     0.031 C 
ATOM     44  C   UNL A   1      37.126  34.192  33.349  1.00  0.00     0.029 A 
ATOM     45  N   UNL A   1      38.727  32.632  33.423  1.00  0.00    -0.354 N 
ATOM     46  C   UNL A   1      39.256  29.826  30.178  1.00  0.00     0.074 A 
ATOM     47  C   UNL A   1      38.299  30.067  29.120  1.00  0.00     0.031 C 
ATOM     48  C   UNL A   1      37.768  34.328  34.521  1.00  0.00     0.029 A 
ATOM     49  C   UNL A   1      38.811  33.313  34.615  1.00  0.00     0.049 A 
ATOM     50  H   UNL A   1      39.319  31.881  33.189  1.00  0.00     0.167 HD
ATOM     51  C   UNL A   1      40.210  28.867  30.142  1.00  0.00     0.037 A 
ATOM     52  C   UNL A   1      39.637  33.132  35.663  1.00  0.00     0.037 A 
ATOM     53  C   UNL A   1      41.173  28.638  31.187  1.00  0.00     0.049 A 
ATOM     54  C   UNL A   1      40.672  32.040  35.604  1.00  0.00     0.074 A 
ATOM     55  C   UNL A   1      42.195  27.706  31.232  1.00  0.00     0.029 A 
ATOM     56  N   UNL A   1      41.235  29.357  32.371  1.00  0.00    -0.354 N 
ATOM     57  N   UNL A   1      40.925  31.190  34.640  1.00  0.00    -0.248 NA
ATOM     58  C   UNL A   1      41.540  31.889  36.780  1.00  0.00     0.031 C 
ATOM     59  C   UNL A   1      42.855  27.838  32.458  1.00  0.00     0.029 A 
ATOM     60  C   UNL A   1      42.272  28.882  33.158  1.00  0.00     0.049 A 
ATOM     61  H   UNL A   1      40.633  30.095  32.617  1.00  0.00     0.167 HD
ATOM     62  C   UNL A   1      42.002  30.429  35.075  1.00  0.00     0.074 A 
ATOM     63  C   UNL A   1      42.364  30.929  36.385  1.00  0.00     0.031 C 
ATOM     64  C   UNL A   1      42.634  29.407  34.449  1.00  0.00     0.037 A 
BRANCH  51  65
ATOM     65  C   UNL A   1      40.275  28.000  28.919  1.00  0.00     0.064 A 
ATOM     66  C   UNL A   1      41.036  28.373  27.800  1.00  0.00     0.173 A 
ATOM     67  C   UNL A   1      39.612  26.763  28.879  1.00  0.00     0.173 A 
ATOM     68  F   UNL A   1      41.677  29.551  27.783  1.00  0.00    -0.203 F 
ATOM     69  C   UNL A   1      41.114  27.551  26.680  1.00  0.00     0.198 A 
ATOM     70  C   UNL A   1      39.716  25.930  27.768  1.00  0.00     0.198 A 
ATOM     71  F   UNL A   1      38.875  26.357  29.924  1.00  0.00    -0.203 F 
ATOM     72  F   UNL A   1      41.813  27.948  25.608  1.00  0.00    -0.200 F 
ATOM     73  C   UNL A   1      40.462  26.327  26.667  1.00  0.00     0.200 A 
ATOM     74  F   UNL A   1      39.095  24.743  27.762  1.00  0.00    -0.200 F 
ATOM     75  F   UNL A   1      40.547  25.532  25.593  1.00  0.00    -0.200 F 
ENDBRANCH  51  65
BRANCH  52  76
ATOM     76  C   UNL A   1      39.543  34.017  36.855  1.00  0.00     0.064 A 
ATOM     77  C   UNL A   1      40.236  35.236  36.900  1.00  0.00     0.173 A 
ATOM     78  C   UNL A   1      38.800  33.649  37.985  1.00  0.00     0.173 A 
ATOM     79  F   UNL A   1      40.981  35.621  35.852  1.00  0.00    -0.203 F 
ATOM     80  C   UNL A   1      40.216  36.035  38.041  1.00  0.00     0.198 A 
ATOM     81  C   UNL A   1      38.754  34.464  39.114  1.00  0.00     0.198 A 
ATOM     82  F   UNL A   1      38.116  32.494  37.993  1.00  0.00    -0.203 F 
ATOM     83  F   UNL A   1      40.938  37.163  38.078  1.00  0.00    -0.200 F 
ATOM     84  C   UNL A   1      39.473  35.650  39.146  1.00  0.00     0.200 A 
ATOM     85  F   UNL A   1      38.026  34.094  40.176  1.00  0.00    -0.200 F 
ATOM     86  F   UNL A   1      39.459  36.415  40.246  1.00  0.00    -0.200 F 
ENDBRANCH  52  76
BRANCH  64  87
ATOM     87  C   UNL A   1      43.813  28.797  35.148  1.00  0.00     0.064 A 
ATOM     88  C   UNL A   1      45.120  29.258  34.931  1.00  0.00     0.173 A 
ATOM     89  C   UNL A   1      43.627  27.758  36.072  1.00  0.00     0.173 A 
ATOM     90  F   UNL A   1      45.350  30.240  34.046  1.00  0.00    -0.203 F 
ATOM     91  C   UNL A   1      46.200  28.680  35.591  1.00  0.00     0.198 A 
ATOM     92  C   UNL A   1      44.708  27.203  36.753  1.00  0.00     0.198 A 
ATOM     93  F   UNL A   1      42.396  27.285  36.322  1.00  0.00    -0.203 F 
ATOM     94  F   UNL A   1      47.445  29.102  35.329  1.00  0.00    -0.200 F 
ATOM     95  C   UNL A   1      45.994  27.659  36.506  1.00  0.00     0.200 A 
ATOM     96  F   UNL A   1      44.504  26.225  37.647  1.00  0.00    -0.200 F 
ATOM     97  F   UNL A   1      47.036  27.108  37.144  1.00  0.00    -0.200 F 
ENDBRANCH  64  87
ENDBRANCH  38  39
ENDBRANCH  30  33
ENDBRANCH  28  29
ENDBRANCH  27  28
ENDBRANCH  26  27
ENDBRANCH   1  26
TORSDOF 17
ENDMDL
MODEL 2
REMARK VINA RESULT:     -11.8      0.764      7.346
REMARK SMILES CCc1ccsc1C(=O)N(CC(=O)NCCCCNC(=O)c1ccc(-c2c3nc(c(-c4c(F)c(F)c(F)c(F)c4F)c4ccc([nH]4)c(-c4c(F)c(F)c(F)c(F)c4F)c4nc(c(-c5c(F)c(F)c(F)c(F)c5F)c5ccc2[nH]5)C=C4)C=C3)cc1)c1ccccc1N
REMARK SMILES IDX 15 1 14 2 12 3 13 4 11 6 10 7 8 8 9 9 7 10 3 11 4 12 5 13
REMARK SMILES IDX 6 14 2 15 1 16 85 17 86 18 90 19 87 20 89 21 88 22 91 23
REMARK SMILES IDX 16 26 17 27 18 28 19 29 20 30 21 32 22 33 23 34 84 35 24 36
REMARK SMILES IDX 83 37 25 38 26 39 27 40 77 41 28 42 82 43 76 44 78 45 29 46
REMARK SMILES IDX 81 47 75 48 74 49 30 51 62 52 42 53 61 54 43 55 46 56 60 57
REMARK SMILES IDX 79 58 44 59 45 60 59 62 80 63 47 64 31 65 32 66 40 67 33 68
REMARK SMILES IDX 34 69 38 70 41 71 35 72 36 73 39 74 37 75 63 76 64 77 72 78
REMARK SMILES IDX 65 79 66 80 70 81 73 82 67 83 68 84 71 85 69 86 48 87 49 88
REMARK SMILES IDX 57 89 50 90 51 91 55 92 58 93 52 94 53 95 56 96 54 97
REMARK H PARENT 14 5 91 24 91 25 19 31 78 50 46 61
REMARK Flexibility Score: inf
ROOT
ATOM      1  C   UNL A   1      32.180  29.595  27.243  1.00  0.00     0.116 C 
ENDROOT
BRANCH   1   2
ATOM      2  N   UNL A   1      31.611  28.266  27.203  1.00  0.00    -0.355 N 
ATOM      3  C   UNL A   1      31.945  27.162  26.486  1.00  0.00     0.240 C 
ATOM      4  O   UNL A   1      31.435  26.100  26.871  1.00  0.00    -0.273 OA
ATOM      5  H   UNL A   1      30.842  28.139  27.805  1.00  0.00     0.163 HD
BRANCH   3   6
ATOM      6  C   UNL A   1      32.978  27.122  25.343  1.00  0.00     0.226 C 
BRANCH   6   7
ATOM      7  N   UNL A   1      32.649  26.608  24.020  1.00  0.00    -0.296 N 
BRANCH   7   8
ATOM      8  C   UNL A   1      33.270  25.506  23.374  1.00  0.00     0.269 C 
ATOM      9  O   UNL A   1      33.635  25.706  22.202  1.00  0.00    -0.268 OA
BRANCH   8  10
ATOM     10  C   UNL A   1      33.634  24.166  23.989  1.00  0.00     0.096 A 
ATOM     11  C   UNL A   1      34.648  23.524  24.743  1.00  0.00    -0.025 A 
ATOM     12  C   UNL A   1      34.387  22.100  24.876  1.00  0.00     0.016 A 
ATOM     13  C   UNL A   1      33.235  21.674  24.281  1.00  0.00     0.066 A 
ATOM     14  S   UNL A   1      32.398  22.954  23.586  1.00  0.00    -0.138 S 
BRANCH  11  15
ATOM     15  C   UNL A   1      35.906  24.086  25.370  1.00  0.00     0.034 C 
ATOM     16  C   UNL A   1      37.048  23.121  25.672  1.00  0.00     0.009 C 
ENDBRANCH  11  15
ENDBRANCH   8  10
ENDBRANCH   7   8
BRANCH   7  17
ATOM     17  C   UNL A   1      31.450  27.256  23.459  1.00  0.00     0.068 A 
ATOM     18  C   UNL A   1      31.600  28.534  22.868  1.00  0.00     0.028 A 
ATOM     19  C   UNL A   1      30.129  26.759  23.603  1.00  0.00     0.056 A 
ATOM     20  C   UNL A   1      30.509  29.335  22.527  1.00  0.00     0.002 A 
ATOM     21  C   UNL A   1      29.042  27.604  23.300  1.00  0.00     0.028 A 
ATOM     22  C   UNL A   1      29.225  28.879  22.768  1.00  0.00     0.002 A 
BRANCH  19  23
ATOM     23  N   UNL A   1      29.819  25.549  24.240  1.00  0.00    -0.397 N 
ATOM     24  H   UNL A   1      30.051  25.418  25.188  1.00  0.00     0.156 HD
ATOM     25  H   UNL A   1      29.370  24.830  23.740  1.00  0.00     0.156 HD
ENDBRANCH  19  23
ENDBRANCH   7  17
ENDBRANCH   6   7
ENDBRANCH   3   6
ENDBRANCH   1   2
BRANCH   1  26
ATOM     26  C   UNL A   1      31.673  30.519  26.144  1.00  0.00     0.023 C 
BRANCH  26  27
ATOM     27  C   UNL A   1      31.450  31.964  26.587  1.00  0.00     0.023 C 
BRANCH  27  28
ATOM     28  C   UNL A   1      32.655  32.648  27.224  1.00  0.00     0.116 C 
BRANCH  28  29
ATOM     29  N   UNL A   1      32.406  34.024  27.624  1.00  0.00    -0.352 N 
ATOM     30  C   UNL A   1      33.066  34.776  28.567  1.00  0.00     0.251 C 
ATOM     31  H   UNL A   1      31.665  34.476  27.160  1.00  0.00     0.163 HD
ATOM     32  O   UNL A   1      32.673  35.902  28.855  1.00  0.00    -0.269 OA
BRANCH  30  33
ATOM     33  C   UNL A   1      34.236  34.203  29.266  1.00  0.00     0.039 A 
ATOM     34  C   UNL A   1      34.021  33.408  30.394  1.00  0.00     0.014 A 
ATOM     35  C   UNL A   1      35.533  34.420  28.794  1.00  0.00     0.014 A 
ATOM     36  C   UNL A   1      35.102  32.768  31.005  1.00  0.00     0.010 A 
ATOM     37  C   UNL A   1      36.599  33.727  29.360  1.00  0.00     0.010 A 
ATOM     38  C   UNL A   1      36.394  32.891  30.468  1.00  0.00    -0.014 A 
BRANCH  38  39
ATOM     39  C   UNL A   1      37.541  32.149  31.052  1.00  0.00     0.031 A 
ATOM     40  C   UNL A   1      38.045  32.496  32.425  1.00  0.00     0.074 A 
ATOM     41  C   UNL A   1      38.160  31.198  30.325  1.00  0.00     0.049 A 
ATOM     42  N   UNL A   1      39.068  32.007  33.079  1.00  0.00    -0.248 NA
ATOM     43  C   UNL A   1      37.315  33.547  33.151  1.00  0.00     0.031 C 
ATOM     44  C   UNL A   1      37.793  30.797  28.965  1.00  0.00     0.029 A 
ATOM     45  N   UNL A   1      39.236  30.399  30.626  1.00  0.00    -0.354 N 
ATOM     46  C   UNL A   1      39.105  32.692  34.287  1.00  0.00     0.074 A 
ATOM     47  C   UNL A   1      38.042  33.672  34.251  1.00  0.00     0.031 C 
ATOM     48  C   UNL A   1      38.610  29.811  28.561  1.00  0.00     0.029 A 
ATOM     49  C   UNL A   1      39.581  29.534  29.614  1.00  0.00     0.049 A 
ATOM     50  H   UNL A   1      39.714  30.441  31.485  1.00  0.00     0.167 HD
ATOM     51  C   UNL A   1      39.932  32.500  35.343  1.00  0.00     0.037 A 
ATOM     52  C   UNL A   1      40.572  28.625  29.547  1.00  0.00     0.037 A 
ATOM     53  C   UNL A   1      40.979  31.513  35.385  1.00  0.00     0.049 A 
ATOM     54  C   UNL A   1      41.491  28.452  30.727  1.00  0.00     0.074 A 
ATOM     55  C   UNL A   1      41.854  31.226  36.418  1.00  0.00     0.029 A 
ATOM     56  N   UNL A   1      41.289  30.648  34.347  1.00  0.00    -0.354 N 
ATOM     57  N   UNL A   1      41.482  29.070  31.883  1.00  0.00    -0.248 NA
ATOM     58  C   UNL A   1      42.556  27.448  30.592  1.00  0.00     0.031 C 
ATOM     59  C   UNL A   1      42.715  30.209  35.994  1.00  0.00     0.029 A 
ATOM     60  C   UNL A   1      42.348  29.833  34.712  1.00  0.00     0.049 A 
ATOM     61  H   UNL A   1      40.825  30.617  33.479  1.00  0.00     0.167 HD
ATOM     62  C   UNL A   1      42.511  28.506  32.625  1.00  0.00     0.074 A 
ATOM     63  C   UNL A   1      43.115  27.486  31.794  1.00  0.00     0.031 C 
ATOM     64  C   UNL A   1      42.921  28.806  33.881  1.00  0.00     0.037 A 
BRANCH  51  65
ATOM     65  C   UNL A   1      39.723  33.363  36.552  1.00  0.00     0.064 A 
ATOM     66  C   UNL A   1      40.388  34.591  36.694  1.00  0.00     0.173 A 
ATOM     67  C   UNL A   1      38.816  32.988  37.555  1.00  0.00     0.173 A 
ATOM     68  F   UNL A   1      41.275  34.989  35.769  1.00  0.00    -0.203 F 
ATOM     69  C   UNL A   1      40.169  35.400  37.805  1.00  0.00     0.198 A 
ATOM     70  C   UNL A   1      38.578  33.814  38.650  1.00  0.00     0.198 A 
ATOM     71  F   UNL A   1      38.151  31.827  37.465  1.00  0.00    -0.203 F 
ATOM     72  F   UNL A   1      40.847  36.548  37.939  1.00  0.00    -0.200 F 
ATOM     73  C   UNL A   1      39.259  35.016  38.777  1.00  0.00     0.200 A 
ATOM     74  F   UNL A   1      37.689  33.447  39.583  1.00  0.00    -0.200 F 
ATOM     75  F   UNL A   1      39.041  35.802  39.840  1.00  0.00    -0.200 F 
ENDBRANCH  51  65
BRANCH  52  76
ATOM     76  C   UNL A   1      40.741  27.785  28.331  1.00  0.00     0.064 A 
ATOM     77  C   UNL A   1      40.132  26.525  28.239  1.00  0.00     0.173 A 
ATOM     78  C   UNL A   1      41.544  28.200  27.259  1.00  0.00     0.173 A 
ATOM     79  F   UNL A   1      39.373  26.074  29.249  1.00  0.00    -0.203 F 
ATOM     80  C   UNL A   1      40.346  25.700  27.137  1.00  0.00     0.198 A 
ATOM     81  C   UNL A   1      41.733  27.387  26.144  1.00  0.00     0.198 A 
ATOM     82  F   UNL A   1      42.148  29.398  27.296  1.00  0.00    -0.203 F 
ATOM     83  F   UNL A   1      39.801  24.476  27.105  1.00  0.00    -0.200 F 
ATOM     84  C   UNL A   1      41.143  26.132  26.090  1.00  0.00     0.200 A 
ATOM     85  F   UNL A   1      42.495  27.813  25.128  1.00  0.00    -0.200 F 
ATOM     86  F   UNL A   1      41.355  25.336  25.033  1.00  0.00    -0.200 F 
ENDBRANCH  52  76
BRANCH  64  87
ATOM     87  C   UNL A   1      44.042  27.987  34.451  1.00  0.00     0.064 A 
ATOM     88  C   UNL A   1      43.806  26.774  35.114  1.00  0.00     0.173 A 
ATOM     89  C   UNL A   1      45.372  28.408  34.303  1.00  0.00     0.173 A 
ATOM     90  F   UNL A   1      42.550  26.336  35.294  1.00  0.00    -0.203 F 
ATOM     91  C   UNL A   1      44.860  26.028  35.635  1.00  0.00     0.198 A 
ATOM     92  C   UNL A   1      46.425  27.644  34.799  1.00  0.00     0.198 A 
ATOM     93  F   UNL A   1      45.652  29.558  33.670  1.00  0.00    -0.203 F 
ATOM     94  F   UNL A   1      44.607  24.898  36.311  1.00  0.00    -0.200 F 
ATOM     95  C   UNL A   1      46.168  26.459  35.471  1.00  0.00     0.200 A 
ATOM     96  F   UNL A   1      47.689  28.056  34.628  1.00  0.00    -0.200 F 
ATOM     97  F   UNL A   1      47.180  25.736  35.969  1.00  0.00    -0.200 F 
ENDBRANCH  64  87
ENDBRANCH  38  39
ENDBRANCH  30  33
ENDBRANCH  28  29
ENDBRANCH  27  28
ENDBRANCH  26  27
ENDBRANCH   1  26
TORSDOF 17
ENDMDL
MODEL 3
REMARK VINA RESULT:     -11.8      1.056      7.439
REMARK SMILES CCc1ccsc1C(=O)N(CC(=O)NCCCCNC(=O)c1ccc(-c2c3nc(c(-c4c(F)c(F)c(F)c(F)c4F)c4ccc([nH]4)c(-c4c(F)c(F)c(F)c(F)c4F)c4nc(c(-c5c(F)c(F)c(F)c(F)c5F)c5ccc2[nH]5)C=C4)C=C3)cc1)c1ccccc1N
REMARK SMILES IDX 15 1 14 2 12 3 13 4 11 6 10 7 8 8 9 9 7 10 3 11 4 12 5 13
REMARK SMILES IDX 6 14 2 15 1 16 85 17 86 18 90 19 87 20 89 21 88 22 91 23
REMARK SMILES IDX 16 26 17 27 18 28 19 29 20 30 21 32 22 33 23 34 84 35 24 36
REMARK SMILES IDX 83 37 25 38 26 39 27 40 77 41 28 42 82 43 76 44 78 45 29 46
REMARK SMILES IDX 81 47 75 48 74 49 30 51 62 52 42 53 61 54 43 55 46 56 60 57
REMARK SMILES IDX 79 58 44 59 45 60 59 62 80 63 47 64 31 65 32 66 40 67 33 68
REMARK SMILES IDX 34 69 38 70 41 71 35 72 36 73 39 74 37 75 63 76 64 77 72 78
REMARK SMILES IDX 65 79 66 80 70 81 73 82 67 83 68 84 71 85 69 86 48 87 49 88
REMARK SMILES IDX 57 89 50 90 51 91 55 92 58 93 52 94 53 95 56 96 54 97
REMARK H PARENT 14 5 91 24 91 25 19 31 78 50 46 61
REMARK Flexibility Score: inf
ROOT
ATOM      1  C   UNL A   1      32.510  30.023  25.550  1.00  0.00     0.116 C 
ENDROOT
BRANCH   1   2
ATOM      2  N   UNL A   1      32.983  28.716  25.946  1.00  0.00    -0.355 N 
ATOM      3  C   UNL A   1      32.442  27.478  25.806  1.00  0.00     0.240 C 
ATOM      4  O   UNL A   1      33.213  26.531  26.010  1.00  0.00    -0.273 OA
ATOM      5  H   UNL A   1      33.857  28.725  26.401  1.00  0.00     0.163 HD
BRANCH   3   6
ATOM      6  C   UNL A   1      31.014  27.184  25.303  1.00  0.00     0.226 C 
BRANCH   6   7
ATOM      7  N   UNL A   1      30.707  27.039  23.887  1.00  0.00    -0.296 N 
BRANCH   7   8
ATOM      8  C   UNL A   1      31.241  26.054  23.013  1.00  0.00     0.269 C 
ATOM      9  O   UNL A   1      31.246  26.353  21.806  1.00  0.00    -0.268 OA
BRANCH   8  10
ATOM     10  C   UNL A   1      31.901  24.743  23.401  1.00  0.00     0.096 A 
ATOM     11  C   UNL A   1      31.785  23.662  24.310  1.00  0.00    -0.025 A 
ATOM     12  C   UNL A   1      32.913  22.753  24.199  1.00  0.00     0.016 A 
ATOM     13  C   UNL A   1      33.831  23.097  23.251  1.00  0.00     0.066 A 
ATOM     14  S   UNL A   1      33.364  24.483  22.425  1.00  0.00    -0.138 S 
BRANCH  11  15
ATOM     15  C   UNL A   1      30.716  23.360  25.340  1.00  0.00     0.034 C 
ATOM     16  C   UNL A   1      31.163  23.046  26.764  1.00  0.00     0.009 C 
ENDBRANCH  11  15
ENDBRANCH   8  10
ENDBRANCH   7   8
BRANCH   7  17
ATOM     17  C   UNL A   1      29.620  27.940  23.463  1.00  0.00     0.068 A 
ATOM     18  C   UNL A   1      29.952  29.278  23.142  1.00  0.00     0.028 A 
ATOM     19  C   UNL A   1      28.242  27.603  23.498  1.00  0.00     0.056 A 
ATOM     20  C   UNL A   1      28.985  30.269  22.966  1.00  0.00     0.002 A 
ATOM     21  C   UNL A   1      27.283  28.629  23.367  1.00  0.00     0.028 A 
ATOM     22  C   UNL A   1      27.646  29.948  23.104  1.00  0.00     0.002 A 
BRANCH  19  23
ATOM     23  N   UNL A   1      27.759  26.343  23.877  1.00  0.00    -0.397 N 
ATOM     24  H   UNL A   1      26.853  26.062  23.613  1.00  0.00     0.156 HD
ATOM     25  H   UNL A   1      28.327  25.737  24.407  1.00  0.00     0.156 HD
ENDBRANCH  19  23
ENDBRANCH   7  17
ENDBRANCH   6   7
ENDBRANCH   3   6
ENDBRANCH   1   2
BRANCH   1  26
ATOM     26  C   UNL A   1      31.481  30.624  26.499  1.00  0.00     0.023 C 
BRANCH  26  27
ATOM     27  C   UNL A   1      31.443  32.152  26.505  1.00  0.00     0.023 C 
BRANCH  27  28
ATOM     28  C   UNL A   1      32.602  32.833  27.225  1.00  0.00     0.116 C 
BRANCH  28  29
ATOM     29  N   UNL A   1      32.319  34.203  27.626  1.00  0.00    -0.352 N 
ATOM     30  C   UNL A   1      32.950  34.963  28.582  1.00  0.00     0.251 C 
ATOM     31  H   UNL A   1      31.577  34.642  27.152  1.00  0.00     0.163 HD
ATOM     32  O   UNL A   1      32.531  36.080  28.869  1.00  0.00    -0.269 OA
BRANCH  30  33
ATOM     33  C   UNL A   1      34.120  34.410  29.298  1.00  0.00     0.039 A 
ATOM     34  C   UNL A   1      33.912  33.731  30.500  1.00  0.00     0.014 A 
ATOM     35  C   UNL A   1      35.408  34.531  28.771  1.00  0.00     0.014 A 
ATOM     36  C   UNL A   1      34.987  33.106  31.137  1.00  0.00     0.010 A 
ATOM     37  C   UNL A   1      36.466  33.851  29.368  1.00  0.00     0.010 A 
ATOM     38  C   UNL A   1      36.265  33.128  30.554  1.00  0.00    -0.014 A 
BRANCH  38  39
ATOM     39  C   UNL A   1      37.402  32.397  31.170  1.00  0.00     0.031 A 
ATOM     40  C   UNL A   1      37.897  32.783  32.537  1.00  0.00     0.074 A 
ATOM     41  C   UNL A   1      38.020  31.419  30.479  1.00  0.00     0.049 A 
ATOM     42  N   UNL A   1      38.911  32.309  33.214  1.00  0.00    -0.248 NA
ATOM     43  C   UNL A   1      37.168  33.862  33.223  1.00  0.00     0.031 C 
ATOM     44  C   UNL A   1      37.662  30.978  29.129  1.00  0.00     0.029 A 
ATOM     45  N   UNL A   1      39.088  30.623  30.814  1.00  0.00    -0.354 N 
ATOM     46  C   UNL A   1      38.943  33.031  34.401  1.00  0.00     0.074 A 
ATOM     47  C   UNL A   1      37.886  34.016  34.325  1.00  0.00     0.031 C 
ATOM     48  C   UNL A   1      38.476  29.974  28.764  1.00  0.00     0.029 A 
ATOM     49  C   UNL A   1      39.435  29.724  29.834  1.00  0.00     0.049 A 
ATOM     50  H   UNL A   1      39.559  30.688  31.677  1.00  0.00     0.167 HD
ATOM     51  C   UNL A   1      39.758  32.866  35.469  1.00  0.00     0.037 A 
ATOM     52  C   UNL A   1      40.421  28.807  29.804  1.00  0.00     0.037 A 
ATOM     53  C   UNL A   1      40.798  31.875  35.552  1.00  0.00     0.049 A 
ATOM     54  C   UNL A   1      41.328  28.665  30.997  1.00  0.00     0.074 A 
ATOM     55  C   UNL A   1      41.662  31.614  36.601  1.00  0.00     0.029 A 
ATOM     56  N   UNL A   1      41.111  30.975  34.544  1.00  0.00    -0.354 N 
ATOM     57  N   UNL A   1      41.314  29.318  32.132  1.00  0.00    -0.248 NA
ATOM     58  C   UNL A   1      42.388  27.650  30.903  1.00  0.00     0.031 C 
ATOM     59  C   UNL A   1      42.519  30.578  36.216  1.00  0.00     0.029 A 
ATOM     60  C   UNL A   1      42.161  30.165  34.944  1.00  0.00     0.049 A 
ATOM     61  H   UNL A   1      40.654  30.920  33.673  1.00  0.00     0.167 HD
ATOM     62  C   UNL A   1      42.332  28.771  32.901  1.00  0.00     0.074 A 
ATOM     63  C   UNL A   1      42.936  27.721  32.108  1.00  0.00     0.031 C 
ATOM     64  C   UNL A   1      42.734  29.108  34.150  1.00  0.00     0.037 A 
BRANCH  51  65
ATOM     65  C   UNL A   1      39.546  33.769  36.648  1.00  0.00     0.064 A 
ATOM     66  C   UNL A   1      38.749  33.374  37.734  1.00  0.00     0.173 A 
ATOM     67  C   UNL A   1      40.181  35.018  36.720  1.00  0.00     0.173 A 
ATOM     68  F   UNL A   1      38.110  32.195  37.708  1.00  0.00    -0.203 F 
ATOM     69  C   UNL A   1      38.579  34.205  38.838  1.00  0.00     0.198 A 
ATOM     70  C   UNL A   1      40.032  35.834  37.839  1.00  0.00     0.198 A 
ATOM     71  F   UNL A   1      40.958  35.442  35.712  1.00  0.00    -0.203 F 
ATOM     72  F   UNL A   1      37.779  33.824  39.843  1.00  0.00    -0.200 F 
ATOM     73  C   UNL A   1      39.226  35.429  38.894  1.00  0.00     0.200 A 
ATOM     74  F   UNL A   1      40.668  37.012  37.897  1.00  0.00    -0.200 F 
ATOM     75  F   UNL A   1      39.070  36.223  39.962  1.00  0.00    -0.200 F 
ENDBRANCH  51  65
BRANCH  52  76
ATOM     76  C   UNL A   1      40.594  27.928  28.617  1.00  0.00     0.064 A 
ATOM     77  C   UNL A   1      41.382  28.337  27.530  1.00  0.00     0.173 A 
ATOM     78  C   UNL A   1      39.949  26.687  28.522  1.00  0.00     0.173 A 
ATOM     79  F   UNL A   1      42.001  29.527  27.564  1.00  0.00    -0.203 F 
ATOM     80  C   UNL A   1      41.490  27.555  26.383  1.00  0.00     0.198 A 
ATOM     81  C   UNL A   1      40.082  25.891  27.386  1.00  0.00     0.198 A 
ATOM     82  F   UNL A   1      39.186  26.247  29.534  1.00  0.00    -0.203 F 
ATOM     83  F   UNL A   1      42.198  28.000  25.336  1.00  0.00    -0.200 F 
ATOM     84  C   UNL A   1      40.843  26.331  26.313  1.00  0.00     0.200 A 
ATOM     85  F   UNL A   1      39.465  24.704  27.327  1.00  0.00    -0.200 F 
ATOM     86  F   UNL A   1      40.940  25.582  25.206  1.00  0.00    -0.200 F 
ENDBRANCH  52  76
BRANCH  64  87
ATOM     87  C   UNL A   1      43.844  28.300  34.756  1.00  0.00     0.064 A 
ATOM     88  C   UNL A   1      43.593  27.121  35.473  1.00  0.00     0.173 A 
ATOM     89  C   UNL A   1      45.180  28.696  34.589  1.00  0.00     0.173 A 
ATOM     90  F   UNL A   1      42.331  26.709  35.672  1.00  0.00    -0.203 F 
ATOM     91  C   UNL A   1      44.636  26.385  36.025  1.00  0.00     0.198 A 
ATOM     92  C   UNL A   1      46.222  27.940  35.117  1.00  0.00     0.198 A 
ATOM     93  F   UNL A   1      45.475  29.812  33.905  1.00  0.00    -0.203 F 
ATOM     94  F   UNL A   1      44.369  25.289  36.751  1.00  0.00    -0.200 F 
ATOM     95  C   UNL A   1      45.950  26.790  35.842  1.00  0.00     0.200 A 
ATOM     96  F   UNL A   1      47.492  28.327  34.928  1.00  0.00    -0.200 F 
ATOM     97  F   UNL A   1      46.953  26.076  36.371  1.00  0.00    -0.200 F 
ENDBRANCH  64  87
ENDBRANCH  38  39
ENDBRANCH  30  33
ENDBRANCH  28  29
ENDBRANCH  27  28
ENDBRANCH  26  27
ENDBRANCH   1  26
TORSDOF 17
ENDMDL
