MODEL 1
REMARK VINA RESULT:     -13.8      0.000      0.000
REMARK SMILES Cc1ccc([C@@H](CC(=O)NCCCCNC(=O)c2ccc(-c3c4nc(c(-c5c(F)c(F)c(F)c(F)c5F)c5ccc([nH]5)c(-c5c(F)c(F)c(F)c(F)c5F)c5nc(c(-c6c(F)c(F)c(F)c(F)c6F)c6ccc3[nH]6)C=C5)C=C4)cc2)NC(=O)c2ccc(OC(F)F)cc2)cc1
REMARK SMILES IDX 11 1 10 2 8 3 9 4 7 6 6 7 5 8 1 9 2 10 3 11 95 12 4 13 94 14
REMARK SMILES IDX 81 15 82 16 83 18 84 19 85 20 93 21 86 22 92 23 87 24 88 25
REMARK SMILES IDX 89 26 90 27 91 28 12 29 13 30 14 31 15 32 16 33 17 35 18 36
REMARK SMILES IDX 19 37 80 38 20 39 79 40 21 41 22 42 23 43 73 44 24 45 78 46
REMARK SMILES IDX 72 47 74 48 25 49 77 50 71 51 70 52 26 54 58 55 38 56 57 57
REMARK SMILES IDX 39 58 42 59 56 60 75 61 40 62 41 63 55 65 76 66 43 67 27 68
REMARK SMILES IDX 28 69 36 70 29 71 30 72 34 73 37 74 31 75 32 76 35 77 33 78
REMARK SMILES IDX 59 79 60 80 68 81 61 82 62 83 66 84 69 85 63 86 64 87 67 88
REMARK SMILES IDX 65 89 44 90 45 91 53 92 46 93 47 94 51 95 54 96 48 97 49 98
REMARK SMILES IDX 52 99 50 100
REMARK H PARENT 10 5 81 17 15 34 74 53 42 64
REMARK Flexibility Score: inf
ROOT
ATOM      1  C   UNL A   1      34.570  22.521  24.982  1.00  0.00     0.116 C 
ENDROOT
BRANCH   1   2
ATOM      2  N   UNL A   1      33.740  21.797  24.025  1.00  0.00    -0.356 N 
ATOM      3  C   UNL A   1      32.619  22.145  23.337  1.00  0.00     0.222 C 
ATOM      4  O   UNL A   1      32.031  21.250  22.724  1.00  0.00    -0.275 OA
ATOM      5  H   UNL A   1      34.053  20.881  23.842  1.00  0.00     0.163 HD
BRANCH   3   6
ATOM      6  C   UNL A   1      32.134  23.576  23.236  1.00  0.00     0.129 C 
BRANCH   6   7
ATOM      7  C   UNL A   1      30.738  23.909  23.811  1.00  0.00     0.122 C 
BRANCH   7   8
ATOM      8  C   UNL A   1      30.338  25.320  23.379  1.00  0.00    -0.025 A 
ATOM      9  C   UNL A   1      29.775  29.585  23.038  1.00  0.00     0.044 C 
ATOM     10  C   UNL A   1      29.912  28.091  23.023  1.00  0.00    -0.051 A 
ATOM     11  C   UNL A   1      28.926  27.287  23.595  1.00  0.00     0.004 A 
ATOM     12  C   UNL A   1      31.067  27.486  22.524  1.00  0.00     0.004 A 
ATOM     13  C   UNL A   1      29.125  25.911  23.745  1.00  0.00     0.006 A 
ATOM     14  C   UNL A   1      31.275  26.116  22.695  1.00  0.00     0.006 A 
ENDBRANCH   7   8
BRANCH   7  15
ATOM     15  N   UNL A   1      30.605  23.696  25.249  1.00  0.00    -0.345 N 
ATOM     16  C   UNL A   1      31.250  24.311  26.292  1.00  0.00     0.251 C 
ATOM     17  H   UNL A   1      29.955  23.005  25.510  1.00  0.00     0.164 HD
ATOM     18  O   UNL A   1      31.319  23.742  27.378  1.00  0.00    -0.269 OA
BRANCH  16  19
ATOM     19  C   UNL A   1      31.833  25.663  26.142  1.00  0.00     0.040 A 
ATOM     20  C   UNL A   1      33.171  25.796  25.758  1.00  0.00     0.017 A 
ATOM     21  C   UNL A   1      31.106  26.798  26.508  1.00  0.00     0.017 A 
ATOM     22  C   UNL A   1      33.755  27.066  25.694  1.00  0.00     0.047 A 
ATOM     23  C   UNL A   1      31.689  28.067  26.428  1.00  0.00     0.047 A 
ATOM     24  C   UNL A   1      33.015  28.210  26.015  1.00  0.00     0.126 A 
BRANCH  24  25
ATOM     25  O   UNL A   1      33.703  29.385  25.912  1.00  0.00    -0.435 OA
BRANCH  25  26
ATOM     26  C   UNL A   1      34.048  30.068  27.111  1.00  0.00     0.542 C 
ATOM     27  F   UNL A   1      32.976  30.752  27.579  1.00  0.00    -0.167 F 
ATOM     28  F   UNL A   1      34.434  29.180  28.059  1.00  0.00    -0.167 F 
ENDBRANCH  25  26
ENDBRANCH  24  25
ENDBRANCH  16  19
ENDBRANCH   7  15
ENDBRANCH   6   7
ENDBRANCH   3   6
ENDBRANCH   1   2
BRANCH   1  29
ATOM     29  C   UNL A   1      35.608  23.387  24.254  1.00  0.00     0.023 C 
BRANCH  29  30
ATOM     30  C   UNL A   1      37.079  23.337  24.685  1.00  0.00     0.023 C 
BRANCH  30  31
ATOM     31  C   UNL A   1      37.441  23.788  26.099  1.00  0.00     0.116 C 
BRANCH  31  32
ATOM     32  N   UNL A   1      38.594  23.106  26.705  1.00  0.00    -0.352 N 
ATOM     33  C   UNL A   1      39.853  23.627  26.973  1.00  0.00     0.251 C 
ATOM     34  H   UNL A   1      38.457  22.163  26.951  1.00  0.00     0.163 HD
ATOM     35  O   UNL A   1      40.840  22.893  27.058  1.00  0.00    -0.269 OA
BRANCH  33  36
ATOM     36  C   UNL A   1      39.990  25.075  27.216  1.00  0.00     0.039 A 
ATOM     37  C   UNL A   1      40.493  26.004  26.292  1.00  0.00     0.014 A 
ATOM     38  C   UNL A   1      39.616  25.493  28.479  1.00  0.00     0.014 A 
ATOM     39  C   UNL A   1      40.575  27.359  26.654  1.00  0.00     0.010 A 
ATOM     40  C   UNL A   1      39.436  26.816  28.728  1.00  0.00     0.010 A 
ATOM     41  C   UNL A   1      40.044  27.747  27.885  1.00  0.00    -0.014 A 
BRANCH  41  42
ATOM     42  C   UNL A   1      40.219  29.017  28.580  1.00  0.00     0.031 A 
ATOM     43  C   UNL A   1      39.135  29.986  28.753  1.00  0.00     0.074 A 
ATOM     44  C   UNL A   1      41.266  28.989  29.439  1.00  0.00     0.049 A 
ATOM     45  N   UNL A   1      39.276  31.114  29.358  1.00  0.00    -0.248 NA
ATOM     46  C   UNL A   1      37.778  29.744  28.289  1.00  0.00     0.031 C 
ATOM     47  C   UNL A   1      41.461  29.687  30.700  1.00  0.00     0.029 A 
ATOM     48  N   UNL A   1      42.429  28.210  29.311  1.00  0.00    -0.354 N 
ATOM     49  C   UNL A   1      38.022  31.610  29.627  1.00  0.00     0.074 A 
ATOM     50  C   UNL A   1      37.128  30.762  28.866  1.00  0.00     0.031 C 
ATOM     51  C   UNL A   1      42.751  29.558  31.064  1.00  0.00     0.029 A 
ATOM     52  C   UNL A   1      43.450  28.933  29.950  1.00  0.00     0.049 A 
ATOM     53  H   UNL A   1      42.511  27.336  28.864  1.00  0.00     0.167 HD
ATOM     54  C   UNL A   1      37.898  32.603  30.561  1.00  0.00     0.037 A 
ATOM     55  C   UNL A   1      44.374  29.534  29.137  1.00  0.00     0.037 A 
ATOM     56  C   UNL A   1      39.215  32.977  31.096  1.00  0.00     0.049 A 
ATOM     57  C   UNL A   1      44.241  31.043  29.111  1.00  0.00     0.074 A 
ATOM     58  C   UNL A   1      39.929  32.652  32.238  1.00  0.00     0.029 A 
ATOM     59  N   UNL A   1      40.129  33.560  30.237  1.00  0.00    -0.354 N 
ATOM     60  N   UNL A   1      43.342  31.716  29.777  1.00  0.00    -0.248 NA
ATOM     61  C   UNL A   1      45.059  31.906  28.262  1.00  0.00     0.031 C 
ATOM     62  C   UNL A   1      41.304  32.976  32.007  1.00  0.00     0.029 A 
ATOM     63  C   UNL A   1      41.417  33.520  30.739  1.00  0.00     0.049 A 
ATOM     64  H   UNL A   1      39.891  33.957  29.369  1.00  0.00     0.167 HD
ATOM     65  C   UNL A   1      43.392  33.029  29.421  1.00  0.00     0.074 A 
ATOM     66  C   UNL A   1      44.495  33.106  28.479  1.00  0.00     0.031 C 
ATOM     67  C   UNL A   1      42.510  33.961  29.884  1.00  0.00     0.037 A 
BRANCH  54  68
ATOM     68  C   UNL A   1      36.598  33.123  31.146  1.00  0.00     0.064 A 
ATOM     69  C   UNL A   1      35.735  33.932  30.371  1.00  0.00     0.173 A 
ATOM     70  C   UNL A   1      36.134  32.868  32.451  1.00  0.00     0.173 A 
ATOM     71  F   UNL A   1      35.990  34.193  29.082  1.00  0.00    -0.203 F 
ATOM     72  C   UNL A   1      34.564  34.501  30.886  1.00  0.00     0.198 A 
ATOM     73  C   UNL A   1      34.991  33.477  32.983  1.00  0.00     0.198 A 
ATOM     74  F   UNL A   1      36.721  31.967  33.243  1.00  0.00    -0.203 F 
ATOM     75  F   UNL A   1      33.786  35.252  30.094  1.00  0.00    -0.200 F 
ATOM     76  C   UNL A   1      34.206  34.298  32.201  1.00  0.00     0.200 A 
ATOM     77  F   UNL A   1      34.647  33.244  34.258  1.00  0.00    -0.200 F 
ATOM     78  F   UNL A   1      33.100  34.861  32.704  1.00  0.00    -0.200 F 
ENDBRANCH  54  68
BRANCH  55  79
ATOM     79  C   UNL A   1      44.670  28.664  27.946  1.00  0.00     0.064 A 
ATOM     80  C   UNL A   1      45.296  27.420  28.190  1.00  0.00     0.173 A 
ATOM     81  C   UNL A   1      43.935  28.787  26.757  1.00  0.00     0.173 A 
ATOM     82  F   UNL A   1      46.003  27.237  29.318  1.00  0.00    -0.203 F 
ATOM     83  C   UNL A   1      45.056  26.314  27.376  1.00  0.00     0.198 A 
ATOM     84  C   UNL A   1      43.717  27.680  25.931  1.00  0.00     0.198 A 
ATOM     85  F   UNL A   1      43.314  29.937  26.457  1.00  0.00    -0.203 F 
ATOM     86  F   UNL A   1      45.536  25.111  27.726  1.00  0.00    -0.200 F 
ATOM     87  C   UNL A   1      44.240  26.438  26.265  1.00  0.00     0.200 A 
ATOM     88  F   UNL A   1      42.924  27.797  24.856  1.00  0.00    -0.200 F 
ATOM     89  F   UNL A   1      43.926  25.356  25.539  1.00  0.00    -0.200 F 
ENDBRANCH  55  79
BRANCH  67  90
ATOM     90  C   UNL A   1      42.644  35.404  29.516  1.00  0.00     0.064 A 
ATOM     91  C   UNL A   1      42.039  35.917  28.358  1.00  0.00     0.173 A 
ATOM     92  C   UNL A   1      43.459  36.290  30.246  1.00  0.00     0.173 A 
ATOM     93  F   UNL A   1      41.289  35.129  27.572  1.00  0.00    -0.203 F 
ATOM     94  C   UNL A   1      42.194  37.250  27.986  1.00  0.00     0.198 A 
ATOM     95  C   UNL A   1      43.664  37.603  29.837  1.00  0.00     0.198 A 
ATOM     96  F   UNL A   1      44.051  35.915  31.390  1.00  0.00    -0.203 F 
ATOM     97  F   UNL A   1      41.541  37.720  26.915  1.00  0.00    -0.200 F 
ATOM     98  C   UNL A   1      43.017  38.089  28.718  1.00  0.00     0.200 A 
ATOM     99  F   UNL A   1      44.483  38.397  30.542  1.00  0.00    -0.200 F 
ATOM    100  F   UNL A   1      43.180  39.367  28.349  1.00  0.00    -0.200 F 
ENDBRANCH  67  90
ENDBRANCH  41  42
ENDBRANCH  33  36
ENDBRANCH  31  32
ENDBRANCH  30  31
ENDBRANCH  29  30
ENDBRANCH   1  29
TORSDOF 17
ENDMDL
MODEL 2
REMARK VINA RESULT:     -13.7      3.912      9.918
REMARK SMILES Cc1ccc([C@@H](CC(=O)NCCCCNC(=O)c2ccc(-c3c4nc(c(-c5c(F)c(F)c(F)c(F)c5F)c5ccc([nH]5)c(-c5c(F)c(F)c(F)c(F)c5F)c5nc(c(-c6c(F)c(F)c(F)c(F)c6F)c6ccc3[nH]6)C=C5)C=C4)cc2)NC(=O)c2ccc(OC(F)F)cc2)cc1
REMARK SMILES IDX 11 1 10 2 8 3 9 4 7 6 6 7 5 8 1 9 2 10 3 11 95 12 4 13 94 14
REMARK SMILES IDX 81 15 82 16 83 18 84 19 85 20 93 21 86 22 92 23 87 24 88 25
REMARK SMILES IDX 89 26 90 27 91 28 12 29 13 30 14 31 15 32 16 33 17 35 18 36
REMARK SMILES IDX 19 37 80 38 20 39 79 40 21 41 22 42 23 43 73 44 24 45 78 46
REMARK SMILES IDX 72 47 74 48 25 49 77 50 71 51 70 52 26 54 58 55 38 56 57 57
REMARK SMILES IDX 39 58 42 59 56 60 75 61 40 62 41 63 55 65 76 66 43 67 27 68
REMARK SMILES IDX 28 69 36 70 29 71 30 72 34 73 37 74 31 75 32 76 35 77 33 78
REMARK SMILES IDX 59 79 60 80 68 81 61 82 62 83 66 84 69 85 63 86 64 87 67 88
REMARK SMILES IDX 65 89 44 90 45 91 53 92 46 93 47 94 51 95 54 96 48 97 49 98
REMARK SMILES IDX 52 99 50 100
REMARK H PARENT 10 5 81 17 15 34 74 53 42 64
REMARK Flexibility Score: inf
ROOT
ATOM      1  C   UNL A   1      31.830  27.927  24.321  1.00  0.00     0.116 C 
ENDROOT
BRANCH   1   2
ATOM      2  N   UNL A   1      32.480  27.536  23.076  1.00  0.00    -0.356 N 
ATOM      3  C   UNL A   1      33.188  26.429  22.720  1.00  0.00     0.222 C 
ATOM      4  O   UNL A   1      33.773  26.458  21.634  1.00  0.00    -0.275 OA
ATOM      5  H   UNL A   1      32.389  28.200  22.355  1.00  0.00     0.163 HD
BRANCH   3   6
ATOM      6  C   UNL A   1      33.205  25.167  23.556  1.00  0.00     0.129 C 
BRANCH   6   7
ATOM      7  C   UNL A   1      33.981  25.196  24.893  1.00  0.00     0.122 C 
BRANCH   7   8
ATOM      8  C   UNL A   1      35.164  24.231  24.810  1.00  0.00    -0.025 A 
ATOM      9  C   UNL A   1      37.771  20.794  24.929  1.00  0.00     0.044 C 
ATOM     10  C   UNL A   1      36.973  22.059  24.818  1.00  0.00    -0.051 A 
ATOM     11  C   UNL A   1      36.963  22.981  25.865  1.00  0.00     0.004 A 
ATOM     12  C   UNL A   1      36.155  22.290  23.711  1.00  0.00     0.004 A 
ATOM     13  C   UNL A   1      36.088  24.071  25.848  1.00  0.00     0.006 A 
ATOM     14  C   UNL A   1      35.264  23.367  23.704  1.00  0.00     0.006 A 
ENDBRANCH   7   8
BRANCH   7  15
ATOM     15  N   UNL A   1      33.157  24.983  26.080  1.00  0.00    -0.345 N 
ATOM     16  C   UNL A   1      32.378  23.909  26.428  1.00  0.00     0.251 C 
ATOM     17  H   UNL A   1      33.160  25.725  26.727  1.00  0.00     0.164 HD
ATOM     18  O   UNL A   1      31.460  24.065  27.231  1.00  0.00    -0.269 OA
BRANCH  16  19
ATOM     19  C   UNL A   1      32.644  22.560  25.882  1.00  0.00     0.040 A 
ATOM     20  C   UNL A   1      32.000  22.152  24.711  1.00  0.00     0.017 A 
ATOM     21  C   UNL A   1      33.423  21.644  26.594  1.00  0.00     0.017 A 
ATOM     22  C   UNL A   1      32.181  20.850  24.233  1.00  0.00     0.047 A 
ATOM     23  C   UNL A   1      33.615  20.348  26.104  1.00  0.00     0.047 A 
ATOM     24  C   UNL A   1      32.999  19.944  24.918  1.00  0.00     0.126 A 
BRANCH  24  25
ATOM     25  O   UNL A   1      33.089  18.708  24.345  1.00  0.00    -0.435 OA
BRANCH  25  26
ATOM     26  C   UNL A   1      34.182  17.876  24.714  1.00  0.00     0.542 C 
ATOM     27  F   UNL A   1      34.024  16.640  24.180  1.00  0.00    -0.167 F 
ATOM     28  F   UNL A   1      35.343  18.396  24.247  1.00  0.00    -0.167 F 
ENDBRANCH  25  26
ENDBRANCH  24  25
ENDBRANCH  16  19
ENDBRANCH   7  15
ENDBRANCH   6   7
ENDBRANCH   3   6
ENDBRANCH   1   2
BRANCH   1  29
ATOM     29  C   UNL A   1      32.663  28.982  25.062  1.00  0.00     0.023 C 
BRANCH  29  30
ATOM     30  C   UNL A   1      33.964  28.573  25.763  1.00  0.00     0.023 C 
BRANCH  30  31
ATOM     31  C   UNL A   1      34.248  29.129  27.157  1.00  0.00     0.116 C 
BRANCH  31  32
ATOM     32  N   UNL A   1      34.796  30.493  27.196  1.00  0.00    -0.352 N 
ATOM     33  C   UNL A   1      35.815  30.983  27.999  1.00  0.00     0.251 C 
ATOM     34  H   UNL A   1      34.388  31.138  26.574  1.00  0.00     0.163 HD
ATOM     35  O   UNL A   1      35.892  32.184  28.267  1.00  0.00    -0.269 OA
BRANCH  33  36
ATOM     36  C   UNL A   1      36.851  30.054  28.486  1.00  0.00     0.039 A 
ATOM     37  C   UNL A   1      36.787  29.333  29.689  1.00  0.00     0.014 A 
ATOM     38  C   UNL A   1      37.968  29.948  27.679  1.00  0.00     0.014 A 
ATOM     39  C   UNL A   1      37.849  28.482  30.039  1.00  0.00     0.010 A 
ATOM     40  C   UNL A   1      38.850  28.934  27.874  1.00  0.00     0.010 A 
ATOM     41  C   UNL A   1      38.880  28.298  29.116  1.00  0.00    -0.014 A 
BRANCH  41  42
ATOM     42  C   UNL A   1      40.180  27.675  29.332  1.00  0.00     0.031 A 
ATOM     43  C   UNL A   1      40.540  26.371  28.771  1.00  0.00     0.074 A 
ATOM     44  C   UNL A   1      41.136  28.583  29.646  1.00  0.00     0.049 A 
ATOM     45  N   UNL A   1      41.682  25.806  28.959  1.00  0.00    -0.248 NA
ATOM     46  C   UNL A   1      39.652  25.608  27.910  1.00  0.00     0.031 C 
ATOM     47  C   UNL A   1      42.562  28.576  29.360  1.00  0.00     0.029 A 
ATOM     48  N   UNL A   1      40.938  29.805  30.311  1.00  0.00    -0.354 N 
ATOM     49  C   UNL A   1      41.804  24.785  28.045  1.00  0.00     0.074 A 
ATOM     50  C   UNL A   1      40.479  24.651  27.475  1.00  0.00     0.031 C 
ATOM     51  C   UNL A   1      43.147  29.545  30.090  1.00  0.00     0.029 A 
ATOM     52  C   UNL A   1      42.136  30.067  30.997  1.00  0.00     0.049 A 
ATOM     53  H   UNL A   1      40.127  30.362  30.298  1.00  0.00     0.167 HD
ATOM     54  C   UNL A   1      43.048  24.268  27.804  1.00  0.00     0.037 A 
ATOM     55  C   UNL A   1      42.108  29.904  32.357  1.00  0.00     0.037 A 
ATOM     56  C   UNL A   1      44.056  24.932  28.644  1.00  0.00     0.049 A 
ATOM     57  C   UNL A   1      42.893  28.693  32.820  1.00  0.00     0.074 A 
ATOM     58  C   UNL A   1      44.968  25.955  28.443  1.00  0.00     0.029 A 
ATOM     59  N   UNL A   1      43.979  24.762  30.014  1.00  0.00    -0.354 N 
ATOM     60  N   UNL A   1      43.525  27.876  32.023  1.00  0.00    -0.248 NA
ATOM     61  C   UNL A   1      42.953  28.262  34.214  1.00  0.00     0.031 C 
ATOM     62  C   UNL A   1      45.369  26.447  29.726  1.00  0.00     0.029 A 
ATOM     63  C   UNL A   1      44.721  25.706  30.700  1.00  0.00     0.049 A 
ATOM     64  H   UNL A   1      43.458  24.051  30.452  1.00  0.00     0.167 HD
ATOM     65  C   UNL A   1      43.997  26.814  32.732  1.00  0.00     0.074 A 
ATOM     66  C   UNL A   1      43.628  27.105  34.107  1.00  0.00     0.031 C 
ATOM     67  C   UNL A   1      44.621  25.748  32.152  1.00  0.00     0.037 A 
BRANCH  54  68
ATOM     68  C   UNL A   1      43.416  23.303  26.692  1.00  0.00     0.064 A 
ATOM     69  C   UNL A   1      43.034  21.943  26.767  1.00  0.00     0.173 A 
ATOM     70  C   UNL A   1      44.135  23.638  25.529  1.00  0.00     0.173 A 
ATOM     71  F   UNL A   1      42.269  21.485  27.766  1.00  0.00    -0.203 F 
ATOM     72  C   UNL A   1      43.413  20.996  25.808  1.00  0.00     0.198 A 
ATOM     73  C   UNL A   1      44.558  22.684  24.596  1.00  0.00     0.198 A 
ATOM     74  F   UNL A   1      44.397  24.907  25.205  1.00  0.00    -0.203 F 
ATOM     75  F   UNL A   1      43.009  19.724  25.934  1.00  0.00    -0.200 F 
ATOM     76  C   UNL A   1      44.201  21.359  24.737  1.00  0.00     0.200 A 
ATOM     77  F   UNL A   1      45.303  23.064  23.547  1.00  0.00    -0.200 F 
ATOM     78  F   UNL A   1      44.586  20.451  23.832  1.00  0.00    -0.200 F 
ENDBRANCH  54  68
BRANCH  55  79
ATOM     79  C   UNL A   1      40.782  30.350  32.913  1.00  0.00     0.064 A 
ATOM     80  C   UNL A   1      40.442  31.714  32.766  1.00  0.00     0.173 A 
ATOM     81  C   UNL A   1      39.726  29.442  33.083  1.00  0.00     0.173 A 
ATOM     82  F   UNL A   1      41.410  32.629  32.586  1.00  0.00    -0.203 F 
ATOM     83  C   UNL A   1      39.116  32.120  32.626  1.00  0.00     0.198 A 
ATOM     84  C   UNL A   1      38.397  29.859  32.967  1.00  0.00     0.198 A 
ATOM     85  F   UNL A   1      39.972  28.132  33.229  1.00  0.00    -0.203 F 
ATOM     86  F   UNL A   1      38.838  33.398  32.328  1.00  0.00    -0.200 F 
ATOM     87  C   UNL A   1      38.096  31.187  32.694  1.00  0.00     0.200 A 
ATOM     88  F   UNL A   1      37.408  28.955  33.028  1.00  0.00    -0.200 F 
ATOM     89  F   UNL A   1      36.830  31.558  32.459  1.00  0.00    -0.200 F 
ENDBRANCH  55  79
BRANCH  67  90
ATOM     90  C   UNL A   1      45.181  24.635  32.979  1.00  0.00     0.064 A 
ATOM     91  C   UNL A   1      44.396  23.525  33.327  1.00  0.00     0.173 A 
ATOM     92  C   UNL A   1      46.475  24.691  33.532  1.00  0.00     0.173 A 
ATOM     93  F   UNL A   1      43.132  23.416  32.890  1.00  0.00    -0.203 F 
ATOM     94  C   UNL A   1      44.897  22.504  34.132  1.00  0.00     0.198 A 
ATOM     95  C   UNL A   1      46.948  23.702  34.387  1.00  0.00     0.198 A 
ATOM     96  F   UNL A   1      47.322  25.686  33.232  1.00  0.00    -0.203 F 
ATOM     97  F   UNL A   1      44.142  21.425  34.381  1.00  0.00    -0.200 F 
ATOM     98  C   UNL A   1      46.168  22.599  34.672  1.00  0.00     0.200 A 
ATOM     99  F   UNL A   1      48.172  23.819  34.922  1.00  0.00    -0.200 F 
ATOM    100  F   UNL A   1      46.642  21.626  35.461  1.00  0.00    -0.200 F 
ENDBRANCH  67  90
ENDBRANCH  41  42
ENDBRANCH  33  36
ENDBRANCH  31  32
ENDBRANCH  30  31
ENDBRANCH  29  30
ENDBRANCH   1  29
TORSDOF 17
ENDMDL
MODEL 3
REMARK VINA RESULT:     -13.7      1.446      2.529
REMARK SMILES Cc1ccc([C@@H](CC(=O)NCCCCNC(=O)c2ccc(-c3c4nc(c(-c5c(F)c(F)c(F)c(F)c5F)c5ccc([nH]5)c(-c5c(F)c(F)c(F)c(F)c5F)c5nc(c(-c6c(F)c(F)c(F)c(F)c6F)c6ccc3[nH]6)C=C5)C=C4)cc2)NC(=O)c2ccc(OC(F)F)cc2)cc1
REMARK SMILES IDX 11 1 10 2 8 3 9 4 7 6 6 7 5 8 1 9 2 10 3 11 95 12 4 13 94 14
REMARK SMILES IDX 81 15 82 16 83 18 84 19 85 20 93 21 86 22 92 23 87 24 88 25
REMARK SMILES IDX 89 26 90 27 91 28 12 29 13 30 14 31 15 32 16 33 17 35 18 36
REMARK SMILES IDX 19 37 80 38 20 39 79 40 21 41 22 42 23 43 73 44 24 45 78 46
REMARK SMILES IDX 72 47 74 48 25 49 77 50 71 51 70 52 26 54 58 55 38 56 57 57
REMARK SMILES IDX 39 58 42 59 56 60 75 61 40 62 41 63 55 65 76 66 43 67 27 68
REMARK SMILES IDX 28 69 36 70 29 71 30 72 34 73 37 74 31 75 32 76 35 77 33 78
REMARK SMILES IDX 59 79 60 80 68 81 61 82 62 83 66 84 69 85 63 86 64 87 67 88
REMARK SMILES IDX 65 89 44 90 45 91 53 92 46 93 47 94 51 95 54 96 48 97 49 98
REMARK SMILES IDX 52 99 50 100
REMARK H PARENT 10 5 81 17 15 34 74 53 42 64
REMARK Flexibility Score: inf
ROOT
ATOM      1  C   UNL A   1      34.064  22.200  25.261  1.00  0.00     0.116 C 
ENDROOT
BRANCH   1   2
ATOM      2  N   UNL A   1      33.045  22.461  26.271  1.00  0.00    -0.356 N 
ATOM      3  C   UNL A   1      32.302  23.564  26.558  1.00  0.00     0.222 C 
ATOM      4  O   UNL A   1      31.635  23.542  27.597  1.00  0.00    -0.275 OA
ATOM      5  H   UNL A   1      32.859  21.691  26.856  1.00  0.00     0.163 HD
BRANCH   3   6
ATOM      6  C   UNL A   1      32.206  24.751  25.623  1.00  0.00     0.129 C 
BRANCH   6   7
ATOM      7  C   UNL A   1      33.455  25.648  25.461  1.00  0.00     0.122 C 
BRANCH   7   8
ATOM      8  C   UNL A   1      33.188  27.006  26.111  1.00  0.00    -0.025 A 
ATOM      9  C   UNL A   1      32.019  31.070  26.973  1.00  0.00     0.044 C 
ATOM     10  C   UNL A   1      32.452  29.642  26.816  1.00  0.00    -0.051 A 
ATOM     11  C   UNL A   1      33.769  29.339  26.471  1.00  0.00     0.004 A 
ATOM     12  C   UNL A   1      31.527  28.601  26.919  1.00  0.00     0.004 A 
ATOM     13  C   UNL A   1      34.139  28.029  26.150  1.00  0.00     0.006 A 
ATOM     14  C   UNL A   1      31.892  27.297  26.576  1.00  0.00     0.006 A 
ENDBRANCH   7   8
BRANCH   7  15
ATOM     15  N   UNL A   1      33.950  25.761  24.092  1.00  0.00    -0.345 N 
ATOM     16  C   UNL A   1      33.316  26.212  22.962  1.00  0.00     0.251 C 
ATOM     17  H   UNL A   1      34.880  25.468  23.960  1.00  0.00     0.164 HD
ATOM     18  O   UNL A   1      33.729  25.862  21.859  1.00  0.00    -0.269 OA
BRANCH  16  19
ATOM     19  C   UNL A   1      32.167  27.140  23.047  1.00  0.00     0.040 A 
ATOM     20  C   UNL A   1      30.868  26.625  23.089  1.00  0.00     0.017 A 
ATOM     21  C   UNL A   1      32.356  28.521  22.950  1.00  0.00     0.017 A 
ATOM     22  C   UNL A   1      29.772  27.494  23.085  1.00  0.00     0.047 A 
ATOM     23  C   UNL A   1      31.258  29.388  22.963  1.00  0.00     0.047 A 
ATOM     24  C   UNL A   1      29.960  28.880  23.036  1.00  0.00     0.126 A 
BRANCH  24  25
ATOM     25  O   UNL A   1      28.809  29.615  23.037  1.00  0.00    -0.435 OA
BRANCH  25  26
ATOM     26  C   UNL A   1      28.916  31.032  22.976  1.00  0.00     0.542 C 
ATOM     27  F   UNL A   1      27.883  31.544  22.264  1.00  0.00    -0.167 F 
ATOM     28  F   UNL A   1      28.875  31.556  24.225  1.00  0.00    -0.167 F 
ENDBRANCH  25  26
ENDBRANCH  24  25
ENDBRANCH  16  19
ENDBRANCH   7  15
ENDBRANCH   6   7
ENDBRANCH   3   6
ENDBRANCH   1   2
BRANCH   1  29
ATOM     29  C   UNL A   1      35.464  22.184  25.893  1.00  0.00     0.023 C 
BRANCH  29  30
ATOM     30  C   UNL A   1      36.180  23.506  26.194  1.00  0.00     0.023 C 
BRANCH  30  31
ATOM     31  C   UNL A   1      37.619  23.682  25.713  1.00  0.00     0.116 C 
BRANCH  31  32
ATOM     32  N   UNL A   1      38.643  23.001  26.518  1.00  0.00    -0.352 N 
ATOM     33  C   UNL A   1      39.846  23.514  26.985  1.00  0.00     0.251 C 
ATOM     34  H   UNL A   1      38.452  22.065  26.756  1.00  0.00     0.163 HD
ATOM     35  O   UNL A   1      40.794  22.771  27.250  1.00  0.00    -0.269 OA
BRANCH  33  36
ATOM     36  C   UNL A   1      39.961  24.965  27.219  1.00  0.00     0.039 A 
ATOM     37  C   UNL A   1      40.420  25.901  26.279  1.00  0.00     0.014 A 
ATOM     38  C   UNL A   1      39.614  25.381  28.491  1.00  0.00     0.014 A 
ATOM     39  C   UNL A   1      40.486  27.258  26.634  1.00  0.00     0.010 A 
ATOM     40  C   UNL A   1      39.415  26.701  28.741  1.00  0.00     0.010 A 
ATOM     41  C   UNL A   1      39.981  27.641  27.878  1.00  0.00    -0.014 A 
BRANCH  41  42
ATOM     42  C   UNL A   1      40.151  28.916  28.563  1.00  0.00     0.031 A 
ATOM     43  C   UNL A   1      39.068  29.892  28.707  1.00  0.00     0.074 A 
ATOM     44  C   UNL A   1      41.182  28.891  29.441  1.00  0.00     0.049 A 
ATOM     45  N   UNL A   1      39.205  31.025  29.304  1.00  0.00    -0.248 NA
ATOM     46  C   UNL A   1      37.719  29.653  28.222  1.00  0.00     0.031 C 
ATOM     47  C   UNL A   1      41.357  29.601  30.699  1.00  0.00     0.029 A 
ATOM     48  N   UNL A   1      42.342  28.105  29.342  1.00  0.00    -0.354 N 
ATOM     49  C   UNL A   1      37.948  31.531  29.545  1.00  0.00     0.074 A 
ATOM     50  C   UNL A   1      37.064  30.680  28.776  1.00  0.00     0.031 C 
ATOM     51  C   UNL A   1      42.640  29.468  31.087  1.00  0.00     0.029 A 
ATOM     52  C   UNL A   1      43.355  28.829  29.993  1.00  0.00     0.049 A 
ATOM     53  H   UNL A   1      42.428  27.227  28.905  1.00  0.00     0.167 HD
ATOM     54  C   UNL A   1      37.813  32.533  30.467  1.00  0.00     0.037 A 
ATOM     55  C   UNL A   1      44.297  29.417  29.191  1.00  0.00     0.037 A 
ATOM     56  C   UNL A   1      39.122  32.906  31.022  1.00  0.00     0.049 A 
ATOM     57  C   UNL A   1      44.172  30.927  29.147  1.00  0.00     0.074 A 
ATOM     58  C   UNL A   1      39.813  32.588  32.180  1.00  0.00     0.029 A 
ATOM     59  N   UNL A   1      40.054  33.475  30.174  1.00  0.00    -0.354 N 
ATOM     60  N   UNL A   1      43.266  31.610  29.790  1.00  0.00    -0.248 NA
ATOM     61  C   UNL A   1      45.010  31.777  28.305  1.00  0.00     0.031 C 
ATOM     62  C   UNL A   1      41.194  32.903  31.971  1.00  0.00     0.029 A 
ATOM     63  C   UNL A   1      41.333  33.434  30.700  1.00  0.00     0.049 A 
ATOM     64  H   UNL A   1      39.834  33.865  29.298  1.00  0.00     0.167 HD
ATOM     65  C   UNL A   1      43.329  32.920  29.422  1.00  0.00     0.074 A 
ATOM     66  C   UNL A   1      44.449  32.982  28.500  1.00  0.00     0.031 C 
ATOM     67  C   UNL A   1      42.443  33.861  29.861  1.00  0.00     0.037 A 
BRANCH  54  68
ATOM     68  C   UNL A   1      36.506  33.066  31.023  1.00  0.00     0.064 A 
ATOM     69  C   UNL A   1      35.688  33.917  30.244  1.00  0.00     0.173 A 
ATOM     70  C   UNL A   1      35.991  32.784  32.304  1.00  0.00     0.173 A 
ATOM     71  F   UNL A   1      35.992  34.209  28.973  1.00  0.00    -0.203 F 
ATOM     72  C   UNL A   1      34.512  34.497  30.736  1.00  0.00     0.198 A 
ATOM     73  C   UNL A   1      34.844  33.403  32.815  1.00  0.00     0.198 A 
ATOM     74  F   UNL A   1      36.531  31.847  33.088  1.00  0.00    -0.203 F 
ATOM     75  F   UNL A   1      33.778  35.288  29.941  1.00  0.00    -0.200 F 
ATOM     76  C   UNL A   1      34.105  34.264  32.032  1.00  0.00     0.200 A 
ATOM     77  F   UNL A   1      34.452  33.141  34.070  1.00  0.00    -0.200 F 
ATOM     78  F   UNL A   1      32.995  34.837  32.514  1.00  0.00    -0.200 F 
ENDBRANCH  54  68
BRANCH  55  79
ATOM     79  C   UNL A   1      44.610  28.534  28.013  1.00  0.00     0.064 A 
ATOM     80  C   UNL A   1      45.209  27.282  28.283  1.00  0.00     0.173 A 
ATOM     81  C   UNL A   1      43.908  28.660  26.805  1.00  0.00     0.173 A 
ATOM     82  F   UNL A   1      45.884  27.096  29.430  1.00  0.00    -0.203 F 
ATOM     83  C   UNL A   1      44.973  26.174  27.470  1.00  0.00     0.198 A 
ATOM     84  C   UNL A   1      43.695  27.551  25.981  1.00  0.00     0.198 A 
ATOM     85  F   UNL A   1      43.314  29.818  26.481  1.00  0.00    -0.203 F 
ATOM     86  F   UNL A   1      45.424  24.967  27.840  1.00  0.00    -0.200 F 
ATOM     87  C   UNL A   1      44.188  26.303  26.337  1.00  0.00     0.200 A 
ATOM     88  F   UNL A   1      42.931  27.673  24.885  1.00  0.00    -0.200 F 
ATOM     89  F   UNL A   1      43.875  25.221  25.611  1.00  0.00    -0.200 F 
ENDBRANCH  55  79
BRANCH  67  90
ATOM     90  C   UNL A   1      42.592  35.300  29.481  1.00  0.00     0.064 A 
ATOM     91  C   UNL A   1      41.989  35.810  28.321  1.00  0.00     0.173 A 
ATOM     92  C   UNL A   1      43.419  36.182  30.202  1.00  0.00     0.173 A 
ATOM     93  F   UNL A   1      41.228  35.024  27.543  1.00  0.00    -0.203 F 
ATOM     94  C   UNL A   1      42.157  37.139  27.938  1.00  0.00     0.198 A 
ATOM     95  C   UNL A   1      43.636  37.490  29.781  1.00  0.00     0.198 A 
ATOM     96  F   UNL A   1      44.010  35.810  31.347  1.00  0.00    -0.203 F 
ATOM     97  F   UNL A   1      41.506  37.607  26.865  1.00  0.00    -0.200 F 
ATOM     98  C   UNL A   1      42.991  37.974  28.661  1.00  0.00     0.200 A 
ATOM     99  F   UNL A   1      44.465  38.281  30.478  1.00  0.00    -0.200 F 
ATOM    100  F   UNL A   1      43.166  39.247  28.281  1.00  0.00    -0.200 F 
ENDBRANCH  67  90
ENDBRANCH  41  42
ENDBRANCH  33  36
ENDBRANCH  31  32
ENDBRANCH  30  31
ENDBRANCH  29  30
ENDBRANCH   1  29
TORSDOF 17
ENDMDL
