MODEL 1
REMARK VINA RESULT:     -11.7      0.000      0.000
REMARK SMILES CC(C)[NH2+][C@]1(C(=O)NCCCCNC(=O)c2ccc(-c3c4nc(c(-c5c(F)c(F)c(F)c(F)c5F)c5ccc([nH]5)c(-c5c(F)c(F)c(F)c(F)c5F)c5nc(c(-c6c(F)c(F)c(F)c(F)c6F)c6ccc3[nH]6)C=C5)C=C4)cc2)CC[C@H]([N@H+](C)C2CCCC2)C1
REMARK SMILES IDX 10 1 9 2 8 3 6 4 7 5 5 7 79 8 89 9 80 10 81 11 4 12 2 15
REMARK SMILES IDX 1 16 3 17 82 18 83 19 84 21 85 22 88 23 86 24 87 25 11 26
REMARK SMILES IDX 12 27 13 28 14 29 15 31 16 32 17 33 78 34 18 35 77 36 19 37
REMARK SMILES IDX 20 38 21 39 71 40 22 41 76 42 70 43 72 44 23 45 75 46 69 47
REMARK SMILES IDX 68 48 24 50 56 51 36 52 55 53 37 54 40 55 54 56 73 57 38 58
REMARK SMILES IDX 39 59 53 61 74 62 41 63 25 64 26 65 34 66 27 67 28 68 32 69
REMARK SMILES IDX 35 70 29 71 30 72 33 73 31 74 57 75 58 76 66 77 59 78 60 79
REMARK SMILES IDX 64 80 67 81 61 82 62 83 65 84 63 85 42 86 43 87 51 88 44 89
REMARK SMILES IDX 45 90 49 91 52 92 46 93 47 94 50 95 48 96
REMARK H PARENT 8 6 4 13 4 14 82 20 13 30 72 49 40 60
REMARK Flexibility Score: inf
ROOT
ATOM      1  C   UNL A   1      31.825  30.051  26.676  1.00  0.00     0.023 C 
ENDROOT
BRANCH   1   2
ATOM      2  C   UNL A   1      33.166  29.398  26.351  1.00  0.00     0.116 C 
BRANCH   2   3
ATOM      3  N   UNL A   1      33.584  29.587  24.979  1.00  0.00    -0.351 N 
ATOM      4  C   UNL A   1      33.517  28.764  23.894  1.00  0.00     0.281 C 
ATOM      5  O   UNL A   1      33.882  29.274  22.826  1.00  0.00    -0.268 OA
ATOM      6  H   UNL A   1      33.990  30.466  24.797  1.00  0.00     0.163 HD
BRANCH   4   7
ATOM      7  C   UNL A   1      32.970  27.306  23.951  1.00  0.00     0.181 C 
ATOM      8  C   UNL A   1      33.092  26.694  22.531  1.00  0.00     0.085 C 
ATOM      9  C   UNL A   1      33.834  26.311  24.743  1.00  0.00     0.144 C 
ATOM     10  C   UNL A   1      33.270  25.181  22.681  1.00  0.00     0.072 C 
ATOM     11  C   UNL A   1      33.585  24.905  24.154  1.00  0.00     0.191 C 
BRANCH   7  12
ATOM     12  N   UNL A   1      31.554  27.193  24.347  1.00  0.00    -0.331 N 
ATOM     13  H   UNL A   1      31.435  26.247  24.707  1.00  0.00     0.347 HD
ATOM     14  H   UNL A   1      31.449  27.986  24.980  1.00  0.00     0.347 HD
BRANCH  12  15
ATOM     15  C   UNL A   1      30.464  27.411  23.412  1.00  0.00     0.176 C 
ATOM     16  C   UNL A   1      29.290  26.529  23.860  1.00  0.00     0.075 C 
ATOM     17  C   UNL A   1      30.015  28.875  23.426  1.00  0.00     0.075 C 
ENDBRANCH  12  15
ENDBRANCH   7  12
BRANCH  11  18
ATOM     18  N   UNL A   1      32.653  24.171  25.051  1.00  0.00    -0.332 N 
ATOM     19  C   UNL A   1      32.868  24.668  26.425  1.00  0.00     0.333 C 
ATOM     20  H   UNL A   1      31.720  24.375  24.693  1.00  0.00     0.348 HD
BRANCH  18  21
ATOM     21  C   UNL A   1      32.654  22.696  25.007  1.00  0.00     0.184 C 
ATOM     22  C   UNL A   1      31.954  22.104  23.760  1.00  0.00     0.065 C 
ATOM     23  C   UNL A   1      34.036  22.048  24.825  1.00  0.00     0.065 C 
ATOM     24  C   UNL A   1      32.473  20.674  23.618  1.00  0.00     0.006 C 
ATOM     25  C   UNL A   1      33.733  20.603  24.469  1.00  0.00     0.006 C 
ENDBRANCH  18  21
ENDBRANCH  11  18
ENDBRANCH   4   7
ENDBRANCH   2   3
ENDBRANCH   1   2
BRANCH   1  26
ATOM     26  C   UNL A   1      31.775  31.572  26.559  1.00  0.00     0.023 C 
BRANCH  26  27
ATOM     27  C   UNL A   1      32.839  32.330  27.344  1.00  0.00     0.116 C 
BRANCH  27  28
ATOM     28  N   UNL A   1      32.504  33.731  27.564  1.00  0.00    -0.352 N 
ATOM     29  C   UNL A   1      33.038  34.636  28.448  1.00  0.00     0.251 C 
ATOM     30  H   UNL A   1      31.785  34.083  26.991  1.00  0.00     0.163 HD
ATOM     31  O   UNL A   1      32.539  35.750  28.577  1.00  0.00    -0.269 OA
BRANCH  29  32
ATOM     32  C   UNL A   1      34.195  34.250  29.282  1.00  0.00     0.039 A 
ATOM     33  C   UNL A   1      33.970  33.550  30.469  1.00  0.00     0.014 A 
ATOM     34  C   UNL A   1      35.497  34.538  28.868  1.00  0.00     0.014 A 
ATOM     35  C   UNL A   1      35.056  33.049  31.188  1.00  0.00     0.010 A 
ATOM     36  C   UNL A   1      36.572  33.966  29.536  1.00  0.00     0.010 A 
ATOM     37  C   UNL A   1      36.363  33.206  30.699  1.00  0.00    -0.014 A 
BRANCH  37  38
ATOM     38  C   UNL A   1      37.522  32.567  31.370  1.00  0.00     0.031 A 
ATOM     39  C   UNL A   1      38.236  31.419  30.715  1.00  0.00     0.074 A 
ATOM     40  C   UNL A   1      37.875  32.963  32.608  1.00  0.00     0.049 A 
ATOM     41  N   UNL A   1      39.221  30.686  31.172  1.00  0.00    -0.248 NA
ATOM     42  C   UNL A   1      37.758  31.021  29.382  1.00  0.00     0.031 C 
ATOM     43  C   UNL A   1      37.225  34.027  33.374  1.00  0.00     0.029 A 
ATOM     44  N   UNL A   1      38.866  32.511  33.444  1.00  0.00    -0.354 N 
ATOM     45  C   UNL A   1      39.462  29.730  30.196  1.00  0.00     0.074 A 
ATOM     46  C   UNL A   1      38.488  29.941  29.148  1.00  0.00     0.031 C 
ATOM     47  C   UNL A   1      37.854  34.168  34.552  1.00  0.00     0.029 A 
ATOM     48  C   UNL A   1      38.926  33.181  34.641  1.00  0.00     0.049 A 
ATOM     49  H   UNL A   1      39.476  31.775  33.208  1.00  0.00     0.167 HD
ATOM     50  C   UNL A   1      40.425  28.778  30.165  1.00  0.00     0.037 A 
ATOM     51  C   UNL A   1      39.752  33.018  35.691  1.00  0.00     0.037 A 
ATOM     52  C   UNL A   1      41.412  28.592  31.196  1.00  0.00     0.049 A 
ATOM     53  C   UNL A   1      40.813  31.954  35.634  1.00  0.00     0.074 A 
ATOM     54  C   UNL A   1      42.480  27.713  31.221  1.00  0.00     0.029 A 
ATOM     55  N   UNL A   1      41.446  29.296  32.391  1.00  0.00    -0.354 N 
ATOM     56  N   UNL A   1      41.088  31.110  34.671  1.00  0.00    -0.248 NA
ATOM     57  C   UNL A   1      41.680  31.823  36.812  1.00  0.00     0.031 C 
ATOM     58  C   UNL A   1      43.133  27.852  32.450  1.00  0.00     0.029 A 
ATOM     59  C   UNL A   1      42.502  28.852  33.172  1.00  0.00     0.049 A 
ATOM     60  H   UNL A   1      40.815  30.007  32.646  1.00  0.00     0.167 HD
ATOM     61  C   UNL A   1      42.175  30.367  35.111  1.00  0.00     0.074 A 
ATOM     62  C   UNL A   1      42.516  30.868  36.426  1.00  0.00     0.031 C 
ATOM     63  C   UNL A   1      42.832  29.362  34.479  1.00  0.00     0.037 A 
BRANCH  50  64
ATOM     64  C   UNL A   1      40.449  27.863  28.975  1.00  0.00     0.064 A 
ATOM     65  C   UNL A   1      41.205  28.159  27.830  1.00  0.00     0.173 A 
ATOM     66  C   UNL A   1      39.708  26.671  28.980  1.00  0.00     0.173 A 
ATOM     67  F   UNL A   1      41.922  29.292  27.770  1.00  0.00    -0.203 F 
ATOM     68  C   UNL A   1      41.184  27.321  26.719  1.00  0.00     0.198 A 
ATOM     69  C   UNL A   1      39.716  25.818  27.879  1.00  0.00     0.198 A 
ATOM     70  F   UNL A   1      38.973  26.335  30.050  1.00  0.00    -0.203 F 
ATOM     71  F   UNL A   1      41.862  27.658  25.614  1.00  0.00    -0.200 F 
ATOM     72  C   UNL A   1      40.443  26.149  26.746  1.00  0.00     0.200 A 
ATOM     73  F   UNL A   1      39.009  24.679  27.911  1.00  0.00    -0.200 F 
ATOM     74  F   UNL A   1      40.422  25.343  25.675  1.00  0.00    -0.200 F 
ENDBRANCH  50  64
BRANCH  51  75
ATOM     75  C   UNL A   1      39.639  33.919  36.866  1.00  0.00     0.064 A 
ATOM     76  C   UNL A   1      38.861  33.552  37.973  1.00  0.00     0.173 A 
ATOM     77  C   UNL A   1      40.314  35.148  36.919  1.00  0.00     0.173 A 
ATOM     78  F   UNL A   1      38.182  32.396  37.958  1.00  0.00    -0.203 F 
ATOM     79  C   UNL A   1      38.753  34.384  39.085  1.00  0.00     0.198 A 
ATOM     80  C   UNL A   1      40.223  35.968  38.042  1.00  0.00     0.198 A 
ATOM     81  F   UNL A   1      41.074  35.541  35.888  1.00  0.00    -0.203 F 
ATOM     82  F   UNL A   1      37.976  34.025  40.115  1.00  0.00    -0.200 F 
ATOM     83  C   UNL A   1      39.440  35.588  39.121  1.00  0.00     0.200 A 
ATOM     84  F   UNL A   1      40.899  37.125  38.080  1.00  0.00    -0.200 F 
ATOM     85  F   UNL A   1      39.342  36.384  40.195  1.00  0.00    -0.200 F 
ENDBRANCH  51  75
BRANCH  63  86
ATOM     86  C   UNL A   1      44.009  28.760  35.188  1.00  0.00     0.064 A 
ATOM     87  C   UNL A   1      43.863  27.676  36.066  1.00  0.00     0.173 A 
ATOM     88  C   UNL A   1      45.303  29.248  34.955  1.00  0.00     0.173 A 
ATOM     89  F   UNL A   1      42.644  27.184  36.335  1.00  0.00    -0.203 F 
ATOM     90  C   UNL A   1      44.969  27.118  36.702  1.00  0.00     0.198 A 
ATOM     91  C   UNL A   1      46.409  28.668  35.570  1.00  0.00     0.198 A 
ATOM     92  F   UNL A   1      45.497  30.280  34.121  1.00  0.00    -0.203 F 
ATOM     93  F   UNL A   1      44.802  26.111  37.572  1.00  0.00    -0.200 F 
ATOM     94  C   UNL A   1      46.241  27.608  36.448  1.00  0.00     0.200 A 
ATOM     95  F   UNL A   1      47.638  29.136  35.313  1.00  0.00    -0.200 F 
ATOM     96  F   UNL A   1      47.305  27.064  37.054  1.00  0.00    -0.200 F 
ENDBRANCH  63  86
ENDBRANCH  37  38
ENDBRANCH  29  32
ENDBRANCH  27  28
ENDBRANCH  26  27
ENDBRANCH   1  26
TORSDOF 15
ENDMDL
MODEL 2
REMARK VINA RESULT:     -11.6      0.630      7.410
REMARK SMILES CC(C)[NH2+][C@]1(C(=O)NCCCCNC(=O)c2ccc(-c3c4nc(c(-c5c(F)c(F)c(F)c(F)c5F)c5ccc([nH]5)c(-c5c(F)c(F)c(F)c(F)c5F)c5nc(c(-c6c(F)c(F)c(F)c(F)c6F)c6ccc3[nH]6)C=C5)C=C4)cc2)CC[C@H]([N@H+](C)C2CCCC2)C1
REMARK SMILES IDX 10 1 9 2 8 3 6 4 7 5 5 7 79 8 89 9 80 10 81 11 4 12 2 15
REMARK SMILES IDX 1 16 3 17 82 18 83 19 84 21 85 22 88 23 86 24 87 25 11 26
REMARK SMILES IDX 12 27 13 28 14 29 15 31 16 32 17 33 78 34 18 35 77 36 19 37
REMARK SMILES IDX 20 38 21 39 71 40 22 41 76 42 70 43 72 44 23 45 75 46 69 47
REMARK SMILES IDX 68 48 24 50 56 51 36 52 55 53 37 54 40 55 54 56 73 57 38 58
REMARK SMILES IDX 39 59 53 61 74 62 41 63 25 64 26 65 34 66 27 67 28 68 32 69
REMARK SMILES IDX 35 70 29 71 30 72 33 73 31 74 57 75 58 76 66 77 59 78 60 79
REMARK SMILES IDX 64 80 67 81 61 82 62 83 65 84 63 85 42 86 43 87 51 88 44 89
REMARK SMILES IDX 45 90 49 91 52 92 46 93 47 94 50 95 48 96
REMARK H PARENT 8 6 4 13 4 14 82 20 13 30 72 49 40 60
REMARK Flexibility Score: inf
ROOT
ATOM      1  C   UNL A   1      31.623  30.235  26.545  1.00  0.00     0.023 C 
ENDROOT
BRANCH   1   2
ATOM      2  C   UNL A   1      32.935  29.537  26.197  1.00  0.00     0.116 C 
BRANCH   2   3
ATOM      3  N   UNL A   1      33.330  29.700  24.815  1.00  0.00    -0.351 N 
ATOM      4  C   UNL A   1      33.293  28.839  23.759  1.00  0.00     0.281 C 
ATOM      5  O   UNL A   1      33.622  29.330  22.671  1.00  0.00    -0.268 OA
ATOM      6  H   UNL A   1      33.689  30.592  24.599  1.00  0.00     0.163 HD
BRANCH   4   7
ATOM      7  C   UNL A   1      32.821  27.359  23.871  1.00  0.00     0.181 C 
ATOM      8  C   UNL A   1      32.926  26.716  22.463  1.00  0.00     0.085 C 
ATOM      9  C   UNL A   1      33.759  26.427  24.656  1.00  0.00     0.144 C 
ATOM     10  C   UNL A   1      33.183  25.218  22.643  1.00  0.00     0.072 C 
ATOM     11  C   UNL A   1      33.560  24.996  24.111  1.00  0.00     0.191 C 
BRANCH   7  12
ATOM     12  N   UNL A   1      31.426  27.187  24.318  1.00  0.00    -0.331 N 
ATOM     13  H   UNL A   1      31.354  26.230  24.661  1.00  0.00     0.347 HD
ATOM     14  H   UNL A   1      31.319  27.963  24.972  1.00  0.00     0.347 HD
BRANCH  12  15
ATOM     15  C   UNL A   1      30.293  27.386  23.430  1.00  0.00     0.176 C 
ATOM     16  C   UNL A   1      29.172  26.448  23.899  1.00  0.00     0.075 C 
ATOM     17  C   UNL A   1      29.791  28.830  23.498  1.00  0.00     0.075 C 
ENDBRANCH  12  15
ENDBRANCH   7  12
BRANCH  11  18
ATOM     18  N   UNL A   1      32.696  24.241  25.057  1.00  0.00    -0.332 N 
ATOM     19  C   UNL A   1      32.847  24.856  26.392  1.00  0.00     0.333 C 
ATOM     20  H   UNL A   1      31.750  24.326  24.683  1.00  0.00     0.348 HD
BRANCH  18  21
ATOM     21  C   UNL A   1      32.842  22.774  25.123  1.00  0.00     0.184 C 
ATOM     22  C   UNL A   1      32.085  22.017  24.004  1.00  0.00     0.065 C 
ATOM     23  C   UNL A   1      34.258  22.245  24.842  1.00  0.00     0.065 C 
ATOM     24  C   UNL A   1      32.731  20.635  23.913  1.00  0.00     0.006 C 
ATOM     25  C   UNL A   1      34.069  20.753  24.629  1.00  0.00     0.006 C 
ENDBRANCH  18  21
ENDBRANCH  11  18
ENDBRANCH   4   7
ENDBRANCH   2   3
ENDBRANCH   1   2
BRANCH   1  26
ATOM     26  C   UNL A   1      31.639  31.760  26.484  1.00  0.00     0.023 C 
BRANCH  26  27
ATOM     27  C   UNL A   1      32.786  32.438  27.225  1.00  0.00     0.116 C 
BRANCH  27  28
ATOM     28  N   UNL A   1      32.509  33.826  27.570  1.00  0.00    -0.352 N 
ATOM     29  C   UNL A   1      33.096  34.634  28.513  1.00  0.00     0.251 C 
ATOM     30  H   UNL A   1      31.791  34.250  27.046  1.00  0.00     0.163 HD
ATOM     31  O   UNL A   1      32.642  35.750  28.746  1.00  0.00    -0.269 OA
BRANCH  29  32
ATOM     32  C   UNL A   1      34.255  34.137  29.282  1.00  0.00     0.039 A 
ATOM     33  C   UNL A   1      34.029  33.423  30.460  1.00  0.00     0.014 A 
ATOM     34  C   UNL A   1      35.556  34.339  28.816  1.00  0.00     0.014 A 
ATOM     35  C   UNL A   1      35.105  32.821  31.116  1.00  0.00     0.010 A 
ATOM     36  C   UNL A   1      36.613  33.668  29.420  1.00  0.00     0.010 A 
ATOM     37  C   UNL A   1      36.397  32.893  30.571  1.00  0.00    -0.014 A 
BRANCH  37  38
ATOM     38  C   UNL A   1      37.532  32.148  31.171  1.00  0.00     0.031 A 
ATOM     39  C   UNL A   1      38.010  32.485  32.555  1.00  0.00     0.074 A 
ATOM     40  C   UNL A   1      38.187  31.228  30.437  1.00  0.00     0.049 A 
ATOM     41  N   UNL A   1      39.026  31.998  33.222  1.00  0.00    -0.248 NA
ATOM     42  C   UNL A   1      37.266  33.533  33.271  1.00  0.00     0.031 C 
ATOM     43  C   UNL A   1      37.857  30.852  29.061  1.00  0.00     0.029 A 
ATOM     44  N   UNL A   1      39.274  30.447  30.743  1.00  0.00    -0.354 N 
ATOM     45  C   UNL A   1      39.056  32.695  34.422  1.00  0.00     0.074 A 
ATOM     46  C   UNL A   1      37.992  33.674  34.369  1.00  0.00     0.031 C 
ATOM     47  C   UNL A   1      38.700  29.889  28.655  1.00  0.00     0.029 A 
ATOM     48  C   UNL A   1      39.653  29.608  29.724  1.00  0.00     0.049 A 
ATOM     49  H   UNL A   1      39.737  30.485  31.610  1.00  0.00     0.167 HD
ATOM     50  C   UNL A   1      39.880  32.518  35.482  1.00  0.00     0.037 A 
ATOM     51  C   UNL A   1      40.657  28.713  29.660  1.00  0.00     0.037 A 
ATOM     52  C   UNL A   1      40.918  31.522  35.542  1.00  0.00     0.049 A 
ATOM     53  C   UNL A   1      41.560  28.535  30.849  1.00  0.00     0.074 A 
ATOM     54  C   UNL A   1      41.751  31.205  36.600  1.00  0.00     0.029 A 
ATOM     55  N   UNL A   1      41.268  30.683  34.493  1.00  0.00    -0.354 N 
ATOM     56  N   UNL A   1      41.528  29.138  32.011  1.00  0.00    -0.248 NA
ATOM     57  C   UNL A   1      42.638  27.546  30.716  1.00  0.00     0.031 C 
ATOM     58  C   UNL A   1      42.637  30.208  36.177  1.00  0.00     0.029 A 
ATOM     59  C   UNL A   1      42.324  29.868  34.870  1.00  0.00     0.049 A 
ATOM     60  H   UNL A   1      40.830  30.669  33.611  1.00  0.00     0.167 HD
ATOM     61  C   UNL A   1      42.559  28.586  32.758  1.00  0.00     0.074 A 
ATOM     62  C   UNL A   1      43.193  27.590  31.920  1.00  0.00     0.031 C 
ATOM     63  C   UNL A   1      42.943  28.878  34.026  1.00  0.00     0.037 A 
BRANCH  50  64
ATOM     64  C   UNL A   1      39.691  33.429  36.660  1.00  0.00     0.064 A 
ATOM     65  C   UNL A   1      38.837  33.095  37.723  1.00  0.00     0.173 A 
ATOM     66  C   UNL A   1      40.376  34.653  36.730  1.00  0.00     0.173 A 
ATOM     67  F   UNL A   1      38.150  31.942  37.699  1.00  0.00    -0.203 F 
ATOM     68  C   UNL A   1      38.641  33.969  38.788  1.00  0.00     0.198 A 
ATOM     69  C   UNL A   1      40.202  35.510  37.813  1.00  0.00     0.198 A 
ATOM     70  F   UNL A   1      41.209  35.019  35.745  1.00  0.00    -0.203 F 
ATOM     71  F   UNL A   1      37.771  33.657  39.758  1.00  0.00    -0.200 F 
ATOM     72  C   UNL A   1      39.327  35.174  38.834  1.00  0.00     0.200 A 
ATOM     73  F   UNL A   1      40.875  36.668  37.863  1.00  0.00    -0.200 F 
ATOM     74  F   UNL A   1      39.136  36.016  39.859  1.00  0.00    -0.200 F 
ENDBRANCH  50  64
BRANCH  51  75
ATOM     75  C   UNL A   1      40.828  27.882  28.442  1.00  0.00     0.064 A 
ATOM     76  C   UNL A   1      41.676  28.300  27.407  1.00  0.00     0.173 A 
ATOM     77  C   UNL A   1      40.170  26.652  28.291  1.00  0.00     0.173 A 
ATOM     78  F   UNL A   1      42.310  29.479  27.499  1.00  0.00    -0.203 F 
ATOM     79  C   UNL A   1      41.852  27.527  26.262  1.00  0.00     0.198 A 
ATOM     80  C   UNL A   1      40.366  25.868  27.155  1.00  0.00     0.198 A 
ATOM     81  F   UNL A   1      39.352  26.206  29.254  1.00  0.00    -0.203 F 
ATOM     82  F   UNL A   1      42.642  27.966  25.274  1.00  0.00    -0.200 F 
ATOM     83  C   UNL A   1      41.202  26.308  26.140  1.00  0.00     0.200 A 
ATOM     84  F   UNL A   1      39.747  24.684  27.046  1.00  0.00    -0.200 F 
ATOM     85  F   UNL A   1      41.378  25.560  25.043  1.00  0.00    -0.200 F 
ENDBRANCH  51  75
BRANCH  63  86
ATOM     86  C   UNL A   1      44.082  28.085  34.598  1.00  0.00     0.064 A 
ATOM     87  C   UNL A   1      43.874  26.857  35.241  1.00  0.00     0.173 A 
ATOM     88  C   UNL A   1      45.401  28.543  34.465  1.00  0.00     0.173 A 
ATOM     89  F   UNL A   1      42.630  26.384  35.408  1.00  0.00    -0.203 F 
ATOM     90  C   UNL A   1      44.945  26.126  35.750  1.00  0.00     0.198 A 
ATOM     91  C   UNL A   1      46.471  27.796  34.949  1.00  0.00     0.198 A 
ATOM     92  F   UNL A   1      45.654  29.710  33.854  1.00  0.00    -0.203 F 
ATOM     93  F   UNL A   1      44.720  24.976  36.400  1.00  0.00    -0.200 F 
ATOM     94  C   UNL A   1      46.242  26.592  35.597  1.00  0.00     0.200 A 
ATOM     95  F   UNL A   1      47.725  28.242  34.790  1.00  0.00    -0.200 F 
ATOM     96  F   UNL A   1      47.272  25.883  36.080  1.00  0.00    -0.200 F 
ENDBRANCH  63  86
ENDBRANCH  37  38
ENDBRANCH  29  32
ENDBRANCH  27  28
ENDBRANCH  26  27
ENDBRANCH   1  26
TORSDOF 15
ENDMDL
MODEL 3
REMARK VINA RESULT:     -11.3      0.973      2.253
REMARK SMILES CC(C)[NH2+][C@]1(C(=O)NCCCCNC(=O)c2ccc(-c3c4nc(c(-c5c(F)c(F)c(F)c(F)c5F)c5ccc([nH]5)c(-c5c(F)c(F)c(F)c(F)c5F)c5nc(c(-c6c(F)c(F)c(F)c(F)c6F)c6ccc3[nH]6)C=C5)C=C4)cc2)CC[C@H]([N@H+](C)C2CCCC2)C1
REMARK SMILES IDX 10 1 9 2 8 3 6 4 7 5 5 7 79 8 89 9 80 10 81 11 4 12 2 15
REMARK SMILES IDX 1 16 3 17 82 18 83 19 84 21 85 22 88 23 86 24 87 25 11 26
REMARK SMILES IDX 12 27 13 28 14 29 15 31 16 32 17 33 78 34 18 35 77 36 19 37
REMARK SMILES IDX 20 38 21 39 71 40 22 41 76 42 70 43 72 44 23 45 75 46 69 47
REMARK SMILES IDX 68 48 24 50 56 51 36 52 55 53 37 54 40 55 54 56 73 57 38 58
REMARK SMILES IDX 39 59 53 61 74 62 41 63 25 64 26 65 34 66 27 67 28 68 32 69
REMARK SMILES IDX 35 70 29 71 30 72 33 73 31 74 57 75 58 76 66 77 59 78 60 79
REMARK SMILES IDX 64 80 67 81 61 82 62 83 65 84 63 85 42 86 43 87 51 88 44 89
REMARK SMILES IDX 45 90 49 91 52 92 46 93 47 94 50 95 48 96
REMARK H PARENT 8 6 4 13 4 14 82 20 13 30 72 49 40 60
REMARK Flexibility Score: inf
ROOT
ATOM      1  C   UNL A   1      31.876  30.583  26.655  1.00  0.00     0.023 C 
ENDROOT
BRANCH   1   2
ATOM      2  C   UNL A   1      32.201  30.103  25.243  1.00  0.00     0.116 C 
BRANCH   2   3
ATOM      3  N   UNL A   1      31.038  29.683  24.492  1.00  0.00    -0.351 N 
ATOM      4  C   UNL A   1      30.579  28.442  24.161  1.00  0.00     0.281 C 
ATOM      5  O   UNL A   1      29.483  28.427  23.583  1.00  0.00    -0.268 OA
ATOM      6  H   UNL A   1      30.480  30.424  24.162  1.00  0.00     0.163 HD
BRANCH   4   7
ATOM      7  C   UNL A   1      31.323  27.123  24.522  1.00  0.00     0.181 C 
ATOM      8  C   UNL A   1      31.421  27.037  26.068  1.00  0.00     0.085 C 
ATOM      9  C   UNL A   1      30.544  25.829  24.235  1.00  0.00     0.144 C 
ATOM     10  C   UNL A   1      31.452  25.557  26.459  1.00  0.00     0.072 C 
ATOM     11  C   UNL A   1      31.046  24.752  25.221  1.00  0.00     0.191 C 
BRANCH   7  12
ATOM     12  N   UNL A   1      32.698  27.027  23.999  1.00  0.00    -0.331 N 
ATOM     13  H   UNL A   1      33.233  27.757  24.469  1.00  0.00     0.347 HD
ATOM     14  H   UNL A   1      32.923  26.048  24.177  1.00  0.00     0.347 HD
BRANCH  12  15
ATOM     15  C   UNL A   1      33.003  27.150  22.583  1.00  0.00     0.176 C 
ATOM     16  C   UNL A   1      34.031  28.281  22.431  1.00  0.00     0.075 C 
ATOM     17  C   UNL A   1      33.609  25.854  22.039  1.00  0.00     0.075 C 
ENDBRANCH  12  15
ENDBRANCH   7  12
BRANCH  11  18
ATOM     18  N   UNL A   1      31.989  23.852  24.504  1.00  0.00    -0.332 N 
ATOM     19  C   UNL A   1      31.213  23.103  23.494  1.00  0.00     0.333 C 
ATOM     20  H   UNL A   1      32.689  24.470  24.093  1.00  0.00     0.348 HD
BRANCH  18  21
ATOM     21  C   UNL A   1      32.842  22.951  25.302  1.00  0.00     0.184 C 
ATOM     22  C   UNL A   1      34.175  23.591  25.761  1.00  0.00     0.065 C 
ATOM     23  C   UNL A   1      32.281  22.572  26.682  1.00  0.00     0.065 C 
ATOM     24  C   UNL A   1      34.666  22.753  26.941  1.00  0.00     0.006 C 
ATOM     25  C   UNL A   1      33.460  21.953  27.413  1.00  0.00     0.006 C 
ENDBRANCH  18  21
ENDBRANCH  11  18
ENDBRANCH   4   7
ENDBRANCH   2   3
ENDBRANCH   1   2
BRANCH   1  26
ATOM     26  C   UNL A   1      31.654  32.085  26.816  1.00  0.00     0.023 C 
BRANCH  26  27
ATOM     27  C   UNL A   1      32.806  32.860  27.445  1.00  0.00     0.116 C 
BRANCH  27  28
ATOM     28  N   UNL A   1      32.472  34.246  27.745  1.00  0.00    -0.352 N 
ATOM     29  C   UNL A   1      33.023  35.105  28.665  1.00  0.00     0.251 C 
ATOM     30  H   UNL A   1      31.742  34.625  27.206  1.00  0.00     0.163 HD
ATOM     31  O   UNL A   1      32.525  36.209  28.862  1.00  0.00    -0.269 OA
BRANCH  29  32
ATOM     32  C   UNL A   1      34.197  34.679  29.453  1.00  0.00     0.039 A 
ATOM     33  C   UNL A   1      34.002  34.190  30.747  1.00  0.00     0.014 A 
ATOM     34  C   UNL A   1      35.478  34.720  28.899  1.00  0.00     0.014 A 
ATOM     35  C   UNL A   1      35.081  33.646  31.446  1.00  0.00     0.010 A 
ATOM     36  C   UNL A   1      36.532  34.100  29.560  1.00  0.00     0.010 A 
ATOM     37  C   UNL A   1      36.342  33.547  30.836  1.00  0.00    -0.014 A 
BRANCH  37  38
ATOM     38  C   UNL A   1      37.470  32.849  31.503  1.00  0.00     0.031 A 
ATOM     39  C   UNL A   1      38.126  31.670  30.844  1.00  0.00     0.074 A 
ATOM     40  C   UNL A   1      37.845  33.224  32.742  1.00  0.00     0.049 A 
ATOM     41  N   UNL A   1      39.075  30.889  31.297  1.00  0.00    -0.248 NA
ATOM     42  C   UNL A   1      37.627  31.299  29.511  1.00  0.00     0.031 C 
ATOM     43  C   UNL A   1      37.248  34.316  33.513  1.00  0.00     0.029 A 
ATOM     44  N   UNL A   1      38.814  32.722  33.574  1.00  0.00    -0.354 N 
ATOM     45  C   UNL A   1      39.267  29.925  30.317  1.00  0.00     0.074 A 
ATOM     46  C   UNL A   1      38.302  30.186  29.272  1.00  0.00     0.031 C 
ATOM     47  C   UNL A   1      37.886  34.424  34.689  1.00  0.00     0.029 A 
ATOM     48  C   UNL A   1      38.909  33.385  34.773  1.00  0.00     0.049 A 
ATOM     49  H   UNL A   1      39.387  31.958  33.335  1.00  0.00     0.167 HD
ATOM     50  C   UNL A   1      40.182  28.927  30.281  1.00  0.00     0.037 A 
ATOM     51  C   UNL A   1      39.728  33.179  35.821  1.00  0.00     0.037 A 
ATOM     52  C   UNL A   1      41.161  28.690  31.310  1.00  0.00     0.049 A 
ATOM     53  C   UNL A   1      40.735  32.064  35.759  1.00  0.00     0.074 A 
ATOM     54  C   UNL A   1      42.186  27.760  31.330  1.00  0.00     0.029 A 
ATOM     55  N   UNL A   1      41.232  29.388  32.507  1.00  0.00    -0.354 N 
ATOM     56  N   UNL A   1      40.967  31.211  34.792  1.00  0.00    -0.248 NA
ATOM     57  C   UNL A   1      41.598  31.888  36.935  1.00  0.00     0.031 C 
ATOM     58  C   UNL A   1      42.847  27.863  32.558  1.00  0.00     0.029 A 
ATOM     59  C   UNL A   1      42.266  28.891  33.285  1.00  0.00     0.049 A 
ATOM     60  H   UNL A   1      40.636  30.129  32.765  1.00  0.00     0.167 HD
ATOM     61  C   UNL A   1      42.018  30.415  35.228  1.00  0.00     0.074 A 
ATOM     62  C   UNL A   1      42.385  30.894  36.544  1.00  0.00     0.031 C 
ATOM     63  C   UNL A   1      42.623  29.381  34.592  1.00  0.00     0.037 A 
BRANCH  50  64
ATOM     64  C   UNL A   1      40.159  28.015  29.089  1.00  0.00     0.064 A 
ATOM     65  C   UNL A   1      39.475  26.790  29.109  1.00  0.00     0.173 A 
ATOM     66  C   UNL A   1      40.828  28.372  27.907  1.00  0.00     0.173 A 
ATOM     67  F   UNL A   1      38.830  26.396  30.218  1.00  0.00    -0.203 F 
ATOM     68  C   UNL A   1      39.498  25.937  28.009  1.00  0.00     0.198 A 
ATOM     69  C   UNL A   1      40.820  27.531  26.797  1.00  0.00     0.198 A 
ATOM     70  F   UNL A   1      41.492  29.535  27.830  1.00  0.00    -0.203 F 
ATOM     71  F   UNL A   1      38.892  24.744  28.076  1.00  0.00    -0.200 F 
ATOM     72  C   UNL A   1      40.166  26.310  26.853  1.00  0.00     0.200 A 
ATOM     73  F   UNL A   1      41.457  27.899  25.677  1.00  0.00    -0.200 F 
ATOM     74  F   UNL A   1      40.189  25.488  25.796  1.00  0.00    -0.200 F 
ENDBRANCH  50  64
BRANCH  51  75
ATOM     75  C   UNL A   1      39.661  34.081  36.999  1.00  0.00     0.064 A 
ATOM     76  C   UNL A   1      38.859  33.755  38.101  1.00  0.00     0.173 A 
ATOM     77  C   UNL A   1      40.405  35.269  37.059  1.00  0.00     0.173 A 
ATOM     78  F   UNL A   1      38.115  32.639  38.079  1.00  0.00    -0.203 F 
ATOM     79  C   UNL A   1      38.793  34.588  39.215  1.00  0.00     0.198 A 
ATOM     80  C   UNL A   1      40.356  36.089  38.185  1.00  0.00     0.198 A 
ATOM     81  F   UNL A   1      41.191  35.622  36.032  1.00  0.00    -0.203 F 
ATOM     82  F   UNL A   1      37.993  34.270  40.241  1.00  0.00    -0.200 F 
ATOM     83  C   UNL A   1      39.548  35.751  39.259  1.00  0.00     0.200 A 
ATOM     84  F   UNL A   1      41.097  37.206  38.230  1.00  0.00    -0.200 F 
ATOM     85  F   UNL A   1      39.491  36.548  40.335  1.00  0.00    -0.200 F 
ENDBRANCH  51  75
BRANCH  63  86
ATOM     86  C   UNL A   1      43.771  28.720  35.297  1.00  0.00     0.064 A 
ATOM     87  C   UNL A   1      45.092  29.160  35.128  1.00  0.00     0.173 A 
ATOM     88  C   UNL A   1      43.541  27.657  36.184  1.00  0.00     0.173 A 
ATOM     89  F   UNL A   1      45.365  30.162  34.278  1.00  0.00    -0.203 F 
ATOM     90  C   UNL A   1      46.143  28.545  35.804  1.00  0.00     0.198 A 
ATOM     91  C   UNL A   1      44.591  27.064  36.880  1.00  0.00     0.198 A 
ATOM     92  F   UNL A   1      42.296  27.201  36.385  1.00  0.00    -0.203 F 
ATOM     93  F   UNL A   1      47.402  28.953  35.592  1.00  0.00    -0.200 F 
ATOM     94  C   UNL A   1      45.891  27.505  36.685  1.00  0.00     0.200 A 
ATOM     95  F   UNL A   1      44.344  26.067  37.740  1.00  0.00    -0.200 F 
ATOM     96  F   UNL A   1      46.903  26.920  37.340  1.00  0.00    -0.200 F 
ENDBRANCH  63  86
ENDBRANCH  37  38
ENDBRANCH  29  32
ENDBRANCH  27  28
ENDBRANCH  26  27
ENDBRANCH   1  26
TORSDOF 15
ENDMDL
