MODEL 1
REMARK VINA RESULT:     -12.0      0.000      0.000
REMARK SMILES NC(=O)C[C@H](NC(=O)[C@@H]1CC(=O)N(CC2CC2)C1)C(=O)NCCCCNC(=O)c1ccc(-c2c3nc(c(-c4c(F)c(F)c(F)c(F)c4F)c4ccc([nH]4)c(-c4c(F)c(F)c(F)c(F)c4F)c4nc(c(-c5c(F)c(F)c(F)c(F)c5F)c5ccc2[nH]5)C=C4)C=C3)cc1
REMARK SMILES IDX 22 1 21 2 19 3 20 4 5 6 4 7 2 8 1 9 3 12 6 13 7 14 8 16 9 17
REMARK SMILES IDX 10 18 18 19 11 20 13 21 12 22 14 23 15 24 16 25 17 26 23 27
REMARK SMILES IDX 24 28 25 29 26 30 27 31 28 33 29 34 30 35 91 36 31 37 90 38
REMARK SMILES IDX 32 39 33 40 34 41 84 42 35 43 89 44 83 45 85 46 36 47 88 48
REMARK SMILES IDX 82 49 81 50 37 52 69 53 49 54 68 55 50 56 53 57 67 58 86 59
REMARK SMILES IDX 51 60 52 61 66 63 87 64 54 65 38 66 39 67 47 68 40 69 41 70
REMARK SMILES IDX 45 71 48 72 42 73 43 74 46 75 44 76 70 77 71 78 79 79 72 80
REMARK SMILES IDX 73 81 77 82 80 83 74 84 75 85 78 86 76 87 55 88 56 89 64 90
REMARK SMILES IDX 57 91 58 92 62 93 65 94 59 95 60 96 63 97 61 98
REMARK H PARENT 21 5 1 10 1 11 6 15 26 32 85 51 53 62
REMARK Flexibility Score: inf
ROOT
ATOM      1  C   UNL A   1      33.130  29.113  26.640  1.00  0.00     0.116 C 
ENDROOT
BRANCH   1   2
ATOM      2  N   UNL A   1      33.569  29.390  25.299  1.00  0.00    -0.354 N 
ATOM      3  C   UNL A   1      33.072  28.938  24.122  1.00  0.00     0.243 C 
ATOM      4  O   UNL A   1      33.635  29.343  23.097  1.00  0.00    -0.273 OA
ATOM      5  H   UNL A   1      34.343  29.996  25.226  1.00  0.00     0.163 HD
BRANCH   3   6
ATOM      6  C   UNL A   1      31.750  28.137  24.013  1.00  0.00     0.180 C 
BRANCH   6   7
ATOM      7  C   UNL A   1      30.610  29.141  23.890  1.00  0.00     0.134 C 
BRANCH   7   8
ATOM      8  C   UNL A   1      30.126  29.320  22.478  1.00  0.00     0.220 C 
ATOM      9  N   UNL A   1      31.010  29.934  21.644  1.00  0.00    -0.370 N 
ATOM     10  H   UNL A   1      30.772  30.090  20.702  1.00  0.00     0.159 HD
ATOM     11  H   UNL A   1      31.889  30.221  21.983  1.00  0.00     0.159 HD
ATOM     12  O   UNL A   1      29.010  29.013  22.080  1.00  0.00    -0.275 OA
ENDBRANCH   7   8
ENDBRANCH   6   7
BRANCH   6  13
ATOM     13  N   UNL A   1      31.593  26.882  24.782  1.00  0.00    -0.343 N 
ATOM     14  C   UNL A   1      32.212  25.860  25.395  1.00  0.00     0.226 C 
ATOM     15  H   UNL A   1      30.626  26.735  24.891  1.00  0.00     0.164 HD
ATOM     16  O   UNL A   1      31.395  25.101  25.948  1.00  0.00    -0.275 OA
BRANCH  14  17
ATOM     17  C   UNL A   1      33.667  25.390  25.346  1.00  0.00     0.107 C 
ATOM     18  C   UNL A   1      34.168  25.349  23.891  1.00  0.00     0.115 C 
ATOM     19  C   UNL A   1      34.152  24.074  25.900  1.00  0.00     0.133 C 
ATOM     20  C   UNL A   1      34.223  23.878  23.576  1.00  0.00     0.223 C 
ATOM     21  N   UNL A   1      34.282  23.184  24.779  1.00  0.00    -0.342 N 
ATOM     22  O   UNL A   1      34.259  23.404  22.455  1.00  0.00    -0.275 OA
BRANCH  21  23
ATOM     23  C   UNL A   1      34.176  21.733  24.817  1.00  0.00     0.123 C 
BRANCH  23  24
ATOM     24  C   UNL A   1      32.837  21.083  24.638  1.00  0.00     0.008 C 
ATOM     25  C   UNL A   1      32.450  20.144  23.526  1.00  0.00     0.006 C 
ATOM     26  C   UNL A   1      32.560  19.630  24.937  1.00  0.00     0.006 C 
ENDBRANCH  23  24
ENDBRANCH  21  23
ENDBRANCH  14  17
ENDBRANCH   6  13
ENDBRANCH   3   6
ENDBRANCH   1   2
BRANCH   1  27
ATOM     27  C   UNL A   1      31.942  29.988  27.031  1.00  0.00     0.023 C 
BRANCH  27  28
ATOM     28  C   UNL A   1      32.074  31.439  26.571  1.00  0.00     0.023 C 
BRANCH  28  29
ATOM     29  C   UNL A   1      33.003  32.289  27.424  1.00  0.00     0.116 C 
BRANCH  29  30
ATOM     30  N   UNL A   1      32.540  33.660  27.583  1.00  0.00    -0.352 N 
ATOM     31  C   UNL A   1      33.021  34.609  28.453  1.00  0.00     0.251 C 
ATOM     32  H   UNL A   1      31.797  33.940  26.999  1.00  0.00     0.163 HD
ATOM     33  O   UNL A   1      32.473  35.696  28.584  1.00  0.00    -0.269 OA
BRANCH  31  34
ATOM     34  C   UNL A   1      34.207  34.262  29.258  1.00  0.00     0.039 A 
ATOM     35  C   UNL A   1      34.036  33.599  30.474  1.00  0.00     0.014 A 
ATOM     36  C   UNL A   1      35.481  34.492  28.736  1.00  0.00     0.014 A 
ATOM     37  C   UNL A   1      35.155  33.099  31.141  1.00  0.00     0.010 A 
ATOM     38  C   UNL A   1      36.582  33.921  29.357  1.00  0.00     0.010 A 
ATOM     39  C   UNL A   1      36.431  33.221  30.567  1.00  0.00    -0.014 A 
BRANCH  39  40
ATOM     40  C   UNL A   1      37.644  32.660  31.212  1.00  0.00     0.031 A 
ATOM     41  C   UNL A   1      38.367  31.526  30.542  1.00  0.00     0.074 A 
ATOM     42  C   UNL A   1      38.027  33.088  32.430  1.00  0.00     0.049 A 
ATOM     43  N   UNL A   1      39.327  30.766  31.002  1.00  0.00    -0.248 NA
ATOM     44  C   UNL A   1      37.922  31.179  29.183  1.00  0.00     0.031 C 
ATOM     45  C   UNL A   1      37.393  34.165  33.191  1.00  0.00     0.029 A 
ATOM     46  N   UNL A   1      39.035  32.648  33.254  1.00  0.00    -0.354 N 
ATOM     47  C   UNL A   1      39.579  29.837  30.001  1.00  0.00     0.074 A 
ATOM     48  C   UNL A   1      38.635  30.091  28.936  1.00  0.00     0.031 C 
ATOM     49  C   UNL A   1      38.031  34.308  34.364  1.00  0.00     0.029 A 
ATOM     50  C   UNL A   1      39.083  33.301  34.462  1.00  0.00     0.049 A 
ATOM     51  H   UNL A   1      39.662  31.933  33.002  1.00  0.00     0.167 HD
ATOM     52  C   UNL A   1      40.527  28.872  29.968  1.00  0.00     0.037 A 
ATOM     53  C   UNL A   1      39.872  33.091  35.535  1.00  0.00     0.037 A 
ATOM     54  C   UNL A   1      41.479  28.645  31.021  1.00  0.00     0.049 A 
ATOM     55  C   UNL A   1      40.900  31.990  35.485  1.00  0.00     0.074 A 
ATOM     56  C   UNL A   1      42.510  27.724  31.066  1.00  0.00     0.029 A 
ATOM     57  N   UNL A   1      41.512  29.344  32.219  1.00  0.00    -0.354 N 
ATOM     58  N   UNL A   1      41.163  31.146  34.517  1.00  0.00    -0.248 NA
ATOM     59  C   UNL A   1      41.744  31.813  36.676  1.00  0.00     0.031 C 
ATOM     60  C   UNL A   1      43.132  27.828  32.313  1.00  0.00     0.029 A 
ATOM     61  C   UNL A   1      42.534  28.861  33.018  1.00  0.00     0.049 A 
ATOM     62  H   UNL A   1      40.900  30.076  32.464  1.00  0.00     0.167 HD
ATOM     63  C   UNL A   1      42.227  30.372  34.962  1.00  0.00     0.074 A 
ATOM     64  C   UNL A   1      42.561  30.843  36.288  1.00  0.00     0.031 C 
ATOM     65  C   UNL A   1      42.874  29.367  34.323  1.00  0.00     0.037 A 
BRANCH  52  66
ATOM     66  C   UNL A   1      40.575  27.987  28.756  1.00  0.00     0.064 A 
ATOM     67  C   UNL A   1      39.857  26.783  28.691  1.00  0.00     0.173 A 
ATOM     68  C   UNL A   1      41.329  28.360  27.633  1.00  0.00     0.173 A 
ATOM     69  F   UNL A   1      39.131  26.371  29.741  1.00  0.00    -0.203 F 
ATOM     70  C   UNL A   1      39.920  25.970  27.562  1.00  0.00     0.198 A 
ATOM     71  C   UNL A   1      41.359  27.565  26.492  1.00  0.00     0.198 A 
ATOM     72  F   UNL A   1      42.031  29.503  27.638  1.00  0.00    -0.203 F 
ATOM     73  F   UNL A   1      39.275  24.796  27.548  1.00  0.00    -0.200 F 
ATOM     74  C   UNL A   1      40.664  26.366  26.461  1.00  0.00     0.200 A 
ATOM     75  F   UNL A   1      42.067  27.955  25.423  1.00  0.00    -0.200 F 
ATOM     76  F   UNL A   1      40.718  25.586  25.372  1.00  0.00    -0.200 F 
ENDBRANCH  52  66
BRANCH  53  77
ATOM     77  C   UNL A   1      39.732  33.946  36.744  1.00  0.00     0.064 A 
ATOM     78  C   UNL A   1      40.429  35.158  36.852  1.00  0.00     0.173 A 
ATOM     79  C   UNL A   1      38.914  33.569  37.818  1.00  0.00     0.173 A 
ATOM     80  F   UNL A   1      41.240  35.555  35.860  1.00  0.00    -0.203 F 
ATOM     81  C   UNL A   1      40.333  35.946  37.997  1.00  0.00     0.198 A 
ATOM     82  C   UNL A   1      38.793  34.374  38.950  1.00  0.00     0.198 A 
ATOM     83  F   UNL A   1      38.221  32.422  37.766  1.00  0.00    -0.203 F 
ATOM     84  F   UNL A   1      41.052  37.073  38.095  1.00  0.00    -0.200 F 
ATOM     85  C   UNL A   1      39.511  35.556  39.044  1.00  0.00     0.200 A 
ATOM     86  F   UNL A   1      37.986  34.000  39.952  1.00  0.00    -0.200 F 
ATOM     87  F   UNL A   1      39.417  36.314  40.145  1.00  0.00    -0.200 F 
ENDBRANCH  53  77
BRANCH  65  88
ATOM     88  C   UNL A   1      44.060  28.749  35.007  1.00  0.00     0.064 A 
ATOM     89  C   UNL A   1      45.355  29.265  34.863  1.00  0.00     0.173 A 
ATOM     90  C   UNL A   1      43.875  27.674  35.891  1.00  0.00     0.173 A 
ATOM     91  F   UNL A   1      45.587  30.283  34.019  1.00  0.00    -0.203 F 
ATOM     92  C   UNL A   1      46.424  28.722  35.573  1.00  0.00     0.198 A 
ATOM     93  C   UNL A   1      44.938  27.156  36.623  1.00  0.00     0.198 A 
ATOM     94  F   UNL A   1      42.653  27.149  36.070  1.00  0.00    -0.203 F 
ATOM     95  F   UNL A   1      47.658  29.210  35.397  1.00  0.00    -0.200 F 
ATOM     96  C   UNL A   1      46.212  27.677  36.460  1.00  0.00     0.200 A 
ATOM     97  F   UNL A   1      44.727  26.160  37.494  1.00  0.00    -0.200 F 
ATOM     98  F   UNL A   1      47.237  27.173  37.161  1.00  0.00    -0.200 F 
ENDBRANCH  65  88
ENDBRANCH  39  40
ENDBRANCH  31  34
ENDBRANCH  29  30
ENDBRANCH  28  29
ENDBRANCH  27  28
ENDBRANCH   1  27
TORSDOF 17
ENDMDL
MODEL 2
REMARK VINA RESULT:     -11.9      1.157      2.070
REMARK SMILES NC(=O)C[C@H](NC(=O)[C@@H]1CC(=O)N(CC2CC2)C1)C(=O)NCCCCNC(=O)c1ccc(-c2c3nc(c(-c4c(F)c(F)c(F)c(F)c4F)c4ccc([nH]4)c(-c4c(F)c(F)c(F)c(F)c4F)c4nc(c(-c5c(F)c(F)c(F)c(F)c5F)c5ccc2[nH]5)C=C4)C=C3)cc1
REMARK SMILES IDX 22 1 21 2 19 3 20 4 5 6 4 7 2 8 1 9 3 12 6 13 7 14 8 16 9 17
REMARK SMILES IDX 10 18 18 19 11 20 13 21 12 22 14 23 15 24 16 25 17 26 23 27
REMARK SMILES IDX 24 28 25 29 26 30 27 31 28 33 29 34 30 35 91 36 31 37 90 38
REMARK SMILES IDX 32 39 33 40 34 41 84 42 35 43 89 44 83 45 85 46 36 47 88 48
REMARK SMILES IDX 82 49 81 50 37 52 69 53 49 54 68 55 50 56 53 57 67 58 86 59
REMARK SMILES IDX 51 60 52 61 66 63 87 64 54 65 38 66 39 67 47 68 40 69 41 70
REMARK SMILES IDX 45 71 48 72 42 73 43 74 46 75 44 76 70 77 71 78 79 79 72 80
REMARK SMILES IDX 73 81 77 82 80 83 74 84 75 85 78 86 76 87 55 88 56 89 64 90
REMARK SMILES IDX 57 91 58 92 62 93 65 94 59 95 60 96 63 97 61 98
REMARK H PARENT 21 5 1 10 1 11 6 15 26 32 85 51 53 62
REMARK Flexibility Score: inf
ROOT
ATOM      1  C   UNL A   1      32.624  29.505  25.839  1.00  0.00     0.116 C 
ENDROOT
BRANCH   1   2
ATOM      2  N   UNL A   1      31.672  29.746  24.788  1.00  0.00    -0.354 N 
ATOM      3  C   UNL A   1      31.151  28.878  23.886  1.00  0.00     0.243 C 
ATOM      4  O   UNL A   1      30.332  29.347  23.085  1.00  0.00    -0.273 OA
ATOM      5  H   UNL A   1      31.353  30.675  24.714  1.00  0.00     0.163 HD
BRANCH   3   6
ATOM      6  C   UNL A   1      31.376  27.347  23.957  1.00  0.00     0.180 C 
BRANCH   6   7
ATOM      7  C   UNL A   1      31.595  26.845  22.534  1.00  0.00     0.134 C 
BRANCH   7   8
ATOM      8  C   UNL A   1      33.045  26.778  22.145  1.00  0.00     0.220 C 
ATOM      9  N   UNL A   1      33.541  27.916  21.585  1.00  0.00    -0.370 N 
ATOM     10  H   UNL A   1      34.483  27.956  21.302  1.00  0.00     0.159 HD
ATOM     11  H   UNL A   1      32.957  28.700  21.464  1.00  0.00     0.159 HD
ATOM     12  O   UNL A   1      33.748  25.781  22.245  1.00  0.00    -0.275 OA
ENDBRANCH   7   8
ENDBRANCH   6   7
BRANCH   6  13
ATOM     13  N   UNL A   1      30.625  26.546  24.949  1.00  0.00    -0.343 N 
ATOM     14  C   UNL A   1      30.495  25.358  25.561  1.00  0.00     0.226 C 
ATOM     15  H   UNL A   1      29.927  27.133  25.318  1.00  0.00     0.164 HD
ATOM     16  O   UNL A   1      29.598  25.387  26.423  1.00  0.00    -0.275 OA
BRANCH  14  17
ATOM     17  C   UNL A   1      31.097  23.989  25.238  1.00  0.00     0.107 C 
ATOM     18  C   UNL A   1      30.915  23.030  26.429  1.00  0.00     0.115 C 
ATOM     19  C   UNL A   1      32.538  23.767  24.852  1.00  0.00     0.133 C 
ATOM     20  C   UNL A   1      32.298  22.926  27.015  1.00  0.00     0.223 C 
ATOM     21  N   UNL A   1      33.210  23.300  26.034  1.00  0.00    -0.342 N 
ATOM     22  O   UNL A   1      32.554  22.532  28.139  1.00  0.00    -0.275 OA
BRANCH  21  23
ATOM     23  C   UNL A   1      34.622  23.466  26.343  1.00  0.00     0.123 C 
BRANCH  23  24
ATOM     24  C   UNL A   1      35.582  23.820  25.249  1.00  0.00     0.008 C 
ATOM     25  C   UNL A   1      37.084  23.725  25.323  1.00  0.00     0.006 C 
ATOM     26  C   UNL A   1      36.318  22.801  24.412  1.00  0.00     0.006 C 
ENDBRANCH  23  24
ENDBRANCH  21  23
ENDBRANCH  14  17
ENDBRANCH   6  13
ENDBRANCH   3   6
ENDBRANCH   1   2
BRANCH   1  27
ATOM     27  C   UNL A   1      32.252  30.257  27.114  1.00  0.00     0.023 C 
BRANCH  27  28
ATOM     28  C   UNL A   1      31.988  31.746  26.891  1.00  0.00     0.023 C 
BRANCH  28  29
ATOM     29  C   UNL A   1      33.053  32.667  27.467  1.00  0.00     0.116 C 
BRANCH  29  30
ATOM     30  N   UNL A   1      32.575  34.025  27.688  1.00  0.00    -0.352 N 
ATOM     31  C   UNL A   1      33.033  34.930  28.616  1.00  0.00     0.251 C 
ATOM     32  H   UNL A   1      31.839  34.328  27.108  1.00  0.00     0.163 HD
ATOM     33  O   UNL A   1      32.474  36.004  28.794  1.00  0.00    -0.269 OA
BRANCH  31  34
ATOM     34  C   UNL A   1      34.207  34.550  29.422  1.00  0.00     0.039 A 
ATOM     35  C   UNL A   1      34.016  33.973  30.678  1.00  0.00     0.014 A 
ATOM     36  C   UNL A   1      35.485  34.661  28.868  1.00  0.00     0.014 A 
ATOM     37  C   UNL A   1      35.111  33.438  31.357  1.00  0.00     0.010 A 
ATOM     38  C   UNL A   1      36.556  34.054  29.506  1.00  0.00     0.010 A 
ATOM     39  C   UNL A   1      36.381  33.438  30.757  1.00  0.00    -0.014 A 
BRANCH  39  40
ATOM     40  C   UNL A   1      37.565  32.834  31.417  1.00  0.00     0.031 A 
ATOM     41  C   UNL A   1      38.234  31.653  30.773  1.00  0.00     0.074 A 
ATOM     42  C   UNL A   1      37.969  33.271  32.625  1.00  0.00     0.049 A 
ATOM     43  N   UNL A   1      39.157  30.858  31.251  1.00  0.00    -0.248 NA
ATOM     44  C   UNL A   1      37.773  31.297  29.422  1.00  0.00     0.031 C 
ATOM     45  C   UNL A   1      37.387  34.394  33.361  1.00  0.00     0.029 A 
ATOM     46  N   UNL A   1      38.954  32.802  33.460  1.00  0.00    -0.354 N 
ATOM     47  C   UNL A   1      39.364  29.896  30.272  1.00  0.00     0.074 A 
ATOM     48  C   UNL A   1      38.433  30.171  29.200  1.00  0.00     0.031 C 
ATOM     49  C   UNL A   1      38.030  34.533  34.532  1.00  0.00     0.029 A 
ATOM     50  C   UNL A   1      39.033  33.479  34.654  1.00  0.00     0.049 A 
ATOM     51  H   UNL A   1      39.547  32.052  33.225  1.00  0.00     0.167 HD
ATOM     52  C   UNL A   1      40.265  28.886  30.261  1.00  0.00     0.037 A 
ATOM     53  C   UNL A   1      39.811  33.256  35.732  1.00  0.00     0.037 A 
ATOM     54  C   UNL A   1      41.204  28.637  31.321  1.00  0.00     0.049 A 
ATOM     55  C   UNL A   1      40.785  32.106  35.708  1.00  0.00     0.074 A 
ATOM     56  C   UNL A   1      42.190  27.670  31.388  1.00  0.00     0.029 A 
ATOM     57  N   UNL A   1      41.270  29.361  32.503  1.00  0.00    -0.354 N 
ATOM     58  N   UNL A   1      41.007  31.229  34.760  1.00  0.00    -0.248 NA
ATOM     59  C   UNL A   1      41.618  31.916  36.904  1.00  0.00     0.031 C 
ATOM     60  C   UNL A   1      42.816  27.772  32.633  1.00  0.00     0.029 A 
ATOM     61  C   UNL A   1      42.268  28.847  33.313  1.00  0.00     0.049 A 
ATOM     62  H   UNL A   1      40.694  30.127  32.730  1.00  0.00     0.167 HD
ATOM     63  C   UNL A   1      42.033  30.415  35.223  1.00  0.00     0.074 A 
ATOM     64  C   UNL A   1      42.388  30.899  36.539  1.00  0.00     0.031 C 
ATOM     65  C   UNL A   1      42.632  29.366  34.608  1.00  0.00     0.037 A 
BRANCH  52  66
ATOM     66  C   UNL A   1      40.271  27.973  29.070  1.00  0.00     0.064 A 
ATOM     67  C   UNL A   1      39.526  26.783  29.046  1.00  0.00     0.173 A 
ATOM     68  C   UNL A   1      41.012  28.304  27.925  1.00  0.00     0.173 A 
ATOM     69  F   UNL A   1      38.811  26.412  30.119  1.00  0.00    -0.203 F 
ATOM     70  C   UNL A   1      39.550  25.944  27.935  1.00  0.00     0.198 A 
ATOM     71  C   UNL A   1      41.003  27.482  26.802  1.00  0.00     0.198 A 
ATOM     72  F   UNL A   1      41.738  29.431  27.891  1.00  0.00    -0.203 F 
ATOM     73  F   UNL A   1      38.880  24.785  27.960  1.00  0.00    -0.200 F 
ATOM     74  C   UNL A   1      40.282  26.298  26.811  1.00  0.00     0.200 A 
ATOM     75  F   UNL A   1      41.698  27.833  25.711  1.00  0.00    -0.200 F 
ATOM     76  F   UNL A   1      40.298  25.493  25.740  1.00  0.00    -0.200 F 
ENDBRANCH  52  66
BRANCH  53  77
ATOM     77  C   UNL A   1      39.712  34.144  36.921  1.00  0.00     0.064 A 
ATOM     78  C   UNL A   1      40.440  35.340  36.989  1.00  0.00     0.173 A 
ATOM     79  C   UNL A   1      38.901  33.813  38.017  1.00  0.00     0.173 A 
ATOM     80  F   UNL A   1      41.244  35.691  35.974  1.00  0.00    -0.203 F 
ATOM     81  C   UNL A   1      40.381  36.158  38.115  1.00  0.00     0.198 A 
ATOM     82  C   UNL A   1      38.819  34.648  39.130  1.00  0.00     0.198 A 
ATOM     83  F   UNL A   1      38.179  32.684  38.004  1.00  0.00    -0.203 F 
ATOM     84  F   UNL A   1      41.130  37.268  38.174  1.00  0.00    -0.200 F 
ATOM     85  C   UNL A   1      39.567  35.814  39.184  1.00  0.00     0.200 A 
ATOM     86  F   UNL A   1      38.018  34.320  40.154  1.00  0.00    -0.200 F 
ATOM     87  F   UNL A   1      39.510  36.601  40.266  1.00  0.00    -0.200 F 
ENDBRANCH  53  77
BRANCH  65  88
ATOM     88  C   UNL A   1      43.786  28.707  35.307  1.00  0.00     0.064 A 
ATOM     89  C   UNL A   1      43.608  27.637  36.193  1.00  0.00     0.173 A 
ATOM     90  C   UNL A   1      45.100  29.103  35.009  1.00  0.00     0.173 A 
ATOM     91  F   UNL A   1      42.372  27.230  36.521  1.00  0.00    -0.203 F 
ATOM     92  C   UNL A   1      44.703  26.992  36.764  1.00  0.00     0.198 A 
ATOM     93  C   UNL A   1      46.192  28.436  35.555  1.00  0.00     0.198 A 
ATOM     94  F   UNL A   1      45.324  30.118  34.160  1.00  0.00    -0.203 F 
ATOM     95  F   UNL A   1      44.510  25.992  37.633  1.00  0.00    -0.200 F 
ATOM     96  C   UNL A   1      45.993  27.384  36.435  1.00  0.00     0.200 A 
ATOM     97  F   UNL A   1      47.436  28.804  35.219  1.00  0.00    -0.200 F 
ATOM     98  F   UNL A   1      47.045  26.745  36.966  1.00  0.00    -0.200 F 
ENDBRANCH  65  88
ENDBRANCH  39  40
ENDBRANCH  31  34
ENDBRANCH  29  30
ENDBRANCH  28  29
ENDBRANCH  27  28
ENDBRANCH   1  27
TORSDOF 17
ENDMDL
MODEL 3
REMARK VINA RESULT:     -11.8      5.337     10.049
REMARK SMILES NC(=O)C[C@H](NC(=O)[C@@H]1CC(=O)N(CC2CC2)C1)C(=O)NCCCCNC(=O)c1ccc(-c2c3nc(c(-c4c(F)c(F)c(F)c(F)c4F)c4ccc([nH]4)c(-c4c(F)c(F)c(F)c(F)c4F)c4nc(c(-c5c(F)c(F)c(F)c(F)c5F)c5ccc2[nH]5)C=C4)C=C3)cc1
REMARK SMILES IDX 22 1 21 2 19 3 20 4 5 6 4 7 2 8 1 9 3 12 6 13 7 14 8 16 9 17
REMARK SMILES IDX 10 18 18 19 11 20 13 21 12 22 14 23 15 24 16 25 17 26 23 27
REMARK SMILES IDX 24 28 25 29 26 30 27 31 28 33 29 34 30 35 91 36 31 37 90 38
REMARK SMILES IDX 32 39 33 40 34 41 84 42 35 43 89 44 83 45 85 46 36 47 88 48
REMARK SMILES IDX 82 49 81 50 37 52 69 53 49 54 68 55 50 56 53 57 67 58 86 59
REMARK SMILES IDX 51 60 52 61 66 63 87 64 54 65 38 66 39 67 47 68 40 69 41 70
REMARK SMILES IDX 45 71 48 72 42 73 43 74 46 75 44 76 70 77 71 78 79 79 72 80
REMARK SMILES IDX 73 81 77 82 80 83 74 84 75 85 78 86 76 87 55 88 56 89 64 90
REMARK SMILES IDX 57 91 58 92 62 93 65 94 59 95 60 96 63 97 61 98
REMARK H PARENT 21 5 1 10 1 11 6 15 26 32 85 51 53 62
REMARK Flexibility Score: inf
ROOT
ATOM      1  C   UNL A   1      36.089  20.811  24.874  1.00  0.00     0.116 C 
ENDROOT
BRANCH   1   2
ATOM      2  N   UNL A   1      35.512  21.137  26.149  1.00  0.00    -0.354 N 
ATOM      3  C   UNL A   1      34.301  21.680  26.430  1.00  0.00     0.243 C 
ATOM      4  O   UNL A   1      34.042  21.852  27.628  1.00  0.00    -0.273 OA
ATOM      5  H   UNL A   1      36.076  20.938  26.931  1.00  0.00     0.163 HD
BRANCH   3   6
ATOM      6  C   UNL A   1      33.197  21.886  25.362  1.00  0.00     0.180 C 
BRANCH   6   7
ATOM      7  C   UNL A   1      32.180  20.763  25.527  1.00  0.00     0.134 C 
BRANCH   7   8
ATOM      8  C   UNL A   1      32.738  19.405  25.206  1.00  0.00     0.220 C 
ATOM      9  N   UNL A   1      32.826  18.556  26.267  1.00  0.00    -0.370 N 
ATOM     10  H   UNL A   1      33.181  17.646  26.143  1.00  0.00     0.159 HD
ATOM     11  H   UNL A   1      32.533  18.852  27.159  1.00  0.00     0.159 HD
ATOM     12  O   UNL A   1      33.154  19.065  24.106  1.00  0.00    -0.275 OA
ENDBRANCH   7   8
ENDBRANCH   6   7
BRANCH   6  13
ATOM     13  N   UNL A   1      33.564  22.404  24.026  1.00  0.00    -0.343 N 
ATOM     14  C   UNL A   1      33.430  23.400  23.135  1.00  0.00     0.226 C 
ATOM     15  H   UNL A   1      34.160  21.736  23.616  1.00  0.00     0.164 HD
ATOM     16  O   UNL A   1      34.130  23.204  22.125  1.00  0.00    -0.275 OA
BRANCH  14  17
ATOM     17  C   UNL A   1      32.446  24.570  23.076  1.00  0.00     0.107 C 
ATOM     18  C   UNL A   1      32.714  25.433  21.829  1.00  0.00     0.115 C 
ATOM     19  C   UNL A   1      32.289  25.602  24.165  1.00  0.00     0.133 C 
ATOM     20  C   UNL A   1      33.357  26.674  22.389  1.00  0.00     0.223 C 
ATOM     21  N   UNL A   1      33.022  26.762  23.735  1.00  0.00    -0.342 N 
ATOM     22  O   UNL A   1      34.011  27.474  21.744  1.00  0.00    -0.275 OA
BRANCH  21  23
ATOM     23  C   UNL A   1      33.628  27.764  24.598  1.00  0.00     0.123 C 
BRANCH  23  24
ATOM     24  C   UNL A   1      33.599  27.577  26.084  1.00  0.00     0.008 C 
ATOM     25  C   UNL A   1      33.864  28.641  27.117  1.00  0.00     0.006 C 
ATOM     26  C   UNL A   1      32.481  28.063  26.973  1.00  0.00     0.006 C 
ENDBRANCH  23  24
ENDBRANCH  21  23
ENDBRANCH  14  17
ENDBRANCH   6  13
ENDBRANCH   3   6
ENDBRANCH   1   2
BRANCH   1  27
ATOM     27  C   UNL A   1      37.588  21.097  24.849  1.00  0.00     0.023 C 
BRANCH  27  28
ATOM     28  C   UNL A   1      38.451  19.862  25.103  1.00  0.00     0.023 C 
BRANCH  28  29
ATOM     29  C   UNL A   1      39.589  20.080  26.088  1.00  0.00     0.116 C 
BRANCH  29  30
ATOM     30  N   UNL A   1      40.583  19.016  26.058  1.00  0.00    -0.352 N 
ATOM     31  C   UNL A   1      41.951  19.150  26.101  1.00  0.00     0.251 C 
ATOM     32  H   UNL A   1      40.236  18.096  25.999  1.00  0.00     0.163 HD
ATOM     33  O   UNL A   1      42.694  18.189  25.948  1.00  0.00    -0.269 OA
BRANCH  31  34
ATOM     34  C   UNL A   1      42.501  20.502  26.305  1.00  0.00     0.039 A 
ATOM     35  C   UNL A   1      42.845  21.274  25.194  1.00  0.00     0.014 A 
ATOM     36  C   UNL A   1      42.554  21.034  27.596  1.00  0.00     0.014 A 
ATOM     37  C   UNL A   1      43.181  22.616  25.374  1.00  0.00     0.010 A 
ATOM     38  C   UNL A   1      42.806  22.388  27.762  1.00  0.00     0.010 A 
ATOM     39  C   UNL A   1      43.124  23.192  26.654  1.00  0.00    -0.014 A 
BRANCH  39  40
ATOM     40  C   UNL A   1      43.421  24.627  26.887  1.00  0.00     0.031 A 
ATOM     41  C   UNL A   1      44.819  25.127  26.666  1.00  0.00     0.074 A 
ATOM     42  C   UNL A   1      42.476  25.444  27.391  1.00  0.00     0.049 A 
ATOM     43  N   UNL A   1      45.348  26.283  26.976  1.00  0.00    -0.248 NA
ATOM     44  C   UNL A   1      45.761  24.183  26.043  1.00  0.00     0.031 C 
ATOM     45  C   UNL A   1      41.090  25.071  27.670  1.00  0.00     0.029 A 
ATOM     46  N   UNL A   1      42.552  26.759  27.783  1.00  0.00    -0.354 N 
ATOM     47  C   UNL A   1      46.685  26.192  26.613  1.00  0.00     0.074 A 
ATOM     48  C   UNL A   1      46.900  24.852  26.113  1.00  0.00     0.031 C 
ATOM     49  C   UNL A   1      40.442  26.133  28.177  1.00  0.00     0.029 A 
ATOM     50  C   UNL A   1      41.379  27.245  28.311  1.00  0.00     0.049 A 
ATOM     51  H   UNL A   1      43.368  27.302  27.694  1.00  0.00     0.167 HD
ATOM     52  C   UNL A   1      47.640  27.148  26.673  1.00  0.00     0.037 A 
ATOM     53  C   UNL A   1      41.102  28.443  28.861  1.00  0.00     0.037 A 
ATOM     54  C   UNL A   1      47.409  28.485  27.148  1.00  0.00     0.049 A 
ATOM     55  C   UNL A   1      42.191  29.481  28.945  1.00  0.00     0.074 A 
ATOM     56  C   UNL A   1      48.298  29.544  27.206  1.00  0.00     0.029 A 
ATOM     57  N   UNL A   1      46.201  28.946  27.650  1.00  0.00    -0.354 N 
ATOM     58  N   UNL A   1      43.441  29.403  28.557  1.00  0.00    -0.248 NA
ATOM     59  C   UNL A   1      41.832  30.776  29.541  1.00  0.00     0.031 C 
ATOM     60  C   UNL A   1      47.643  30.629  27.795  1.00  0.00     0.029 A 
ATOM     61  C   UNL A   1      46.328  30.269  28.039  1.00  0.00     0.049 A 
ATOM     62  H   UNL A   1      45.376  28.412  27.718  1.00  0.00     0.167 HD
ATOM     63  C   UNL A   1      44.002  30.647  28.817  1.00  0.00     0.074 A 
ATOM     64  C   UNL A   1      42.959  31.461  29.401  1.00  0.00     0.031 C 
ATOM     65  C   UNL A   1      45.267  31.076  28.586  1.00  0.00     0.037 A 
BRANCH  52  66
ATOM     66  C   UNL A   1      49.024  26.778  26.221  1.00  0.00     0.064 A 
ATOM     67  C   UNL A   1      49.450  26.987  24.899  1.00  0.00     0.173 A 
ATOM     68  C   UNL A   1      49.945  26.231  27.127  1.00  0.00     0.173 A 
ATOM     69  F   UNL A   1      48.606  27.494  23.988  1.00  0.00    -0.203 F 
ATOM     70  C   UNL A   1      50.734  26.630  24.496  1.00  0.00     0.198 A 
ATOM     71  C   UNL A   1      51.240  25.912  26.729  1.00  0.00     0.198 A 
ATOM     72  F   UNL A   1      49.593  26.015  28.403  1.00  0.00    -0.203 F 
ATOM     73  F   UNL A   1      51.097  26.782  23.215  1.00  0.00    -0.200 F 
ATOM     74  C   UNL A   1      51.630  26.101  25.412  1.00  0.00     0.200 A 
ATOM     75  F   UNL A   1      52.109  25.414  27.619  1.00  0.00    -0.200 F 
ATOM     76  F   UNL A   1      52.868  25.765  25.024  1.00  0.00    -0.200 F 
ENDBRANCH  52  66
BRANCH  53  77
ATOM     77  C   UNL A   1      39.734  28.735  29.367  1.00  0.00     0.064 A 
ATOM     78  C   UNL A   1      39.374  28.431  30.688  1.00  0.00     0.173 A 
ATOM     79  C   UNL A   1      38.754  29.309  28.543  1.00  0.00     0.173 A 
ATOM     80  F   UNL A   1      40.270  27.863  31.510  1.00  0.00    -0.203 F 
ATOM     81  C   UNL A   1      38.084  28.666  31.157  1.00  0.00     0.198 A 
ATOM     82  C   UNL A   1      37.473  29.573  29.023  1.00  0.00     0.198 A 
ATOM     83  F   UNL A   1      39.045  29.624  27.272  1.00  0.00    -0.203 F 
ATOM     84  F   UNL A   1      37.754  28.317  32.408  1.00  0.00    -0.200 F 
ATOM     85  C   UNL A   1      37.135  29.242  30.326  1.00  0.00     0.200 A 
ATOM     86  F   UNL A   1      36.563  30.144  28.221  1.00  0.00    -0.200 F 
ATOM     87  F   UNL A   1      35.894  29.469  30.778  1.00  0.00    -0.200 F 
ENDBRANCH  53  77
BRANCH  65  88
ATOM     88  C   UNL A   1      45.588  32.511  28.889  1.00  0.00     0.064 A 
ATOM     89  C   UNL A   1      46.123  32.911  30.121  1.00  0.00     0.173 A 
ATOM     90  C   UNL A   1      45.438  33.486  27.889  1.00  0.00     0.173 A 
ATOM     91  F   UNL A   1      46.272  32.020  31.113  1.00  0.00    -0.203 F 
ATOM     92  C   UNL A   1      46.487  34.237  30.345  1.00  0.00     0.198 A 
ATOM     93  C   UNL A   1      45.834  34.802  28.105  1.00  0.00     0.198 A 
ATOM     94  F   UNL A   1      44.938  33.152  26.689  1.00  0.00    -0.203 F 
ATOM     95  F   UNL A   1      46.967  34.604  31.540  1.00  0.00    -0.200 F 
ATOM     96  C   UNL A   1      46.354  35.177  29.333  1.00  0.00     0.200 A 
ATOM     97  F   UNL A   1      45.723  35.703  27.119  1.00  0.00    -0.200 F 
ATOM     98  F   UNL A   1      46.730  36.446  29.543  1.00  0.00    -0.200 F 
ENDBRANCH  65  88
ENDBRANCH  39  40
ENDBRANCH  31  34
ENDBRANCH  29  30
ENDBRANCH  28  29
ENDBRANCH  27  28
ENDBRANCH   1  27
TORSDOF 17
ENDMDL
