MODEL 1
REMARK VINA RESULT:     -11.9      0.000      0.000
REMARK SMILES CCCCCCNC(=O)Oc1cccc(-c2ccc([C@@H](C)C(=O)NCCCCNC(=O)c3ccc(-c4c5nc(c(-c6c(F)c(F)c(F)c(F)c6F)c6ccc([nH]6)c(-c6c(F)c(F)c(F)c(F)c6F)c6nc(c(-c7c(F)c(F)c(F)c(F)c7F)c7ccc4[nH]7)C=C6)C=C5)cc3)cc2)c1
REMARK SMILES IDX 20 1 21 2 19 3 16 4 17 5 96 6 18 7 95 8 15 9 11 10 12 11
REMARK SMILES IDX 97 12 13 13 14 14 10 15 8 16 7 17 9 19 6 20 5 21 4 22 3 23
REMARK SMILES IDX 2 24 1 25 22 26 23 27 24 28 25 30 26 31 27 32 28 33 29 34
REMARK SMILES IDX 30 35 31 37 32 38 33 39 94 40 34 41 93 42 35 43 36 44 37 45
REMARK SMILES IDX 87 46 38 47 92 48 86 49 88 50 39 51 91 52 85 53 84 54 40 56
REMARK SMILES IDX 72 57 52 58 71 59 53 60 56 61 70 62 89 63 54 64 55 65 69 67
REMARK SMILES IDX 90 68 57 69 41 70 42 71 50 72 43 73 44 74 48 75 51 76 45 77
REMARK SMILES IDX 46 78 49 79 47 80 73 81 74 82 82 83 75 84 76 85 80 86 83 87
REMARK SMILES IDX 77 88 78 89 81 90 79 91 58 92 59 93 67 94 60 95 61 96 65 97
REMARK SMILES IDX 68 98 62 99 63 100 66 101 64 102
REMARK H PARENT 7 18 24 29 29 36 88 55 56 66
REMARK Flexibility Score: inf
ROOT
ATOM      1  C   UNL A   1      32.525  20.719  25.497  1.00  0.00     0.105 C 
ATOM      2  C   UNL A   1      32.855  19.678  24.428  1.00  0.00     0.023 C 
ENDROOT
BRANCH   1   3
ATOM      3  C   UNL A   1      31.850  21.990  25.007  1.00  0.00    -0.036 A 
ATOM      4  C   UNL A   1      30.758  24.515  24.219  1.00  0.00    -0.018 A 
ATOM      5  C   UNL A   1      31.368  23.653  23.295  1.00  0.00     0.009 A 
ATOM      6  C   UNL A   1      30.659  24.052  25.540  1.00  0.00     0.009 A 
ATOM      7  C   UNL A   1      31.868  22.400  23.673  1.00  0.00     0.005 A 
ATOM      8  C   UNL A   1      31.213  22.827  25.933  1.00  0.00     0.005 A 
BRANCH   4   9
ATOM      9  C   UNL A   1      30.266  25.856  23.816  1.00  0.00    -0.015 A 
ATOM     10  C   UNL A   1      30.665  28.095  22.941  1.00  0.00     0.133 A 
ATOM     11  C   UNL A   1      29.314  28.412  23.029  1.00  0.00     0.047 A 
ATOM     12  C   UNL A   1      31.143  26.840  23.326  1.00  0.00     0.056 A 
ATOM     13  C   UNL A   1      28.427  27.452  23.501  1.00  0.00     0.004 A 
ATOM     14  C   UNL A   1      28.901  26.197  23.898  1.00  0.00     0.009 A 
BRANCH  10  15
ATOM     15  O   UNL A   1      31.539  29.138  22.592  1.00  0.00    -0.410 OA
BRANCH  15  16
ATOM     16  C   UNL A   1      32.899  28.979  22.811  1.00  0.00     0.412 C 
ATOM     17  N   UNL A   1      33.278  29.346  24.074  1.00  0.00    -0.321 N 
ATOM     18  H   UNL A   1      34.238  29.288  24.282  1.00  0.00     0.167 HD
ATOM     19  O   UNL A   1      33.717  28.564  22.000  1.00  0.00    -0.224 OA
BRANCH  17  20
ATOM     20  C   UNL A   1      32.408  29.814  25.135  1.00  0.00     0.119 C 
BRANCH  20  21
ATOM     21  C   UNL A   1      32.598  29.015  26.424  1.00  0.00     0.021 C 
BRANCH  21  22
ATOM     22  C   UNL A   1      32.618  27.493  26.239  1.00  0.00     0.002 C 
BRANCH  22  23
ATOM     23  C   UNL A   1      34.010  26.860  26.126  1.00  0.00    -0.000 C 
BRANCH  23  24
ATOM     24  C   UNL A   1      34.029  25.376  25.748  1.00  0.00    -0.003 C 
ATOM     25  C   UNL A   1      34.403  25.131  24.295  1.00  0.00     0.004 C 
ENDBRANCH  23  24
ENDBRANCH  22  23
ENDBRANCH  21  22
ENDBRANCH  20  21
ENDBRANCH  17  20
ENDBRANCH  15  16
ENDBRANCH  10  15
ENDBRANCH   4   9
ENDBRANCH   1   3
BRANCH   1  26
ATOM     26  C   UNL A   1      33.673  20.979  26.487  1.00  0.00     0.227 C 
ATOM     27  O   UNL A   1      33.421  21.238  27.670  1.00  0.00    -0.274 OA
ATOM     28  N   UNL A   1      34.992  20.925  26.150  1.00  0.00    -0.356 N 
ATOM     29  H   UNL A   1      35.609  21.043  26.907  1.00  0.00     0.163 HD
BRANCH  28  30
ATOM     30  C   UNL A   1      35.645  20.725  24.875  1.00  0.00     0.116 C 
BRANCH  30  31
ATOM     31  C   UNL A   1      36.914  19.882  25.001  1.00  0.00     0.023 C 
BRANCH  31  32
ATOM     32  C   UNL A   1      38.220  20.668  24.933  1.00  0.00     0.023 C 
BRANCH  32  33
ATOM     33  C   UNL A   1      39.151  20.488  26.126  1.00  0.00     0.116 C 
BRANCH  33  34
ATOM     34  N   UNL A   1      40.036  19.336  26.025  1.00  0.00    -0.352 N 
ATOM     35  C   UNL A   1      41.409  19.306  26.126  1.00  0.00     0.251 C 
ATOM     36  H   UNL A   1      39.598  18.469  25.864  1.00  0.00     0.163 HD
ATOM     37  O   UNL A   1      42.030  18.266  25.948  1.00  0.00    -0.269 OA
BRANCH  35  38
ATOM     38  C   UNL A   1      42.130  20.566  26.404  1.00  0.00     0.039 A 
ATOM     39  C   UNL A   1      42.589  21.331  25.329  1.00  0.00     0.014 A 
ATOM     40  C   UNL A   1      42.283  21.021  27.716  1.00  0.00     0.014 A 
ATOM     41  C   UNL A   1      43.126  22.597  25.569  1.00  0.00     0.010 A 
ATOM     42  C   UNL A   1      42.740  22.313  27.945  1.00  0.00     0.010 A 
ATOM     43  C   UNL A   1      43.163  23.115  26.874  1.00  0.00    -0.014 A 
BRANCH  43  44
ATOM     44  C   UNL A   1      43.626  24.498  27.142  1.00  0.00     0.031 A 
ATOM     45  C   UNL A   1      42.659  25.533  27.642  1.00  0.00     0.074 A 
ATOM     46  C   UNL A   1      44.894  24.844  26.850  1.00  0.00     0.049 A 
ATOM     47  N   UNL A   1      42.852  26.807  27.868  1.00  0.00    -0.248 NA
ATOM     48  C   UNL A   1      41.280  25.082  27.885  1.00  0.00     0.031 C 
ATOM     49  C   UNL A   1      45.908  23.949  26.289  1.00  0.00     0.029 A 
ATOM     50  N   UNL A   1      45.544  26.048  26.971  1.00  0.00    -0.354 N 
ATOM     51  C   UNL A   1      41.617  27.311  28.256  1.00  0.00     0.074 A 
ATOM     52  C   UNL A   1      40.671  26.220  28.179  1.00  0.00     0.031 C 
ATOM     53  C   UNL A   1      47.056  24.627  26.134  1.00  0.00     0.029 A 
ATOM     54  C   UNL A   1      46.853  26.010  26.554  1.00  0.00     0.049 A 
ATOM     55  H   UNL A   1      45.114  26.859  27.322  1.00  0.00     0.167 HD
ATOM     56  C   UNL A   1      41.307  28.565  28.663  1.00  0.00     0.037 A 
ATOM     57  C   UNL A   1      47.782  26.984  26.513  1.00  0.00     0.037 A 
ATOM     58  C   UNL A   1      42.260  29.638  28.769  1.00  0.00     0.049 A 
ATOM     59  C   UNL A   1      47.423  28.361  26.999  1.00  0.00     0.074 A 
ATOM     60  C   UNL A   1      42.069  30.918  29.256  1.00  0.00     0.029 A 
ATOM     61  N   UNL A   1      43.589  29.553  28.375  1.00  0.00    -0.354 N 
ATOM     62  N   UNL A   1      46.277  28.805  27.452  1.00  0.00    -0.248 NA
ATOM     63  C   UNL A   1      48.492  29.369  26.977  1.00  0.00     0.031 C 
ATOM     64  C   UNL A   1      43.269  31.623  29.114  1.00  0.00     0.029 A 
ATOM     65  C   UNL A   1      44.222  30.768  28.583  1.00  0.00     0.049 A 
ATOM     66  H   UNL A   1      44.017  28.750  28.001  1.00  0.00     0.167 HD
ATOM     67  C   UNL A   1      46.487  30.135  27.788  1.00  0.00     0.074 A 
ATOM     68  C   UNL A   1      47.878  30.422  27.502  1.00  0.00     0.031 C 
ATOM     69  C   UNL A   1      45.607  31.038  28.289  1.00  0.00     0.037 A 
BRANCH  56  70
ATOM     70  C   UNL A   1      39.875  28.837  29.024  1.00  0.00     0.064 A 
ATOM     71  C   UNL A   1      39.392  28.639  30.328  1.00  0.00     0.173 A 
ATOM     72  C   UNL A   1      38.975  29.309  28.056  1.00  0.00     0.173 A 
ATOM     73  F   UNL A   1      40.208  28.178  31.288  1.00  0.00    -0.203 F 
ATOM     74  C   UNL A   1      38.052  28.862  30.637  1.00  0.00     0.198 A 
ATOM     75  C   UNL A   1      37.645  29.562  28.378  1.00  0.00     0.198 A 
ATOM     76  F   UNL A   1      39.385  29.521  26.797  1.00  0.00    -0.203 F 
ATOM     77  F   UNL A   1      37.601  28.604  31.872  1.00  0.00    -0.200 F 
ATOM     78  C   UNL A   1      37.181  29.328  29.664  1.00  0.00     0.200 A 
ATOM     79  F   UNL A   1      36.806  30.025  27.441  1.00  0.00    -0.200 F 
ATOM     80  F   UNL A   1      35.893  29.540  29.964  1.00  0.00    -0.200 F 
ENDBRANCH  56  70
BRANCH  57  81
ATOM     81  C   UNL A   1      49.150  26.672  26.026  1.00  0.00     0.064 A 
ATOM     82  C   UNL A   1      49.527  26.965  24.708  1.00  0.00     0.173 A 
ATOM     83  C   UNL A   1      50.114  26.102  26.870  1.00  0.00     0.173 A 
ATOM     84  F   UNL A   1      48.634  27.493  23.858  1.00  0.00    -0.203 F 
ATOM     85  C   UNL A   1      50.813  26.690  24.250  1.00  0.00     0.198 A 
ATOM     86  C   UNL A   1      51.408  25.850  26.418  1.00  0.00     0.198 A 
ATOM     87  F   UNL A   1      49.803  25.808  28.141  1.00  0.00    -0.203 F 
ATOM     88  F   UNL A   1      51.138  26.950  22.976  1.00  0.00    -0.200 F 
ATOM     89  C   UNL A   1      51.755  26.140  25.107  1.00  0.00     0.200 A 
ATOM     90  F   UNL A   1      52.318  25.331  27.253  1.00  0.00    -0.200 F 
ATOM     91  F   UNL A   1      52.996  25.886  24.669  1.00  0.00    -0.200 F 
ENDBRANCH  57  81
BRANCH  69  92
ATOM     92  C   UNL A   1      46.127  32.415  28.578  1.00  0.00     0.064 A 
ATOM     93  C   UNL A   1      46.702  32.740  29.815  1.00  0.00     0.173 A 
ATOM     94  C   UNL A   1      46.088  33.411  27.589  1.00  0.00     0.173 A 
ATOM     95  F   UNL A   1      46.748  31.826  30.798  1.00  0.00    -0.203 F 
ATOM     96  C   UNL A   1      47.199  34.017  30.060  1.00  0.00     0.198 A 
ATOM     97  C   UNL A   1      46.613  34.678  27.827  1.00  0.00     0.198 A 
ATOM     98  F   UNL A   1      45.553  33.150  26.387  1.00  0.00    -0.203 F 
ATOM     99  F   UNL A   1      47.704  34.317  31.264  1.00  0.00    -0.200 F 
ATOM    100  C   UNL A   1      47.161  34.981  29.064  1.00  0.00     0.200 A 
ATOM    101  F   UNL A   1      46.587  35.604  26.860  1.00  0.00    -0.200 F 
ATOM    102  F   UNL A   1      47.647  36.208  29.300  1.00  0.00    -0.200 F 
ENDBRANCH  69  92
ENDBRANCH  43  44
ENDBRANCH  35  38
ENDBRANCH  33  34
ENDBRANCH  32  33
ENDBRANCH  31  32
ENDBRANCH  30  31
ENDBRANCH  28  30
ENDBRANCH   1  26
TORSDOF 20
ENDMDL
MODEL 2
REMARK VINA RESULT:     -11.9      0.925      7.122
REMARK SMILES CCCCCCNC(=O)Oc1cccc(-c2ccc([C@@H](C)C(=O)NCCCCNC(=O)c3ccc(-c4c5nc(c(-c6c(F)c(F)c(F)c(F)c6F)c6ccc([nH]6)c(-c6c(F)c(F)c(F)c(F)c6F)c6nc(c(-c7c(F)c(F)c(F)c(F)c7F)c7ccc4[nH]7)C=C6)C=C5)cc3)cc2)c1
REMARK SMILES IDX 20 1 21 2 19 3 16 4 17 5 96 6 18 7 95 8 15 9 11 10 12 11
REMARK SMILES IDX 97 12 13 13 14 14 10 15 8 16 7 17 9 19 6 20 5 21 4 22 3 23
REMARK SMILES IDX 2 24 1 25 22 26 23 27 24 28 25 30 26 31 27 32 28 33 29 34
REMARK SMILES IDX 30 35 31 37 32 38 33 39 94 40 34 41 93 42 35 43 36 44 37 45
REMARK SMILES IDX 87 46 38 47 92 48 86 49 88 50 39 51 91 52 85 53 84 54 40 56
REMARK SMILES IDX 72 57 52 58 71 59 53 60 56 61 70 62 89 63 54 64 55 65 69 67
REMARK SMILES IDX 90 68 57 69 41 70 42 71 50 72 43 73 44 74 48 75 51 76 45 77
REMARK SMILES IDX 46 78 49 79 47 80 73 81 74 82 82 83 75 84 76 85 80 86 83 87
REMARK SMILES IDX 77 88 78 89 81 90 79 91 58 92 59 93 67 94 60 95 61 96 65 97
REMARK SMILES IDX 68 98 62 99 63 100 66 101 64 102
REMARK H PARENT 7 18 24 29 29 36 88 55 56 66
REMARK Flexibility Score: inf
ROOT
ATOM      1  C   UNL A   1      32.691  20.800  25.464  1.00  0.00     0.105 C 
ATOM      2  C   UNL A   1      33.044  19.760  24.401  1.00  0.00     0.023 C 
ENDROOT
BRANCH   1   3
ATOM      3  C   UNL A   1      31.991  22.054  24.968  1.00  0.00    -0.036 A 
ATOM      4  C   UNL A   1      30.819  24.550  24.202  1.00  0.00    -0.018 A 
ATOM      5  C   UNL A   1      31.626  23.812  23.323  1.00  0.00     0.009 A 
ATOM      6  C   UNL A   1      30.567  23.974  25.457  1.00  0.00     0.009 A 
ATOM      7  C   UNL A   1      32.168  22.571  23.684  1.00  0.00     0.005 A 
ATOM      8  C   UNL A   1      31.159  22.765  25.843  1.00  0.00     0.005 A 
BRANCH   4   9
ATOM      9  C   UNL A   1      30.281  25.880  23.823  1.00  0.00    -0.015 A 
ATOM     10  C   UNL A   1      30.608  28.166  23.045  1.00  0.00     0.133 A 
ATOM     11  C   UNL A   1      29.241  28.416  23.083  1.00  0.00     0.047 A 
ATOM     12  C   UNL A   1      31.129  26.921  23.408  1.00  0.00     0.056 A 
ATOM     13  C   UNL A   1      28.382  27.399  23.481  1.00  0.00     0.004 A 
ATOM     14  C   UNL A   1      28.898  26.154  23.856  1.00  0.00     0.009 A 
BRANCH  10  15
ATOM     15  O   UNL A   1      31.445  29.260  22.772  1.00  0.00    -0.410 OA
BRANCH  15  16
ATOM     16  C   UNL A   1      32.808  29.138  22.995  1.00  0.00     0.412 C 
ATOM     17  N   UNL A   1      33.179  29.557  24.244  1.00  0.00    -0.321 N 
ATOM     18  H   UNL A   1      34.140  29.526  24.453  1.00  0.00     0.167 HD
ATOM     19  O   UNL A   1      33.635  28.714  22.198  1.00  0.00    -0.224 OA
BRANCH  17  20
ATOM     20  C   UNL A   1      32.300  30.041  25.289  1.00  0.00     0.119 C 
BRANCH  20  21
ATOM     21  C   UNL A   1      32.530  29.313  26.613  1.00  0.00     0.021 C 
BRANCH  21  22
ATOM     22  C   UNL A   1      31.629  28.094  26.842  1.00  0.00     0.002 C 
BRANCH  22  23
ATOM     23  C   UNL A   1      32.335  26.734  26.791  1.00  0.00    -0.000 C 
BRANCH  23  24
ATOM     24  C   UNL A   1      33.654  26.706  26.014  1.00  0.00    -0.003 C 
ATOM     25  C   UNL A   1      34.110  25.301  25.655  1.00  0.00     0.004 C 
ENDBRANCH  23  24
ENDBRANCH  22  23
ENDBRANCH  21  22
ENDBRANCH  20  21
ENDBRANCH  17  20
ENDBRANCH  15  16
ENDBRANCH  10  15
ENDBRANCH   4   9
ENDBRANCH   1   3
BRANCH   1  26
ATOM     26  C   UNL A   1      33.832  21.087  26.455  1.00  0.00     0.227 C 
ATOM     27  O   UNL A   1      33.574  21.322  27.642  1.00  0.00    -0.274 OA
ATOM     28  N   UNL A   1      35.151  21.083  26.115  1.00  0.00    -0.356 N 
ATOM     29  H   UNL A   1      35.766  21.214  26.872  1.00  0.00     0.163 HD
BRANCH  28  30
ATOM     30  C   UNL A   1      35.807  20.922  24.835  1.00  0.00     0.116 C 
BRANCH  30  31
ATOM     31  C   UNL A   1      37.006  19.977  24.915  1.00  0.00     0.023 C 
BRANCH  31  32
ATOM     32  C   UNL A   1      38.368  20.663  24.949  1.00  0.00     0.023 C 
BRANCH  32  33
ATOM     33  C   UNL A   1      39.219  20.361  26.176  1.00  0.00     0.116 C 
BRANCH  33  34
ATOM     34  N   UNL A   1      40.201  19.303  25.977  1.00  0.00    -0.352 N 
ATOM     35  C   UNL A   1      41.573  19.391  26.054  1.00  0.00     0.251 C 
ATOM     36  H   UNL A   1      39.839  18.414  25.759  1.00  0.00     0.163 HD
ATOM     37  O   UNL A   1      42.280  18.427  25.790  1.00  0.00    -0.269 OA
BRANCH  35  38
ATOM     38  C   UNL A   1      42.185  20.687  26.412  1.00  0.00     0.039 A 
ATOM     39  C   UNL A   1      42.556  21.564  25.389  1.00  0.00     0.014 A 
ATOM     40  C   UNL A   1      42.320  21.062  27.751  1.00  0.00     0.014 A 
ATOM     41  C   UNL A   1      42.984  22.853  25.712  1.00  0.00     0.010 A 
ATOM     42  C   UNL A   1      42.666  22.370  28.066  1.00  0.00     0.010 A 
ATOM     43  C   UNL A   1      42.998  23.279  27.050  1.00  0.00    -0.014 A 
BRANCH  43  44
ATOM     44  C   UNL A   1      43.341  24.677  27.410  1.00  0.00     0.031 A 
ATOM     45  C   UNL A   1      44.777  25.114  27.447  1.00  0.00     0.074 A 
ATOM     46  C   UNL A   1      42.366  25.525  27.788  1.00  0.00     0.049 A 
ATOM     47  N   UNL A   1      45.283  26.268  27.803  1.00  0.00    -0.248 NA
ATOM     48  C   UNL A   1      45.781  24.109  27.069  1.00  0.00     0.031 C 
ATOM     49  C   UNL A   1      40.941  25.197  27.866  1.00  0.00     0.029 A 
ATOM     50  N   UNL A   1      42.427  26.835  28.195  1.00  0.00    -0.354 N 
ATOM     51  C   UNL A   1      46.661  26.117  27.714  1.00  0.00     0.074 A 
ATOM     52  C   UNL A   1      46.913  24.746  27.327  1.00  0.00     0.031 C 
ATOM     53  C   UNL A   1      40.262  26.281  28.273  1.00  0.00     0.029 A 
ATOM     54  C   UNL A   1      41.203  27.369  28.515  1.00  0.00     0.049 A 
ATOM     55  H   UNL A   1      43.268  27.343  28.252  1.00  0.00     0.167 HD
ATOM     56  C   UNL A   1      47.626  27.045  27.913  1.00  0.00     0.037 A 
ATOM     57  C   UNL A   1      40.878  28.600  28.956  1.00  0.00     0.037 A 
ATOM     58  C   UNL A   1      47.367  28.416  28.267  1.00  0.00     0.049 A 
ATOM     59  C   UNL A   1      41.964  29.623  29.141  1.00  0.00     0.074 A 
ATOM     60  C   UNL A   1      48.267  29.458  28.403  1.00  0.00     0.029 A 
ATOM     61  N   UNL A   1      46.109  28.933  28.545  1.00  0.00    -0.354 N 
ATOM     62  N   UNL A   1      43.256  29.499  28.964  1.00  0.00    -0.248 NA
ATOM     63  C   UNL A   1      41.544  30.962  29.577  1.00  0.00     0.031 C 
ATOM     64  C   UNL A   1      47.560  30.595  28.808  1.00  0.00     0.029 A 
ATOM     65  C   UNL A   1      46.213  30.275  28.878  1.00  0.00     0.049 A 
ATOM     66  H   UNL A   1      45.269  28.423  28.511  1.00  0.00     0.167 HD
ATOM     67  C   UNL A   1      43.803  30.743  29.246  1.00  0.00     0.074 A 
ATOM     68  C   UNL A   1      42.699  31.615  29.590  1.00  0.00     0.031 C 
ATOM     69  C   UNL A   1      45.103  31.128  29.222  1.00  0.00     0.037 A 
BRANCH  56  70
ATOM     70  C   UNL A   1      49.051  26.601  27.751  1.00  0.00     0.064 A 
ATOM     71  C   UNL A   1      49.854  26.275  28.856  1.00  0.00     0.173 A 
ATOM     72  C   UNL A   1      49.621  26.494  26.473  1.00  0.00     0.173 A 
ATOM     73  F   UNL A   1      49.362  26.372  30.100  1.00  0.00    -0.203 F 
ATOM     74  C   UNL A   1      51.185  25.900  28.690  1.00  0.00     0.198 A 
ATOM     75  C   UNL A   1      50.943  26.087  26.309  1.00  0.00     0.198 A 
ATOM     76  F   UNL A   1      48.898  26.788  25.382  1.00  0.00    -0.203 F 
ATOM     77  F   UNL A   1      51.949  25.657  29.763  1.00  0.00    -0.200 F 
ATOM     78  C   UNL A   1      51.727  25.802  27.417  1.00  0.00     0.200 A 
ATOM     79  F   UNL A   1      51.462  25.979  25.078  1.00  0.00    -0.200 F 
ATOM     80  F   UNL A   1      53.008  25.442  27.259  1.00  0.00    -0.200 F 
ENDBRANCH  56  70
BRANCH  57  81
ATOM     81  C   UNL A   1      39.454  28.933  29.216  1.00  0.00     0.064 A 
ATOM     82  C   UNL A   1      38.906  28.794  30.499  1.00  0.00     0.173 A 
ATOM     83  C   UNL A   1      38.621  29.422  28.199  1.00  0.00     0.173 A 
ATOM     84  F   UNL A   1      39.659  28.312  31.499  1.00  0.00    -0.203 F 
ATOM     85  C   UNL A   1      37.576  29.121  30.752  1.00  0.00     0.198 A 
ATOM     86  C   UNL A   1      37.297  29.771  28.459  1.00  0.00     0.198 A 
ATOM     87  F   UNL A   1      39.100  29.577  26.956  1.00  0.00    -0.203 F 
ATOM     88  F   UNL A   1      37.068  28.947  31.980  1.00  0.00    -0.200 F 
ATOM     89  C   UNL A   1      36.775  29.616  29.734  1.00  0.00     0.200 A 
ATOM     90  F   UNL A   1      36.530  30.262  27.476  1.00  0.00    -0.200 F 
ATOM     91  F   UNL A   1      35.498  29.941  29.981  1.00  0.00    -0.200 F 
ENDBRANCH  57  81
BRANCH  69  92
ATOM     92  C   UNL A   1      45.401  32.559  29.558  1.00  0.00     0.064 A 
ATOM     93  C   UNL A   1      45.376  33.564  28.582  1.00  0.00     0.173 A 
ATOM     94  C   UNL A   1      45.673  32.936  30.883  1.00  0.00     0.173 A 
ATOM     95  F   UNL A   1      45.136  33.253  27.298  1.00  0.00    -0.203 F 
ATOM     96  C   UNL A   1      45.634  34.892  28.914  1.00  0.00     0.198 A 
ATOM     97  C   UNL A   1      45.901  34.268  31.217  1.00  0.00     0.198 A 
ATOM     98  F   UNL A   1      45.703  32.012  31.856  1.00  0.00    -0.203 F 
ATOM     99  F   UNL A   1      45.648  35.830  27.957  1.00  0.00    -0.200 F 
ATOM    100  C   UNL A   1      45.888  35.242  30.231  1.00  0.00     0.200 A 
ATOM    101  F   UNL A   1      46.133  34.606  32.492  1.00  0.00    -0.200 F 
ATOM    102  F   UNL A   1      46.128  36.523  30.550  1.00  0.00    -0.200 F 
ENDBRANCH  69  92
ENDBRANCH  43  44
ENDBRANCH  35  38
ENDBRANCH  33  34
ENDBRANCH  32  33
ENDBRANCH  31  32
ENDBRANCH  30  31
ENDBRANCH  28  30
ENDBRANCH   1  26
TORSDOF 20
ENDMDL
MODEL 3
REMARK VINA RESULT:     -11.4      4.983      9.488
REMARK SMILES CCCCCCNC(=O)Oc1cccc(-c2ccc([C@@H](C)C(=O)NCCCCNC(=O)c3ccc(-c4c5nc(c(-c6c(F)c(F)c(F)c(F)c6F)c6ccc([nH]6)c(-c6c(F)c(F)c(F)c(F)c6F)c6nc(c(-c7c(F)c(F)c(F)c(F)c7F)c7ccc4[nH]7)C=C6)C=C5)cc3)cc2)c1
REMARK SMILES IDX 20 1 21 2 19 3 16 4 17 5 96 6 18 7 95 8 15 9 11 10 12 11
REMARK SMILES IDX 97 12 13 13 14 14 10 15 8 16 7 17 9 19 6 20 5 21 4 22 3 23
REMARK SMILES IDX 2 24 1 25 22 26 23 27 24 28 25 30 26 31 27 32 28 33 29 34
REMARK SMILES IDX 30 35 31 37 32 38 33 39 94 40 34 41 93 42 35 43 36 44 37 45
REMARK SMILES IDX 87 46 38 47 92 48 86 49 88 50 39 51 91 52 85 53 84 54 40 56
REMARK SMILES IDX 72 57 52 58 71 59 53 60 56 61 70 62 89 63 54 64 55 65 69 67
REMARK SMILES IDX 90 68 57 69 41 70 42 71 50 72 43 73 44 74 48 75 51 76 45 77
REMARK SMILES IDX 46 78 49 79 47 80 73 81 74 82 82 83 75 84 76 85 80 86 83 87
REMARK SMILES IDX 77 88 78 89 81 90 79 91 58 92 59 93 67 94 60 95 61 96 65 97
REMARK SMILES IDX 68 98 62 99 63 100 66 101 64 102
REMARK H PARENT 7 18 24 29 29 36 88 55 56 66
REMARK Flexibility Score: inf
ROOT
ATOM      1  C   UNL A   1      40.573  23.342  26.620  1.00  0.00     0.105 C 
ATOM      2  C   UNL A   1      40.763  24.824  26.943  1.00  0.00     0.023 C 
ENDROOT
BRANCH   1   3
ATOM      3  C   UNL A   1      39.173  22.922  26.205  1.00  0.00    -0.036 A 
ATOM      4  C   UNL A   1      36.562  22.289  25.218  1.00  0.00    -0.018 A 
ATOM      5  C   UNL A   1      37.592  21.336  25.248  1.00  0.00     0.009 A 
ATOM      6  C   UNL A   1      36.860  23.553  25.750  1.00  0.00     0.009 A 
ATOM      7  C   UNL A   1      38.859  21.634  25.767  1.00  0.00     0.005 A 
ATOM      8  C   UNL A   1      38.143  23.873  26.212  1.00  0.00     0.005 A 
BRANCH   4   9
ATOM      9  C   UNL A   1      35.236  21.973  24.631  1.00  0.00    -0.015 A 
ATOM     10  C   UNL A   1      33.362  22.539  23.180  1.00  0.00     0.133 A 
ATOM     11  C   UNL A   1      32.707  21.354  23.499  1.00  0.00     0.047 A 
ATOM     12  C   UNL A   1      34.606  22.852  23.732  1.00  0.00     0.056 A 
ATOM     13  C   UNL A   1      33.314  20.466  24.378  1.00  0.00     0.004 A 
ATOM     14  C   UNL A   1      34.555  20.778  24.943  1.00  0.00     0.009 A 
BRANCH  10  15
ATOM     15  O   UNL A   1      32.650  23.466  22.401  1.00  0.00    -0.410 OA
BRANCH  15  16
ATOM     16  C   UNL A   1      32.919  24.818  22.550  1.00  0.00     0.412 C 
ATOM     17  N   UNL A   1      32.017  25.450  23.362  1.00  0.00    -0.321 N 
ATOM     18  H   UNL A   1      32.133  26.419  23.482  1.00  0.00     0.167 HD
ATOM     19  O   UNL A   1      33.843  25.431  22.032  1.00  0.00    -0.224 OA
BRANCH  17  20
ATOM     20  C   UNL A   1      30.907  24.835  24.062  1.00  0.00     0.119 C 
BRANCH  20  21
ATOM     21  C   UNL A   1      30.754  25.381  25.481  1.00  0.00     0.021 C 
BRANCH  21  22
ATOM     22  C   UNL A   1      32.072  25.570  26.243  1.00  0.00     0.002 C 
BRANCH  22  23
ATOM     23  C   UNL A   1      32.941  24.315  26.377  1.00  0.00    -0.000 C 
BRANCH  23  24
ATOM     24  C   UNL A   1      32.285  23.135  27.100  1.00  0.00    -0.003 C 
ATOM     25  C   UNL A   1      33.262  22.327  27.940  1.00  0.00     0.004 C 
ENDBRANCH  23  24
ENDBRANCH  22  23
ENDBRANCH  21  22
ENDBRANCH  20  21
ENDBRANCH  17  20
ENDBRANCH  15  16
ENDBRANCH  10  15
ENDBRANCH   4   9
ENDBRANCH   1   3
BRANCH   1  26
ATOM     26  C   UNL A   1      41.217  22.395  27.648  1.00  0.00     0.227 C 
ATOM     27  O   UNL A   1      41.047  22.591  28.858  1.00  0.00    -0.274 OA
ATOM     28  N   UNL A   1      41.969  21.311  27.313  1.00  0.00    -0.356 N 
ATOM     29  H   UNL A   1      42.253  20.762  28.079  1.00  0.00     0.163 HD
BRANCH  28  30
ATOM     30  C   UNL A   1      42.426  20.825  26.029  1.00  0.00     0.116 C 
BRANCH  30  31
ATOM     31  C   UNL A   1      43.669  21.568  25.539  1.00  0.00     0.023 C 
BRANCH  31  32
ATOM     32  C   UNL A   1      43.392  22.738  24.599  1.00  0.00     0.023 C 
BRANCH  32  33
ATOM     33  C   UNL A   1      44.216  23.993  24.862  1.00  0.00     0.116 C 
BRANCH  33  34
ATOM     34  N   UNL A   1      45.536  23.734  25.421  1.00  0.00    -0.352 N 
ATOM     35  C   UNL A   1      46.078  24.232  26.585  1.00  0.00     0.251 C 
ATOM     36  H   UNL A   1      46.112  23.128  24.903  1.00  0.00     0.163 HD
ATOM     37  O   UNL A   1      47.236  23.981  26.896  1.00  0.00    -0.269 OA
BRANCH  35  38
ATOM     38  C   UNL A   1      45.256  25.120  27.432  1.00  0.00     0.039 A 
ATOM     39  C   UNL A   1      44.355  24.549  28.333  1.00  0.00     0.014 A 
ATOM     40  C   UNL A   1      45.433  26.505  27.387  1.00  0.00     0.014 A 
ATOM     41  C   UNL A   1      43.691  25.366  29.251  1.00  0.00     0.010 A 
ATOM     42  C   UNL A   1      44.836  27.305  28.355  1.00  0.00     0.010 A 
ATOM     43  C   UNL A   1      43.962  26.743  29.298  1.00  0.00    -0.014 A 
BRANCH  43  44
ATOM     44  C   UNL A   1      43.356  27.613  30.334  1.00  0.00     0.031 A 
ATOM     45  C   UNL A   1      43.982  27.713  31.695  1.00  0.00     0.074 A 
ATOM     46  C   UNL A   1      42.193  28.243  30.077  1.00  0.00     0.049 A 
ATOM     47  N   UNL A   1      43.567  28.361  32.754  1.00  0.00    -0.248 NA
ATOM     48  C   UNL A   1      45.222  26.951  31.907  1.00  0.00     0.031 C 
ATOM     49  C   UNL A   1      41.448  28.165  28.819  1.00  0.00     0.029 A 
ATOM     50  N   UNL A   1      41.425  29.062  30.868  1.00  0.00    -0.354 N 
ATOM     51  C   UNL A   1      44.480  28.066  33.757  1.00  0.00     0.074 A 
ATOM     52  C   UNL A   1      45.437  27.137  33.200  1.00  0.00     0.031 C 
ATOM     53  C   UNL A   1      40.344  28.922  28.915  1.00  0.00     0.029 A 
ATOM     54  C   UNL A   1      40.285  29.512  30.248  1.00  0.00     0.049 A 
ATOM     55  H   UNL A   1      41.669  29.304  31.790  1.00  0.00     0.167 HD
ATOM     56  C   UNL A   1      44.528  28.547  35.022  1.00  0.00     0.037 A 
ATOM     57  C   UNL A   1      39.301  30.309  30.707  1.00  0.00     0.037 A 
ATOM     58  C   UNL A   1      43.591  29.497  35.561  1.00  0.00     0.049 A 
ATOM     59  C   UNL A   1      39.392  30.856  32.105  1.00  0.00     0.074 A 
ATOM     60  C   UNL A   1      43.604  30.117  36.798  1.00  0.00     0.029 A 
ATOM     61  N   UNL A   1      42.468  29.963  34.891  1.00  0.00    -0.354 N 
ATOM     62  N   UNL A   1      40.309  30.646  33.017  1.00  0.00    -0.248 NA
ATOM     63  C   UNL A   1      38.316  31.760  32.533  1.00  0.00     0.031 C 
ATOM     64  C   UNL A   1      42.463  30.921  36.894  1.00  0.00     0.029 A 
ATOM     65  C   UNL A   1      41.765  30.842  35.700  1.00  0.00     0.049 A 
ATOM     66  H   UNL A   1      42.208  29.706  33.977  1.00  0.00     0.167 HD
ATOM     67  C   UNL A   1      39.936  31.403  34.119  1.00  0.00     0.074 A 
ATOM     68  C   UNL A   1      38.714  32.092  33.754  1.00  0.00     0.031 C 
ATOM     69  C   UNL A   1      40.548  31.517  35.323  1.00  0.00     0.037 A 
BRANCH  56  70
ATOM     70  C   UNL A   1      45.635  28.049  35.906  1.00  0.00     0.064 A 
ATOM     71  C   UNL A   1      45.475  26.922  36.728  1.00  0.00     0.173 A 
ATOM     72  C   UNL A   1      46.877  28.703  35.927  1.00  0.00     0.173 A 
ATOM     73  F   UNL A   1      44.304  26.268  36.754  1.00  0.00    -0.203 F 
ATOM     74  C   UNL A   1      46.500  26.495  37.568  1.00  0.00     0.198 A 
ATOM     75  C   UNL A   1      47.910  28.253  36.744  1.00  0.00     0.198 A 
ATOM     76  F   UNL A   1      47.087  29.782  35.157  1.00  0.00    -0.203 F 
ATOM     77  F   UNL A   1      46.300  25.457  38.390  1.00  0.00    -0.200 F 
ATOM     78  C   UNL A   1      47.718  27.158  37.572  1.00  0.00     0.200 A 
ATOM     79  F   UNL A   1      49.092  28.886  36.738  1.00  0.00    -0.200 F 
ATOM     80  F   UNL A   1      48.703  26.746  38.383  1.00  0.00    -0.200 F 
ENDBRANCH  56  70
BRANCH  57  81
ATOM     81  C   UNL A   1      38.167  30.663  29.815  1.00  0.00     0.064 A 
ATOM     82  C   UNL A   1      37.162  29.729  29.527  1.00  0.00     0.173 A 
ATOM     83  C   UNL A   1      38.050  31.944  29.256  1.00  0.00     0.173 A 
ATOM     84  F   UNL A   1      37.241  28.486  30.023  1.00  0.00    -0.203 F 
ATOM     85  C   UNL A   1      36.088  30.061  28.704  1.00  0.00     0.198 A 
ATOM     86  C   UNL A   1      36.962  32.281  28.453  1.00  0.00     0.198 A 
ATOM     87  F   UNL A   1      38.984  32.873  29.506  1.00  0.00    -0.203 F 
ATOM     88  F   UNL A   1      35.158  29.140  28.418  1.00  0.00    -0.200 F 
ATOM     89  C   UNL A   1      35.985  31.338  28.174  1.00  0.00     0.200 A 
ATOM     90  F   UNL A   1      36.860  33.520  27.954  1.00  0.00    -0.200 F 
ATOM     91  F   UNL A   1      34.946  31.659  27.391  1.00  0.00    -0.200 F 
ENDBRANCH  57  81
BRANCH  69  92
ATOM     92  C   UNL A   1      39.920  32.435  36.329  1.00  0.00     0.064 A 
ATOM     93  C   UNL A   1      40.436  33.714  36.580  1.00  0.00     0.173 A 
ATOM     94  C   UNL A   1      38.760  32.046  37.018  1.00  0.00     0.173 A 
ATOM     95  F   UNL A   1      41.551  34.126  35.957  1.00  0.00    -0.203 F 
ATOM     96  C   UNL A   1      39.828  34.563  37.501  1.00  0.00     0.198 A 
ATOM     97  C   UNL A   1      38.138  32.908  37.917  1.00  0.00     0.198 A 
ATOM     98  F   UNL A   1      38.223  30.834  36.810  1.00  0.00    -0.203 F 
ATOM     99  F   UNL A   1      40.363  35.764  37.758  1.00  0.00    -0.200 F 
ATOM    100  C   UNL A   1      38.676  34.162  38.162  1.00  0.00     0.200 A 
ATOM    101  F   UNL A   1      37.018  32.525  38.544  1.00  0.00    -0.200 F 
ATOM    102  F   UNL A   1      38.087  34.984  39.043  1.00  0.00    -0.200 F 
ENDBRANCH  69  92
ENDBRANCH  43  44
ENDBRANCH  35  38
ENDBRANCH  33  34
ENDBRANCH  32  33
ENDBRANCH  31  32
ENDBRANCH  30  31
ENDBRANCH  28  30
ENDBRANCH   1  26
TORSDOF 20
ENDMDL
