MODEL 1
REMARK VINA RESULT:     -10.6      0.000      0.000
REMARK SMILES O=C(CCC(=O)/[NH+]=C1\S[C@H]2CS(=O)(=O)C[C@@H]2N1c1ccc(Oc2ccccc2)cc1)NCCCCNC(=O)c1ccc(-c2c3nc(c(-c4c(F)c(F)c(F)c(F)c4F)c4ccc([nH]4)c(-c4c(F)c(F)c(F)c(F)c4F)c4nc(c(-c5c(F)c(F)c(F)c(F)c5F)c5ccc2[nH]5)C=C4)C=C3)cc1
REMARK SMILES IDX 32 1 31 2 2 3 1 4 3 6 4 7 5 8 6 9 7 10 8 11 9 13 17 14 10 15
REMARK SMILES IDX 16 16 11 17 15 18 12 19 13 20 14 21 18 22 19 23 30 24 20 25
REMARK SMILES IDX 29 26 21 27 22 28 23 29 24 30 28 31 25 32 27 33 26 34 33 35
REMARK SMILES IDX 34 36 35 37 36 38 37 39 38 41 39 42 40 43 101 44 41 45
REMARK SMILES IDX 100 46 42 47 43 48 44 49 94 50 45 51 99 52 93 53 95 54 46 55
REMARK SMILES IDX 98 56 92 57 91 58 47 60 79 61 59 62 78 63 60 64 63 65 77 66
REMARK SMILES IDX 96 67 61 68 62 69 76 71 97 72 64 73 48 74 49 75 57 76 50 77
REMARK SMILES IDX 51 78 55 79 58 80 52 81 53 82 56 83 54 84 80 85 81 86 89 87
REMARK SMILES IDX 82 88 83 89 87 90 90 91 84 92 85 93 88 94 86 95 65 96 66 97
REMARK SMILES IDX 74 98 67 99 68 100 72 101 75 102 69 103 70 104 73 105 71 106
REMARK H PARENT 31 5 7 12 36 40 95 59 63 70
REMARK Flexibility Score: inf
ROOT
ATOM      1  C   UNL A   1      43.706  24.570  25.315  1.00  0.00     0.116 C 
ENDROOT
BRANCH   1   2
ATOM      2  N   UNL A   1      43.054  25.818  24.959  1.00  0.00    -0.356 N 
ATOM      3  C   UNL A   1      43.487  27.100  25.062  1.00  0.00     0.220 C 
ATOM      4  O   UNL A   1      42.770  28.003  24.624  1.00  0.00    -0.275 OA
ATOM      5  H   UNL A   1      42.151  25.717  24.581  1.00  0.00     0.163 HD
BRANCH   3   6
ATOM      6  C   UNL A   1      44.819  27.408  25.694  1.00  0.00     0.112 C 
BRANCH   6   7
ATOM      7  C   UNL A   1      45.215  28.867  25.873  1.00  0.00     0.138 C 
BRANCH   7   8
ATOM      8  C   UNL A   1      44.562  29.803  26.887  1.00  0.00     0.308 C 
ATOM      9  O   UNL A   1      43.943  29.307  27.828  1.00  0.00    -0.247 OA
ATOM     10  N   UNL A   1      44.625  31.159  26.734  1.00  0.00    -0.204 N 
ATOM     11  C   UNL A   1      45.724  31.826  26.841  1.00  0.00     0.319 C 
ATOM     12  H   UNL A   1      43.795  31.649  26.533  1.00  0.00     0.316 HD
ATOM     13  S   UNL A   1      47.329  31.087  27.109  1.00  0.00    -0.029 SA
ATOM     14  N   UNL A   1      45.865  33.209  26.669  1.00  0.00    -0.217 N 
ATOM     15  C   UNL A   1      48.126  32.700  27.032  1.00  0.00     0.120 C 
ATOM     16  C   UNL A   1      47.189  33.549  26.161  1.00  0.00     0.212 C 
ATOM     17  C   UNL A   1      49.482  32.854  26.399  1.00  0.00     0.156 C 
ATOM     18  C   UNL A   1      47.759  34.944  26.274  1.00  0.00     0.188 C 
ATOM     19  S   UNL A   1      49.531  34.635  26.146  1.00  0.00     0.155 S 
ATOM     20  O   UNL A   1      50.176  35.241  27.296  1.00  0.00    -0.229 OA
ATOM     21  O   UNL A   1      49.954  34.900  24.793  1.00  0.00    -0.229 OA
BRANCH  14  22
ATOM     22  C   UNL A   1      44.839  34.136  26.849  1.00  0.00     0.128 A 
ATOM     23  C   UNL A   1      44.557  34.733  28.086  1.00  0.00     0.056 A 
ATOM     24  C   UNL A   1      44.056  34.534  25.749  1.00  0.00     0.056 A 
ATOM     25  C   UNL A   1      43.539  35.689  28.212  1.00  0.00     0.051 A 
ATOM     26  C   UNL A   1      43.046  35.494  25.864  1.00  0.00     0.051 A 
ATOM     27  C   UNL A   1      42.787  36.073  27.099  1.00  0.00     0.127 A 
BRANCH  27  28
ATOM     28  O   UNL A   1      41.928  37.124  27.279  1.00  0.00    -0.457 OA
BRANCH  28  29
ATOM     29  C   UNL A   1      42.337  38.408  26.993  1.00  0.00     0.127 A 
ATOM     30  C   UNL A   1      41.344  39.278  26.530  1.00  0.00     0.047 A 
ATOM     31  C   UNL A   1      43.681  38.774  26.912  1.00  0.00     0.047 A 
ATOM     32  C   UNL A   1      41.692  40.499  25.958  1.00  0.00     0.004 A 
ATOM     33  C   UNL A   1      44.025  40.015  26.369  1.00  0.00     0.004 A 
ATOM     34  C   UNL A   1      43.033  40.868  25.877  1.00  0.00     0.000 A 
ENDBRANCH  28  29
ENDBRANCH  27  28
ENDBRANCH  14  22
ENDBRANCH   7   8
ENDBRANCH   6   7
ENDBRANCH   3   6
ENDBRANCH   1   2
BRANCH   1  35
ATOM     35  C   UNL A   1      42.952  23.742  26.356  1.00  0.00     0.023 C 
BRANCH  35  36
ATOM     36  C   UNL A   1      42.141  22.572  25.800  1.00  0.00     0.023 C 
BRANCH  36  37
ATOM     37  C   UNL A   1      40.954  22.129  26.638  1.00  0.00     0.116 C 
BRANCH  37  38
ATOM     38  N   UNL A   1      39.689  22.481  26.026  1.00  0.00    -0.352 N 
ATOM     39  C   UNL A   1      38.872  23.562  26.238  1.00  0.00     0.251 C 
ATOM     40  H   UNL A   1      39.364  21.842  25.349  1.00  0.00     0.163 HD
ATOM     41  O   UNL A   1      37.737  23.547  25.766  1.00  0.00    -0.269 OA
BRANCH  39  42
ATOM     42  C   UNL A   1      39.317  24.742  27.025  1.00  0.00     0.039 A 
ATOM     43  C   UNL A   1      38.919  24.829  28.365  1.00  0.00     0.014 A 
ATOM     44  C   UNL A   1      40.044  25.795  26.463  1.00  0.00     0.014 A 
ATOM     45  C   UNL A   1      39.282  25.932  29.145  1.00  0.00     0.010 A 
ATOM     46  C   UNL A   1      40.468  26.861  27.258  1.00  0.00     0.010 A 
ATOM     47  C   UNL A   1      40.080  26.948  28.604  1.00  0.00    -0.014 A 
BRANCH  47  48
ATOM     48  C   UNL A   1      40.479  28.134  29.411  1.00  0.00     0.031 A 
ATOM     49  C   UNL A   1      41.806  28.153  30.097  1.00  0.00     0.074 A 
ATOM     50  C   UNL A   1      39.644  29.179  29.564  1.00  0.00     0.049 A 
ATOM     51  N   UNL A   1      42.321  29.083  30.858  1.00  0.00    -0.248 NA
ATOM     52  C   UNL A   1      42.670  26.979  29.903  1.00  0.00     0.031 C 
ATOM     53  C   UNL A   1      38.352  29.281  28.915  1.00  0.00     0.029 A 
ATOM     54  N   UNL A   1      39.724  30.331  30.304  1.00  0.00    -0.354 N 
ATOM     55  C   UNL A   1      43.577  28.622  31.208  1.00  0.00     0.074 A 
ATOM     56  C   UNL A   1      43.716  27.292  30.652  1.00  0.00     0.031 C 
ATOM     57  C   UNL A   1      37.729  30.402  29.301  1.00  0.00     0.029 A 
ATOM     58  C   UNL A   1      38.586  31.105  30.239  1.00  0.00     0.049 A 
ATOM     59  H   UNL A   1      40.517  30.581  30.831  1.00  0.00     0.167 HD
ATOM     60  C   UNL A   1      44.542  29.274  31.896  1.00  0.00     0.037 A 
ATOM     61  C   UNL A   1      38.264  32.255  30.858  1.00  0.00     0.037 A 
ATOM     62  C   UNL A   1      44.383  30.591  32.452  1.00  0.00     0.049 A 
ATOM     63  C   UNL A   1      39.313  32.913  31.700  1.00  0.00     0.074 A 
ATOM     64  C   UNL A   1      45.307  31.353  33.143  1.00  0.00     0.029 A 
ATOM     65  N   UNL A   1      43.213  31.339  32.393  1.00  0.00    -0.354 N 
ATOM     66  N   UNL A   1      40.530  32.502  31.961  1.00  0.00    -0.248 NA
ATOM     67  C   UNL A   1      38.971  34.210  32.296  1.00  0.00     0.031 C 
ATOM     68  C   UNL A   1      44.679  32.533  33.555  1.00  0.00     0.029 A 
ATOM     69  C   UNL A   1      43.381  32.538  33.069  1.00  0.00     0.049 A 
ATOM     70  H   UNL A   1      42.385  31.059  31.938  1.00  0.00     0.167 HD
ATOM     71  C   UNL A   1      41.119  33.507  32.708  1.00  0.00     0.074 A 
ATOM     72  C   UNL A   1      40.123  34.551  32.856  1.00  0.00     0.031 C 
ATOM     73  C   UNL A   1      42.375  33.564  33.211  1.00  0.00     0.037 A 
BRANCH  60  74
ATOM     74  C   UNL A   1      45.843  28.553  32.081  1.00  0.00     0.064 A 
ATOM     75  C   UNL A   1      46.872  28.637  31.128  1.00  0.00     0.173 A 
ATOM     76  C   UNL A   1      46.059  27.752  33.211  1.00  0.00     0.173 A 
ATOM     77  F   UNL A   1      46.706  29.372  30.018  1.00  0.00    -0.203 F 
ATOM     78  C   UNL A   1      48.053  27.916  31.283  1.00  0.00     0.198 A 
ATOM     79  C   UNL A   1      47.254  27.058  33.378  1.00  0.00     0.198 A 
ATOM     80  F   UNL A   1      45.105  27.633  34.147  1.00  0.00    -0.203 F 
ATOM     81  F   UNL A   1      48.993  27.960  30.329  1.00  0.00    -0.200 F 
ATOM     82  C   UNL A   1      48.244  27.132  32.410  1.00  0.00     0.200 A 
ATOM     83  F   UNL A   1      47.440  26.304  34.471  1.00  0.00    -0.200 F 
ATOM     84  F   UNL A   1      49.379  26.434  32.557  1.00  0.00    -0.200 F 
ENDBRANCH  60  74
BRANCH  61  85
ATOM     85  C   UNL A   1      36.923  32.868  30.654  1.00  0.00     0.064 A 
ATOM     86  C   UNL A   1      35.913  32.743  31.617  1.00  0.00     0.173 A 
ATOM     87  C   UNL A   1      36.627  33.602  29.494  1.00  0.00     0.173 A 
ATOM     88  F   UNL A   1      36.141  32.046  32.740  1.00  0.00    -0.203 F 
ATOM     89  C   UNL A   1      34.651  33.301  31.417  1.00  0.00     0.198 A 
ATOM     90  C   UNL A   1      35.373  34.183  29.307  1.00  0.00     0.198 A 
ATOM     91  F   UNL A   1      37.559  33.765  28.544  1.00  0.00    -0.203 F 
ATOM     92  F   UNL A   1      33.690  33.126  32.335  1.00  0.00    -0.200 F 
ATOM     93  C   UNL A   1      34.382  34.023  30.265  1.00  0.00     0.200 A 
ATOM     94  F   UNL A   1      35.124  34.896  28.200  1.00  0.00    -0.200 F 
ATOM     95  F   UNL A   1      33.170  34.561  30.074  1.00  0.00    -0.200 F 
ENDBRANCH  61  85
BRANCH  73  96
ATOM     96  C   UNL A   1      42.753  34.817  33.944  1.00  0.00     0.064 A 
ATOM     97  C   UNL A   1      42.655  34.912  35.340  1.00  0.00     0.173 A 
ATOM     98  C   UNL A   1      43.241  35.927  33.239  1.00  0.00     0.173 A 
ATOM     99  F   UNL A   1      42.173  33.884  36.054  1.00  0.00    -0.203 F 
ATOM    100  C   UNL A   1      43.005  36.085  36.001  1.00  0.00     0.198 A 
ATOM    101  C   UNL A   1      43.625  37.085  33.907  1.00  0.00     0.198 A 
ATOM    102  F   UNL A   1      43.355  35.885  31.903  1.00  0.00    -0.203 F 
ATOM    103  F   UNL A   1      42.848  36.174  37.329  1.00  0.00    -0.200 F 
ATOM    104  C   UNL A   1      43.498  37.167  35.286  1.00  0.00     0.200 A 
ATOM    105  F   UNL A   1      44.114  38.124  33.216  1.00  0.00    -0.200 F 
ATOM    106  F   UNL A   1      43.843  38.292  35.925  1.00  0.00    -0.200 F 
ENDBRANCH  73  96
ENDBRANCH  47  48
ENDBRANCH  39  42
ENDBRANCH  37  38
ENDBRANCH  36  37
ENDBRANCH  35  36
ENDBRANCH   1  35
TORSDOF 16
ENDMDL
MODEL 2
REMARK VINA RESULT:     -10.6      5.537     12.929
REMARK SMILES O=C(CCC(=O)/[NH+]=C1\S[C@H]2CS(=O)(=O)C[C@@H]2N1c1ccc(Oc2ccccc2)cc1)NCCCCNC(=O)c1ccc(-c2c3nc(c(-c4c(F)c(F)c(F)c(F)c4F)c4ccc([nH]4)c(-c4c(F)c(F)c(F)c(F)c4F)c4nc(c(-c5c(F)c(F)c(F)c(F)c5F)c5ccc2[nH]5)C=C4)C=C3)cc1
REMARK SMILES IDX 32 1 31 2 2 3 1 4 3 6 4 7 5 8 6 9 7 10 8 11 9 13 17 14 10 15
REMARK SMILES IDX 16 16 11 17 15 18 12 19 13 20 14 21 18 22 19 23 30 24 20 25
REMARK SMILES IDX 29 26 21 27 22 28 23 29 24 30 28 31 25 32 27 33 26 34 33 35
REMARK SMILES IDX 34 36 35 37 36 38 37 39 38 41 39 42 40 43 101 44 41 45
REMARK SMILES IDX 100 46 42 47 43 48 44 49 94 50 45 51 99 52 93 53 95 54 46 55
REMARK SMILES IDX 98 56 92 57 91 58 47 60 79 61 59 62 78 63 60 64 63 65 77 66
REMARK SMILES IDX 96 67 61 68 62 69 76 71 97 72 64 73 48 74 49 75 57 76 50 77
REMARK SMILES IDX 51 78 55 79 58 80 52 81 53 82 56 83 54 84 80 85 81 86 89 87
REMARK SMILES IDX 82 88 83 89 87 90 90 91 84 92 85 93 88 94 86 95 65 96 66 97
REMARK SMILES IDX 74 98 67 99 68 100 72 101 75 102 69 103 70 104 73 105 71 106
REMARK H PARENT 31 5 7 12 36 40 95 59 63 70
REMARK Flexibility Score: inf
ROOT
ATOM      1  C   UNL A   1      34.415  34.693  29.887  1.00  0.00     0.116 C 
ENDROOT
BRANCH   1   2
ATOM      2  N   UNL A   1      35.645  34.278  29.235  1.00  0.00    -0.356 N 
ATOM      3  C   UNL A   1      35.902  33.215  28.431  1.00  0.00     0.220 C 
ATOM      4  O   UNL A   1      37.025  33.107  27.934  1.00  0.00    -0.275 OA
ATOM      5  H   UNL A   1      36.419  34.863  29.404  1.00  0.00     0.163 HD
BRANCH   3   6
ATOM      6  C   UNL A   1      34.831  32.194  28.150  1.00  0.00     0.112 C 
BRANCH   6   7
ATOM      7  C   UNL A   1      35.181  31.003  27.267  1.00  0.00     0.138 C 
BRANCH   7   8
ATOM      8  C   UNL A   1      34.875  29.555  27.641  1.00  0.00     0.308 C 
ATOM      9  O   UNL A   1      35.020  29.209  28.814  1.00  0.00    -0.247 OA
ATOM     10  N   UNL A   1      34.491  28.650  26.693  1.00  0.00    -0.204 N 
ATOM     11  C   UNL A   1      33.360  28.719  26.076  1.00  0.00     0.319 C 
ATOM     12  H   UNL A   1      35.103  27.913  26.470  1.00  0.00     0.316 HD
ATOM     13  S   UNL A   1      32.174  30.039  26.292  1.00  0.00    -0.029 SA
ATOM     14  N   UNL A   1      32.915  27.846  25.076  1.00  0.00    -0.217 N 
ATOM     15  C   UNL A   1      31.089  29.318  25.048  1.00  0.00     0.120 C 
ATOM     16  C   UNL A   1      32.032  28.521  24.133  1.00  0.00     0.212 C 
ATOM     17  C   UNL A   1      30.303  30.198  24.114  1.00  0.00     0.156 C 
ATOM     18  C   UNL A   1      31.094  27.761  23.224  1.00  0.00     0.188 C 
ATOM     19  S   UNL A   1      29.853  29.011  22.838  1.00  0.00     0.155 S 
ATOM     20  O   UNL A   1      28.549  28.464  23.165  1.00  0.00    -0.229 OA
ATOM     21  O   UNL A   1      30.152  29.582  21.548  1.00  0.00    -0.229 OA
BRANCH  14  22
ATOM     22  C   UNL A   1      33.349  26.528  24.929  1.00  0.00     0.128 A 
ATOM     23  C   UNL A   1      34.041  26.074  23.797  1.00  0.00     0.056 A 
ATOM     24  C   UNL A   1      33.125  25.598  25.961  1.00  0.00     0.056 A 
ATOM     25  C   UNL A   1      34.491  24.749  23.707  1.00  0.00     0.051 A 
ATOM     26  C   UNL A   1      33.580  24.278  25.885  1.00  0.00     0.051 A 
ATOM     27  C   UNL A   1      34.265  23.853  24.754  1.00  0.00     0.127 A 
BRANCH  27  28
ATOM     28  O   UNL A   1      34.876  22.632  24.653  1.00  0.00    -0.457 OA
BRANCH  28  29
ATOM     29  C   UNL A   1      34.117  21.487  24.545  1.00  0.00     0.127 A 
ATOM     30  C   UNL A   1      34.731  20.304  24.971  1.00  0.00     0.047 A 
ATOM     31  C   UNL A   1      32.920  21.436  23.831  1.00  0.00     0.047 A 
ATOM     32  C   UNL A   1      34.168  19.069  24.658  1.00  0.00     0.004 A 
ATOM     33  C   UNL A   1      32.339  20.196  23.548  1.00  0.00     0.004 A 
ATOM     34  C   UNL A   1      32.972  19.015  23.945  1.00  0.00     0.000 A 
ENDBRANCH  28  29
ENDBRANCH  27  28
ENDBRANCH  14  22
ENDBRANCH   7   8
ENDBRANCH   6   7
ENDBRANCH   3   6
ENDBRANCH   1   2
BRANCH   1  35
ATOM     35  C   UNL A   1      34.384  34.432  31.394  1.00  0.00     0.023 C 
BRANCH  35  36
ATOM     36  C   UNL A   1      35.468  35.141  32.203  1.00  0.00     0.023 C 
BRANCH  36  37
ATOM     37  C   UNL A   1      36.775  34.384  32.370  1.00  0.00     0.116 C 
BRANCH  37  38
ATOM     38  N   UNL A   1      36.744  33.482  33.502  1.00  0.00    -0.352 N 
ATOM     39  C   UNL A   1      37.353  32.266  33.683  1.00  0.00     0.251 C 
ATOM     40  H   UNL A   1      36.199  33.789  34.263  1.00  0.00     0.163 HD
ATOM     41  O   UNL A   1      37.012  31.569  34.637  1.00  0.00    -0.269 OA
BRANCH  39  42
ATOM     42  C   UNL A   1      38.404  31.767  32.758  1.00  0.00     0.039 A 
ATOM     43  C   UNL A   1      39.543  31.170  33.313  1.00  0.00     0.014 A 
ATOM     44  C   UNL A   1      38.334  31.939  31.372  1.00  0.00     0.014 A 
ATOM     45  C   UNL A   1      40.578  30.710  32.491  1.00  0.00     0.010 A 
ATOM     46  C   UNL A   1      39.331  31.416  30.547  1.00  0.00     0.010 A 
ATOM     47  C   UNL A   1      40.471  30.809  31.098  1.00  0.00    -0.014 A 
BRANCH  47  48
ATOM     48  C   UNL A   1      41.557  30.330  30.200  1.00  0.00     0.031 A 
ATOM     49  C   UNL A   1      41.467  28.971  29.585  1.00  0.00     0.074 A 
ATOM     50  C   UNL A   1      42.643  31.088  29.963  1.00  0.00     0.049 A 
ATOM     51  N   UNL A   1      42.320  28.372  28.796  1.00  0.00    -0.248 NA
ATOM     52  C   UNL A   1      40.264  28.183  29.891  1.00  0.00     0.031 C 
ATOM     53  C   UNL A   1      42.817  32.433  30.477  1.00  0.00     0.029 A 
ATOM     54  N   UNL A   1      43.801  30.861  29.263  1.00  0.00    -0.354 N 
ATOM     55  C   UNL A   1      41.745  27.152  28.487  1.00  0.00     0.074 A 
ATOM     56  C   UNL A   1      40.513  27.056  29.241  1.00  0.00     0.031 C 
ATOM     57  C   UNL A   1      44.015  32.913  30.123  1.00  0.00     0.029 A 
ATOM     58  C   UNL A   1      44.706  31.896  29.348  1.00  0.00     0.049 A 
ATOM     59  H   UNL A   1      43.969  30.038  28.750  1.00  0.00     0.167 HD
ATOM     60  C   UNL A   1      42.191  26.218  27.616  1.00  0.00     0.037 A 
ATOM     61  C   UNL A   1      45.952  32.023  28.857  1.00  0.00     0.037 A 
ATOM     62  C   UNL A   1      43.424  26.325  26.884  1.00  0.00     0.049 A 
ATOM     63  C   UNL A   1      46.470  30.929  27.974  1.00  0.00     0.074 A 
ATOM     64  C   UNL A   1      43.955  25.447  25.956  1.00  0.00     0.029 A 
ATOM     65  N   UNL A   1      44.332  27.369  27.010  1.00  0.00    -0.354 N 
ATOM     66  N   UNL A   1      45.881  29.811  27.626  1.00  0.00    -0.248 NA
ATOM     67  C   UNL A   1      47.796  31.125  27.378  1.00  0.00     0.031 C 
ATOM     68  C   UNL A   1      45.209  25.929  25.567  1.00  0.00     0.029 A 
ATOM     69  C   UNL A   1      45.436  27.139  26.203  1.00  0.00     0.049 A 
ATOM     70  H   UNL A   1      44.208  28.159  27.586  1.00  0.00     0.167 HD
ATOM     71  C   UNL A   1      46.737  29.192  26.733  1.00  0.00     0.074 A 
ATOM     72  C   UNL A   1      47.888  30.063  26.591  1.00  0.00     0.031 C 
ATOM     73  C   UNL A   1      46.576  28.016  26.080  1.00  0.00     0.037 A 
BRANCH  60  74
ATOM     74  C   UNL A   1      41.328  25.006  27.428  1.00  0.00     0.064 A 
ATOM     75  C   UNL A   1      41.655  23.774  28.017  1.00  0.00     0.173 A 
ATOM     76  C   UNL A   1      40.175  25.069  26.634  1.00  0.00     0.173 A 
ATOM     77  F   UNL A   1      42.761  23.656  28.767  1.00  0.00    -0.203 F 
ATOM     78  C   UNL A   1      40.878  22.642  27.789  1.00  0.00     0.198 A 
ATOM     79  C   UNL A   1      39.382  23.943  26.434  1.00  0.00     0.198 A 
ATOM     80  F   UNL A   1      39.822  26.222  26.044  1.00  0.00    -0.203 F 
ATOM     81  F   UNL A   1      41.245  21.462  28.308  1.00  0.00    -0.200 F 
ATOM     82  C   UNL A   1      39.740  22.729  27.001  1.00  0.00     0.200 A 
ATOM     83  F   UNL A   1      38.279  24.029  25.677  1.00  0.00    -0.200 F 
ATOM     84  F   UNL A   1      38.995  21.638  26.777  1.00  0.00    -0.200 F 
ENDBRANCH  60  74
BRANCH  61  85
ATOM     85  C   UNL A   1      46.753  33.243  29.144  1.00  0.00     0.064 A 
ATOM     86  C   UNL A   1      46.631  34.395  28.356  1.00  0.00     0.173 A 
ATOM     87  C   UNL A   1      47.653  33.286  30.222  1.00  0.00     0.173 A 
ATOM     88  F   UNL A   1      45.790  34.404  27.311  1.00  0.00    -0.203 F 
ATOM     89  C   UNL A   1      47.396  35.532  28.614  1.00  0.00     0.198 A 
ATOM     90  C   UNL A   1      48.399  34.433  30.495  1.00  0.00     0.198 A 
ATOM     91  F   UNL A   1      47.804  32.217  31.017  1.00  0.00    -0.203 F 
ATOM     92  F   UNL A   1      47.290  36.603  27.815  1.00  0.00    -0.200 F 
ATOM     93  C   UNL A   1      48.277  35.552  29.684  1.00  0.00     0.200 A 
ATOM     94  F   UNL A   1      49.236  34.454  31.541  1.00  0.00    -0.200 F 
ATOM     95  F   UNL A   1      49.011  36.645  29.932  1.00  0.00    -0.200 F 
ENDBRANCH  61  85
BRANCH  73  96
ATOM     96  C   UNL A   1      47.662  27.621  25.124  1.00  0.00     0.064 A 
ATOM     97  C   UNL A   1      47.563  27.876  23.749  1.00  0.00     0.173 A 
ATOM     98  C   UNL A   1      48.828  27.000  25.597  1.00  0.00     0.173 A 
ATOM     99  F   UNL A   1      46.458  28.447  23.247  1.00  0.00    -0.203 F 
ATOM    100  C   UNL A   1      48.579  27.497  22.878  1.00  0.00     0.198 A 
ATOM    101  C   UNL A   1      49.858  26.657  24.729  1.00  0.00     0.198 A 
ATOM    102  F   UNL A   1      48.972  26.737  26.905  1.00  0.00    -0.203 F 
ATOM    103  F   UNL A   1      48.438  27.697  21.560  1.00  0.00    -0.200 F 
ATOM    104  C   UNL A   1      49.729  26.896  23.369  1.00  0.00     0.200 A 
ATOM    105  F   UNL A   1      50.974  26.090  25.206  1.00  0.00    -0.200 F 
ATOM    106  F   UNL A   1      50.710  26.541  22.529  1.00  0.00    -0.200 F 
ENDBRANCH  73  96
ENDBRANCH  47  48
ENDBRANCH  39  42
ENDBRANCH  37  38
ENDBRANCH  36  37
ENDBRANCH  35  36
ENDBRANCH   1  35
TORSDOF 16
ENDMDL
MODEL 3
REMARK VINA RESULT:     -10.6      5.512     12.676
REMARK SMILES O=C(CCC(=O)/[NH+]=C1\S[C@H]2CS(=O)(=O)C[C@@H]2N1c1ccc(Oc2ccccc2)cc1)NCCCCNC(=O)c1ccc(-c2c3nc(c(-c4c(F)c(F)c(F)c(F)c4F)c4ccc([nH]4)c(-c4c(F)c(F)c(F)c(F)c4F)c4nc(c(-c5c(F)c(F)c(F)c(F)c5F)c5ccc2[nH]5)C=C4)C=C3)cc1
REMARK SMILES IDX 32 1 31 2 2 3 1 4 3 6 4 7 5 8 6 9 7 10 8 11 9 13 17 14 10 15
REMARK SMILES IDX 16 16 11 17 15 18 12 19 13 20 14 21 18 22 19 23 30 24 20 25
REMARK SMILES IDX 29 26 21 27 22 28 23 29 24 30 28 31 25 32 27 33 26 34 33 35
REMARK SMILES IDX 34 36 35 37 36 38 37 39 38 41 39 42 40 43 101 44 41 45
REMARK SMILES IDX 100 46 42 47 43 48 44 49 94 50 45 51 99 52 93 53 95 54 46 55
REMARK SMILES IDX 98 56 92 57 91 58 47 60 79 61 59 62 78 63 60 64 63 65 77 66
REMARK SMILES IDX 96 67 61 68 62 69 76 71 97 72 64 73 48 74 49 75 57 76 50 77
REMARK SMILES IDX 51 78 55 79 58 80 52 81 53 82 56 83 54 84 80 85 81 86 89 87
REMARK SMILES IDX 82 88 83 89 87 90 90 91 84 92 85 93 88 94 86 95 65 96 66 97
REMARK SMILES IDX 74 98 67 99 68 100 72 101 75 102 69 103 70 104 73 105 71 106
REMARK H PARENT 31 5 7 12 36 40 95 59 63 70
REMARK Flexibility Score: inf
ROOT
ATOM      1  C   UNL A   1      34.265  34.675  29.874  1.00  0.00     0.116 C 
ENDROOT
BRANCH   1   2
ATOM      2  N   UNL A   1      35.540  34.247  29.325  1.00  0.00    -0.356 N 
ATOM      3  C   UNL A   1      35.840  33.225  28.484  1.00  0.00     0.220 C 
ATOM      4  O   UNL A   1      37.005  33.100  28.099  1.00  0.00    -0.275 OA
ATOM      5  H   UNL A   1      36.313  34.787  29.610  1.00  0.00     0.163 HD
BRANCH   3   6
ATOM      6  C   UNL A   1      34.768  32.270  28.030  1.00  0.00     0.112 C 
BRANCH   6   7
ATOM      7  C   UNL A   1      35.186  31.030  27.252  1.00  0.00     0.138 C 
BRANCH   7   8
ATOM      8  C   UNL A   1      34.808  29.608  27.661  1.00  0.00     0.308 C 
ATOM      9  O   UNL A   1      34.928  29.286  28.843  1.00  0.00    -0.247 OA
ATOM     10  N   UNL A   1      34.387  28.699  26.733  1.00  0.00    -0.204 N 
ATOM     11  C   UNL A   1      33.265  28.806  26.106  1.00  0.00     0.319 C 
ATOM     12  H   UNL A   1      34.965  27.927  26.534  1.00  0.00     0.316 HD
ATOM     13  S   UNL A   1      32.142  30.186  26.278  1.00  0.00    -0.029 SA
ATOM     14  N   UNL A   1      32.785  27.929  25.125  1.00  0.00    -0.217 N 
ATOM     15  C   UNL A   1      31.032  29.486  25.045  1.00  0.00     0.120 C 
ATOM     16  C   UNL A   1      31.942  28.622  24.158  1.00  0.00     0.212 C 
ATOM     17  C   UNL A   1      30.296  30.379  24.083  1.00  0.00     0.156 C 
ATOM     18  C   UNL A   1      30.974  27.884  23.262  1.00  0.00     0.188 C 
ATOM     19  S   UNL A   1      29.797  29.182  22.834  1.00  0.00     0.155 S 
ATOM     20  O   UNL A   1      28.466  28.708  23.164  1.00  0.00    -0.229 OA
ATOM     21  O   UNL A   1      30.132  29.705  21.532  1.00  0.00    -0.229 OA
BRANCH  14  22
ATOM     22  C   UNL A   1      33.155  26.589  25.015  1.00  0.00     0.128 A 
ATOM     23  C   UNL A   1      34.027  26.117  24.023  1.00  0.00     0.056 A 
ATOM     24  C   UNL A   1      32.674  25.650  25.947  1.00  0.00     0.056 A 
ATOM     25  C   UNL A   1      34.402  24.766  23.973  1.00  0.00     0.051 A 
ATOM     26  C   UNL A   1      33.051  24.305  25.911  1.00  0.00     0.051 A 
ATOM     27  C   UNL A   1      33.917  23.862  24.920  1.00  0.00     0.127 A 
BRANCH  27  28
ATOM     28  O   UNL A   1      34.459  22.605  24.893  1.00  0.00    -0.457 OA
BRANCH  28  29
ATOM     29  C   UNL A   1      33.661  21.515  24.618  1.00  0.00     0.127 A 
ATOM     30  C   UNL A   1      33.931  20.357  25.355  1.00  0.00     0.047 A 
ATOM     31  C   UNL A   1      32.810  21.460  23.514  1.00  0.00     0.047 A 
ATOM     32  C   UNL A   1      33.378  19.137  24.972  1.00  0.00     0.004 A 
ATOM     33  C   UNL A   1      32.229  20.240  23.153  1.00  0.00     0.004 A 
ATOM     34  C   UNL A   1      32.527  19.079  23.870  1.00  0.00     0.000 A 
ENDBRANCH  28  29
ENDBRANCH  27  28
ENDBRANCH  14  22
ENDBRANCH   7   8
ENDBRANCH   6   7
ENDBRANCH   3   6
ENDBRANCH   1   2
BRANCH   1  35
ATOM     35  C   UNL A   1      34.131  34.472  31.385  1.00  0.00     0.023 C 
BRANCH  35  36
ATOM     36  C   UNL A   1      35.135  35.244  32.240  1.00  0.00     0.023 C 
BRANCH  36  37
ATOM     37  C   UNL A   1      36.488  34.583  32.435  1.00  0.00     0.116 C 
BRANCH  37  38
ATOM     38  N   UNL A   1      36.526  33.751  33.620  1.00  0.00    -0.352 N 
ATOM     39  C   UNL A   1      37.201  32.581  33.860  1.00  0.00     0.251 C 
ATOM     40  H   UNL A   1      35.980  34.077  34.373  1.00  0.00     0.163 HD
ATOM     41  O   UNL A   1      36.914  31.928  34.862  1.00  0.00    -0.269 OA
BRANCH  39  42
ATOM     42  C   UNL A   1      38.259  32.080  32.944  1.00  0.00     0.039 A 
ATOM     43  C   UNL A   1      39.497  31.729  33.496  1.00  0.00     0.014 A 
ATOM     44  C   UNL A   1      38.091  32.020  31.558  1.00  0.00     0.014 A 
ATOM     45  C   UNL A   1      40.540  31.282  32.677  1.00  0.00     0.010 A 
ATOM     46  C   UNL A   1      39.105  31.506  30.747  1.00  0.00     0.010 A 
ATOM     47  C   UNL A   1      40.345  31.144  31.297  1.00  0.00    -0.014 A 
BRANCH  47  48
ATOM     48  C   UNL A   1      41.437  30.672  30.402  1.00  0.00     0.031 A 
ATOM     49  C   UNL A   1      42.524  31.613  29.995  1.00  0.00     0.074 A 
ATOM     50  C   UNL A   1      41.441  29.415  29.920  1.00  0.00     0.049 A 
ATOM     51  N   UNL A   1      43.545  31.393  29.209  1.00  0.00    -0.248 NA
ATOM     52  C   UNL A   1      42.460  32.976  30.542  1.00  0.00     0.031 C 
ATOM     53  C   UNL A   1      40.459  28.410  30.278  1.00  0.00     0.029 A 
ATOM     54  N   UNL A   1      42.258  28.762  29.033  1.00  0.00    -0.354 N 
ATOM     55  C   UNL A   1      44.261  32.577  29.191  1.00  0.00     0.074 A 
ATOM     56  C   UNL A   1      43.513  33.540  29.972  1.00  0.00     0.031 C 
ATOM     57  C   UNL A   1      40.687  27.278  29.601  1.00  0.00     0.029 A 
ATOM     58  C   UNL A   1      41.845  27.480  28.747  1.00  0.00     0.049 A 
ATOM     59  H   UNL A   1      43.063  29.170  28.638  1.00  0.00     0.167 HD
ATOM     60  C   UNL A   1      45.457  32.818  28.609  1.00  0.00     0.037 A 
ATOM     61  C   UNL A   1      42.340  26.560  27.899  1.00  0.00     0.037 A 
ATOM     62  C   UNL A   1      46.180  31.852  27.826  1.00  0.00     0.049 A 
ATOM     63  C   UNL A   1      43.615  26.885  27.183  1.00  0.00     0.074 A 
ATOM     64  C   UNL A   1      47.413  31.986  27.215  1.00  0.00     0.029 A 
ATOM     65  N   UNL A   1      45.726  30.572  27.532  1.00  0.00    -0.354 N 
ATOM     66  N   UNL A   1      44.326  27.985  27.236  1.00  0.00    -0.248 NA
ATOM     67  C   UNL A   1      44.185  25.837  26.329  1.00  0.00     0.031 C 
ATOM     68  C   UNL A   1      47.676  30.812  26.501  1.00  0.00     0.029 A 
ATOM     69  C   UNL A   1      46.639  29.920  26.717  1.00  0.00     0.049 A 
ATOM     70  H   UNL A   1      44.880  30.184  27.856  1.00  0.00     0.167 HD
ATOM     71  C   UNL A   1      45.451  27.748  26.466  1.00  0.00     0.074 A 
ATOM     72  C   UNL A   1      45.328  26.395  25.957  1.00  0.00     0.031 C 
ATOM     73  C   UNL A   1      46.496  28.574  26.216  1.00  0.00     0.037 A 
BRANCH  60  74
ATOM     74  C   UNL A   1      46.037  34.187  28.802  1.00  0.00     0.064 A 
ATOM     75  C   UNL A   1      45.769  35.232  27.903  1.00  0.00     0.173 A 
ATOM     76  C   UNL A   1      46.886  34.455  29.885  1.00  0.00     0.173 A 
ATOM     77  F   UNL A   1      44.981  35.021  26.838  1.00  0.00    -0.203 F 
ATOM     78  C   UNL A   1      46.359  36.483  28.061  1.00  0.00     0.198 A 
ATOM     79  C   UNL A   1      47.449  35.716  30.058  1.00  0.00     0.198 A 
ATOM     80  F   UNL A   1      47.179  33.489  30.769  1.00  0.00    -0.203 F 
ATOM     81  F   UNL A   1      46.140  37.445  27.154  1.00  0.00    -0.200 F 
ATOM     82  C   UNL A   1      47.194  36.724  29.141  1.00  0.00     0.200 A 
ATOM     83  F   UNL A   1      48.252  35.950  31.105  1.00  0.00    -0.200 F 
ATOM     84  F   UNL A   1      47.766  37.927  29.290  1.00  0.00    -0.200 F 
ENDBRANCH  60  74
BRANCH  61  85
ATOM     85  C   UNL A   1      41.661  25.247  27.734  1.00  0.00     0.064 A 
ATOM     86  C   UNL A   1      42.160  24.089  28.347  1.00  0.00     0.173 A 
ATOM     87  C   UNL A   1      40.492  25.123  26.965  1.00  0.00     0.173 A 
ATOM     88  F   UNL A   1      43.277  24.151  29.086  1.00  0.00    -0.203 F 
ATOM     89  C   UNL A   1      41.534  22.855  28.176  1.00  0.00     0.198 A 
ATOM     90  C   UNL A   1      39.853  23.892  26.817  1.00  0.00     0.198 A 
ATOM     91  F   UNL A   1      39.964  26.198  26.365  1.00  0.00    -0.203 F 
ATOM     92  F   UNL A   1      42.060  21.757  28.737  1.00  0.00    -0.200 F 
ATOM     93  C   UNL A   1      40.380  22.757  27.414  1.00  0.00     0.200 A 
ATOM     94  F   UNL A   1      38.728  23.806  26.095  1.00  0.00    -0.200 F 
ATOM     95  F   UNL A   1      39.779  21.571  27.252  1.00  0.00    -0.200 F 
ENDBRANCH  61  85
BRANCH  73  96
ATOM     96  C   UNL A   1      47.609  28.018  25.377  1.00  0.00     0.064 A 
ATOM     97  C   UNL A   1      48.772  27.488  25.954  1.00  0.00     0.173 A 
ATOM     98  C   UNL A   1      47.495  27.994  23.979  1.00  0.00     0.173 A 
ATOM     99  F   UNL A   1      48.935  27.509  27.285  1.00  0.00    -0.203 F 
ATOM    100  C   UNL A   1      49.795  26.982  25.158  1.00  0.00     0.198 A 
ATOM    101  C   UNL A   1      48.503  27.453  23.189  1.00  0.00     0.198 A 
ATOM    102  F   UNL A   1      46.400  28.486  23.380  1.00  0.00    -0.203 F 
ATOM    103  F   UNL A   1      50.923  26.535  25.727  1.00  0.00    -0.200 F 
ATOM    104  C   UNL A   1      49.657  26.956  23.778  1.00  0.00     0.200 A 
ATOM    105  F   UNL A   1      48.362  27.416  21.857  1.00  0.00    -0.200 F 
ATOM    106  F   UNL A   1      50.639  26.459  23.016  1.00  0.00    -0.200 F 
ENDBRANCH  73  96
ENDBRANCH  47  48
ENDBRANCH  39  42
ENDBRANCH  37  38
ENDBRANCH  36  37
ENDBRANCH  35  36
ENDBRANCH   1  35
TORSDOF 16
ENDMDL
