MODEL 1
REMARK VINA RESULT:     -12.1      0.000      0.000
REMARK SMILES CC[C@@](C)(NC(=O)c1cnc(Cl)c(Cl)c1)C(=O)NCCCCNC(=O)c1ccc(-c2c3nc(c(-c4c(F)c(F)c(F)c(F)c4F)c4ccc([nH]4)c(-c4c(F)c(F)c(F)c(F)c4F)c4nc(c(-c5c(F)c(F)c(F)c(F)c5F)c5ccc2[nH]5)C=C4)C=C3)cc1
REMARK SMILES IDX 20 1 19 2 18 3 16 4 17 5 3 7 4 8 2 9 1 10 5 11 6 12 7 14
REMARK SMILES IDX 8 15 9 16 15 17 10 18 13 19 11 20 14 21 12 22 21 23 22 24
REMARK SMILES IDX 23 25 24 26 25 28 26 29 27 30 88 31 28 32 87 33 29 34 30 35
REMARK SMILES IDX 31 36 81 37 32 38 86 39 80 40 82 41 33 42 85 43 79 44 78 45
REMARK SMILES IDX 34 47 66 48 46 49 65 50 47 51 50 52 64 53 83 54 48 55 49 56
REMARK SMILES IDX 63 58 84 59 51 60 35 61 36 62 44 63 37 64 38 65 42 66 45 67
REMARK SMILES IDX 39 68 40 69 43 70 41 71 67 72 68 73 76 74 69 75 70 76 74 77
REMARK SMILES IDX 77 78 71 79 72 80 75 81 73 82 52 83 53 84 61 85 54 86 55 87
REMARK SMILES IDX 59 88 62 89 56 90 57 91 60 92 58 93
REMARK H PARENT 18 6 5 13 23 27 82 46 50 57
REMARK Flexibility Score: inf
ROOT
ATOM      1  C   UNL A   1      36.607  20.119  25.030  1.00  0.00     0.023 C 
ENDROOT
BRANCH   1   2
ATOM      2  C   UNL A   1      36.218  21.592  25.169  1.00  0.00     0.116 C 
BRANCH   2   3
ATOM      3  N   UNL A   1      35.510  21.978  26.377  1.00  0.00    -0.354 N 
ATOM      4  C   UNL A   1      34.197  21.934  26.756  1.00  0.00     0.245 C 
ATOM      5  O   UNL A   1      33.990  22.126  27.958  1.00  0.00    -0.272 OA
ATOM      6  H   UNL A   1      36.102  22.350  27.072  1.00  0.00     0.163 HD
BRANCH   4   7
ATOM      7  C   UNL A   1      33.034  21.611  25.776  1.00  0.00     0.116 C 
ATOM      8  C   UNL A   1      33.308  22.439  24.495  1.00  0.00     0.045 C 
BRANCH   7   9
ATOM      9  C   UNL A   1      32.948  20.111  25.364  1.00  0.00     0.035 C 
ATOM     10  C   UNL A   1      32.557  19.790  23.924  1.00  0.00     0.007 C 
ENDBRANCH   7   9
BRANCH   7  11
ATOM     11  N   UNL A   1      31.693  21.993  26.299  1.00  0.00    -0.338 N 
ATOM     12  C   UNL A   1      31.077  23.186  26.599  1.00  0.00     0.253 C 
ATOM     13  H   UNL A   1      31.116  21.214  26.469  1.00  0.00     0.164 HD
ATOM     14  O   UNL A   1      30.213  23.125  27.480  1.00  0.00    -0.269 OA
BRANCH  12  15
ATOM     15  C   UNL A   1      31.267  24.507  25.933  1.00  0.00     0.059 A 
ATOM     16  C   UNL A   1      30.462  25.036  24.943  1.00  0.00     0.126 A 
ATOM     17  C   UNL A   1      32.206  25.397  26.484  1.00  0.00     0.039 A 
ATOM     18  N   UNL A   1      30.489  26.320  24.498  1.00  0.00    -0.242 NA
ATOM     19  C   UNL A   1      32.271  26.730  26.059  1.00  0.00     0.079 A 
ATOM     20  C   UNL A   1      31.387  27.144  25.074  1.00  0.00     0.147 A 
ATOM     21  Cl  UNL A   1      33.399  27.792  26.809  1.00  0.00    -0.081 Cl
ATOM     22  Cl  UNL A   1      31.270  28.759  24.501  1.00  0.00    -0.061 Cl
ENDBRANCH  12  15
ENDBRANCH   7  11
ENDBRANCH   4   7
ENDBRANCH   2   3
ENDBRANCH   1   2
BRANCH   1  23
ATOM     23  C   UNL A   1      38.069  19.793  24.733  1.00  0.00     0.023 C 
BRANCH  23  24
ATOM     24  C   UNL A   1      39.062  20.068  25.846  1.00  0.00     0.116 C 
BRANCH  24  25
ATOM     25  N   UNL A   1      40.122  19.079  25.910  1.00  0.00    -0.352 N 
ATOM     26  C   UNL A   1      41.469  19.266  26.091  1.00  0.00     0.251 C 
ATOM     27  H   UNL A   1      39.834  18.142  25.812  1.00  0.00     0.163 HD
ATOM     28  O   UNL A   1      42.239  18.312  25.968  1.00  0.00    -0.269 OA
BRANCH  26  29
ATOM     29  C   UNL A   1      42.004  20.607  26.407  1.00  0.00     0.039 A 
ATOM     30  C   UNL A   1      42.264  21.493  25.357  1.00  0.00     0.014 A 
ATOM     31  C   UNL A   1      42.265  20.992  27.725  1.00  0.00     0.014 A 
ATOM     32  C   UNL A   1      42.740  22.778  25.632  1.00  0.00     0.010 A 
ATOM     33  C   UNL A   1      42.663  22.297  28.004  1.00  0.00     0.010 A 
ATOM     34  C   UNL A   1      42.918  23.198  26.960  1.00  0.00    -0.014 A 
BRANCH  34  35
ATOM     35  C   UNL A   1      43.401  24.566  27.276  1.00  0.00     0.031 A 
ATOM     36  C   UNL A   1      42.448  25.587  27.837  1.00  0.00     0.074 A 
ATOM     37  C   UNL A   1      44.675  24.907  27.005  1.00  0.00     0.049 A 
ATOM     38  N   UNL A   1      42.653  26.849  28.116  1.00  0.00    -0.248 NA
ATOM     39  C   UNL A   1      41.071  25.134  28.090  1.00  0.00     0.031 C 
ATOM     40  C   UNL A   1      45.681  24.021  26.419  1.00  0.00     0.029 A 
ATOM     41  N   UNL A   1      45.339  26.096  27.178  1.00  0.00    -0.354 N 
ATOM     42  C   UNL A   1      41.431  27.342  28.554  1.00  0.00     0.074 A 
ATOM     43  C   UNL A   1      40.477  26.261  28.456  1.00  0.00     0.031 C 
ATOM     44  C   UNL A   1      46.840  24.689  26.301  1.00  0.00     0.029 A 
ATOM     45  C   UNL A   1      46.651  26.058  26.770  1.00  0.00     0.049 A 
ATOM     46  H   UNL A   1      44.916  26.899  27.559  1.00  0.00     0.167 HD
ATOM     47  C   UNL A   1      41.138  28.580  29.019  1.00  0.00     0.037 A 
ATOM     48  C   UNL A   1      47.590  27.023  26.770  1.00  0.00     0.037 A 
ATOM     49  C   UNL A   1      42.100  29.643  29.148  1.00  0.00     0.049 A 
ATOM     50  C   UNL A   1      47.237  28.390  27.295  1.00  0.00     0.074 A 
ATOM     51  C   UNL A   1      41.920  30.910  29.675  1.00  0.00     0.029 A 
ATOM     52  N   UNL A   1      43.424  29.561  28.743  1.00  0.00    -0.354 N 
ATOM     53  N   UNL A   1      46.099  28.823  27.777  1.00  0.00    -0.248 NA
ATOM     54  C   UNL A   1      48.305  29.399  27.279  1.00  0.00     0.031 C 
ATOM     55  C   UNL A   1      43.123  31.611  29.545  1.00  0.00     0.029 A 
ATOM     56  C   UNL A   1      44.067  30.763  28.985  1.00  0.00     0.049 A 
ATOM     57  H   UNL A   1      43.843  28.766  28.341  1.00  0.00     0.167 HD
ATOM     58  C   UNL A   1      46.319  30.142  28.151  1.00  0.00     0.074 A 
ATOM     59  C   UNL A   1      47.705  30.434  27.852  1.00  0.00     0.031 C 
ATOM     60  C   UNL A   1      45.452  31.032  28.693  1.00  0.00     0.037 A 
BRANCH  47  61
ATOM     61  C   UNL A   1      39.718  28.853  29.428  1.00  0.00     0.064 A 
ATOM     62  C   UNL A   1      38.772  29.352  28.519  1.00  0.00     0.173 A 
ATOM     63  C   UNL A   1      39.290  28.577  30.735  1.00  0.00     0.173 A 
ATOM     64  F   UNL A   1      39.132  29.643  27.260  1.00  0.00    -0.203 F 
ATOM     65  C   UNL A   1      37.458  29.594  28.912  1.00  0.00     0.198 A 
ATOM     66  C   UNL A   1      37.966  28.790  31.116  1.00  0.00     0.198 A 
ATOM     67  F   UNL A   1      40.151  28.093  31.642  1.00  0.00    -0.203 F 
ATOM     68  F   UNL A   1      36.586  30.118  28.041  1.00  0.00    -0.200 F 
ATOM     69  C   UNL A   1      37.055  29.305  30.207  1.00  0.00     0.200 A 
ATOM     70  F   UNL A   1      37.575  28.499  32.364  1.00  0.00    -0.200 F 
ATOM     71  F   UNL A   1      35.788  29.532  30.582  1.00  0.00    -0.200 F 
ENDBRANCH  47  61
BRANCH  48  72
ATOM     72  C   UNL A   1      48.963  26.726  26.285  1.00  0.00     0.064 A 
ATOM     73  C   UNL A   1      49.934  26.207  27.154  1.00  0.00     0.173 A 
ATOM     74  C   UNL A   1      49.338  26.959  24.954  1.00  0.00     0.173 A 
ATOM     75  F   UNL A   1      49.630  25.986  28.441  1.00  0.00    -0.203 F 
ATOM     76  C   UNL A   1      51.232  25.953  26.716  1.00  0.00     0.198 A 
ATOM     77  C   UNL A   1      50.628  26.678  24.510  1.00  0.00     0.198 A 
ATOM     78  F   UNL A   1      48.446  27.452  24.082  1.00  0.00    -0.203 F 
ATOM     79  F   UNL A   1      52.151  25.503  27.579  1.00  0.00    -0.200 F 
ATOM     80  C   UNL A   1      51.577  26.184  25.393  1.00  0.00     0.200 A 
ATOM     81  F   UNL A   1      50.955  26.890  23.227  1.00  0.00    -0.200 F 
ATOM     82  F   UNL A   1      52.825  25.938  24.971  1.00  0.00    -0.200 F 
ENDBRANCH  48  72
BRANCH  60  83
ATOM     83  C   UNL A   1      45.986  32.392  29.035  1.00  0.00     0.064 A 
ATOM     84  C   UNL A   1      46.569  32.663  30.282  1.00  0.00     0.173 A 
ATOM     85  C   UNL A   1      45.950  33.426  28.087  1.00  0.00     0.173 A 
ATOM     86  F   UNL A   1      46.614  31.712  31.228  1.00  0.00    -0.203 F 
ATOM     87  C   UNL A   1      47.075  33.927  30.574  1.00  0.00     0.198 A 
ATOM     88  C   UNL A   1      46.486  34.678  28.372  1.00  0.00     0.198 A 
ATOM     89  F   UNL A   1      45.410  33.216  26.877  1.00  0.00    -0.203 F 
ATOM     90  F   UNL A   1      47.585  34.177  31.788  1.00  0.00    -0.200 F 
ATOM     91  C   UNL A   1      47.040  34.930  29.617  1.00  0.00     0.200 A 
ATOM     92  F   UNL A   1      46.464  35.642  27.441  1.00  0.00    -0.200 F 
ATOM     93  F   UNL A   1      47.535  36.144  29.898  1.00  0.00    -0.200 F 
ENDBRANCH  60  83
ENDBRANCH  34  35
ENDBRANCH  26  29
ENDBRANCH  24  25
ENDBRANCH  23  24
ENDBRANCH   1  23
TORSDOF 14
ENDMDL
MODEL 2
REMARK VINA RESULT:     -12.0      5.711     11.161
REMARK SMILES CC[C@@](C)(NC(=O)c1cnc(Cl)c(Cl)c1)C(=O)NCCCCNC(=O)c1ccc(-c2c3nc(c(-c4c(F)c(F)c(F)c(F)c4F)c4ccc([nH]4)c(-c4c(F)c(F)c(F)c(F)c4F)c4nc(c(-c5c(F)c(F)c(F)c(F)c5F)c5ccc2[nH]5)C=C4)C=C3)cc1
REMARK SMILES IDX 20 1 19 2 18 3 16 4 17 5 3 7 4 8 2 9 1 10 5 11 6 12 7 14
REMARK SMILES IDX 8 15 9 16 15 17 10 18 13 19 11 20 14 21 12 22 21 23 22 24
REMARK SMILES IDX 23 25 24 26 25 28 26 29 27 30 88 31 28 32 87 33 29 34 30 35
REMARK SMILES IDX 31 36 81 37 32 38 86 39 80 40 82 41 33 42 85 43 79 44 78 45
REMARK SMILES IDX 34 47 66 48 46 49 65 50 47 51 50 52 64 53 83 54 48 55 49 56
REMARK SMILES IDX 63 58 84 59 51 60 35 61 36 62 44 63 37 64 38 65 42 66 45 67
REMARK SMILES IDX 39 68 40 69 43 70 41 71 67 72 68 73 76 74 69 75 70 76 74 77
REMARK SMILES IDX 77 78 71 79 72 80 75 81 73 82 52 83 53 84 61 85 54 86 55 87
REMARK SMILES IDX 59 88 62 89 56 90 57 91 60 92 58 93
REMARK H PARENT 18 6 5 13 23 27 82 46 50 57
REMARK Flexibility Score: inf
ROOT
ATOM      1  C   UNL A   1      31.303  30.800  26.600  1.00  0.00     0.023 C 
ENDROOT
BRANCH   1   2
ATOM      2  C   UNL A   1      31.954  30.029  25.450  1.00  0.00     0.116 C 
BRANCH   2   3
ATOM      3  N   UNL A   1      31.166  29.855  24.241  1.00  0.00    -0.354 N 
ATOM      4  C   UNL A   1      30.985  28.812  23.376  1.00  0.00     0.245 C 
ATOM      5  O   UNL A   1      30.048  28.945  22.583  1.00  0.00    -0.272 OA
ATOM      6  H   UNL A   1      30.654  30.659  23.993  1.00  0.00     0.163 HD
BRANCH   4   7
ATOM      7  C   UNL A   1      31.844  27.517  23.403  1.00  0.00     0.116 C 
ATOM      8  C   UNL A   1      31.577  26.795  22.058  1.00  0.00     0.045 C 
BRANCH   7   9
ATOM      9  C   UNL A   1      33.377  27.774  23.509  1.00  0.00     0.035 C 
ATOM     10  C   UNL A   1      34.054  28.525  22.367  1.00  0.00     0.007 C 
ENDBRANCH   7   9
BRANCH   7  11
ATOM     11  N   UNL A   1      31.483  26.588  24.510  1.00  0.00    -0.338 N 
ATOM     12  C   UNL A   1      31.720  25.259  24.770  1.00  0.00     0.253 C 
ATOM     13  H   UNL A   1      30.955  27.026  25.216  1.00  0.00     0.164 HD
ATOM     14  O   UNL A   1      30.865  24.698  25.463  1.00  0.00    -0.269 OA
BRANCH  12  15
ATOM     15  C   UNL A   1      32.916  24.451  24.393  1.00  0.00     0.059 A 
ATOM     16  C   UNL A   1      33.152  23.886  23.155  1.00  0.00     0.126 A 
ATOM     17  C   UNL A   1      34.004  24.426  25.283  1.00  0.00     0.039 A 
ATOM     18  N   UNL A   1      34.331  23.351  22.737  1.00  0.00    -0.242 NA
ATOM     19  C   UNL A   1      35.238  23.887  24.898  1.00  0.00     0.079 A 
ATOM     20  C   UNL A   1      35.353  23.374  23.615  1.00  0.00     0.147 A 
ATOM     21  Cl  UNL A   1      36.554  23.934  26.006  1.00  0.00    -0.081 Cl
ATOM     22  Cl  UNL A   1      36.813  22.758  22.950  1.00  0.00    -0.061 Cl
ENDBRANCH  12  15
ENDBRANCH   7  11
ENDBRANCH   4   7
ENDBRANCH   2   3
ENDBRANCH   1   2
BRANCH   1  23
ATOM     23  C   UNL A   1      31.401  32.324  26.582  1.00  0.00     0.023 C 
BRANCH  23  24
ATOM     24  C   UNL A   1      32.620  32.930  27.253  1.00  0.00     0.116 C 
BRANCH  24  25
ATOM     25  N   UNL A   1      32.399  34.297  27.687  1.00  0.00    -0.352 N 
ATOM     26  C   UNL A   1      33.022  34.996  28.689  1.00  0.00     0.251 C 
ATOM     27  H   UNL A   1      31.705  34.792  27.193  1.00  0.00     0.163 HD
ATOM     28  O   UNL A   1      32.597  36.106  29.016  1.00  0.00    -0.269 OA
BRANCH  26  29
ATOM     29  C   UNL A   1      34.183  34.417  29.398  1.00  0.00     0.039 A 
ATOM     30  C   UNL A   1      33.969  33.736  30.600  1.00  0.00     0.014 A 
ATOM     31  C   UNL A   1      35.481  34.553  28.895  1.00  0.00     0.014 A 
ATOM     32  C   UNL A   1      35.047  33.153  31.271  1.00  0.00     0.010 A 
ATOM     33  C   UNL A   1      36.541  33.904  29.521  1.00  0.00     0.010 A 
ATOM     34  C   UNL A   1      36.338  33.210  30.723  1.00  0.00    -0.014 A 
BRANCH  34  35
ATOM     35  C   UNL A   1      37.494  32.577  31.407  1.00  0.00     0.031 A 
ATOM     36  C   UNL A   1      38.220  31.434  30.751  1.00  0.00     0.074 A 
ATOM     37  C   UNL A   1      37.852  32.989  32.639  1.00  0.00     0.049 A 
ATOM     38  N   UNL A   1      39.206  30.705  31.209  1.00  0.00    -0.248 NA
ATOM     39  C   UNL A   1      37.755  31.039  29.412  1.00  0.00     0.031 C 
ATOM     40  C   UNL A   1      37.197  34.055  33.397  1.00  0.00     0.029 A 
ATOM     41  N   UNL A   1      38.849  32.551  33.473  1.00  0.00    -0.354 N 
ATOM     42  C   UNL A   1      39.461  29.757  30.227  1.00  0.00     0.074 A 
ATOM     43  C   UNL A   1      38.496  29.968  29.172  1.00  0.00     0.031 C 
ATOM     44  C   UNL A   1      37.823  34.204  34.575  1.00  0.00     0.029 A 
ATOM     45  C   UNL A   1      38.899  33.222  34.671  1.00  0.00     0.049 A 
ATOM     46  H   UNL A   1      39.470  31.825  33.237  1.00  0.00     0.167 HD
ATOM     47  C   UNL A   1      40.430  28.811  30.199  1.00  0.00     0.037 A 
ATOM     48  C   UNL A   1      39.718  33.058  35.727  1.00  0.00     0.037 A 
ATOM     49  C   UNL A   1      41.411  28.628  31.236  1.00  0.00     0.049 A 
ATOM     50  C   UNL A   1      40.788  32.000  35.668  1.00  0.00     0.074 A 
ATOM     51  C   UNL A   1      42.478  27.746  31.270  1.00  0.00     0.029 A 
ATOM     52  N   UNL A   1      41.442  29.341  32.426  1.00  0.00    -0.354 N 
ATOM     53  N   UNL A   1      41.069  31.160  34.703  1.00  0.00    -0.248 NA
ATOM     54  C   UNL A   1      41.658  31.874  36.845  1.00  0.00     0.031 C 
ATOM     55  C   UNL A   1      43.125  27.893  32.501  1.00  0.00     0.029 A 
ATOM     56  C   UNL A   1      42.495  28.902  33.211  1.00  0.00     0.049 A 
ATOM     57  H   UNL A   1      40.808  30.052  32.675  1.00  0.00     0.167 HD
ATOM     58  C   UNL A   1      42.165  30.428  35.140  1.00  0.00     0.074 A 
ATOM     59  C   UNL A   1      42.506  30.933  36.453  1.00  0.00     0.031 C 
ATOM     60  C   UNL A   1      42.828  29.426  34.511  1.00  0.00     0.037 A 
BRANCH  47  61
ATOM     61  C   UNL A   1      40.481  27.901  29.004  1.00  0.00     0.064 A 
ATOM     62  C   UNL A   1      39.735  26.713  28.950  1.00  0.00     0.173 A 
ATOM     63  C   UNL A   1      41.258  28.239  27.886  1.00  0.00     0.173 A 
ATOM     64  F   UNL A   1      38.985  26.338  29.996  1.00  0.00    -0.203 F 
ATOM     65  C   UNL A   1      39.788  25.883  27.833  1.00  0.00     0.198 A 
ATOM     66  C   UNL A   1      41.283  27.423  26.757  1.00  0.00     0.198 A 
ATOM     67  F   UNL A   1      41.985  29.365  27.882  1.00  0.00    -0.203 F 
ATOM     68  F   UNL A   1      39.107  24.730  27.824  1.00  0.00    -0.200 F 
ATOM     69  C   UNL A   1      40.555  26.242  26.735  1.00  0.00     0.200 A 
ATOM     70  F   UNL A   1      42.015  27.777  25.692  1.00  0.00    -0.200 F 
ATOM     71  F   UNL A   1      40.600  25.446  25.658  1.00  0.00    -0.200 F 
ENDBRANCH  47  61
BRANCH  48  72
ATOM     72  C   UNL A   1      39.581  33.935  36.920  1.00  0.00     0.064 A 
ATOM     73  C   UNL A   1      40.236  35.174  36.978  1.00  0.00     0.173 A 
ATOM     74  C   UNL A   1      38.805  33.556  38.024  1.00  0.00     0.173 A 
ATOM     75  F   UNL A   1      41.006  35.572  35.955  1.00  0.00    -0.203 F 
ATOM     76  C   UNL A   1      40.137  35.989  38.103  1.00  0.00     0.198 A 
ATOM     77  C   UNL A   1      38.685  34.384  39.138  1.00  0.00     0.198 A 
ATOM     78  F   UNL A   1      38.157  32.382  38.017  1.00  0.00    -0.203 F 
ATOM     79  F   UNL A   1      40.812  37.145  38.151  1.00  0.00    -0.200 F 
ATOM     80  C   UNL A   1      39.358  35.597  39.180  1.00  0.00     0.200 A 
ATOM     81  F   UNL A   1      37.919  34.007  40.171  1.00  0.00    -0.200 F 
ATOM     82  F   UNL A   1      39.262  36.381  40.262  1.00  0.00    -0.200 F 
ENDBRANCH  48  72
BRANCH  60  83
ATOM     83  C   UNL A   1      44.014  28.838  35.217  1.00  0.00     0.064 A 
ATOM     84  C   UNL A   1      45.310  29.341  35.027  1.00  0.00     0.173 A 
ATOM     85  C   UNL A   1      43.845  27.783  36.127  1.00  0.00     0.173 A 
ATOM     86  F   UNL A   1      45.526  30.339  34.157  1.00  0.00    -0.203 F 
ATOM     87  C   UNL A   1      46.396  28.793  35.705  1.00  0.00     0.198 A 
ATOM     88  C   UNL A   1      44.929  27.259  36.826  1.00  0.00     0.198 A 
ATOM     89  F   UNL A   1      42.626  27.271  36.351  1.00  0.00    -0.203 F 
ATOM     90  F   UNL A   1      47.631  29.258  35.473  1.00  0.00    -0.200 F 
ATOM     91  C   UNL A   1      46.203  27.759  36.609  1.00  0.00     0.200 A 
ATOM     92  F   UNL A   1      44.739  26.270  37.710  1.00  0.00    -0.200 F 
ATOM     93  F   UNL A   1      47.249  27.238  37.266  1.00  0.00    -0.200 F 
ENDBRANCH  60  83
ENDBRANCH  34  35
ENDBRANCH  26  29
ENDBRANCH  24  25
ENDBRANCH  23  24
ENDBRANCH   1  23
TORSDOF 14
ENDMDL
MODEL 3
REMARK VINA RESULT:     -12.0      5.638     11.012
REMARK SMILES CC[C@@](C)(NC(=O)c1cnc(Cl)c(Cl)c1)C(=O)NCCCCNC(=O)c1ccc(-c2c3nc(c(-c4c(F)c(F)c(F)c(F)c4F)c4ccc([nH]4)c(-c4c(F)c(F)c(F)c(F)c4F)c4nc(c(-c5c(F)c(F)c(F)c(F)c5F)c5ccc2[nH]5)C=C4)C=C3)cc1
REMARK SMILES IDX 20 1 19 2 18 3 16 4 17 5 3 7 4 8 2 9 1 10 5 11 6 12 7 14
REMARK SMILES IDX 8 15 9 16 15 17 10 18 13 19 11 20 14 21 12 22 21 23 22 24
REMARK SMILES IDX 23 25 24 26 25 28 26 29 27 30 88 31 28 32 87 33 29 34 30 35
REMARK SMILES IDX 31 36 81 37 32 38 86 39 80 40 82 41 33 42 85 43 79 44 78 45
REMARK SMILES IDX 34 47 66 48 46 49 65 50 47 51 50 52 64 53 83 54 48 55 49 56
REMARK SMILES IDX 63 58 84 59 51 60 35 61 36 62 44 63 37 64 38 65 42 66 45 67
REMARK SMILES IDX 39 68 40 69 43 70 41 71 67 72 68 73 76 74 69 75 70 76 74 77
REMARK SMILES IDX 77 78 71 79 72 80 75 81 73 82 52 83 53 84 61 85 54 86 55 87
REMARK SMILES IDX 59 88 62 89 56 90 57 91 60 92 58 93
REMARK H PARENT 18 6 5 13 23 27 82 46 50 57
REMARK Flexibility Score: inf
ROOT
ATOM      1  C   UNL A   1      31.393  30.935  25.750  1.00  0.00     0.023 C 
ENDROOT
BRANCH   1   2
ATOM      2  C   UNL A   1      32.274  29.694  25.900  1.00  0.00     0.116 C 
BRANCH   2   3
ATOM      3  N   UNL A   1      33.207  29.412  24.823  1.00  0.00    -0.354 N 
ATOM      4  C   UNL A   1      33.082  28.817  23.598  1.00  0.00     0.245 C 
ATOM      5  O   UNL A   1      34.046  28.965  22.841  1.00  0.00    -0.272 OA
ATOM      6  H   UNL A   1      34.125  29.715  25.015  1.00  0.00     0.163 HD
BRANCH   4   7
ATOM      7  C   UNL A   1      31.808  28.050  23.145  1.00  0.00     0.116 C 
ATOM      8  C   UNL A   1      31.398  27.152  24.341  1.00  0.00     0.045 C 
BRANCH   7   9
ATOM      9  C   UNL A   1      30.599  28.972  22.806  1.00  0.00     0.035 C 
ATOM     10  C   UNL A   1      29.195  28.418  23.033  1.00  0.00     0.007 C 
ENDBRANCH   7   9
BRANCH   7  11
ATOM     11  N   UNL A   1      32.030  27.175  21.961  1.00  0.00    -0.338 N 
ATOM     12  C   UNL A   1      32.755  26.030  21.728  1.00  0.00     0.253 C 
ATOM     13  H   UNL A   1      31.549  27.489  21.161  1.00  0.00     0.164 HD
ATOM     14  O   UNL A   1      33.142  25.879  20.565  1.00  0.00    -0.269 OA
BRANCH  12  15
ATOM     15  C   UNL A   1      33.047  24.922  22.684  1.00  0.00     0.059 A 
ATOM     16  C   UNL A   1      32.339  23.742  22.794  1.00  0.00     0.126 A 
ATOM     17  C   UNL A   1      34.261  24.964  23.393  1.00  0.00     0.039 A 
ATOM     18  N   UNL A   1      32.731  22.642  23.491  1.00  0.00    -0.242 NA
ATOM     19  C   UNL A   1      34.707  23.855  24.124  1.00  0.00     0.079 A 
ATOM     20  C   UNL A   1      33.913  22.719  24.133  1.00  0.00     0.147 A 
ATOM     21  Cl  UNL A   1      36.227  23.940  24.926  1.00  0.00    -0.081 Cl
ATOM     22  Cl  UNL A   1      34.348  21.245  24.902  1.00  0.00    -0.061 Cl
ENDBRANCH  12  15
ENDBRANCH   7  11
ENDBRANCH   4   7
ENDBRANCH   2   3
ENDBRANCH   1   2
BRANCH   1  23
ATOM     23  C   UNL A   1      31.398  31.954  26.887  1.00  0.00     0.023 C 
BRANCH  23  24
ATOM     24  C   UNL A   1      32.658  32.787  27.042  1.00  0.00     0.116 C 
BRANCH  24  25
ATOM     25  N   UNL A   1      32.387  34.131  27.520  1.00  0.00    -0.352 N 
ATOM     26  C   UNL A   1      32.981  34.818  28.548  1.00  0.00     0.251 C 
ATOM     27  H   UNL A   1      31.679  34.617  27.037  1.00  0.00     0.163 HD
ATOM     28  O   UNL A   1      32.515  35.901  28.907  1.00  0.00    -0.269 OA
BRANCH  26  29
ATOM     29  C   UNL A   1      34.157  34.257  29.244  1.00  0.00     0.039 A 
ATOM     30  C   UNL A   1      33.953  33.392  30.324  1.00  0.00     0.014 A 
ATOM     31  C   UNL A   1      35.458  34.587  28.852  1.00  0.00     0.014 A 
ATOM     32  C   UNL A   1      35.050  32.824  30.977  1.00  0.00     0.010 A 
ATOM     33  C   UNL A   1      36.547  33.959  29.451  1.00  0.00     0.010 A 
ATOM     34  C   UNL A   1      36.354  33.084  30.529  1.00  0.00    -0.014 A 
BRANCH  34  35
ATOM     35  C   UNL A   1      37.533  32.472  31.194  1.00  0.00     0.031 A 
ATOM     36  C   UNL A   1      38.283  31.358  30.515  1.00  0.00     0.074 A 
ATOM     37  C   UNL A   1      37.891  32.875  32.428  1.00  0.00     0.049 A 
ATOM     38  N   UNL A   1      39.292  30.649  30.954  1.00  0.00    -0.248 NA
ATOM     39  C   UNL A   1      37.817  30.970  29.175  1.00  0.00     0.031 C 
ATOM     40  C   UNL A   1      37.214  33.912  33.208  1.00  0.00     0.029 A 
ATOM     41  N   UNL A   1      38.907  32.453  33.248  1.00  0.00    -0.354 N 
ATOM     42  C   UNL A   1      39.564  29.722  29.956  1.00  0.00     0.074 A 
ATOM     43  C   UNL A   1      38.585  29.923  28.913  1.00  0.00     0.031 C 
ATOM     44  C   UNL A   1      37.847  34.062  34.383  1.00  0.00     0.029 A 
ATOM     45  C   UNL A   1      38.950  33.108  34.455  1.00  0.00     0.049 A 
ATOM     46  H   UNL A   1      39.545  31.747  32.995  1.00  0.00     0.167 HD
ATOM     47  C   UNL A   1      40.558  28.803  29.906  1.00  0.00     0.037 A 
ATOM     48  C   UNL A   1      39.783  32.951  35.501  1.00  0.00     0.037 A 
ATOM     49  C   UNL A   1      41.552  28.632  30.932  1.00  0.00     0.049 A 
ATOM     50  C   UNL A   1      40.880  31.924  35.417  1.00  0.00     0.074 A 
ATOM     51  C   UNL A   1      42.643  27.779  30.944  1.00  0.00     0.029 A 
ATOM     52  N   UNL A   1      41.575  29.329  32.132  1.00  0.00    -0.354 N 
ATOM     53  N   UNL A   1      41.175  31.105  34.438  1.00  0.00    -0.248 NA
ATOM     54  C   UNL A   1      41.764  31.804  36.585  1.00  0.00     0.031 C 
ATOM     55  C   UNL A   1      43.298  27.926  32.171  1.00  0.00     0.029 A 
ATOM     56  C   UNL A   1      42.646  28.907  32.902  1.00  0.00     0.049 A 
ATOM     57  H   UNL A   1      40.925  30.019  32.396  1.00  0.00     0.167 HD
ATOM     58  C   UNL A   1      42.293  30.396  34.855  1.00  0.00     0.074 A 
ATOM     59  C   UNL A   1      42.633  30.891  36.172  1.00  0.00     0.031 C 
ATOM     60  C   UNL A   1      42.977  29.422  34.206  1.00  0.00     0.037 A 
BRANCH  47  61
ATOM     61  C   UNL A   1      40.622  27.912  28.698  1.00  0.00     0.064 A 
ATOM     62  C   UNL A   1      39.926  26.695  28.642  1.00  0.00     0.173 A 
ATOM     63  C   UNL A   1      41.361  28.297  27.569  1.00  0.00     0.173 A 
ATOM     64  F   UNL A   1      39.214  26.274  29.698  1.00  0.00    -0.203 F 
ATOM     65  C   UNL A   1      39.991  25.883  27.513  1.00  0.00     0.198 A 
ATOM     66  C   UNL A   1      41.397  27.498  26.429  1.00  0.00     0.198 A 
ATOM     67  F   UNL A   1      42.040  29.454  27.567  1.00  0.00    -0.203 F 
ATOM     68  F   UNL A   1      39.359  24.701  27.502  1.00  0.00    -0.200 F 
ATOM     69  C   UNL A   1      40.719  26.288  26.405  1.00  0.00     0.200 A 
ATOM     70  F   UNL A   1      42.092  27.897  25.355  1.00  0.00    -0.200 F 
ATOM     71  F   UNL A   1      40.775  25.509  25.316  1.00  0.00    -0.200 F 
ENDBRANCH  47  61
BRANCH  48  72
ATOM     72  C   UNL A   1      39.633  33.807  36.707  1.00  0.00     0.064 A 
ATOM     73  C   UNL A   1      38.860  33.382  37.797  1.00  0.00     0.173 A 
ATOM     74  C   UNL A   1      40.248  35.064  36.796  1.00  0.00     0.173 A 
ATOM     75  F   UNL A   1      38.235  32.196  37.752  1.00  0.00    -0.203 F 
ATOM     76  C   UNL A   1      38.690  34.190  38.919  1.00  0.00     0.198 A 
ATOM     77  C   UNL A   1      40.100  35.859  37.930  1.00  0.00     0.198 A 
ATOM     78  F   UNL A   1      41.000  35.516  35.781  1.00  0.00    -0.203 F 
ATOM     79  F   UNL A   1      37.907  33.778  39.926  1.00  0.00    -0.200 F 
ATOM     80  C   UNL A   1      39.314  35.425  38.988  1.00  0.00     0.200 A 
ATOM     81  F   UNL A   1      40.717  37.048  37.998  1.00  0.00    -0.200 F 
ATOM     82  F   UNL A   1      39.152  36.202  40.067  1.00  0.00    -0.200 F 
ENDBRANCH  48  72
BRANCH  60  83
ATOM     83  C   UNL A   1      44.185  28.856  34.893  1.00  0.00     0.064 A 
ATOM     84  C   UNL A   1      44.102  27.724  35.718  1.00  0.00     0.173 A 
ATOM     85  C   UNL A   1      45.450  29.429  34.689  1.00  0.00     0.173 A 
ATOM     86  F   UNL A   1      42.914  27.147  35.956  1.00  0.00    -0.203 F 
ATOM     87  C   UNL A   1      45.238  27.203  36.332  1.00  0.00     0.198 A 
ATOM     88  C   UNL A   1      46.587  28.886  35.281  1.00  0.00     0.198 A 
ATOM     89  F   UNL A   1      45.585  30.508  33.903  1.00  0.00    -0.203 F 
ATOM     90  F   UNL A   1      45.128  26.150  37.154  1.00  0.00    -0.200 F 
ATOM     91  C   UNL A   1      46.479  27.780  36.107  1.00  0.00     0.200 A 
ATOM     92  F   UNL A   1      47.787  29.436  35.049  1.00  0.00    -0.200 F 
ATOM     93  F   UNL A   1      47.572  27.271  36.693  1.00  0.00    -0.200 F 
ENDBRANCH  60  83
ENDBRANCH  34  35
ENDBRANCH  26  29
ENDBRANCH  24  25
ENDBRANCH  23  24
ENDBRANCH   1  23
TORSDOF 14
ENDMDL
