MODEL 1
REMARK VINA RESULT:     -13.3      0.000      0.000
REMARK SMILES CC1(C)CCN(C(=O)N[C@H]2COC[C@@]2(C)C(=O)NCCCCNC(=O)c2ccc(-c3c4nc(c(-c5c(F)c(F)c(F)c(F)c5F)c5ccc([nH]5)c(-c5c(F)c(F)c(F)c(F)c5F)c5nc(c(-c6c(F)c(F)c(F)c(F)c6F)c6ccc3[nH]6)C=C5)C=C4)cc2)C1
REMARK SMILES IDX 20 1 19 2 18 3 16 4 17 5 14 7 10 8 11 9 12 10 13 11 15 12
REMARK SMILES IDX 9 13 7 14 8 15 6 17 1 18 2 19 3 20 4 21 89 22 5 23 21 24
REMARK SMILES IDX 22 25 23 26 24 27 25 29 26 30 27 31 88 32 28 33 87 34 29 35
REMARK SMILES IDX 30 36 31 37 81 38 32 39 86 40 80 41 82 42 33 43 85 44 79 45
REMARK SMILES IDX 78 46 34 48 66 49 46 50 65 51 47 52 50 53 64 54 83 55 48 56
REMARK SMILES IDX 49 57 63 59 84 60 51 61 35 62 36 63 44 64 37 65 38 66 42 67
REMARK SMILES IDX 45 68 39 69 40 70 43 71 41 72 67 73 68 74 76 75 69 76 70 77
REMARK SMILES IDX 74 78 77 79 71 80 72 81 75 82 73 83 52 84 53 85 61 86 54 87
REMARK SMILES IDX 55 88 59 89 62 90 56 91 57 92 60 93 58 94
REMARK H PARENT 18 6 9 16 23 28 82 47 50 58
REMARK Flexibility Score: inf
ROOT
ATOM      1  C   UNL A   1      31.744  30.597  26.371  1.00  0.00     0.023 C 
ENDROOT
BRANCH   1   2
ATOM      2  C   UNL A   1      33.193  30.145  26.501  1.00  0.00     0.116 C 
BRANCH   2   3
ATOM      3  N   UNL A   1      33.804  29.711  25.256  1.00  0.00    -0.355 N 
ATOM      4  C   UNL A   1      33.768  28.492  24.629  1.00  0.00     0.230 C 
ATOM      5  O   UNL A   1      34.271  28.411  23.507  1.00  0.00    -0.274 OA
ATOM      6  H   UNL A   1      34.327  30.401  24.788  1.00  0.00     0.163 HD
BRANCH   4   7
ATOM      7  C   UNL A   1      33.236  27.268  25.359  1.00  0.00     0.092 C 
ATOM      8  C   UNL A   1      31.782  26.883  25.051  1.00  0.00     0.127 C 
ATOM      9  C   UNL A   1      31.721  25.494  25.643  1.00  0.00     0.186 C 
ATOM     10  O   UNL A   1      33.013  24.903  25.392  1.00  0.00    -0.378 OA
ATOM     11  C   UNL A   1      33.902  25.960  24.937  1.00  0.00     0.179 C 
ATOM     12  C   UNL A   1      33.552  27.468  26.865  1.00  0.00     0.026 C 
BRANCH   8  13
ATOM     13  N   UNL A   1      31.380  27.101  23.631  1.00  0.00    -0.332 N 
ATOM     14  C   UNL A   1      30.496  27.636  22.781  1.00  0.00     0.317 C 
ATOM     15  O   UNL A   1      30.711  27.323  21.600  1.00  0.00    -0.249 OA
ATOM     16  H   UNL A   1      32.063  26.659  23.079  1.00  0.00     0.165 HD
BRANCH  14  17
ATOM     17  N   UNL A   1      29.486  28.476  23.082  1.00  0.00    -0.324 N 
ATOM     18  C   UNL A   1      28.119  30.498  21.289  1.00  0.00     0.013 C 
ATOM     19  C   UNL A   1      28.089  30.361  22.824  1.00  0.00    -0.016 C 
ATOM     20  C   UNL A   1      27.717  31.704  23.447  1.00  0.00     0.013 C 
ATOM     21  C   UNL A   1      27.206  29.193  23.270  1.00  0.00     0.030 C 
ATOM     22  C   UNL A   1      29.448  29.892  23.340  1.00  0.00     0.127 C 
ATOM     23  C   UNL A   1      28.111  27.968  23.077  1.00  0.00     0.122 C 
ENDBRANCH  14  17
ENDBRANCH   8  13
ENDBRANCH   4   7
ENDBRANCH   2   3
ENDBRANCH   1   2
BRANCH   1  24
ATOM     24  C   UNL A   1      31.459  32.026  26.813  1.00  0.00     0.023 C 
BRANCH  24  25
ATOM     25  C   UNL A   1      32.656  32.787  27.368  1.00  0.00     0.116 C 
BRANCH  25  26
ATOM     26  N   UNL A   1      32.368  34.184  27.658  1.00  0.00    -0.352 N 
ATOM     27  C   UNL A   1      32.969  35.034  28.556  1.00  0.00     0.251 C 
ATOM     28  H   UNL A   1      31.633  34.578  27.134  1.00  0.00     0.163 HD
ATOM     29  O   UNL A   1      32.503  36.152  28.752  1.00  0.00    -0.269 OA
BRANCH  27  30
ATOM     30  C   UNL A   1      34.151  34.583  29.320  1.00  0.00     0.039 A 
ATOM     31  C   UNL A   1      33.972  34.108  30.622  1.00  0.00     0.014 A 
ATOM     32  C   UNL A   1      35.425  34.596  28.747  1.00  0.00     0.014 A 
ATOM     33  C   UNL A   1      35.056  33.565  31.315  1.00  0.00     0.010 A 
ATOM     34  C   UNL A   1      36.482  33.973  29.402  1.00  0.00     0.010 A 
ATOM     35  C   UNL A   1      36.309  33.450  30.692  1.00  0.00    -0.014 A 
BRANCH  35  36
ATOM     36  C   UNL A   1      37.449  32.776  31.368  1.00  0.00     0.031 A 
ATOM     37  C   UNL A   1      38.128  31.604  30.718  1.00  0.00     0.074 A 
ATOM     38  C   UNL A   1      37.815  33.165  32.605  1.00  0.00     0.049 A 
ATOM     39  N   UNL A   1      39.085  30.840  31.181  1.00  0.00    -0.248 NA
ATOM     40  C   UNL A   1      37.645  31.219  29.384  1.00  0.00     0.031 C 
ATOM     41  C   UNL A   1      37.189  34.242  33.373  1.00  0.00     0.029 A 
ATOM     42  N   UNL A   1      38.790  32.684  33.444  1.00  0.00    -0.354 N 
ATOM     43  C   UNL A   1      39.299  29.872  30.208  1.00  0.00     0.074 A 
ATOM     44  C   UNL A   1      38.338  30.113  29.154  1.00  0.00     0.031 C 
ATOM     45  C   UNL A   1      37.803  34.350  34.562  1.00  0.00     0.029 A 
ATOM     46  C   UNL A   1      38.841  33.328  34.655  1.00  0.00     0.049 A 
ATOM     47  H   UNL A   1      39.396  31.948  33.199  1.00  0.00     0.167 HD
ATOM     48  C   UNL A   1      40.228  28.886  30.186  1.00  0.00     0.037 A 
ATOM     49  C   UNL A   1      39.627  33.112  35.728  1.00  0.00     0.037 A 
ATOM     50  C   UNL A   1      41.201  28.668  31.223  1.00  0.00     0.049 A 
ATOM     51  C   UNL A   1      40.667  32.027  35.671  1.00  0.00     0.074 A 
ATOM     52  C   UNL A   1      42.242  27.757  31.252  1.00  0.00     0.029 A 
ATOM     53  N   UNL A   1      41.249  29.368  32.421  1.00  0.00    -0.354 N 
ATOM     54  N   UNL A   1      40.925  31.179  34.706  1.00  0.00    -0.248 NA
ATOM     55  C   UNL A   1      41.534  31.876  36.848  1.00  0.00     0.031 C 
ATOM     56  C   UNL A   1      42.885  27.868  32.489  1.00  0.00     0.029 A 
ATOM     57  C   UNL A   1      42.283  28.887  33.209  1.00  0.00     0.049 A 
ATOM     58  H   UNL A   1      40.638  30.098  32.673  1.00  0.00     0.167 HD
ATOM     59  C   UNL A   1      41.993  30.410  35.146  1.00  0.00     0.074 A 
ATOM     60  C   UNL A   1      42.347  30.904  36.460  1.00  0.00     0.031 C 
ATOM     61  C   UNL A   1      42.622  29.387  34.517  1.00  0.00     0.037 A 
BRANCH  48  62
ATOM     62  C   UNL A   1      40.228  27.963  29.000  1.00  0.00     0.064 A 
ATOM     63  C   UNL A   1      40.954  28.256  27.835  1.00  0.00     0.173 A 
ATOM     64  C   UNL A   1      39.509  26.759  29.038  1.00  0.00     0.173 A 
ATOM     65  F   UNL A   1      41.652  29.399  27.743  1.00  0.00    -0.203 F 
ATOM     66  C   UNL A   1      40.928  27.398  26.739  1.00  0.00     0.198 A 
ATOM     67  C   UNL A   1      39.512  25.887  27.952  1.00  0.00     0.198 A 
ATOM     68  F   UNL A   1      38.804  26.426  30.129  1.00  0.00    -0.203 F 
ATOM     69  F   UNL A   1      41.580  27.728  25.615  1.00  0.00    -0.200 F 
ATOM     70  C   UNL A   1      40.212  26.212  26.800  1.00  0.00     0.200 A 
ATOM     71  F   UNL A   1      38.832  24.734  28.019  1.00  0.00    -0.200 F 
ATOM     72  F   UNL A   1      40.191  25.386  25.746  1.00  0.00    -0.200 F 
ENDBRANCH  48  62
BRANCH  49  73
ATOM     73  C   UNL A   1      39.466  33.958  36.939  1.00  0.00     0.064 A 
ATOM     74  C   UNL A   1      40.048  35.231  37.012  1.00  0.00     0.173 A 
ATOM     75  C   UNL A   1      38.713  33.520  38.038  1.00  0.00     0.173 A 
ATOM     76  F   UNL A   1      40.794  35.686  35.995  1.00  0.00    -0.203 F 
ATOM     77  C   UNL A   1      39.894  36.028  38.145  1.00  0.00     0.198 A 
ATOM     78  C   UNL A   1      38.537  34.328  39.159  1.00  0.00     0.198 A 
ATOM     79  F   UNL A   1      38.130  32.312  38.015  1.00  0.00    -0.203 F 
ATOM     80  F   UNL A   1      40.493  37.226  38.205  1.00  0.00    -0.200 F 
ATOM     81  C   UNL A   1      39.133  35.580  39.214  1.00  0.00     0.200 A 
ATOM     82  F   UNL A   1      37.787  33.898  40.182  1.00  0.00    -0.200 F 
ATOM     83  F   UNL A   1      38.977  36.351  40.298  1.00  0.00    -0.200 F 
ENDBRANCH  49  73
BRANCH  61  84
ATOM     84  C   UNL A   1      43.777  28.745  35.232  1.00  0.00     0.064 A 
ATOM     85  C   UNL A   1      45.098  29.177  35.034  1.00  0.00     0.173 A 
ATOM     86  C   UNL A   1      43.555  27.714  36.158  1.00  0.00     0.173 A 
ATOM     87  F   UNL A   1      45.365  30.148  34.149  1.00  0.00    -0.203 F 
ATOM     88  C   UNL A   1      46.154  28.583  35.719  1.00  0.00     0.198 A 
ATOM     89  C   UNL A   1      44.610  27.145  36.864  1.00  0.00     0.198 A 
ATOM     90  F   UNL A   1      42.311  27.269  36.389  1.00  0.00    -0.203 F 
ATOM     91  F   UNL A   1      47.413  28.979  35.479  1.00  0.00    -0.200 F 
ATOM     92  C   UNL A   1      45.909  27.574  36.640  1.00  0.00     0.200 A 
ATOM     93  F   UNL A   1      44.371  26.180  37.763  1.00  0.00    -0.200 F 
ATOM     94  F   UNL A   1      46.927  27.010  37.304  1.00  0.00    -0.200 F 
ENDBRANCH  61  84
ENDBRANCH  35  36
ENDBRANCH  27  30
ENDBRANCH  25  26
ENDBRANCH  24  25
ENDBRANCH   1  24
TORSDOF 13
ENDMDL
MODEL 2
REMARK VINA RESULT:     -12.8      6.475     11.867
REMARK SMILES CC1(C)CCN(C(=O)N[C@H]2COC[C@@]2(C)C(=O)NCCCCNC(=O)c2ccc(-c3c4nc(c(-c5c(F)c(F)c(F)c(F)c5F)c5ccc([nH]5)c(-c5c(F)c(F)c(F)c(F)c5F)c5nc(c(-c6c(F)c(F)c(F)c(F)c6F)c6ccc3[nH]6)C=C5)C=C4)cc2)C1
REMARK SMILES IDX 20 1 19 2 18 3 16 4 17 5 14 7 10 8 11 9 12 10 13 11 15 12
REMARK SMILES IDX 9 13 7 14 8 15 6 17 1 18 2 19 3 20 4 21 89 22 5 23 21 24
REMARK SMILES IDX 22 25 23 26 24 27 25 29 26 30 27 31 88 32 28 33 87 34 29 35
REMARK SMILES IDX 30 36 31 37 81 38 32 39 86 40 80 41 82 42 33 43 85 44 79 45
REMARK SMILES IDX 78 46 34 48 66 49 46 50 65 51 47 52 50 53 64 54 83 55 48 56
REMARK SMILES IDX 49 57 63 59 84 60 51 61 35 62 36 63 44 64 37 65 38 66 42 67
REMARK SMILES IDX 45 68 39 69 40 70 43 71 41 72 67 73 68 74 76 75 69 76 70 77
REMARK SMILES IDX 74 78 77 79 71 80 72 81 75 82 73 83 52 84 53 85 61 86 54 87
REMARK SMILES IDX 55 88 59 89 62 90 56 91 57 92 60 93 58 94
REMARK H PARENT 18 6 9 16 23 28 82 47 50 58
REMARK Flexibility Score: inf
ROOT
ATOM      1  C   UNL A   1      37.063  20.684  24.993  1.00  0.00     0.023 C 
ENDROOT
BRANCH   1   2
ATOM      2  C   UNL A   1      37.366  21.992  25.713  1.00  0.00     0.116 C 
BRANCH   2   3
ATOM      3  N   UNL A   1      36.274  22.501  26.526  1.00  0.00    -0.355 N 
ATOM      4  C   UNL A   1      35.095  23.095  26.154  1.00  0.00     0.230 C 
ATOM      5  O   UNL A   1      34.270  23.329  27.038  1.00  0.00    -0.274 OA
ATOM      6  H   UNL A   1      36.400  22.403  27.497  1.00  0.00     0.163 HD
BRANCH   4   7
ATOM      7  C   UNL A   1      34.887  23.556  24.719  1.00  0.00     0.092 C 
ATOM      8  C   UNL A   1      34.179  22.559  23.791  1.00  0.00     0.127 C 
ATOM      9  C   UNL A   1      33.842  23.449  22.617  1.00  0.00     0.186 C 
ATOM     10  O   UNL A   1      33.512  24.734  23.182  1.00  0.00    -0.378 OA
ATOM     11  C   UNL A   1      33.904  24.717  24.582  1.00  0.00     0.179 C 
ATOM     12  C   UNL A   1      36.259  24.064  24.204  1.00  0.00     0.026 C 
BRANCH   8  13
ATOM     13  N   UNL A   1      33.102  21.766  24.454  1.00  0.00    -0.332 N 
ATOM     14  C   UNL A   1      32.558  20.562  24.662  1.00  0.00     0.317 C 
ATOM     15  O   UNL A   1      31.491  20.617  25.293  1.00  0.00    -0.249 OA
ATOM     16  H   UNL A   1      32.553  22.410  24.955  1.00  0.00     0.165 HD
BRANCH  14  17
ATOM     17  N   UNL A   1      33.070  19.367  24.310  1.00  0.00    -0.324 N 
ATOM     18  C   UNL A   1      32.654  16.674  25.632  1.00  0.00     0.013 C 
ATOM     19  C   UNL A   1      33.718  17.117  24.608  1.00  0.00    -0.016 C 
ATOM     20  C   UNL A   1      34.930  16.194  24.704  1.00  0.00     0.013 C 
ATOM     21  C   UNL A   1      33.131  17.242  23.200  1.00  0.00     0.030 C 
ATOM     22  C   UNL A   1      34.129  18.565  24.866  1.00  0.00     0.127 C 
ATOM     23  C   UNL A   1      32.437  18.611  23.224  1.00  0.00     0.122 C 
ENDBRANCH  14  17
ENDBRANCH   8  13
ENDBRANCH   4   7
ENDBRANCH   2   3
ENDBRANCH   1   2
BRANCH   1  24
ATOM     24  C   UNL A   1      38.218  19.694  24.915  1.00  0.00     0.023 C 
BRANCH  24  25
ATOM     25  C   UNL A   1      39.454  20.071  25.720  1.00  0.00     0.116 C 
BRANCH  25  26
ATOM     26  N   UNL A   1      40.412  18.982  25.850  1.00  0.00    -0.352 N 
ATOM     27  C   UNL A   1      41.758  19.029  26.127  1.00  0.00     0.251 C 
ATOM     28  H   UNL A   1      40.042  18.079  25.718  1.00  0.00     0.163 HD
ATOM     29  O   UNL A   1      42.434  18.006  26.072  1.00  0.00    -0.269 OA
BRANCH  27  30
ATOM     30  C   UNL A   1      42.400  20.321  26.447  1.00  0.00     0.039 A 
ATOM     31  C   UNL A   1      43.089  21.001  25.440  1.00  0.00     0.014 A 
ATOM     32  C   UNL A   1      42.298  20.877  27.725  1.00  0.00     0.014 A 
ATOM     33  C   UNL A   1      43.597  22.277  25.690  1.00  0.00     0.010 A 
ATOM     34  C   UNL A   1      42.724  22.183  27.945  1.00  0.00     0.010 A 
ATOM     35  C   UNL A   1      43.377  22.898  26.930  1.00  0.00    -0.014 A 
BRANCH  35  36
ATOM     36  C   UNL A   1      43.811  24.296  27.182  1.00  0.00     0.031 A 
ATOM     37  C   UNL A   1      42.819  25.325  27.646  1.00  0.00     0.074 A 
ATOM     38  C   UNL A   1      45.080  24.660  26.909  1.00  0.00     0.049 A 
ATOM     39  N   UNL A   1      42.988  26.608  27.846  1.00  0.00    -0.248 NA
ATOM     40  C   UNL A   1      41.446  24.855  27.886  1.00  0.00     0.031 C 
ATOM     41  C   UNL A   1      46.120  23.774  26.386  1.00  0.00     0.029 A 
ATOM     42  N   UNL A   1      45.705  25.878  27.014  1.00  0.00    -0.354 N 
ATOM     43  C   UNL A   1      41.741  27.100  28.210  1.00  0.00     0.074 A 
ATOM     44  C   UNL A   1      40.816  25.990  28.151  1.00  0.00     0.031 C 
ATOM     45  C   UNL A   1      47.256  24.472  26.229  1.00  0.00     0.029 A 
ATOM     46  C   UNL A   1      47.016  25.862  26.605  1.00  0.00     0.049 A 
ATOM     47  H   UNL A   1      45.256  26.687  27.351  1.00  0.00     0.167 HD
ATOM     48  C   UNL A   1      41.404  28.358  28.581  1.00  0.00     0.037 A 
ATOM     49  C   UNL A   1      47.920  26.857  26.530  1.00  0.00     0.037 A 
ATOM     50  C   UNL A   1      42.334  29.453  28.666  1.00  0.00     0.049 A 
ATOM     51  C   UNL A   1      47.530  28.241  26.970  1.00  0.00     0.074 A 
ATOM     52  C   UNL A   1      42.111  30.741  29.119  1.00  0.00     0.029 A 
ATOM     53  N   UNL A   1      43.667  29.389  28.283  1.00  0.00    -0.354 N 
ATOM     54  N   UNL A   1      46.372  28.674  27.403  1.00  0.00    -0.248 NA
ATOM     55  C   UNL A   1      48.576  29.273  26.921  1.00  0.00     0.031 C 
ATOM     56  C   UNL A   1      43.294  31.471  28.959  1.00  0.00     0.029 A 
ATOM     57  C   UNL A   1      44.269  30.624  28.460  1.00  0.00     0.049 A 
ATOM     58  H   UNL A   1      44.116  28.584  27.936  1.00  0.00     0.167 HD
ATOM     59  C   UNL A   1      46.552  30.019  27.699  1.00  0.00     0.074 A 
ATOM     60  C   UNL A   1      47.938  30.326  27.410  1.00  0.00     0.031 C 
ATOM     61  C   UNL A   1      45.650  30.916  28.166  1.00  0.00     0.037 A 
BRANCH  48  62
ATOM     62  C   UNL A   1      39.962  28.618  28.916  1.00  0.00     0.064 A 
ATOM     63  C   UNL A   1      39.452  28.401  30.205  1.00  0.00     0.173 A 
ATOM     64  C   UNL A   1      39.084  29.110  27.938  1.00  0.00     0.173 A 
ATOM     65  F   UNL A   1      40.248  27.924  31.175  1.00  0.00    -0.203 F 
ATOM     66  C   UNL A   1      38.109  28.629  30.493  1.00  0.00     0.198 A 
ATOM     67  C   UNL A   1      37.749  29.369  28.239  1.00  0.00     0.198 A 
ATOM     68  F   UNL A   1      39.520  29.341  26.691  1.00  0.00    -0.203 F 
ATOM     69  F   UNL A   1      37.632  28.358  31.717  1.00  0.00    -0.200 F 
ATOM     70  C   UNL A   1      37.260  29.118  29.512  1.00  0.00     0.200 A 
ATOM     71  F   UNL A   1      36.933  29.855  27.293  1.00  0.00    -0.200 F 
ATOM     72  F   UNL A   1      35.969  29.340  29.792  1.00  0.00    -0.200 F 
ENDBRANCH  48  62
BRANCH  49  73
ATOM     73  C   UNL A   1      49.291  26.568  26.033  1.00  0.00     0.064 A 
ATOM     74  C   UNL A   1      49.658  26.865  24.713  1.00  0.00     0.173 A 
ATOM     75  C   UNL A   1      50.267  26.007  26.871  1.00  0.00     0.173 A 
ATOM     76  F   UNL A   1      48.754  27.384  23.868  1.00  0.00    -0.203 F 
ATOM     77  C   UNL A   1      50.944  26.601  24.246  1.00  0.00     0.198 A 
ATOM     78  C   UNL A   1      51.559  25.768  26.411  1.00  0.00     0.198 A 
ATOM     79  F   UNL A   1      49.968  25.711  28.144  1.00  0.00    -0.203 F 
ATOM     80  F   UNL A   1      51.257  26.860  22.969  1.00  0.00    -0.200 F 
ATOM     81  C   UNL A   1      51.896  26.059  25.097  1.00  0.00     0.200 A 
ATOM     82  F   UNL A   1      52.481  25.261  27.242  1.00  0.00    -0.200 F 
ATOM     83  F   UNL A   1      53.135  25.815  24.651  1.00  0.00    -0.200 F 
ENDBRANCH  49  73
BRANCH  61  84
ATOM     84  C   UNL A   1      46.137  32.315  28.419  1.00  0.00     0.064 A 
ATOM     85  C   UNL A   1      46.689  32.690  29.654  1.00  0.00     0.173 A 
ATOM     86  C   UNL A   1      46.091  33.278  27.400  1.00  0.00     0.173 A 
ATOM     87  F   UNL A   1      46.742  31.811  30.665  1.00  0.00    -0.203 F 
ATOM     88  C   UNL A   1      47.153  33.986  29.865  1.00  0.00     0.198 A 
ATOM     89  C   UNL A   1      46.584  34.563  27.606  1.00  0.00     0.198 A 
ATOM     90  F   UNL A   1      45.579  32.969  26.200  1.00  0.00    -0.203 F 
ATOM     91  F   UNL A   1      47.632  34.336  31.067  1.00  0.00    -0.200 F 
ATOM     92  C   UNL A   1      47.109  34.918  28.839  1.00  0.00     0.200 A 
ATOM     93  F   UNL A   1      46.553  35.459  26.609  1.00  0.00    -0.200 F 
ATOM     94  F   UNL A   1      47.563  36.162  29.043  1.00  0.00    -0.200 F 
ENDBRANCH  61  84
ENDBRANCH  35  36
ENDBRANCH  27  30
ENDBRANCH  25  26
ENDBRANCH  24  25
ENDBRANCH   1  24
TORSDOF 13
ENDMDL
MODEL 3
REMARK VINA RESULT:     -12.8      6.433     11.803
REMARK SMILES CC1(C)CCN(C(=O)N[C@H]2COC[C@@]2(C)C(=O)NCCCCNC(=O)c2ccc(-c3c4nc(c(-c5c(F)c(F)c(F)c(F)c5F)c5ccc([nH]5)c(-c5c(F)c(F)c(F)c(F)c5F)c5nc(c(-c6c(F)c(F)c(F)c(F)c6F)c6ccc3[nH]6)C=C5)C=C4)cc2)C1
REMARK SMILES IDX 20 1 19 2 18 3 16 4 17 5 14 7 10 8 11 9 12 10 13 11 15 12
REMARK SMILES IDX 9 13 7 14 8 15 6 17 1 18 2 19 3 20 4 21 89 22 5 23 21 24
REMARK SMILES IDX 22 25 23 26 24 27 25 29 26 30 27 31 88 32 28 33 87 34 29 35
REMARK SMILES IDX 30 36 31 37 81 38 32 39 86 40 80 41 82 42 33 43 85 44 79 45
REMARK SMILES IDX 78 46 34 48 66 49 46 50 65 51 47 52 50 53 64 54 83 55 48 56
REMARK SMILES IDX 49 57 63 59 84 60 51 61 35 62 36 63 44 64 37 65 38 66 42 67
REMARK SMILES IDX 45 68 39 69 40 70 43 71 41 72 67 73 68 74 76 75 69 76 70 77
REMARK SMILES IDX 74 78 77 79 71 80 72 81 75 82 73 83 52 84 53 85 61 86 54 87
REMARK SMILES IDX 55 88 59 89 62 90 56 91 57 92 60 93 58 94
REMARK H PARENT 18 6 9 16 23 28 82 47 50 58
REMARK Flexibility Score: inf
ROOT
ATOM      1  C   UNL A   1      37.140  20.801  24.881  1.00  0.00     0.023 C 
ENDROOT
BRANCH   1   2
ATOM      2  C   UNL A   1      37.423  22.078  25.660  1.00  0.00     0.116 C 
BRANCH   2   3
ATOM      3  N   UNL A   1      36.320  22.540  26.486  1.00  0.00    -0.355 N 
ATOM      4  C   UNL A   1      35.124  23.109  26.129  1.00  0.00     0.230 C 
ATOM      5  O   UNL A   1      34.294  23.301  27.019  1.00  0.00    -0.274 OA
ATOM      6  H   UNL A   1      36.450  22.424  27.454  1.00  0.00     0.163 HD
BRANCH   4   7
ATOM      7  C   UNL A   1      34.899  23.595  24.705  1.00  0.00     0.092 C 
ATOM      8  C   UNL A   1      34.170  22.619  23.771  1.00  0.00     0.127 C 
ATOM      9  C   UNL A   1      33.824  23.530  22.616  1.00  0.00     0.186 C 
ATOM     10  O   UNL A   1      33.514  24.809  23.206  1.00  0.00    -0.378 OA
ATOM     11  C   UNL A   1      33.925  24.766  24.600  1.00  0.00     0.179 C 
ATOM     12  C   UNL A   1      36.269  24.100  24.179  1.00  0.00     0.026 C 
BRANCH   8  13
ATOM     13  N   UNL A   1      33.096  21.824  24.436  1.00  0.00    -0.332 N 
ATOM     14  C   UNL A   1      32.554  20.620  24.646  1.00  0.00     0.317 C 
ATOM     15  O   UNL A   1      31.488  20.673  25.279  1.00  0.00    -0.249 OA
ATOM     16  H   UNL A   1      32.547  22.468  24.938  1.00  0.00     0.165 HD
BRANCH  14  17
ATOM     17  N   UNL A   1      33.069  19.425  24.295  1.00  0.00    -0.324 N 
ATOM     18  C   UNL A   1      32.705  16.743  25.653  1.00  0.00     0.013 C 
ATOM     19  C   UNL A   1      33.742  17.184  24.600  1.00  0.00    -0.016 C 
ATOM     20  C   UNL A   1      34.964  16.271  24.677  1.00  0.00     0.013 C 
ATOM     21  C   UNL A   1      33.121  17.290  23.205  1.00  0.00     0.030 C 
ATOM     22  C   UNL A   1      34.147  18.638  24.834  1.00  0.00     0.127 C 
ATOM     23  C   UNL A   1      32.417  18.653  23.231  1.00  0.00     0.122 C 
ENDBRANCH  14  17
ENDBRANCH   8  13
ENDBRANCH   4   7
ENDBRANCH   2   3
ENDBRANCH   1   2
BRANCH   1  24
ATOM     24  C   UNL A   1      38.170  19.690  25.042  1.00  0.00     0.023 C 
BRANCH  24  25
ATOM     25  C   UNL A   1      39.451  20.091  25.760  1.00  0.00     0.116 C 
BRANCH  25  26
ATOM     26  N   UNL A   1      40.416  19.006  25.866  1.00  0.00    -0.352 N 
ATOM     27  C   UNL A   1      41.767  19.057  26.121  1.00  0.00     0.251 C 
ATOM     28  H   UNL A   1      40.048  18.102  25.734  1.00  0.00     0.163 HD
ATOM     29  O   UNL A   1      42.447  18.038  26.046  1.00  0.00    -0.269 OA
BRANCH  27  30
ATOM     30  C   UNL A   1      42.408  20.350  26.438  1.00  0.00     0.039 A 
ATOM     31  C   UNL A   1      43.041  21.059  25.415  1.00  0.00     0.014 A 
ATOM     32  C   UNL A   1      42.360  20.877  27.732  1.00  0.00     0.014 A 
ATOM     33  C   UNL A   1      43.546  22.336  25.669  1.00  0.00     0.010 A 
ATOM     34  C   UNL A   1      42.781  22.183  27.960  1.00  0.00     0.010 A 
ATOM     35  C   UNL A   1      43.377  22.927  26.931  1.00  0.00    -0.014 A 
BRANCH  35  36
ATOM     36  C   UNL A   1      43.807  24.326  27.193  1.00  0.00     0.031 A 
ATOM     37  C   UNL A   1      42.812  25.347  27.666  1.00  0.00     0.074 A 
ATOM     38  C   UNL A   1      45.074  24.696  26.921  1.00  0.00     0.049 A 
ATOM     39  N   UNL A   1      42.976  26.629  27.876  1.00  0.00    -0.248 NA
ATOM     40  C   UNL A   1      41.441  24.871  27.905  1.00  0.00     0.031 C 
ATOM     41  C   UNL A   1      46.116  23.817  26.390  1.00  0.00     0.029 A 
ATOM     42  N   UNL A   1      45.695  25.916  27.034  1.00  0.00    -0.354 N 
ATOM     43  C   UNL A   1      41.728  27.114  28.246  1.00  0.00     0.074 A 
ATOM     44  C   UNL A   1      40.807  26.001  28.180  1.00  0.00     0.031 C 
ATOM     45  C   UNL A   1      47.249  24.521  26.236  1.00  0.00     0.029 A 
ATOM     46  C   UNL A   1      47.005  25.907  26.624  1.00  0.00     0.049 A 
ATOM     47  H   UNL A   1      45.243  26.720  27.378  1.00  0.00     0.167 HD
ATOM     48  C   UNL A   1      41.387  28.368  28.626  1.00  0.00     0.037 A 
ATOM     49  C   UNL A   1      47.906  26.906  26.555  1.00  0.00     0.037 A 
ATOM     50  C   UNL A   1      42.313  29.465  28.718  1.00  0.00     0.049 A 
ATOM     51  C   UNL A   1      47.511  28.285  27.005  1.00  0.00     0.074 A 
ATOM     52  C   UNL A   1      42.086  30.750  29.182  1.00  0.00     0.029 A 
ATOM     53  N   UNL A   1      43.645  29.409  28.333  1.00  0.00    -0.354 N 
ATOM     54  N   UNL A   1      46.352  28.711  27.444  1.00  0.00    -0.248 NA
ATOM     55  C   UNL A   1      48.553  29.321  26.963  1.00  0.00     0.031 C 
ATOM     56  C   UNL A   1      43.266  31.485  29.025  1.00  0.00     0.029 A 
ATOM     57  C   UNL A   1      44.244  30.645  28.519  1.00  0.00     0.049 A 
ATOM     58  H   UNL A   1      44.097  28.609  27.979  1.00  0.00     0.167 HD
ATOM     59  C   UNL A   1      46.528  30.054  27.750  1.00  0.00     0.074 A 
ATOM     60  C   UNL A   1      47.912  30.368  27.461  1.00  0.00     0.031 C 
ATOM     61  C   UNL A   1      45.623  30.945  28.225  1.00  0.00     0.037 A 
BRANCH  48  62
ATOM     62  C   UNL A   1      39.944  28.620  28.966  1.00  0.00     0.064 A 
ATOM     63  C   UNL A   1      39.030  29.087  28.009  1.00  0.00     0.173 A 
ATOM     64  C   UNL A   1      39.467  28.371  30.261  1.00  0.00     0.173 A 
ATOM     65  F   UNL A   1      39.437  29.350  26.757  1.00  0.00    -0.203 F 
ATOM     66  C   UNL A   1      37.702  29.333  28.346  1.00  0.00     0.198 A 
ATOM     67  C   UNL A   1      38.130  28.585  30.586  1.00  0.00     0.198 A 
ATOM     68  F   UNL A   1      40.296  27.916  31.212  1.00  0.00    -0.203 F 
ATOM     69  F   UNL A   1      36.862  29.836  27.430  1.00  0.00    -0.200 F 
ATOM     70  C   UNL A   1      37.252  29.076  29.632  1.00  0.00     0.200 A 
ATOM     71  F   UNL A   1      37.693  28.323  31.825  1.00  0.00    -0.200 F 
ATOM     72  F   UNL A   1      35.972  29.310  29.954  1.00  0.00    -0.200 F 
ENDBRANCH  48  62
BRANCH  49  73
ATOM     73  C   UNL A   1      49.277  26.626  26.053  1.00  0.00     0.064 A 
ATOM     74  C   UNL A   1      50.251  26.064  26.890  1.00  0.00     0.173 A 
ATOM     75  C   UNL A   1      49.635  26.894  24.724  1.00  0.00     0.173 A 
ATOM     76  F   UNL A   1      49.962  25.807  28.175  1.00  0.00    -0.203 F 
ATOM     77  C   UNL A   1      51.535  25.795  26.421  1.00  0.00     0.198 A 
ATOM     78  C   UNL A   1      50.910  26.600  24.248  1.00  0.00     0.198 A 
ATOM     79  F   UNL A   1      48.737  27.425  23.881  1.00  0.00    -0.203 F 
ATOM     80  F   UNL A   1      52.458  25.294  27.252  1.00  0.00    -0.200 F 
ATOM     81  C   UNL A   1      51.862  26.057  25.099  1.00  0.00     0.200 A 
ATOM     82  F   UNL A   1      51.216  26.838  22.965  1.00  0.00    -0.200 F 
ATOM     83  F   UNL A   1      53.093  25.788  24.644  1.00  0.00    -0.200 F 
ENDBRANCH  49  73
BRANCH  61  84
ATOM     84  C   UNL A   1      46.106  32.343  28.488  1.00  0.00     0.064 A 
ATOM     85  C   UNL A   1      46.085  33.329  27.491  1.00  0.00     0.173 A 
ATOM     86  C   UNL A   1      46.554  32.710  29.766  1.00  0.00     0.173 A 
ATOM     87  F   UNL A   1      45.680  33.026  26.249  1.00  0.00    -0.203 F 
ATOM     88  C   UNL A   1      46.519  34.625  27.758  1.00  0.00     0.198 A 
ATOM     89  C   UNL A   1      46.958  34.014  30.037  1.00  0.00     0.198 A 
ATOM     90  F   UNL A   1      46.588  31.807  30.757  1.00  0.00    -0.203 F 
ATOM     91  F   UNL A   1      46.536  35.539  26.777  1.00  0.00    -0.200 F 
ATOM     92  C   UNL A   1      46.946  34.969  29.032  1.00  0.00     0.200 A 
ATOM     93  F   UNL A   1      47.357  34.348  31.272  1.00  0.00    -0.200 F 
ATOM     94  F   UNL A   1      47.356  36.219  29.288  1.00  0.00    -0.200 F 
ENDBRANCH  61  84
ENDBRANCH  35  36
ENDBRANCH  27  30
ENDBRANCH  25  26
ENDBRANCH  24  25
ENDBRANCH   1  24
TORSDOF 13
ENDMDL
