MODEL 1
REMARK VINA RESULT:     -12.3      0.000      0.000
REMARK SMILES O=C(C[N@H+]1CCC[C@@H]1C(=O)NCCCCNC(=O)c1ccc(-c2c3nc(c(-c4c(F)c(F)c(F)c(F)c4F)c4ccc([nH]4)c(-c4c(F)c(F)c(F)c(F)c4F)c4nc(c(-c5c(F)c(F)c(F)c(F)c5F)c5ccc2[nH]5)C=C4)C=C3)cc1)NCc1ccc(Cl)cc1
REMARK SMILES IDX 12 1 11 2 9 3 10 4 8 6 4 7 5 8 6 10 7 11 3 12 2 13 1 14
REMARK SMILES IDX 82 15 83 17 84 18 85 19 90 20 86 21 89 22 87 23 88 24 13 25
REMARK SMILES IDX 14 26 15 27 16 28 17 29 18 31 19 32 20 33 81 34 21 35 80 36
REMARK SMILES IDX 22 37 23 38 24 39 74 40 25 41 79 42 73 43 75 44 26 45 78 46
REMARK SMILES IDX 72 47 71 48 27 50 59 51 39 52 58 53 40 54 43 55 57 56 76 57
REMARK SMILES IDX 41 58 42 59 56 61 77 62 44 63 28 64 29 65 37 66 30 67 31 68
REMARK SMILES IDX 35 69 38 70 32 71 33 72 36 73 34 74 60 75 61 76 69 77 62 78
REMARK SMILES IDX 63 79 67 80 70 81 64 82 65 83 68 84 66 85 45 86 46 87 54 88
REMARK SMILES IDX 47 89 48 90 52 91 55 92 49 93 50 94 53 95 51 96
REMARK H PARENT 11 5 4 9 82 16 16 30 75 49 43 60
REMARK Flexibility Score: inf
ROOT
ATOM      1  C   UNL A   1      32.813  29.833  25.627  1.00  0.00     0.116 C 
ENDROOT
BRANCH   1   2
ATOM      2  N   UNL A   1      33.435  28.542  25.852  1.00  0.00    -0.351 N 
ATOM      3  C   UNL A   1      33.103  27.319  25.342  1.00  0.00     0.278 C 
ATOM      4  O   UNL A   1      33.832  26.362  25.627  1.00  0.00    -0.268 OA
ATOM      5  H   UNL A   1      34.209  28.548  26.461  1.00  0.00     0.163 HD
BRANCH   3   6
ATOM      6  C   UNL A   1      31.843  27.103  24.490  1.00  0.00     0.274 C 
ATOM      7  N   UNL A   1      31.238  25.782  24.678  1.00  0.00    -0.317 N 
ATOM      8  C   UNL A   1      30.472  25.485  23.480  1.00  0.00     0.263 C 
ATOM      9  H   UNL A   1      31.975  25.081  24.772  1.00  0.00     0.349 HD
ATOM     10  C   UNL A   1      31.449  25.920  22.402  1.00  0.00     0.068 C 
ATOM     11  C   UNL A   1      32.148  27.144  22.989  1.00  0.00     0.081 C 
BRANCH   7  12
ATOM     12  C   UNL A   1      30.610  25.521  25.966  1.00  0.00     0.364 C 
BRANCH  12  13
ATOM     13  C   UNL A   1      31.032  24.112  26.413  1.00  0.00     0.275 C 
ATOM     14  O   UNL A   1      30.416  23.470  27.262  1.00  0.00    -0.268 OA
ATOM     15  N   UNL A   1      32.221  23.690  25.861  1.00  0.00    -0.347 N 
ATOM     16  H   UNL A   1      32.611  24.209  25.121  1.00  0.00     0.164 HD
BRANCH  15  17
ATOM     17  C   UNL A   1      32.913  22.514  26.326  1.00  0.00     0.151 C 
BRANCH  17  18
ATOM     18  C   UNL A   1      32.798  21.405  25.320  1.00  0.00    -0.029 A 
ATOM     19  C   UNL A   1      33.050  20.079  25.703  1.00  0.00     0.007 A 
ATOM     20  C   UNL A   1      32.396  21.674  24.003  1.00  0.00     0.007 A 
ATOM     21  C   UNL A   1      32.916  19.042  24.780  1.00  0.00     0.021 A 
ATOM     22  C   UNL A   1      32.257  20.634  23.082  1.00  0.00     0.021 A 
ATOM     23  C   UNL A   1      32.519  19.323  23.474  1.00  0.00     0.041 A 
ATOM     24  Cl  UNL A   1      32.344  18.042  22.339  1.00  0.00    -0.084 Cl
ENDBRANCH  17  18
ENDBRANCH  15  17
ENDBRANCH  12  13
ENDBRANCH   7  12
ENDBRANCH   3   6
ENDBRANCH   1   2
BRANCH   1  25
ATOM     25  C   UNL A   1      32.050  30.326  26.847  1.00  0.00     0.023 C 
BRANCH  25  26
ATOM     26  C   UNL A   1      31.749  31.820  26.840  1.00  0.00     0.023 C 
BRANCH  26  27
ATOM     27  C   UNL A   1      32.875  32.705  27.361  1.00  0.00     0.116 C 
BRANCH  27  28
ATOM     28  N   UNL A   1      32.465  34.077  27.633  1.00  0.00    -0.352 N 
ATOM     29  C   UNL A   1      32.977  34.950  28.562  1.00  0.00     0.251 C 
ATOM     30  H   UNL A   1      31.726  34.421  27.081  1.00  0.00     0.163 HD
ATOM     31  O   UNL A   1      32.465  36.048  28.754  1.00  0.00    -0.269 OA
BRANCH  29  32
ATOM     32  C   UNL A   1      34.141  34.524  29.362  1.00  0.00     0.039 A 
ATOM     33  C   UNL A   1      33.927  33.927  30.605  1.00  0.00     0.014 A 
ATOM     34  C   UNL A   1      35.432  34.647  28.841  1.00  0.00     0.014 A 
ATOM     35  C   UNL A   1      35.009  33.377  31.295  1.00  0.00     0.010 A 
ATOM     36  C   UNL A   1      36.495  34.033  29.493  1.00  0.00     0.010 A 
ATOM     37  C   UNL A   1      36.291  33.389  30.723  1.00  0.00    -0.014 A 
BRANCH  37  38
ATOM     38  C   UNL A   1      37.438  32.726  31.392  1.00  0.00     0.031 A 
ATOM     39  C   UNL A   1      38.135  31.577  30.722  1.00  0.00     0.074 A 
ATOM     40  C   UNL A   1      37.800  33.110  32.632  1.00  0.00     0.049 A 
ATOM     41  N   UNL A   1      39.105  30.821  31.171  1.00  0.00    -0.248 NA
ATOM     42  C   UNL A   1      37.659  31.210  29.379  1.00  0.00     0.031 C 
ATOM     43  C   UNL A   1      37.164  34.177  33.407  1.00  0.00     0.029 A 
ATOM     44  N   UNL A   1      38.786  32.640  33.461  1.00  0.00    -0.354 N 
ATOM     45  C   UNL A   1      39.341  29.883  30.176  1.00  0.00     0.074 A 
ATOM     46  C   UNL A   1      38.380  30.128  29.123  1.00  0.00     0.031 C 
ATOM     47  C   UNL A   1      37.792  34.295  34.589  1.00  0.00     0.029 A 
ATOM     48  C   UNL A   1      38.849  33.292  34.668  1.00  0.00     0.049 A 
ATOM     49  H   UNL A   1      39.392  31.904  33.215  1.00  0.00     0.167 HD
ATOM     50  C   UNL A   1      40.291  28.919  30.135  1.00  0.00     0.037 A 
ATOM     51  C   UNL A   1      39.665  33.098  35.721  1.00  0.00     0.037 A 
ATOM     52  C   UNL A   1      41.263  28.697  31.171  1.00  0.00     0.049 A 
ATOM     53  C   UNL A   1      40.715  32.022  35.647  1.00  0.00     0.074 A 
ATOM     54  C   UNL A   1      42.308  27.790  31.194  1.00  0.00     0.029 A 
ATOM     55  N   UNL A   1      41.311  29.394  32.369  1.00  0.00    -0.354 N 
ATOM     56  N   UNL A   1      40.977  31.187  34.671  1.00  0.00    -0.248 NA
ATOM     57  C   UNL A   1      41.587  31.866  36.820  1.00  0.00     0.031 C 
ATOM     58  C   UNL A   1      42.962  27.909  32.425  1.00  0.00     0.029 A 
ATOM     59  C   UNL A   1      42.355  28.923  33.148  1.00  0.00     0.049 A 
ATOM     60  H   UNL A   1      40.693  30.115  32.629  1.00  0.00     0.167 HD
ATOM     61  C   UNL A   1      42.058  30.429  35.097  1.00  0.00     0.074 A 
ATOM     62  C   UNL A   1      42.413  30.911  36.416  1.00  0.00     0.031 C 
ATOM     63  C   UNL A   1      42.700  29.423  34.454  1.00  0.00     0.037 A 
BRANCH  50  64
ATOM     64  C   UNL A   1      40.326  28.035  28.923  1.00  0.00     0.064 A 
ATOM     65  C   UNL A   1      41.081  28.373  27.789  1.00  0.00     0.173 A 
ATOM     66  C   UNL A   1      39.627  26.818  28.907  1.00  0.00     0.173 A 
ATOM     67  F   UNL A   1      41.758  29.531  27.750  1.00  0.00    -0.203 F 
ATOM     68  C   UNL A   1      41.111  27.541  26.674  1.00  0.00     0.198 A 
ATOM     69  C   UNL A   1      39.684  25.975  27.801  1.00  0.00     0.198 A 
ATOM     70  F   UNL A   1      38.894  26.445  29.966  1.00  0.00    -0.203 F 
ATOM     71  F   UNL A   1      41.800  27.908  25.584  1.00  0.00    -0.200 F 
ATOM     72  C   UNL A   1      40.419  26.340  26.683  1.00  0.00     0.200 A 
ATOM     73  F   UNL A   1      39.023  24.808  27.816  1.00  0.00    -0.200 F 
ATOM     74  F   UNL A   1      40.455  25.536  25.611  1.00  0.00    -0.200 F 
ENDBRANCH  50  64
BRANCH  51  75
ATOM     75  C   UNL A   1      39.546  33.961  36.925  1.00  0.00     0.064 A 
ATOM     76  C   UNL A   1      38.780  33.552  38.026  1.00  0.00     0.173 A 
ATOM     77  C   UNL A   1      40.185  35.206  37.001  1.00  0.00     0.173 A 
ATOM     78  F   UNL A   1      38.132  32.379  37.992  1.00  0.00    -0.203 F 
ATOM     79  C   UNL A   1      38.639  34.366  39.148  1.00  0.00     0.198 A 
ATOM     80  C   UNL A   1      40.067  36.007  38.134  1.00  0.00     0.198 A 
ATOM     81  F   UNL A   1      40.935  35.641  35.977  1.00  0.00    -0.203 F 
ATOM     82  F   UNL A   1      37.864  33.972  40.166  1.00  0.00    -0.200 F 
ATOM     83  C   UNL A   1      39.287  35.591  39.203  1.00  0.00     0.200 A 
ATOM     84  F   UNL A   1      40.705  37.185  38.190  1.00  0.00    -0.200 F 
ATOM     85  F   UNL A   1      39.154  36.373  40.284  1.00  0.00    -0.200 F 
ENDBRANCH  51  75
BRANCH  63  86
ATOM     86  C   UNL A   1      43.875  28.801  35.149  1.00  0.00     0.064 A 
ATOM     87  C   UNL A   1      43.729  27.687  35.989  1.00  0.00     0.173 A 
ATOM     88  C   UNL A   1      45.169  29.301  34.939  1.00  0.00     0.173 A 
ATOM     89  F   UNL A   1      42.510  27.182  36.234  1.00  0.00    -0.203 F 
ATOM     90  C   UNL A   1      44.833  27.110  36.610  1.00  0.00     0.198 A 
ATOM     91  C   UNL A   1      46.274  28.704  35.538  1.00  0.00     0.198 A 
ATOM     92  F   UNL A   1      45.363  30.361  34.141  1.00  0.00    -0.203 F 
ATOM     93  F   UNL A   1      44.665  26.073  37.442  1.00  0.00    -0.200 F 
ATOM     94  C   UNL A   1      46.104  27.613  36.378  1.00  0.00     0.200 A 
ATOM     95  F   UNL A   1      47.503  29.184  35.303  1.00  0.00    -0.200 F 
ATOM     96  F   UNL A   1      47.167  27.051  36.970  1.00  0.00    -0.200 F 
ENDBRANCH  63  86
ENDBRANCH  37  38
ENDBRANCH  29  32
ENDBRANCH  27  28
ENDBRANCH  26  27
ENDBRANCH  25  26
ENDBRANCH   1  25
TORSDOF 15
ENDMDL
MODEL 2
REMARK VINA RESULT:     -12.3      5.827     11.374
REMARK SMILES O=C(C[N@H+]1CCC[C@@H]1C(=O)NCCCCNC(=O)c1ccc(-c2c3nc(c(-c4c(F)c(F)c(F)c(F)c4F)c4ccc([nH]4)c(-c4c(F)c(F)c(F)c(F)c4F)c4nc(c(-c5c(F)c(F)c(F)c(F)c5F)c5ccc2[nH]5)C=C4)C=C3)cc1)NCc1ccc(Cl)cc1
REMARK SMILES IDX 12 1 11 2 9 3 10 4 8 6 4 7 5 8 6 10 7 11 3 12 2 13 1 14
REMARK SMILES IDX 82 15 83 17 84 18 85 19 90 20 86 21 89 22 87 23 88 24 13 25
REMARK SMILES IDX 14 26 15 27 16 28 17 29 18 31 19 32 20 33 81 34 21 35 80 36
REMARK SMILES IDX 22 37 23 38 24 39 74 40 25 41 79 42 73 43 75 44 26 45 78 46
REMARK SMILES IDX 72 47 71 48 27 50 59 51 39 52 58 53 40 54 43 55 57 56 76 57
REMARK SMILES IDX 41 58 42 59 56 61 77 62 44 63 28 64 29 65 37 66 30 67 31 68
REMARK SMILES IDX 35 69 38 70 32 71 33 72 36 73 34 74 60 75 61 76 69 77 62 78
REMARK SMILES IDX 63 79 67 80 70 81 64 82 65 83 68 84 66 85 45 86 46 87 54 88
REMARK SMILES IDX 47 89 48 90 52 91 55 92 49 93 50 94 53 95 51 96
REMARK H PARENT 11 5 4 9 82 16 16 30 75 49 43 60
REMARK Flexibility Score: inf
ROOT
ATOM      1  C   UNL A   1      37.225  22.462  25.551  1.00  0.00     0.116 C 
ENDROOT
BRANCH   1   2
ATOM      2  N   UNL A   1      36.146  22.169  26.477  1.00  0.00    -0.351 N 
ATOM      3  C   UNL A   1      34.896  21.679  26.223  1.00  0.00     0.278 C 
ATOM      4  O   UNL A   1      34.166  21.444  27.192  1.00  0.00    -0.268 OA
ATOM      5  H   UNL A   1      36.344  22.350  27.423  1.00  0.00     0.163 HD
BRANCH   3   6
ATOM      6  C   UNL A   1      34.373  21.474  24.793  1.00  0.00     0.274 C 
ATOM      7  N   UNL A   1      33.327  22.431  24.419  1.00  0.00    -0.317 N 
ATOM      8  C   UNL A   1      32.545  21.818  23.360  1.00  0.00     0.263 C 
ATOM      9  H   UNL A   1      32.715  22.595  25.219  1.00  0.00     0.349 HD
ATOM     10  C   UNL A   1      32.372  20.413  23.909  1.00  0.00     0.068 C 
ATOM     11  C   UNL A   1      33.689  20.114  24.619  1.00  0.00     0.081 C 
BRANCH   7  12
ATOM     12  C   UNL A   1      33.733  23.819  24.246  1.00  0.00     0.364 C 
BRANCH  12  13
ATOM     13  C   UNL A   1      32.780  24.691  25.079  1.00  0.00     0.275 C 
ATOM     14  O   UNL A   1      32.149  24.255  26.040  1.00  0.00    -0.268 OA
ATOM     15  N   UNL A   1      32.615  25.962  24.578  1.00  0.00    -0.347 N 
ATOM     16  H   UNL A   1      33.219  26.275  23.866  1.00  0.00     0.164 HD
BRANCH  15  17
ATOM     17  C   UNL A   1      31.591  26.855  25.062  1.00  0.00     0.151 C 
BRANCH  17  18
ATOM     18  C   UNL A   1      32.209  28.029  25.767  1.00  0.00    -0.029 A 
ATOM     19  C   UNL A   1      31.622  29.299  25.664  1.00  0.00     0.007 A 
ATOM     20  C   UNL A   1      33.347  27.863  26.570  1.00  0.00     0.007 A 
ATOM     21  C   UNL A   1      32.174  30.387  26.340  1.00  0.00     0.021 A 
ATOM     22  C   UNL A   1      33.895  28.951  27.250  1.00  0.00     0.021 A 
ATOM     23  C   UNL A   1      33.307  30.209  27.131  1.00  0.00     0.041 A 
ATOM     24  Cl  UNL A   1      33.982  31.548  27.974  1.00  0.00    -0.084 Cl
ENDBRANCH  17  18
ENDBRANCH  15  17
ENDBRANCH  12  13
ENDBRANCH   7  12
ENDBRANCH   3   6
ENDBRANCH   1   2
BRANCH   1  25
ATOM     25  C   UNL A   1      37.394  21.374  24.501  1.00  0.00     0.023 C 
BRANCH  25  26
ATOM     26  C   UNL A   1      38.102  20.121  25.002  1.00  0.00     0.023 C 
BRANCH  26  27
ATOM     27  C   UNL A   1      39.371  20.377  25.806  1.00  0.00     0.116 C 
BRANCH  27  28
ATOM     28  N   UNL A   1      40.257  19.223  25.888  1.00  0.00    -0.352 N 
ATOM     29  C   UNL A   1      41.609  19.204  26.128  1.00  0.00     0.251 C 
ATOM     30  H   UNL A   1      39.832  18.345  25.753  1.00  0.00     0.163 HD
ATOM     31  O   UNL A   1      42.253  18.161  26.067  1.00  0.00    -0.269 OA
BRANCH  29  32
ATOM     32  C   UNL A   1      42.290  20.479  26.422  1.00  0.00     0.039 A 
ATOM     33  C   UNL A   1      42.868  21.196  25.374  1.00  0.00     0.014 A 
ATOM     34  C   UNL A   1      42.283  20.993  27.722  1.00  0.00     0.014 A 
ATOM     35  C   UNL A   1      43.372  22.475  25.617  1.00  0.00     0.010 A 
ATOM     36  C   UNL A   1      42.715  22.295  27.945  1.00  0.00     0.010 A 
ATOM     37  C   UNL A   1      43.259  23.049  26.893  1.00  0.00    -0.014 A 
BRANCH  37  38
ATOM     38  C   UNL A   1      43.699  24.442  27.152  1.00  0.00     0.031 A 
ATOM     39  C   UNL A   1      42.706  25.466  27.620  1.00  0.00     0.074 A 
ATOM     40  C   UNL A   1      44.972  24.799  26.894  1.00  0.00     0.049 A 
ATOM     41  N   UNL A   1      42.875  26.748  27.831  1.00  0.00    -0.248 NA
ATOM     42  C   UNL A   1      41.332  24.995  27.855  1.00  0.00     0.031 C 
ATOM     43  C   UNL A   1      46.015  23.906  26.385  1.00  0.00     0.029 A 
ATOM     44  N   UNL A   1      45.603  26.010  27.016  1.00  0.00    -0.354 N 
ATOM     45  C   UNL A   1      41.630  27.234  28.205  1.00  0.00     0.074 A 
ATOM     46  C   UNL A   1      40.703  26.125  28.141  1.00  0.00     0.031 C 
ATOM     47  C   UNL A   1      47.161  24.595  26.261  1.00  0.00     0.029 A 
ATOM     48  C   UNL A   1      46.926  25.983  26.647  1.00  0.00     0.049 A 
ATOM     49  H   UNL A   1      45.151  26.824  27.336  1.00  0.00     0.167 HD
ATOM     50  C   UNL A   1      41.295  28.488  28.590  1.00  0.00     0.037 A 
ATOM     51  C   UNL A   1      47.843  26.968  26.621  1.00  0.00     0.037 A 
ATOM     52  C   UNL A   1      42.226  29.581  28.681  1.00  0.00     0.049 A 
ATOM     53  C   UNL A   1      47.446  28.352  27.059  1.00  0.00     0.074 A 
ATOM     54  C   UNL A   1      42.000  30.872  29.123  1.00  0.00     0.029 A 
ATOM     55  N   UNL A   1      43.564  29.508  28.322  1.00  0.00    -0.354 N 
ATOM     56  N   UNL A   1      46.283  28.785  27.480  1.00  0.00    -0.248 NA
ATOM     57  C   UNL A   1      48.493  29.383  27.023  1.00  0.00     0.031 C 
ATOM     58  C   UNL A   1      43.192  31.593  28.993  1.00  0.00     0.029 A 
ATOM     59  C   UNL A   1      44.172  30.738  28.515  1.00  0.00     0.049 A 
ATOM     60  H   UNL A   1      44.015  28.703  27.980  1.00  0.00     0.167 HD
ATOM     61  C   UNL A   1      46.462  30.126  27.786  1.00  0.00     0.074 A 
ATOM     62  C   UNL A   1      47.851  30.434  27.515  1.00  0.00     0.031 C 
ATOM     63  C   UNL A   1      45.558  31.023  28.250  1.00  0.00     0.037 A 
BRANCH  50  64
ATOM     64  C   UNL A   1      39.861  28.741  28.950  1.00  0.00     0.064 A 
ATOM     65  C   UNL A   1      39.380  28.521  30.250  1.00  0.00     0.173 A 
ATOM     66  C   UNL A   1      38.964  29.244  27.995  1.00  0.00     0.173 A 
ATOM     67  F   UNL A   1      40.194  28.029  31.196  1.00  0.00    -0.203 F 
ATOM     68  C   UNL A   1      38.048  28.766  30.572  1.00  0.00     0.198 A 
ATOM     69  C   UNL A   1      37.641  29.517  28.329  1.00  0.00     0.198 A 
ATOM     70  F   UNL A   1      39.374  29.478  26.739  1.00  0.00    -0.203 F 
ATOM     71  F   UNL A   1      37.600  28.502  31.808  1.00  0.00    -0.200 F 
ATOM     72  C   UNL A   1      37.182  29.270  29.615  1.00  0.00     0.200 A 
ATOM     73  F   UNL A   1      36.807  30.016  27.405  1.00  0.00    -0.200 F 
ATOM     74  F   UNL A   1      35.902  29.513  29.928  1.00  0.00    -0.200 F 
ENDBRANCH  50  64
BRANCH  51  75
ATOM     75  C   UNL A   1      49.237  26.677  26.195  1.00  0.00     0.064 A 
ATOM     76  C   UNL A   1      49.632  26.866  24.863  1.00  0.00     0.173 A 
ATOM     77  C   UNL A   1      50.196  26.203  27.100  1.00  0.00     0.173 A 
ATOM     78  F   UNL A   1      48.744  27.298  23.957  1.00  0.00    -0.203 F 
ATOM     79  C   UNL A   1      50.929  26.570  24.448  1.00  0.00     0.198 A 
ATOM     80  C   UNL A   1      51.500  25.933  26.690  1.00  0.00     0.198 A 
ATOM     81  F   UNL A   1      49.871  26.010  28.386  1.00  0.00    -0.203 F 
ATOM     82  F   UNL A   1      51.267  26.715  23.160  1.00  0.00    -0.200 F 
ATOM     83  C   UNL A   1      51.863  26.108  25.363  1.00  0.00     0.200 A 
ATOM     84  F   UNL A   1      52.405  25.499  27.578  1.00  0.00    -0.200 F 
ATOM     85  F   UNL A   1      53.111  25.826  24.964  1.00  0.00    -0.200 F 
ENDBRANCH  51  75
BRANCH  63  86
ATOM     86  C   UNL A   1      46.050  32.412  28.532  1.00  0.00     0.064 A 
ATOM     87  C   UNL A   1      45.998  33.423  27.559  1.00  0.00     0.173 A 
ATOM     88  C   UNL A   1      46.539  32.748  29.803  1.00  0.00     0.173 A 
ATOM     89  F   UNL A   1      45.554  33.147  26.323  1.00  0.00    -0.203 F 
ATOM     90  C   UNL A   1      46.439  34.712  27.844  1.00  0.00     0.198 A 
ATOM     91  C   UNL A   1      46.951  34.045  30.094  1.00  0.00     0.198 A 
ATOM     92  F   UNL A   1      46.602  31.819  30.770  1.00  0.00    -0.203 F 
ATOM     93  F   UNL A   1      46.422  35.650  26.888  1.00  0.00    -0.200 F 
ATOM     94  C   UNL A   1      46.907  35.024  29.112  1.00  0.00     0.200 A 
ATOM     95  F   UNL A   1      47.391  34.347  31.323  1.00  0.00    -0.200 F 
ATOM     96  F   UNL A   1      47.324  36.267  29.387  1.00  0.00    -0.200 F 
ENDBRANCH  63  86
ENDBRANCH  37  38
ENDBRANCH  29  32
ENDBRANCH  27  28
ENDBRANCH  26  27
ENDBRANCH  25  26
ENDBRANCH   1  25
TORSDOF 15
ENDMDL
MODEL 3
REMARK VINA RESULT:     -12.2      5.827     11.298
REMARK SMILES O=C(C[N@H+]1CCC[C@@H]1C(=O)NCCCCNC(=O)c1ccc(-c2c3nc(c(-c4c(F)c(F)c(F)c(F)c4F)c4ccc([nH]4)c(-c4c(F)c(F)c(F)c(F)c4F)c4nc(c(-c5c(F)c(F)c(F)c(F)c5F)c5ccc2[nH]5)C=C4)C=C3)cc1)NCc1ccc(Cl)cc1
REMARK SMILES IDX 12 1 11 2 9 3 10 4 8 6 4 7 5 8 6 10 7 11 3 12 2 13 1 14
REMARK SMILES IDX 82 15 83 17 84 18 85 19 90 20 86 21 89 22 87 23 88 24 13 25
REMARK SMILES IDX 14 26 15 27 16 28 17 29 18 31 19 32 20 33 81 34 21 35 80 36
REMARK SMILES IDX 22 37 23 38 24 39 74 40 25 41 79 42 73 43 75 44 26 45 78 46
REMARK SMILES IDX 72 47 71 48 27 50 59 51 39 52 58 53 40 54 43 55 57 56 76 57
REMARK SMILES IDX 41 58 42 59 56 61 77 62 44 63 28 64 29 65 37 66 30 67 31 68
REMARK SMILES IDX 35 69 38 70 32 71 33 72 36 73 34 74 60 75 61 76 69 77 62 78
REMARK SMILES IDX 63 79 67 80 70 81 64 82 65 83 68 84 66 85 45 86 46 87 54 88
REMARK SMILES IDX 47 89 48 90 52 91 55 92 49 93 50 94 53 95 51 96
REMARK H PARENT 11 5 4 9 82 16 16 30 75 49 43 60
REMARK Flexibility Score: inf
ROOT
ATOM      1  C   UNL A   1      37.219  22.462  25.556  1.00  0.00     0.116 C 
ENDROOT
BRANCH   1   2
ATOM      2  N   UNL A   1      36.171  22.160  26.513  1.00  0.00    -0.351 N 
ATOM      3  C   UNL A   1      34.952  21.579  26.308  1.00  0.00     0.278 C 
ATOM      4  O   UNL A   1      34.248  21.359  27.300  1.00  0.00    -0.268 OA
ATOM      5  H   UNL A   1      36.366  22.411  27.444  1.00  0.00     0.163 HD
BRANCH   3   6
ATOM      6  C   UNL A   1      34.427  21.253  24.901  1.00  0.00     0.274 C 
ATOM      7  N   UNL A   1      33.275  22.071  24.511  1.00  0.00    -0.317 N 
ATOM      8  C   UNL A   1      32.545  21.328  23.498  1.00  0.00     0.263 C 
ATOM      9  H   UNL A   1      32.663  22.202  25.318  1.00  0.00     0.349 HD
ATOM     10  C   UNL A   1      32.541  19.939  24.110  1.00  0.00     0.068 C 
ATOM     11  C   UNL A   1      33.897  19.820  24.801  1.00  0.00     0.081 C 
BRANCH   7  12
ATOM     12  C   UNL A   1      33.521  23.486  24.269  1.00  0.00     0.364 C 
BRANCH  12  13
ATOM     13  C   UNL A   1      32.556  24.285  25.161  1.00  0.00     0.275 C 
ATOM     14  O   UNL A   1      32.402  24.044  26.357  1.00  0.00    -0.268 OA
ATOM     15  N   UNL A   1      31.806  25.211  24.472  1.00  0.00    -0.347 N 
ATOM     16  H   UNL A   1      32.046  25.418  23.539  1.00  0.00     0.164 HD
BRANCH  15  17
ATOM     17  C   UNL A   1      30.682  25.890  25.068  1.00  0.00     0.151 C 
BRANCH  17  18
ATOM     18  C   UNL A   1      31.092  27.248  25.563  1.00  0.00    -0.029 A 
ATOM     19  C   UNL A   1      31.454  27.426  26.906  1.00  0.00     0.007 A 
ATOM     20  C   UNL A   1      31.161  28.338  24.683  1.00  0.00     0.007 A 
ATOM     21  C   UNL A   1      31.864  28.678  27.365  1.00  0.00     0.021 A 
ATOM     22  C   UNL A   1      31.576  29.589  25.142  1.00  0.00     0.021 A 
ATOM     23  C   UNL A   1      31.925  29.754  26.482  1.00  0.00     0.041 A 
ATOM     24  Cl  UNL A   1      32.440  31.295  27.045  1.00  0.00    -0.084 Cl
ENDBRANCH  17  18
ENDBRANCH  15  17
ENDBRANCH  12  13
ENDBRANCH   7  12
ENDBRANCH   3   6
ENDBRANCH   1   2
BRANCH   1  25
ATOM     25  C   UNL A   1      37.404  21.349  24.535  1.00  0.00     0.023 C 
BRANCH  25  26
ATOM     26  C   UNL A   1      38.106  20.109  25.076  1.00  0.00     0.023 C 
BRANCH  26  27
ATOM     27  C   UNL A   1      39.407  20.381  25.822  1.00  0.00     0.116 C 
BRANCH  27  28
ATOM     28  N   UNL A   1      40.287  19.222  25.908  1.00  0.00    -0.352 N 
ATOM     29  C   UNL A   1      41.638  19.196  26.155  1.00  0.00     0.251 C 
ATOM     30  H   UNL A   1      39.858  18.347  25.770  1.00  0.00     0.163 HD
ATOM     31  O   UNL A   1      42.277  18.150  26.098  1.00  0.00    -0.269 OA
BRANCH  29  32
ATOM     32  C   UNL A   1      42.323  20.468  26.454  1.00  0.00     0.039 A 
ATOM     33  C   UNL A   1      42.900  21.190  25.408  1.00  0.00     0.014 A 
ATOM     34  C   UNL A   1      42.322  20.976  27.757  1.00  0.00     0.014 A 
ATOM     35  C   UNL A   1      43.408  22.465  25.656  1.00  0.00     0.010 A 
ATOM     36  C   UNL A   1      42.758  22.275  27.985  1.00  0.00     0.010 A 
ATOM     37  C   UNL A   1      43.301  23.033  26.935  1.00  0.00    -0.014 A 
BRANCH  37  38
ATOM     38  C   UNL A   1      43.745  24.423  27.200  1.00  0.00     0.031 A 
ATOM     39  C   UNL A   1      42.766  25.437  27.718  1.00  0.00     0.074 A 
ATOM     40  C   UNL A   1      45.008  24.788  26.904  1.00  0.00     0.049 A 
ATOM     41  N   UNL A   1      42.938  26.716  27.942  1.00  0.00    -0.248 NA
ATOM     42  C   UNL A   1      41.403  24.957  27.993  1.00  0.00     0.031 C 
ATOM     43  C   UNL A   1      46.035  23.907  26.345  1.00  0.00     0.029 A 
ATOM     44  N   UNL A   1      45.639  26.000  27.022  1.00  0.00    -0.354 N 
ATOM     45  C   UNL A   1      41.706  27.192  28.366  1.00  0.00     0.074 A 
ATOM     46  C   UNL A   1      40.780  26.081  28.318  1.00  0.00     0.031 C 
ATOM     47  C   UNL A   1      47.174  24.602  26.192  1.00  0.00     0.029 A 
ATOM     48  C   UNL A   1      46.949  25.983  26.608  1.00  0.00     0.049 A 
ATOM     49  H   UNL A   1      45.196  26.807  27.371  1.00  0.00     0.167 HD
ATOM     50  C   UNL A   1      41.381  28.439  28.782  1.00  0.00     0.037 A 
ATOM     51  C   UNL A   1      47.861  26.972  26.565  1.00  0.00     0.037 A 
ATOM     52  C   UNL A   1      42.311  29.533  28.857  1.00  0.00     0.049 A 
ATOM     53  C   UNL A   1      47.476  28.347  27.037  1.00  0.00     0.074 A 
ATOM     54  C   UNL A   1      42.097  30.817  29.327  1.00  0.00     0.029 A 
ATOM     55  N   UNL A   1      43.636  29.471  28.451  1.00  0.00    -0.354 N 
ATOM     56  N   UNL A   1      46.327  28.770  27.504  1.00  0.00    -0.248 NA
ATOM     57  C   UNL A   1      48.517  29.383  26.981  1.00  0.00     0.031 C 
ATOM     58  C   UNL A   1      43.281  31.544  29.167  1.00  0.00     0.029 A 
ATOM     59  C   UNL A   1      44.247  30.700  28.642  1.00  0.00     0.049 A 
ATOM     60  H   UNL A   1      44.077  28.672  28.082  1.00  0.00     0.167 HD
ATOM     61  C   UNL A   1      46.512  30.107  27.825  1.00  0.00     0.074 A 
ATOM     62  C   UNL A   1      47.890  30.424  27.511  1.00  0.00     0.031 C 
ATOM     63  C   UNL A   1      45.623  30.994  28.334  1.00  0.00     0.037 A 
BRANCH  50  64
ATOM     64  C   UNL A   1      39.959  28.682  29.195  1.00  0.00     0.064 A 
ATOM     65  C   UNL A   1      38.999  29.145  28.283  1.00  0.00     0.173 A 
ATOM     66  C   UNL A   1      39.543  28.416  30.508  1.00  0.00     0.173 A 
ATOM     67  F   UNL A   1      39.349  29.426  27.019  1.00  0.00    -0.203 F 
ATOM     68  C   UNL A   1      37.682  29.361  28.677  1.00  0.00     0.198 A 
ATOM     69  C   UNL A   1      38.218  28.603  30.891  1.00  0.00     0.198 A 
ATOM     70  F   UNL A   1      40.419  27.966  31.418  1.00  0.00    -0.203 F 
ATOM     71  F   UNL A   1      36.793  29.850  27.801  1.00  0.00    -0.200 F 
ATOM     72  C   UNL A   1      37.290  29.083  29.978  1.00  0.00     0.200 A 
ATOM     73  F   UNL A   1      37.837  28.323  32.146  1.00  0.00    -0.200 F 
ATOM     74  F   UNL A   1      36.020  29.283  30.354  1.00  0.00    -0.200 F 
ENDBRANCH  50  64
BRANCH  51  75
ATOM     75  C   UNL A   1      49.240  26.692  26.086  1.00  0.00     0.064 A 
ATOM     76  C   UNL A   1      49.604  26.955  24.758  1.00  0.00     0.173 A 
ATOM     77  C   UNL A   1      50.217  26.155  26.937  1.00  0.00     0.173 A 
ATOM     78  F   UNL A   1      48.699  27.449  23.902  1.00  0.00    -0.203 F 
ATOM     79  C   UNL A   1      50.886  26.671  24.293  1.00  0.00     0.198 A 
ATOM     80  C   UNL A   1      51.507  25.896  26.478  1.00  0.00     0.198 A 
ATOM     81  F   UNL A   1      49.921  25.890  28.218  1.00  0.00    -0.203 F 
ATOM     82  F   UNL A   1      51.194  26.888  23.007  1.00  0.00    -0.200 F 
ATOM     83  C   UNL A   1      51.838  26.146  25.154  1.00  0.00     0.200 A 
ATOM     84  F   UNL A   1      52.428  25.401  27.316  1.00  0.00    -0.200 F 
ATOM     85  F   UNL A   1      53.072  25.874  24.707  1.00  0.00    -0.200 F 
ENDBRANCH  51  75
BRANCH  63  86
ATOM     86  C   UNL A   1      46.119  32.380  28.619  1.00  0.00     0.064 A 
ATOM     87  C   UNL A   1      46.676  32.721  29.861  1.00  0.00     0.173 A 
ATOM     88  C   UNL A   1      46.077  33.368  27.624  1.00  0.00     0.173 A 
ATOM     89  F   UNL A   1      46.725  31.817  30.851  1.00  0.00    -0.203 F 
ATOM     90  C   UNL A   1      47.151  34.008  30.102  1.00  0.00     0.198 A 
ATOM     91  C   UNL A   1      46.580  34.644  27.858  1.00  0.00     0.198 A 
ATOM     92  F   UNL A   1      45.560  33.089  26.417  1.00  0.00    -0.203 F 
ATOM     93  F   UNL A   1      47.639  34.324  31.309  1.00  0.00    -0.200 F 
ATOM     94  C   UNL A   1      47.110  34.964  29.099  1.00  0.00     0.200 A 
ATOM     95  F   UNL A   1      46.550  35.563  26.884  1.00  0.00    -0.200 F 
ATOM     96  F   UNL A   1      47.575  36.200  29.329  1.00  0.00    -0.200 F 
ENDBRANCH  63  86
ENDBRANCH  37  38
ENDBRANCH  29  32
ENDBRANCH  27  28
ENDBRANCH  26  27
ENDBRANCH  25  26
ENDBRANCH   1  25
TORSDOF 15
ENDMDL
