MODEL 1
REMARK VINA RESULT:     -12.0      0.000      0.000
REMARK SMILES Cc1nn(C)c2c1nc(SCC(=O)NCCCCNC(=O)c1ccc(-c3c4nc(c(-c5c(F)c(F)c(F)c(F)c5F)c5ccc([nH]5)c(-c5c(F)c(F)c(F)c(F)c5F)c5nc(c(-c6c(F)c(F)c(F)c(F)c6F)c6ccc3[nH]6)C=C5)C=C4)cc1)n2[C@H]1CC[N@@H+](C)C1
REMARK SMILES IDX 16 1 15 2 14 3 12 4 13 5 11 7 10 8 9 9 1 10 2 11 3 12 7 13
REMARK SMILES IDX 4 14 6 15 8 16 5 17 85 18 86 19 87 20 91 21 88 22 89 23
REMARK SMILES IDX 90 24 17 26 18 27 19 28 20 29 21 31 22 32 23 33 84 34 24 35
REMARK SMILES IDX 83 36 25 37 26 38 27 39 77 40 28 41 82 42 76 43 78 44 29 45
REMARK SMILES IDX 81 46 75 47 74 48 30 50 62 51 42 52 61 53 43 54 46 55 60 56
REMARK SMILES IDX 79 57 44 58 45 59 59 61 80 62 47 63 31 64 32 65 40 66 33 67
REMARK SMILES IDX 34 68 38 69 41 70 35 71 36 72 39 73 37 74 63 75 64 76 72 77
REMARK SMILES IDX 65 78 66 79 70 80 73 81 67 82 68 83 71 84 69 85 48 86 49 87
REMARK SMILES IDX 57 88 50 89 51 90 55 91 58 92 52 93 53 94 56 95 54 96
REMARK H PARENT 14 6 89 25 19 30 78 49 46 60
REMARK Flexibility Score: inf
ROOT
ATOM      1  C   UNL A   1      41.374  21.162  27.599  1.00  0.00     0.023 C 
ENDROOT
BRANCH   1   2
ATOM      2  C   UNL A   1      40.187  21.338  26.638  1.00  0.00     0.116 C 
BRANCH   2   3
ATOM      3  N   UNL A   1      39.457  22.567  26.885  1.00  0.00    -0.355 N 
ATOM      4  C   UNL A   1      38.452  23.178  26.190  1.00  0.00     0.230 C 
ATOM      5  O   UNL A   1      38.008  24.224  26.675  1.00  0.00    -0.274 OA
ATOM      6  H   UNL A   1      39.734  23.047  27.699  1.00  0.00     0.163 HD
BRANCH   4   7
ATOM      7  C   UNL A   1      37.781  22.535  24.993  1.00  0.00     0.178 C 
BRANCH   7   8
ATOM      8  S   UNL A   1      36.491  23.495  24.204  1.00  0.00    -0.078 SA
BRANCH   8   9
ATOM      9  C   UNL A   1      34.993  22.693  24.558  1.00  0.00     0.171 A 
ATOM     10  C   UNL A   1      32.611  18.833  24.849  1.00  0.00     0.071 C 
ATOM     11  C   UNL A   1      32.522  20.293  25.044  1.00  0.00     0.087 A 
ATOM     12  N   UNL A   1      31.354  20.839  25.431  1.00  0.00    -0.174 NA
ATOM     13  C   UNL A   1      33.476  21.296  24.880  1.00  0.00     0.132 A 
ATOM     14  N   UNL A   1      31.605  22.171  25.511  1.00  0.00    -0.250 N 
ATOM     15  C   UNL A   1      32.875  22.486  25.124  1.00  0.00     0.159 A 
ATOM     16  N   UNL A   1      34.779  21.393  24.538  1.00  0.00    -0.219 NA
ATOM     17  C   UNL A   1      30.535  22.995  26.019  1.00  0.00     0.176 C 
ATOM     18  N   UNL A   1      33.832  23.427  24.851  1.00  0.00    -0.295 N 
BRANCH  18  19
ATOM     19  C   UNL A   1      33.756  24.882  24.789  1.00  0.00     0.152 C 
ATOM     20  C   UNL A   1      32.831  25.397  23.664  1.00  0.00     0.093 C 
ATOM     21  C   UNL A   1      33.241  25.614  26.025  1.00  0.00     0.288 C 
ATOM     22  C   UNL A   1      31.745  26.190  24.362  1.00  0.00     0.264 C 
ATOM     23  N   UNL A   1      32.448  26.741  25.522  1.00  0.00    -0.336 N 
ATOM     24  C   UNL A   1      31.504  27.216  26.532  1.00  0.00     0.332 C 
ATOM     25  H   UNL A   1      33.023  27.549  25.284  1.00  0.00     0.347 HD
ENDBRANCH  18  19
ENDBRANCH   8   9
ENDBRANCH   7   8
ENDBRANCH   4   7
ENDBRANCH   2   3
ENDBRANCH   1   2
BRANCH   1  26
ATOM     26  C   UNL A   1      42.407  20.091  27.212  1.00  0.00     0.023 C 
BRANCH  26  27
ATOM     27  C   UNL A   1      42.367  19.674  25.753  1.00  0.00     0.116 C 
BRANCH  27  28
ATOM     28  N   UNL A   1      43.696  19.500  25.153  1.00  0.00    -0.352 N 
ATOM     29  C   UNL A   1      44.555  20.485  24.679  1.00  0.00     0.251 C 
ATOM     30  H   UNL A   1      44.017  18.572  25.077  1.00  0.00     0.163 HD
ATOM     31  O   UNL A   1      45.444  20.235  23.886  1.00  0.00    -0.269 OA
BRANCH  29  32
ATOM     32  C   UNL A   1      44.374  21.856  25.194  1.00  0.00     0.039 A 
ATOM     33  C   UNL A   1      43.383  22.730  24.735  1.00  0.00     0.014 A 
ATOM     34  C   UNL A   1      45.226  22.225  26.224  1.00  0.00     0.014 A 
ATOM     35  C   UNL A   1      43.231  23.959  25.378  1.00  0.00     0.010 A 
ATOM     36  C   UNL A   1      44.894  23.281  27.012  1.00  0.00     0.010 A 
ATOM     37  C   UNL A   1      43.997  24.217  26.523  1.00  0.00    -0.014 A 
BRANCH  37  38
ATOM     38  C   UNL A   1      43.887  25.434  27.312  1.00  0.00     0.031 A 
ATOM     39  C   UNL A   1      44.868  26.491  26.953  1.00  0.00     0.074 A 
ATOM     40  C   UNL A   1      42.776  25.664  28.052  1.00  0.00     0.049 A 
ATOM     41  N   UNL A   1      45.778  27.019  27.702  1.00  0.00    -0.248 NA
ATOM     42  C   UNL A   1      44.941  26.919  25.545  1.00  0.00     0.031 C 
ATOM     43  C   UNL A   1      41.579  24.817  28.192  1.00  0.00     0.029 A 
ATOM     44  N   UNL A   1      42.418  26.777  28.745  1.00  0.00    -0.354 N 
ATOM     45  C   UNL A   1      46.402  27.991  26.921  1.00  0.00     0.074 A 
ATOM     46  C   UNL A   1      45.995  27.737  25.568  1.00  0.00     0.031 C 
ATOM     47  C   UNL A   1      40.561  25.537  28.712  1.00  0.00     0.029 A 
ATOM     48  C   UNL A   1      41.074  26.832  29.107  1.00  0.00     0.049 A 
ATOM     49  H   UNL A   1      43.059  27.488  28.975  1.00  0.00     0.167 HD
ATOM     50  C   UNL A   1      46.983  29.080  27.499  1.00  0.00     0.037 A 
ATOM     51  C   UNL A   1      40.434  27.892  29.664  1.00  0.00     0.037 A 
ATOM     52  C   UNL A   1      47.194  28.850  28.909  1.00  0.00     0.049 A 
ATOM     53  C   UNL A   1      41.487  28.783  30.216  1.00  0.00     0.074 A 
ATOM     54  C   UNL A   1      47.927  27.942  29.647  1.00  0.00     0.029 A 
ATOM     55  N   UNL A   1      46.280  29.386  29.783  1.00  0.00    -0.354 N 
ATOM     56  N   UNL A   1      42.262  28.450  31.212  1.00  0.00    -0.248 NA
ATOM     57  C   UNL A   1      42.000  29.825  29.342  1.00  0.00     0.031 C 
ATOM     58  C   UNL A   1      47.101  27.627  30.767  1.00  0.00     0.029 A 
ATOM     59  C   UNL A   1      45.954  28.417  30.695  1.00  0.00     0.049 A 
ATOM     60  H   UNL A   1      45.924  30.304  29.759  1.00  0.00     0.167 HD
ATOM     61  C   UNL A   1      43.518  28.919  30.854  1.00  0.00     0.074 A 
ATOM     62  C   UNL A   1      43.281  29.814  29.722  1.00  0.00     0.031 C 
ATOM     63  C   UNL A   1      44.650  28.306  31.308  1.00  0.00     0.037 A 
BRANCH  50  64
ATOM     64  C   UNL A   1      46.982  30.480  26.913  1.00  0.00     0.064 A 
ATOM     65  C   UNL A   1      48.179  31.227  26.962  1.00  0.00     0.173 A 
ATOM     66  C   UNL A   1      45.823  31.226  26.606  1.00  0.00     0.173 A 
ATOM     67  F   UNL A   1      49.350  30.630  27.227  1.00  0.00    -0.203 F 
ATOM     68  C   UNL A   1      48.190  32.620  26.846  1.00  0.00     0.198 A 
ATOM     69  C   UNL A   1      45.846  32.610  26.440  1.00  0.00     0.198 A 
ATOM     70  F   UNL A   1      44.604  30.681  26.553  1.00  0.00    -0.203 F 
ATOM     71  F   UNL A   1      49.329  33.294  27.049  1.00  0.00    -0.200 F 
ATOM     72  C   UNL A   1      47.020  33.312  26.601  1.00  0.00     0.200 A 
ATOM     73  F   UNL A   1      44.698  33.263  26.208  1.00  0.00    -0.200 F 
ATOM     74  F   UNL A   1      47.012  34.651  26.566  1.00  0.00    -0.200 F 
ENDBRANCH  50  64
BRANCH  51  75
ATOM     75  C   UNL A   1      39.040  28.348  29.445  1.00  0.00     0.064 A 
ATOM     76  C   UNL A   1      38.166  28.561  30.525  1.00  0.00     0.173 A 
ATOM     77  C   UNL A   1      38.628  28.858  28.198  1.00  0.00     0.173 A 
ATOM     78  F   UNL A   1      38.503  28.148  31.755  1.00  0.00    -0.203 F 
ATOM     79  C   UNL A   1      36.965  29.264  30.371  1.00  0.00     0.198 A 
ATOM     80  C   UNL A   1      37.428  29.557  28.045  1.00  0.00     0.198 A 
ATOM     81  F   UNL A   1      39.427  28.773  27.126  1.00  0.00    -0.203 F 
ATOM     82  F   UNL A   1      36.184  29.498  31.435  1.00  0.00    -0.200 F 
ATOM     83  C   UNL A   1      36.602  29.771  29.134  1.00  0.00     0.200 A 
ATOM     84  F   UNL A   1      37.109  30.076  26.851  1.00  0.00    -0.200 F 
ATOM     85  F   UNL A   1      35.485  30.498  28.998  1.00  0.00    -0.200 F 
ENDBRANCH  51  75
BRANCH  63  86
ATOM     86  C   UNL A   1      44.503  27.268  32.388  1.00  0.00     0.064 A 
ATOM     87  C   UNL A   1      44.299  27.565  33.747  1.00  0.00     0.173 A 
ATOM     88  C   UNL A   1      44.401  25.926  32.004  1.00  0.00     0.173 A 
ATOM     89  F   UNL A   1      44.285  28.830  34.183  1.00  0.00    -0.203 F 
ATOM     90  C   UNL A   1      44.036  26.562  34.680  1.00  0.00     0.198 A 
ATOM     91  C   UNL A   1      44.105  24.929  32.930  1.00  0.00     0.198 A 
ATOM     92  F   UNL A   1      44.533  25.587  30.712  1.00  0.00    -0.203 F 
ATOM     93  F   UNL A   1      43.846  26.874  35.971  1.00  0.00    -0.200 F 
ATOM     94  C   UNL A   1      43.931  25.245  34.268  1.00  0.00     0.200 A 
ATOM     95  F   UNL A   1      43.954  23.664  32.517  1.00  0.00    -0.200 F 
ATOM     96  F   UNL A   1      43.633  24.284  35.153  1.00  0.00    -0.200 F 
ENDBRANCH  63  86
ENDBRANCH  37  38
ENDBRANCH  29  32
ENDBRANCH  27  28
ENDBRANCH  26  27
ENDBRANCH   1  26
TORSDOF 14
ENDMDL
MODEL 2
REMARK VINA RESULT:     -11.9      1.220      2.011
REMARK SMILES Cc1nn(C)c2c1nc(SCC(=O)NCCCCNC(=O)c1ccc(-c3c4nc(c(-c5c(F)c(F)c(F)c(F)c5F)c5ccc([nH]5)c(-c5c(F)c(F)c(F)c(F)c5F)c5nc(c(-c6c(F)c(F)c(F)c(F)c6F)c6ccc3[nH]6)C=C5)C=C4)cc1)n2[C@H]1CC[N@@H+](C)C1
REMARK SMILES IDX 16 1 15 2 14 3 12 4 13 5 11 7 10 8 9 9 1 10 2 11 3 12 7 13
REMARK SMILES IDX 4 14 6 15 8 16 5 17 85 18 86 19 87 20 91 21 88 22 89 23
REMARK SMILES IDX 90 24 17 26 18 27 19 28 20 29 21 31 22 32 23 33 84 34 24 35
REMARK SMILES IDX 83 36 25 37 26 38 27 39 77 40 28 41 82 42 76 43 78 44 29 45
REMARK SMILES IDX 81 46 75 47 74 48 30 50 62 51 42 52 61 53 43 54 46 55 60 56
REMARK SMILES IDX 79 57 44 58 45 59 59 61 80 62 47 63 31 64 32 65 40 66 33 67
REMARK SMILES IDX 34 68 38 69 41 70 35 71 36 72 39 73 37 74 63 75 64 76 72 77
REMARK SMILES IDX 65 78 66 79 70 80 73 81 67 82 68 83 71 84 69 85 48 86 49 87
REMARK SMILES IDX 57 88 50 89 51 90 55 91 58 92 52 93 53 94 56 95 54 96
REMARK H PARENT 14 6 89 25 19 30 78 49 46 60
REMARK Flexibility Score: inf
ROOT
ATOM      1  C   UNL A   1      40.181  21.472  26.692  1.00  0.00     0.023 C 
ENDROOT
BRANCH   1   2
ATOM      2  C   UNL A   1      38.992  21.998  25.873  1.00  0.00     0.116 C 
BRANCH   2   3
ATOM      3  N   UNL A   1      38.095  20.936  25.460  1.00  0.00    -0.355 N 
ATOM      4  C   UNL A   1      36.743  20.918  25.261  1.00  0.00     0.230 C 
ATOM      5  O   UNL A   1      36.260  19.848  24.877  1.00  0.00    -0.274 OA
ATOM      6  H   UNL A   1      38.539  20.073  25.291  1.00  0.00     0.163 HD
BRANCH   4   7
ATOM      7  C   UNL A   1      35.894  22.171  25.325  1.00  0.00     0.178 C 
BRANCH   7   8
ATOM      8  S   UNL A   1      34.654  22.347  24.044  1.00  0.00    -0.078 SA
BRANCH   8   9
ATOM      9  C   UNL A   1      33.272  23.080  24.794  1.00  0.00     0.171 A 
ATOM     10  C   UNL A   1      29.514  22.646  27.315  1.00  0.00     0.071 C 
ATOM     11  C   UNL A   1      30.347  23.630  26.597  1.00  0.00     0.087 A 
ATOM     12  N   UNL A   1      29.970  24.922  26.570  1.00  0.00    -0.174 NA
ATOM     13  C   UNL A   1      31.529  23.472  25.874  1.00  0.00     0.132 A 
ATOM     14  N   UNL A   1      30.930  25.547  25.841  1.00  0.00    -0.250 N 
ATOM     15  C   UNL A   1      31.862  24.678  25.353  1.00  0.00     0.159 A 
ATOM     16  N   UNL A   1      32.382  22.474  25.553  1.00  0.00    -0.219 NA
ATOM     17  C   UNL A   1      30.829  26.983  25.746  1.00  0.00     0.176 C 
ATOM     18  N   UNL A   1      32.967  24.434  24.580  1.00  0.00    -0.295 N 
BRANCH  18  19
ATOM     19  C   UNL A   1      33.701  25.294  23.660  1.00  0.00     0.152 C 
ATOM     20  C   UNL A   1      33.045  25.398  22.265  1.00  0.00     0.093 C 
ATOM     21  C   UNL A   1      33.894  26.754  24.061  1.00  0.00     0.288 C 
ATOM     22  C   UNL A   1      32.716  26.865  22.078  1.00  0.00     0.264 C 
ATOM     23  N   UNL A   1      33.788  27.530  22.820  1.00  0.00    -0.336 N 
ATOM     24  C   UNL A   1      33.451  28.925  23.096  1.00  0.00     0.332 C 
ATOM     25  H   UNL A   1      34.665  27.557  22.301  1.00  0.00     0.347 HD
ENDBRANCH  18  19
ENDBRANCH   8   9
ENDBRANCH   7   8
ENDBRANCH   4   7
ENDBRANCH   2   3
ENDBRANCH   1   2
BRANCH   1  26
ATOM     26  C   UNL A   1      40.877  20.213  26.147  1.00  0.00     0.023 C 
BRANCH  26  27
ATOM     27  C   UNL A   1      42.200  19.886  26.816  1.00  0.00     0.116 C 
BRANCH  27  28
ATOM     28  N   UNL A   1      43.312  19.717  25.872  1.00  0.00    -0.352 N 
ATOM     29  C   UNL A   1      43.938  20.694  25.106  1.00  0.00     0.251 C 
ATOM     30  H   UNL A   1      43.654  18.800  25.768  1.00  0.00     0.163 HD
ATOM     31  O   UNL A   1      44.578  20.417  24.109  1.00  0.00    -0.269 OA
BRANCH  29  32
ATOM     32  C   UNL A   1      43.827  22.094  25.560  1.00  0.00     0.039 A 
ATOM     33  C   UNL A   1      42.994  23.039  24.953  1.00  0.00     0.014 A 
ATOM     34  C   UNL A   1      44.570  22.419  26.684  1.00  0.00     0.014 A 
ATOM     35  C   UNL A   1      42.882  24.300  25.541  1.00  0.00     0.010 A 
ATOM     36  C   UNL A   1      44.245  23.529  27.397  1.00  0.00     0.010 A 
ATOM     37  C   UNL A   1      43.514  24.526  26.771  1.00  0.00    -0.014 A 
BRANCH  37  38
ATOM     38  C   UNL A   1      43.423  25.777  27.509  1.00  0.00     0.031 A 
ATOM     39  C   UNL A   1      44.406  26.810  27.094  1.00  0.00     0.074 A 
ATOM     40  C   UNL A   1      42.323  26.045  28.254  1.00  0.00     0.049 A 
ATOM     41  N   UNL A   1      45.329  27.362  27.809  1.00  0.00    -0.248 NA
ATOM     42  C   UNL A   1      44.464  27.178  25.668  1.00  0.00     0.031 C 
ATOM     43  C   UNL A   1      41.122  25.214  28.444  1.00  0.00     0.029 A 
ATOM     44  N   UNL A   1      41.982  27.189  28.904  1.00  0.00    -0.354 N 
ATOM     45  C   UNL A   1      45.950  28.296  26.979  1.00  0.00     0.074 A 
ATOM     46  C   UNL A   1      45.523  27.988  25.643  1.00  0.00     0.031 C 
ATOM     47  C   UNL A   1      40.116  25.962  28.946  1.00  0.00     0.029 A 
ATOM     48  C   UNL A   1      40.643  27.269  29.280  1.00  0.00     0.049 A 
ATOM     49  H   UNL A   1      42.631  27.904  29.096  1.00  0.00     0.167 HD
ATOM     50  C   UNL A   1      46.546  29.404  27.504  1.00  0.00     0.037 A 
ATOM     51  C   UNL A   1      40.018  28.356  29.800  1.00  0.00     0.037 A 
ATOM     52  C   UNL A   1      46.774  29.232  28.919  1.00  0.00     0.049 A 
ATOM     53  C   UNL A   1      41.084  29.262  30.301  1.00  0.00     0.074 A 
ATOM     54  C   UNL A   1      47.510  28.351  29.685  1.00  0.00     0.029 A 
ATOM     55  N   UNL A   1      45.875  29.811  29.781  1.00  0.00    -0.354 N 
ATOM     56  N   UNL A   1      41.870  28.966  31.300  1.00  0.00    -0.248 NA
ATOM     57  C   UNL A   1      41.592  30.262  29.377  1.00  0.00     0.031 C 
ATOM     58  C   UNL A   1      46.697  28.089  30.828  1.00  0.00     0.029 A 
ATOM     59  C   UNL A   1      45.554  28.883  30.737  1.00  0.00     0.049 A 
ATOM     60  H   UNL A   1      45.525  30.729  29.723  1.00  0.00     0.167 HD
ATOM     61  C   UNL A   1      43.124  29.410  30.906  1.00  0.00     0.074 A 
ATOM     62  C   UNL A   1      42.878  30.258  29.741  1.00  0.00     0.031 C 
ATOM     63  C   UNL A   1      44.258  28.808  31.371  1.00  0.00     0.037 A 
BRANCH  50  64
ATOM     64  C   UNL A   1      46.546  30.778  26.859  1.00  0.00     0.064 A 
ATOM     65  C   UNL A   1      47.757  31.503  26.829  1.00  0.00     0.173 A 
ATOM     66  C   UNL A   1      45.390  31.534  26.567  1.00  0.00     0.173 A 
ATOM     67  F   UNL A   1      48.927  30.894  27.073  1.00  0.00    -0.203 F 
ATOM     68  C   UNL A   1      47.789  32.889  26.653  1.00  0.00     0.198 A 
ATOM     69  C   UNL A   1      45.431  32.909  26.341  1.00  0.00     0.198 A 
ATOM     70  F   UNL A   1      44.160  31.011  26.585  1.00  0.00    -0.203 F 
ATOM     71  F   UNL A   1      48.948  33.549  26.782  1.00  0.00    -0.200 F 
ATOM     72  C   UNL A   1      46.623  33.594  26.426  1.00  0.00     0.200 A 
ATOM     73  F   UNL A   1      44.287  33.574  26.127  1.00  0.00    -0.200 F 
ATOM     74  F   UNL A   1      46.638  34.930  26.334  1.00  0.00    -0.200 F 
ENDBRANCH  50  64
BRANCH  51  75
ATOM     75  C   UNL A   1      38.624  28.813  29.581  1.00  0.00     0.064 A 
ATOM     76  C   UNL A   1      37.788  29.146  30.660  1.00  0.00     0.173 A 
ATOM     77  C   UNL A   1      38.179  29.205  28.302  1.00  0.00     0.173 A 
ATOM     78  F   UNL A   1      38.159  28.850  31.914  1.00  0.00    -0.203 F 
ATOM     79  C   UNL A   1      36.593  29.851  30.474  1.00  0.00     0.198 A 
ATOM     80  C   UNL A   1      36.986  29.906  28.118  1.00  0.00     0.198 A 
ATOM     81  F   UNL A   1      38.943  29.001  27.220  1.00  0.00    -0.203 F 
ATOM     82  F   UNL A   1      35.851  30.202  31.534  1.00  0.00    -0.200 F 
ATOM     83  C   UNL A   1      36.198  30.240  29.205  1.00  0.00     0.200 A 
ATOM     84  F   UNL A   1      36.636  30.311  26.889  1.00  0.00    -0.200 F 
ATOM     85  F   UNL A   1      35.087  30.970  29.032  1.00  0.00    -0.200 F 
ENDBRANCH  51  75
BRANCH  63  86
ATOM     86  C   UNL A   1      44.118  27.818  32.496  1.00  0.00     0.064 A 
ATOM     87  C   UNL A   1      44.032  26.426  32.317  1.00  0.00     0.173 A 
ATOM     88  C   UNL A   1      44.244  28.287  33.809  1.00  0.00     0.173 A 
ATOM     89  F   UNL A   1      44.004  25.888  31.093  1.00  0.00    -0.203 F 
ATOM     90  C   UNL A   1      44.039  25.550  33.403  1.00  0.00     0.198 A 
ATOM     91  C   UNL A   1      44.285  27.410  34.890  1.00  0.00     0.198 A 
ATOM     92  F   UNL A   1      44.385  29.602  34.039  1.00  0.00    -0.203 F 
ATOM     93  F   UNL A   1      43.953  24.226  33.202  1.00  0.00    -0.200 F 
ATOM     94  C   UNL A   1      44.175  26.044  34.688  1.00  0.00     0.200 A 
ATOM     95  F   UNL A   1      44.468  27.891  36.127  1.00  0.00    -0.200 F 
ATOM     96  F   UNL A   1      44.228  25.203  35.731  1.00  0.00    -0.200 F 
ENDBRANCH  63  86
ENDBRANCH  37  38
ENDBRANCH  29  32
ENDBRANCH  27  28
ENDBRANCH  26  27
ENDBRANCH   1  26
TORSDOF 14
ENDMDL
MODEL 3
REMARK VINA RESULT:     -11.9      0.943      2.485
REMARK SMILES Cc1nn(C)c2c1nc(SCC(=O)NCCCCNC(=O)c1ccc(-c3c4nc(c(-c5c(F)c(F)c(F)c(F)c5F)c5ccc([nH]5)c(-c5c(F)c(F)c(F)c(F)c5F)c5nc(c(-c6c(F)c(F)c(F)c(F)c6F)c6ccc3[nH]6)C=C5)C=C4)cc1)n2[C@H]1CC[N@@H+](C)C1
REMARK SMILES IDX 16 1 15 2 14 3 12 4 13 5 11 7 10 8 9 9 1 10 2 11 3 12 7 13
REMARK SMILES IDX 4 14 6 15 8 16 5 17 85 18 86 19 87 20 91 21 88 22 89 23
REMARK SMILES IDX 90 24 17 26 18 27 19 28 20 29 21 31 22 32 23 33 84 34 24 35
REMARK SMILES IDX 83 36 25 37 26 38 27 39 77 40 28 41 82 42 76 43 78 44 29 45
REMARK SMILES IDX 81 46 75 47 74 48 30 50 62 51 42 52 61 53 43 54 46 55 60 56
REMARK SMILES IDX 79 57 44 58 45 59 59 61 80 62 47 63 31 64 32 65 40 66 33 67
REMARK SMILES IDX 34 68 38 69 41 70 35 71 36 72 39 73 37 74 63 75 64 76 72 77
REMARK SMILES IDX 65 78 66 79 70 80 73 81 67 82 68 83 71 84 69 85 48 86 49 87
REMARK SMILES IDX 57 88 50 89 51 90 55 91 58 92 52 93 53 94 56 95 54 96
REMARK H PARENT 14 6 89 25 19 30 78 49 46 60
REMARK Flexibility Score: inf
ROOT
ATOM      1  C   UNL A   1      40.801  21.550  27.373  1.00  0.00     0.023 C 
ENDROOT
BRANCH   1   2
ATOM      2  C   UNL A   1      39.703  22.441  26.772  1.00  0.00     0.116 C 
BRANCH   2   3
ATOM      3  N   UNL A   1      38.927  21.752  25.758  1.00  0.00    -0.355 N 
ATOM      4  C   UNL A   1      37.771  22.093  25.114  1.00  0.00     0.230 C 
ATOM      5  O   UNL A   1      37.361  21.294  24.265  1.00  0.00    -0.274 OA
ATOM      6  H   UNL A   1      39.301  20.883  25.483  1.00  0.00     0.163 HD
BRANCH   4   7
ATOM      7  C   UNL A   1      37.114  23.447  25.282  1.00  0.00     0.178 C 
BRANCH   7   8
ATOM      8  S   UNL A   1      35.966  23.930  23.995  1.00  0.00    -0.078 SA
BRANCH   8   9
ATOM      9  C   UNL A   1      34.443  24.215  24.776  1.00  0.00     0.171 A 
ATOM     10  C   UNL A   1      31.484  27.144  26.602  1.00  0.00     0.071 C 
ATOM     11  C   UNL A   1      31.696  25.716  26.296  1.00  0.00     0.087 A 
ATOM     12  N   UNL A   1      30.758  24.818  26.648  1.00  0.00    -0.174 NA
ATOM     13  C   UNL A   1      32.762  25.062  25.679  1.00  0.00     0.132 A 
ATOM     14  N   UNL A   1      31.251  23.622  26.236  1.00  0.00    -0.250 N 
ATOM     15  C   UNL A   1      32.499  23.733  25.694  1.00  0.00     0.159 A 
ATOM     16  N   UNL A   1      33.945  25.388  25.114  1.00  0.00    -0.219 NA
ATOM     17  C   UNL A   1      30.383  22.481  26.394  1.00  0.00     0.176 C 
ATOM     18  N   UNL A   1      33.620  23.147  25.169  1.00  0.00    -0.295 N 
BRANCH  18  19
ATOM     19  C   UNL A   1      34.003  21.745  25.052  1.00  0.00     0.152 C 
ATOM     20  C   UNL A   1      33.626  20.903  26.291  1.00  0.00     0.093 C 
ATOM     21  C   UNL A   1      33.409  20.945  23.896  1.00  0.00     0.288 C 
ATOM     22  C   UNL A   1      32.678  19.835  25.785  1.00  0.00     0.264 C 
ATOM     23  N   UNL A   1      33.161  19.599  24.424  1.00  0.00    -0.336 N 
ATOM     24  C   UNL A   1      32.161  18.893  23.624  1.00  0.00     0.332 C 
ATOM     25  H   UNL A   1      33.994  19.011  24.401  1.00  0.00     0.347 HD
ENDBRANCH  18  19
ENDBRANCH   8   9
ENDBRANCH   7   8
ENDBRANCH   4   7
ENDBRANCH   2   3
ENDBRANCH   1   2
BRANCH   1  26
ATOM     26  C   UNL A   1      41.323  20.416  26.475  1.00  0.00     0.023 C 
BRANCH  26  27
ATOM     27  C   UNL A   1      42.648  19.822  26.918  1.00  0.00     0.116 C 
BRANCH  27  28
ATOM     28  N   UNL A   1      43.634  19.712  25.835  1.00  0.00    -0.352 N 
ATOM     29  C   UNL A   1      44.101  20.719  24.998  1.00  0.00     0.251 C 
ATOM     30  H   UNL A   1      44.010  18.814  25.683  1.00  0.00     0.163 HD
ATOM     31  O   UNL A   1      44.620  20.474  23.925  1.00  0.00    -0.269 OA
BRANCH  29  32
ATOM     32  C   UNL A   1      43.974  22.112  25.469  1.00  0.00     0.039 A 
ATOM     33  C   UNL A   1      43.127  23.054  24.876  1.00  0.00     0.014 A 
ATOM     34  C   UNL A   1      44.719  22.433  26.594  1.00  0.00     0.014 A 
ATOM     35  C   UNL A   1      43.002  24.307  25.479  1.00  0.00     0.010 A 
ATOM     36  C   UNL A   1      44.383  23.531  27.320  1.00  0.00     0.010 A 
ATOM     37  C   UNL A   1      43.636  24.526  26.709  1.00  0.00    -0.014 A 
BRANCH  37  38
ATOM     38  C   UNL A   1      43.533  25.767  27.462  1.00  0.00     0.031 A 
ATOM     39  C   UNL A   1      44.510  26.812  27.064  1.00  0.00     0.074 A 
ATOM     40  C   UNL A   1      42.428  26.018  28.205  1.00  0.00     0.049 A 
ATOM     41  N   UNL A   1      45.426  27.363  27.789  1.00  0.00    -0.248 NA
ATOM     42  C   UNL A   1      44.571  27.198  25.643  1.00  0.00     0.031 C 
ATOM     43  C   UNL A   1      41.232  25.176  28.379  1.00  0.00     0.029 A 
ATOM     44  N   UNL A   1      42.076  27.152  28.867  1.00  0.00    -0.354 N 
ATOM     45  C   UNL A   1      46.044  28.311  26.974  1.00  0.00     0.074 A 
ATOM     46  C   UNL A   1      45.625  28.017  25.632  1.00  0.00     0.031 C 
ATOM     47  C   UNL A   1      40.219  25.911  28.886  1.00  0.00     0.029 A 
ATOM     48  C   UNL A   1      40.734  27.217  29.238  1.00  0.00     0.049 A 
ATOM     49  H   UNL A   1      42.718  27.869  29.070  1.00  0.00     0.167 HD
ATOM     50  C   UNL A   1      46.629  29.417  27.514  1.00  0.00     0.037 A 
ATOM     51  C   UNL A   1      40.099  28.294  29.768  1.00  0.00     0.037 A 
ATOM     52  C   UNL A   1      46.852  29.229  28.928  1.00  0.00     0.049 A 
ATOM     53  C   UNL A   1      41.156  29.201  30.285  1.00  0.00     0.074 A 
ATOM     54  C   UNL A   1      47.591  28.344  29.688  1.00  0.00     0.029 A 
ATOM     55  N   UNL A   1      45.945  29.791  29.794  1.00  0.00    -0.354 N 
ATOM     56  N   UNL A   1      41.939  28.898  31.284  1.00  0.00    -0.248 NA
ATOM     57  C   UNL A   1      41.661  30.216  29.375  1.00  0.00     0.031 C 
ATOM     58  C   UNL A   1      46.775  28.062  30.823  1.00  0.00     0.029 A 
ATOM     59  C   UNL A   1      45.627  28.850  30.737  1.00  0.00     0.049 A 
ATOM     60  H   UNL A   1      45.589  30.708  29.746  1.00  0.00     0.167 HD
ATOM     61  C   UNL A   1      43.193  29.356  30.901  1.00  0.00     0.074 A 
ATOM     62  C   UNL A   1      42.946  30.217  29.745  1.00  0.00     0.031 C 
ATOM     63  C   UNL A   1      44.328  28.757  31.364  1.00  0.00     0.037 A 
BRANCH  50  64
ATOM     64  C   UNL A   1      46.622  30.799  26.887  1.00  0.00     0.064 A 
ATOM     65  C   UNL A   1      47.827  31.535  26.875  1.00  0.00     0.173 A 
ATOM     66  C   UNL A   1      45.462  31.547  26.594  1.00  0.00     0.173 A 
ATOM     67  F   UNL A   1      49.000  30.933  27.121  1.00  0.00    -0.203 F 
ATOM     68  C   UNL A   1      47.848  32.923  26.717  1.00  0.00     0.198 A 
ATOM     69  C   UNL A   1      45.492  32.925  26.385  1.00  0.00     0.198 A 
ATOM     70  F   UNL A   1      44.237  31.014  26.596  1.00  0.00    -0.203 F 
ATOM     71  F   UNL A   1      49.000  33.591  26.863  1.00  0.00    -0.200 F 
ATOM     72  C   UNL A   1      46.677  33.620  26.488  1.00  0.00     0.200 A 
ATOM     73  F   UNL A   1      44.344  33.583  26.170  1.00  0.00    -0.200 F 
ATOM     74  F   UNL A   1      46.681  34.957  26.413  1.00  0.00    -0.200 F 
ENDBRANCH  50  64
BRANCH  51  75
ATOM     75  C   UNL A   1      38.703  28.743  29.548  1.00  0.00     0.064 A 
ATOM     76  C   UNL A   1      37.857  29.048  30.628  1.00  0.00     0.173 A 
ATOM     77  C   UNL A   1      38.263  29.156  28.275  1.00  0.00     0.173 A 
ATOM     78  F   UNL A   1      38.222  28.731  31.879  1.00  0.00    -0.203 F 
ATOM     79  C   UNL A   1      36.657  29.746  30.447  1.00  0.00     0.198 A 
ATOM     80  C   UNL A   1      37.065  29.851  28.096  1.00  0.00     0.198 A 
ATOM     81  F   UNL A   1      39.036  28.980  27.194  1.00  0.00    -0.203 F 
ATOM     82  F   UNL A   1      35.904  30.071  31.508  1.00  0.00    -0.200 F 
ATOM     83  C   UNL A   1      36.267  30.157  29.183  1.00  0.00     0.200 A 
ATOM     84  F   UNL A   1      36.720  30.276  26.872  1.00  0.00    -0.200 F 
ATOM     85  F   UNL A   1      35.151  30.881  29.017  1.00  0.00    -0.200 F 
ENDBRANCH  51  75
BRANCH  63  86
ATOM     86  C   UNL A   1      44.191  27.752  32.476  1.00  0.00     0.064 A 
ATOM     87  C   UNL A   1      44.103  26.363  32.279  1.00  0.00     0.173 A 
ATOM     88  C   UNL A   1      44.321  28.204  33.794  1.00  0.00     0.173 A 
ATOM     89  F   UNL A   1      44.071  25.841  31.048  1.00  0.00    -0.203 F 
ATOM     90  C   UNL A   1      44.112  25.473  33.353  1.00  0.00     0.198 A 
ATOM     91  C   UNL A   1      44.364  27.313  34.864  1.00  0.00     0.198 A 
ATOM     92  F   UNL A   1      44.463  29.516  34.042  1.00  0.00    -0.203 F 
ATOM     93  F   UNL A   1      44.024  24.152  33.135  1.00  0.00    -0.200 F 
ATOM     94  C   UNL A   1      44.252  25.950  34.645  1.00  0.00     0.200 A 
ATOM     95  F   UNL A   1      44.551  27.777  36.107  1.00  0.00    -0.200 F 
ATOM     96  F   UNL A   1      44.307  25.095  35.676  1.00  0.00    -0.200 F 
ENDBRANCH  63  86
ENDBRANCH  37  38
ENDBRANCH  29  32
ENDBRANCH  27  28
ENDBRANCH  26  27
ENDBRANCH   1  26
TORSDOF 14
ENDMDL
