MODEL 1
REMARK VINA RESULT:     -13.5      0.000      0.000
REMARK SMILES Cc1ccc(NC(=O)C[C@@H](C(=O)NCCCCNC(=O)c2ccc(-c3c4nc(c(-c5c(F)c(F)c(F)c(F)c5F)c5ccc([nH]5)c(-c5c(F)c(F)c(F)c(F)c5F)c5nc(c(-c6c(F)c(F)c(F)c(F)c6F)c6ccc3[nH]6)C=C5)C=C4)cc2)[NH+]2CCOCC2)cc1
REMARK SMILES IDX 15 1 14 2 13 3 11 4 12 5 10 7 9 8 7 9 6 10 8 12 5 13 1 14
REMARK SMILES IDX 2 15 3 16 91 17 4 18 90 19 84 20 85 21 89 22 86 24 88 25
REMARK SMILES IDX 87 26 16 27 17 28 18 29 19 30 20 32 21 33 22 34 83 35 23 36
REMARK SMILES IDX 82 37 24 38 25 39 26 40 76 41 27 42 81 43 75 44 77 45 28 46
REMARK SMILES IDX 80 47 74 48 73 49 29 51 61 52 41 53 60 54 42 55 45 56 59 57
REMARK SMILES IDX 78 58 43 59 44 60 58 62 79 63 46 64 30 65 31 66 39 67 32 68
REMARK SMILES IDX 33 69 37 70 40 71 34 72 35 73 38 74 36 75 62 76 63 77 71 78
REMARK SMILES IDX 64 79 65 80 69 81 72 82 66 83 67 84 70 85 68 86 47 87 48 88
REMARK SMILES IDX 56 89 49 90 50 91 54 92 57 93 51 94 52 95 55 96 53 97
REMARK H PARENT 13 6 6 11 84 23 18 31 77 50 45 61
REMARK Flexibility Score: inf
ROOT
ATOM      1  C   UNL A   1      36.531  21.100  25.552  1.00  0.00     0.023 C 
ENDROOT
BRANCH   1   2
ATOM      2  C   UNL A   1      35.282  21.607  26.308  1.00  0.00     0.116 C 
BRANCH   2   3
ATOM      3  N   UNL A   1      34.070  20.843  26.080  1.00  0.00    -0.351 N 
ATOM      4  C   UNL A   1      32.867  21.113  25.506  1.00  0.00     0.278 C 
ATOM      5  O   UNL A   1      32.174  20.105  25.319  1.00  0.00    -0.268 OA
ATOM      6  H   UNL A   1      34.133  19.920  26.415  1.00  0.00     0.163 HD
BRANCH   4   7
ATOM      7  C   UNL A   1      32.411  22.547  25.047  1.00  0.00     0.283 C 
BRANCH   7   8
ATOM      8  C   UNL A   1      30.928  22.878  25.330  1.00  0.00     0.175 C 
BRANCH   8   9
ATOM      9  C   UNL A   1      30.520  23.669  26.544  1.00  0.00     0.230 C 
ATOM     10  N   UNL A   1      30.276  25.010  26.526  1.00  0.00    -0.326 N 
ATOM     11  H   UNL A   1      30.029  25.380  27.404  1.00  0.00     0.169 HD
ATOM     12  O   UNL A   1      30.412  23.079  27.626  1.00  0.00    -0.274 OA
BRANCH  10  13
ATOM     13  C   UNL A   1      30.309  25.964  25.495  1.00  0.00     0.041 A 
ATOM     14  C   UNL A   1      30.074  29.478  23.023  1.00  0.00     0.044 C 
ATOM     15  C   UNL A   1      30.243  28.216  23.812  1.00  0.00    -0.051 A 
ATOM     16  C   UNL A   1      29.361  27.154  23.614  1.00  0.00     0.005 A 
ATOM     17  C   UNL A   1      31.247  28.087  24.774  1.00  0.00     0.005 A 
ATOM     18  C   UNL A   1      29.401  26.031  24.444  1.00  0.00     0.026 A 
ATOM     19  C   UNL A   1      31.295  26.954  25.592  1.00  0.00     0.026 A 
ENDBRANCH  10  13
ENDBRANCH   8   9
ENDBRANCH   7   8
BRANCH   7  20
ATOM     20  N   UNL A   1      32.729  22.724  23.585  1.00  0.00    -0.320 N 
ATOM     21  C   UNL A   1      34.174  22.791  23.263  1.00  0.00     0.291 C 
ATOM     22  C   UNL A   1      32.021  23.753  22.800  1.00  0.00     0.291 C 
ATOM     23  H   UNL A   1      32.328  21.840  23.273  1.00  0.00     0.348 HD
ATOM     24  C   UNL A   1      34.764  24.211  23.261  1.00  0.00     0.221 C 
ATOM     25  C   UNL A   1      32.659  25.147  22.825  1.00  0.00     0.221 C 
ATOM     26  O   UNL A   1      34.025  25.094  22.412  1.00  0.00    -0.370 OA
ENDBRANCH   7  20
ENDBRANCH   4   7
ENDBRANCH   2   3
ENDBRANCH   1   2
BRANCH   1  27
ATOM     27  C   UNL A   1      37.470  22.144  24.940  1.00  0.00     0.023 C 
BRANCH  27  28
ATOM     28  C   UNL A   1      38.023  23.159  25.928  1.00  0.00     0.116 C 
BRANCH  28  29
ATOM     29  N   UNL A   1      39.447  22.985  26.224  1.00  0.00    -0.352 N 
ATOM     30  C   UNL A   1      40.317  23.911  26.777  1.00  0.00     0.251 C 
ATOM     31  H   UNL A   1      39.831  22.107  26.005  1.00  0.00     0.163 HD
ATOM     32  O   UNL A   1      41.493  23.647  26.998  1.00  0.00    -0.269 OA
BRANCH  30  33
ATOM     33  C   UNL A   1      39.746  25.206  27.199  1.00  0.00     0.039 A 
ATOM     34  C   UNL A   1      40.213  26.355  26.557  1.00  0.00     0.014 A 
ATOM     35  C   UNL A   1      39.083  25.275  28.422  1.00  0.00     0.014 A 
ATOM     36  C   UNL A   1      40.254  27.546  27.273  1.00  0.00     0.010 A 
ATOM     37  C   UNL A   1      39.214  26.432  29.166  1.00  0.00     0.010 A 
ATOM     38  C   UNL A   1      39.870  27.541  28.617  1.00  0.00    -0.014 A 
BRANCH  38  39
ATOM     39  C   UNL A   1      40.253  28.606  29.536  1.00  0.00     0.031 A 
ATOM     40  C   UNL A   1      39.288  29.651  29.917  1.00  0.00     0.074 A 
ATOM     41  C   UNL A   1      41.509  28.673  30.040  1.00  0.00     0.049 A 
ATOM     42  N   UNL A   1      39.626  30.879  30.135  1.00  0.00    -0.248 NA
ATOM     43  C   UNL A   1      37.857  29.404  30.057  1.00  0.00     0.031 C 
ATOM     44  C   UNL A   1      41.983  29.575  31.088  1.00  0.00     0.029 A 
ATOM     45  N   UNL A   1      42.677  28.072  29.542  1.00  0.00    -0.354 N 
ATOM     46  C   UNL A   1      38.544  31.500  30.702  1.00  0.00     0.074 A 
ATOM     47  C   UNL A   1      37.444  30.571  30.561  1.00  0.00     0.031 C 
ATOM     48  C   UNL A   1      43.309  29.730  30.955  1.00  0.00     0.029 A 
ATOM     49  C   UNL A   1      43.709  29.016  29.759  1.00  0.00     0.049 A 
ATOM     50  H   UNL A   1      42.761  27.183  29.129  1.00  0.00     0.167 HD
ATOM     51  C   UNL A   1      38.701  32.672  31.375  1.00  0.00     0.037 A 
ATOM     52  C   UNL A   1      44.459  29.529  28.744  1.00  0.00     0.037 A 
ATOM     53  C   UNL A   1      40.086  33.118  31.408  1.00  0.00     0.049 A 
ATOM     54  C   UNL A   1      44.454  31.035  28.664  1.00  0.00     0.074 A 
ATOM     55  C   UNL A   1      41.079  33.032  32.371  1.00  0.00     0.029 A 
ATOM     56  N   UNL A   1      40.724  33.479  30.226  1.00  0.00    -0.354 N 
ATOM     57  N   UNL A   1      43.572  31.793  29.250  1.00  0.00    -0.248 NA
ATOM     58  C   UNL A   1      45.414  31.803  27.880  1.00  0.00     0.031 C 
ATOM     59  C   UNL A   1      42.315  33.369  31.771  1.00  0.00     0.029 A 
ATOM     60  C   UNL A   1      42.078  33.658  30.441  1.00  0.00     0.049 A 
ATOM     61  H   UNL A   1      40.274  33.592  29.358  1.00  0.00     0.167 HD
ATOM     62  C   UNL A   1      43.798  33.110  28.921  1.00  0.00     0.074 A 
ATOM     63  C   UNL A   1      44.983  33.060  28.086  1.00  0.00     0.031 C 
ATOM     64  C   UNL A   1      42.962  34.099  29.370  1.00  0.00     0.037 A 
BRANCH  51  65
ATOM     65  C   UNL A   1      37.601  33.205  32.249  1.00  0.00     0.064 A 
ATOM     66  C   UNL A   1      36.564  34.006  31.734  1.00  0.00     0.173 A 
ATOM     67  C   UNL A   1      37.577  33.000  33.640  1.00  0.00     0.173 A 
ATOM     68  F   UNL A   1      36.429  34.220  30.420  1.00  0.00    -0.203 F 
ATOM     69  C   UNL A   1      35.643  34.649  32.563  1.00  0.00     0.198 A 
ATOM     70  C   UNL A   1      36.688  33.683  34.474  1.00  0.00     0.198 A 
ATOM     71  F   UNL A   1      38.436  32.147  34.220  1.00  0.00    -0.203 F 
ATOM     72  F   UNL A   1      34.691  35.422  32.022  1.00  0.00    -0.200 F 
ATOM     73  C   UNL A   1      35.729  34.518  33.935  1.00  0.00     0.200 A 
ATOM     74  F   UNL A   1      36.785  33.549  35.804  1.00  0.00    -0.200 F 
ATOM     75  F   UNL A   1      34.889  35.192  34.732  1.00  0.00    -0.200 F 
ENDBRANCH  51  65
BRANCH  52  76
ATOM     76  C   UNL A   1      44.594  28.608  27.588  1.00  0.00     0.064 A 
ATOM     77  C   UNL A   1      45.365  27.441  27.750  1.00  0.00     0.173 A 
ATOM     78  C   UNL A   1      43.708  28.656  26.506  1.00  0.00     0.173 A 
ATOM     79  F   UNL A   1      46.223  27.341  28.779  1.00  0.00    -0.203 F 
ATOM     80  C   UNL A   1      45.171  26.326  26.939  1.00  0.00     0.198 A 
ATOM     81  C   UNL A   1      43.528  27.542  25.685  1.00  0.00     0.198 A 
ATOM     82  F   UNL A   1      42.932  29.732  26.313  1.00  0.00    -0.203 F 
ATOM     83  F   UNL A   1      45.831  25.189  27.200  1.00  0.00    -0.200 F 
ATOM     84  C   UNL A   1      44.232  26.370  25.923  1.00  0.00     0.200 A 
ATOM     85  F   UNL A   1      42.599  27.571  24.718  1.00  0.00    -0.200 F 
ATOM     86  F   UNL A   1      43.973  25.269  25.203  1.00  0.00    -0.200 F 
ENDBRANCH  52  76
BRANCH  64  87
ATOM     87  C   UNL A   1      42.910  35.570  28.970  1.00  0.00     0.064 A 
ATOM     88  C   UNL A   1      42.212  36.094  27.871  1.00  0.00     0.173 A 
ATOM     89  C   UNL A   1      43.519  36.555  29.801  1.00  0.00     0.173 A 
ATOM     90  F   UNL A   1      41.498  35.317  27.052  1.00  0.00    -0.203 F 
ATOM     91  C   UNL A   1      42.168  37.469  27.597  1.00  0.00     0.198 A 
ATOM     92  C   UNL A   1      43.424  37.926  29.556  1.00  0.00     0.198 A 
ATOM     93  F   UNL A   1      44.211  36.230  30.901  1.00  0.00    -0.203 F 
ATOM     94  F   UNL A   1      41.516  37.903  26.508  1.00  0.00    -0.200 F 
ATOM     95  C   UNL A   1      42.760  38.384  28.443  1.00  0.00     0.200 A 
ATOM     96  F   UNL A   1      43.968  38.795  30.421  1.00  0.00    -0.200 F 
ATOM     97  F   UNL A   1      42.672  39.698  28.200  1.00  0.00    -0.200 F 
ENDBRANCH  64  87
ENDBRANCH  38  39
ENDBRANCH  30  33
ENDBRANCH  28  29
ENDBRANCH  27  28
ENDBRANCH   1  27
TORSDOF 15
ENDMDL
MODEL 2
REMARK VINA RESULT:     -13.3      3.802      9.818
REMARK SMILES Cc1ccc(NC(=O)C[C@@H](C(=O)NCCCCNC(=O)c2ccc(-c3c4nc(c(-c5c(F)c(F)c(F)c(F)c5F)c5ccc([nH]5)c(-c5c(F)c(F)c(F)c(F)c5F)c5nc(c(-c6c(F)c(F)c(F)c(F)c6F)c6ccc3[nH]6)C=C5)C=C4)cc2)[NH+]2CCOCC2)cc1
REMARK SMILES IDX 15 1 14 2 13 3 11 4 12 5 10 7 9 8 7 9 6 10 8 12 5 13 1 14
REMARK SMILES IDX 2 15 3 16 91 17 4 18 90 19 84 20 85 21 89 22 86 24 88 25
REMARK SMILES IDX 87 26 16 27 17 28 18 29 19 30 20 32 21 33 22 34 83 35 23 36
REMARK SMILES IDX 82 37 24 38 25 39 26 40 76 41 27 42 81 43 75 44 77 45 28 46
REMARK SMILES IDX 80 47 74 48 73 49 29 51 61 52 41 53 60 54 42 55 45 56 59 57
REMARK SMILES IDX 78 58 43 59 44 60 58 62 79 63 46 64 30 65 31 66 39 67 32 68
REMARK SMILES IDX 33 69 37 70 40 71 34 72 35 73 38 74 36 75 62 76 63 77 71 78
REMARK SMILES IDX 64 79 65 80 69 81 72 82 66 83 67 84 70 85 68 86 47 87 48 88
REMARK SMILES IDX 56 89 49 90 50 91 54 92 57 93 51 94 52 95 55 96 53 97
REMARK H PARENT 13 6 6 11 84 23 18 31 77 50 45 61
REMARK Flexibility Score: inf
ROOT
ATOM      1  C   UNL A   1      31.671  29.149  27.518  1.00  0.00     0.023 C 
ENDROOT
BRANCH   1   2
ATOM      2  C   UNL A   1      32.008  27.664  27.257  1.00  0.00     0.116 C 
BRANCH   2   3
ATOM      3  N   UNL A   1      30.973  26.906  26.579  1.00  0.00    -0.351 N 
ATOM      4  C   UNL A   1      30.970  25.965  25.598  1.00  0.00     0.278 C 
ATOM      5  O   UNL A   1      29.873  25.407  25.455  1.00  0.00    -0.268 OA
ATOM      6  H   UNL A   1      30.069  27.122  26.903  1.00  0.00     0.163 HD
BRANCH   4   7
ATOM      7  C   UNL A   1      32.239  25.554  24.764  1.00  0.00     0.283 C 
BRANCH   7   8
ATOM      8  C   UNL A   1      32.014  25.472  23.237  1.00  0.00     0.175 C 
BRANCH   8   9
ATOM      9  C   UNL A   1      32.676  26.441  22.294  1.00  0.00     0.230 C 
ATOM     10  N   UNL A   1      32.259  27.726  22.116  1.00  0.00    -0.326 N 
ATOM     11  H   UNL A   1      32.790  28.229  21.457  1.00  0.00     0.169 HD
ATOM     12  O   UNL A   1      33.643  26.052  21.628  1.00  0.00    -0.274 OA
BRANCH  10  13
ATOM     13  C   UNL A   1      31.218  28.472  22.694  1.00  0.00     0.041 A 
ATOM     14  C   UNL A   1      28.161  31.331  23.696  1.00  0.00     0.044 C 
ATOM     15  C   UNL A   1      29.162  30.254  23.407  1.00  0.00    -0.051 A 
ATOM     16  C   UNL A   1      30.332  30.178  24.164  1.00  0.00     0.005 A 
ATOM     17  C   UNL A   1      28.970  29.339  22.371  1.00  0.00     0.005 A 
ATOM     18  C   UNL A   1      31.348  29.286  23.815  1.00  0.00     0.026 A 
ATOM     19  C   UNL A   1      29.983  28.435  22.034  1.00  0.00     0.026 A 
ENDBRANCH  10  13
ENDBRANCH   8   9
ENDBRANCH   7   8
BRANCH   7  20
ATOM     20  N   UNL A   1      32.782  24.254  25.296  1.00  0.00    -0.320 N 
ATOM     21  C   UNL A   1      34.236  24.252  25.579  1.00  0.00     0.291 C 
ATOM     22  C   UNL A   1      32.426  22.985  24.633  1.00  0.00     0.291 C 
ATOM     23  H   UNL A   1      32.243  24.251  26.163  1.00  0.00     0.348 HD
ATOM     24  C   UNL A   1      35.115  23.797  24.401  1.00  0.00     0.221 C 
ATOM     25  C   UNL A   1      33.343  22.574  23.475  1.00  0.00     0.221 C 
ATOM     26  O   UNL A   1      34.707  22.524  23.892  1.00  0.00    -0.370 OA
ENDBRANCH   7  20
ENDBRANCH   4   7
ENDBRANCH   2   3
ENDBRANCH   1   2
BRANCH   1  27
ATOM     27  C   UNL A   1      32.715  30.200  27.128  1.00  0.00     0.023 C 
BRANCH  27  28
ATOM     28  C   UNL A   1      34.131  29.891  27.589  1.00  0.00     0.116 C 
BRANCH  28  29
ATOM     29  N   UNL A   1      34.726  30.937  28.424  1.00  0.00    -0.352 N 
ATOM     30  C   UNL A   1      35.982  30.943  29.009  1.00  0.00     0.251 C 
ATOM     31  H   UNL A   1      34.167  31.730  28.589  1.00  0.00     0.163 HD
ATOM     32  O   UNL A   1      36.383  31.888  29.678  1.00  0.00    -0.269 OA
BRANCH  30  33
ATOM     33  C   UNL A   1      36.874  29.807  28.702  1.00  0.00     0.039 A 
ATOM     34  C   UNL A   1      37.171  28.923  29.742  1.00  0.00     0.014 A 
ATOM     35  C   UNL A   1      37.659  29.867  27.553  1.00  0.00     0.014 A 
ATOM     36  C   UNL A   1      38.410  28.293  29.745  1.00  0.00     0.010 A 
ATOM     37  C   UNL A   1      38.927  29.320  27.604  1.00  0.00     0.010 A 
ATOM     38  C   UNL A   1      39.328  28.600  28.737  1.00  0.00    -0.014 A 
BRANCH  38  39
ATOM     39  C   UNL A   1      40.752  28.319  28.874  1.00  0.00     0.031 A 
ATOM     40  C   UNL A   1      41.334  27.095  28.298  1.00  0.00     0.074 A 
ATOM     41  C   UNL A   1      41.566  29.162  29.553  1.00  0.00     0.049 A 
ATOM     42  N   UNL A   1      42.303  26.444  28.853  1.00  0.00    -0.248 NA
ATOM     43  C   UNL A   1      40.854  26.488  27.061  1.00  0.00     0.031 C 
ATOM     44  C   UNL A   1      43.024  29.098  29.629  1.00  0.00     0.029 A 
ATOM     45  N   UNL A   1      41.210  30.136  30.501  1.00  0.00    -0.354 N 
ATOM     46  C   UNL A   1      42.749  25.528  27.937  1.00  0.00     0.074 A 
ATOM     47  C   UNL A   1      41.771  25.534  26.871  1.00  0.00     0.031 C 
ATOM     48  C   UNL A   1      43.425  29.714  30.751  1.00  0.00     0.029 A 
ATOM     49  C   UNL A   1      42.233  30.102  31.479  1.00  0.00     0.049 A 
ATOM     50  H   UNL A   1      40.417  30.718  30.489  1.00  0.00     0.167 HD
ATOM     51  C   UNL A   1      43.976  24.956  28.081  1.00  0.00     0.037 A 
ATOM     52  C   UNL A   1      41.985  29.836  32.791  1.00  0.00     0.037 A 
ATOM     53  C   UNL A   1      44.685  25.443  29.254  1.00  0.00     0.049 A 
ATOM     54  C   UNL A   1      42.776  28.682  33.354  1.00  0.00     0.074 A 
ATOM     55  C   UNL A   1      45.681  26.392  29.425  1.00  0.00     0.029 A 
ATOM     56  N   UNL A   1      44.189  25.171  30.524  1.00  0.00    -0.354 N 
ATOM     57  N   UNL A   1      43.377  27.786  32.625  1.00  0.00    -0.248 NA
ATOM     58  C   UNL A   1      42.914  28.421  34.782  1.00  0.00     0.031 C 
ATOM     59  C   UNL A   1      45.801  26.673  30.806  1.00  0.00     0.029 A 
ATOM     60  C   UNL A   1      44.877  25.897  31.479  1.00  0.00     0.049 A 
ATOM     61  H   UNL A   1      43.451  24.549  30.717  1.00  0.00     0.167 HD
ATOM     62  C   UNL A   1      43.945  26.829  33.436  1.00  0.00     0.074 A 
ATOM     63  C   UNL A   1      43.650  27.294  34.778  1.00  0.00     0.031 C 
ATOM     64  C   UNL A   1      44.587  25.744  32.900  1.00  0.00     0.037 A 
BRANCH  51  65
ATOM     65  C   UNL A   1      44.600  24.193  26.948  1.00  0.00     0.064 A 
ATOM     66  C   UNL A   1      44.299  22.838  26.709  1.00  0.00     0.173 A 
ATOM     67  C   UNL A   1      45.574  24.757  26.104  1.00  0.00     0.173 A 
ATOM     68  F   UNL A   1      43.342  22.200  27.392  1.00  0.00    -0.203 F 
ATOM     69  C   UNL A   1      45.004  22.076  25.776  1.00  0.00     0.198 A 
ATOM     70  C   UNL A   1      46.313  23.983  25.207  1.00  0.00     0.198 A 
ATOM     71  F   UNL A   1      45.841  26.072  26.153  1.00  0.00    -0.203 F 
ATOM     72  F   UNL A   1      44.696  20.783  25.606  1.00  0.00    -0.200 F 
ATOM     73  C   UNL A   1      46.037  22.639  25.052  1.00  0.00     0.200 A 
ATOM     74  F   UNL A   1      47.315  24.543  24.513  1.00  0.00    -0.200 F 
ATOM     75  F   UNL A   1      46.759  21.889  24.209  1.00  0.00    -0.200 F 
ENDBRANCH  51  65
BRANCH  52  76
ATOM     76  C   UNL A   1      40.623  30.236  33.227  1.00  0.00     0.064 A 
ATOM     77  C   UNL A   1      40.329  31.610  33.321  1.00  0.00     0.173 A 
ATOM     78  C   UNL A   1      39.547  29.343  33.179  1.00  0.00     0.173 A 
ATOM     79  F   UNL A   1      41.328  32.508  33.360  1.00  0.00    -0.203 F 
ATOM     80  C   UNL A   1      39.021  32.077  33.248  1.00  0.00     0.198 A 
ATOM     81  C   UNL A   1      38.235  29.815  33.122  1.00  0.00     0.198 A 
ATOM     82  F   UNL A   1      39.764  28.026  33.066  1.00  0.00    -0.203 F 
ATOM     83  F   UNL A   1      38.785  33.396  33.214  1.00  0.00    -0.200 F 
ATOM     84  C   UNL A   1      37.976  31.179  33.121  1.00  0.00     0.200 A 
ATOM     85  F   UNL A   1      37.222  28.950  32.970  1.00  0.00    -0.200 F 
ATOM     86  F   UNL A   1      36.723  31.628  32.954  1.00  0.00    -0.200 F 
ENDBRANCH  52  76
BRANCH  64  87
ATOM     87  C   UNL A   1      45.100  24.488  33.595  1.00  0.00     0.064 A 
ATOM     88  C   UNL A   1      44.365  23.311  33.804  1.00  0.00     0.173 A 
ATOM     89  C   UNL A   1      46.464  24.406  34.001  1.00  0.00     0.173 A 
ATOM     90  F   UNL A   1      43.103  23.183  33.386  1.00  0.00    -0.203 F 
ATOM     91  C   UNL A   1      44.924  22.174  34.407  1.00  0.00     0.198 A 
ATOM     92  C   UNL A   1      47.031  23.254  34.549  1.00  0.00     0.198 A 
ATOM     93  F   UNL A   1      47.313  25.434  33.859  1.00  0.00    -0.203 F 
ATOM     94  F   UNL A   1      44.157  21.094  34.614  1.00  0.00    -0.200 F 
ATOM     95  C   UNL A   1      46.256  22.140  34.767  1.00  0.00     0.200 A 
ATOM     96  F   UNL A   1      48.339  23.233  34.844  1.00  0.00    -0.200 F 
ATOM     97  F   UNL A   1      46.793  21.034  35.297  1.00  0.00    -0.200 F 
ENDBRANCH  64  87
ENDBRANCH  38  39
ENDBRANCH  30  33
ENDBRANCH  28  29
ENDBRANCH  27  28
ENDBRANCH   1  27
TORSDOF 15
ENDMDL
MODEL 3
REMARK VINA RESULT:     -13.2      3.687      9.973
REMARK SMILES Cc1ccc(NC(=O)C[C@@H](C(=O)NCCCCNC(=O)c2ccc(-c3c4nc(c(-c5c(F)c(F)c(F)c(F)c5F)c5ccc([nH]5)c(-c5c(F)c(F)c(F)c(F)c5F)c5nc(c(-c6c(F)c(F)c(F)c(F)c6F)c6ccc3[nH]6)C=C5)C=C4)cc2)[NH+]2CCOCC2)cc1
REMARK SMILES IDX 15 1 14 2 13 3 11 4 12 5 10 7 9 8 7 9 6 10 8 12 5 13 1 14
REMARK SMILES IDX 2 15 3 16 91 17 4 18 90 19 84 20 85 21 89 22 86 24 88 25
REMARK SMILES IDX 87 26 16 27 17 28 18 29 19 30 20 32 21 33 22 34 83 35 23 36
REMARK SMILES IDX 82 37 24 38 25 39 26 40 76 41 27 42 81 43 75 44 77 45 28 46
REMARK SMILES IDX 80 47 74 48 73 49 29 51 61 52 41 53 60 54 42 55 45 56 59 57
REMARK SMILES IDX 78 58 43 59 44 60 58 62 79 63 46 64 30 65 31 66 39 67 32 68
REMARK SMILES IDX 33 69 37 70 40 71 34 72 35 73 38 74 36 75 62 76 63 77 71 78
REMARK SMILES IDX 64 79 65 80 69 81 72 82 66 83 67 84 70 85 68 86 47 87 48 88
REMARK SMILES IDX 56 89 49 90 50 91 54 92 57 93 51 94 52 95 55 96 53 97
REMARK H PARENT 13 6 6 11 84 23 18 31 77 50 45 61
REMARK Flexibility Score: inf
ROOT
ATOM      1  C   UNL A   1      31.811  28.558  27.525  1.00  0.00     0.023 C 
ENDROOT
BRANCH   1   2
ATOM      2  C   UNL A   1      31.773  27.529  26.374  1.00  0.00     0.116 C 
BRANCH   2   3
ATOM      3  N   UNL A   1      30.708  26.548  26.457  1.00  0.00    -0.351 N 
ATOM      4  C   UNL A   1      30.651  25.193  26.362  1.00  0.00     0.278 C 
ATOM      5  O   UNL A   1      29.561  24.720  26.711  1.00  0.00    -0.268 OA
ATOM      6  H   UNL A   1      29.827  26.955  26.620  1.00  0.00     0.163 HD
BRANCH   4   7
ATOM      7  C   UNL A   1      31.861  24.287  25.925  1.00  0.00     0.283 C 
BRANCH   7   8
ATOM      8  C   UNL A   1      32.098  24.211  24.400  1.00  0.00     0.175 C 
BRANCH   8   9
ATOM      9  C   UNL A   1      33.027  25.168  23.702  1.00  0.00     0.230 C 
ATOM     10  N   UNL A   1      34.383  25.031  23.687  1.00  0.00    -0.326 N 
ATOM     11  H   UNL A   1      34.849  25.745  23.197  1.00  0.00     0.169 HD
ATOM     12  O   UNL A   1      32.541  26.146  23.119  1.00  0.00    -0.274 OA
BRANCH  10  13
ATOM     13  C   UNL A   1      35.242  24.065  24.238  1.00  0.00     0.041 A 
ATOM     14  C   UNL A   1      38.561  21.746  25.696  1.00  0.00     0.044 C 
ATOM     15  C   UNL A   1      37.337  22.497  25.269  1.00  0.00    -0.051 A 
ATOM     16  C   UNL A   1      36.647  22.098  24.123  1.00  0.00     0.005 A 
ATOM     17  C   UNL A   1      36.886  23.616  25.971  1.00  0.00     0.005 A 
ATOM     18  C   UNL A   1      35.600  22.872  23.618  1.00  0.00     0.026 A 
ATOM     19  C   UNL A   1      35.826  24.379  25.472  1.00  0.00     0.026 A 
ENDBRANCH  10  13
ENDBRANCH   8   9
ENDBRANCH   7   8
BRANCH   7  20
ATOM     20  N   UNL A   1      31.685  22.910  26.508  1.00  0.00    -0.320 N 
ATOM     21  C   UNL A   1      32.656  22.551  27.569  1.00  0.00     0.291 C 
ATOM     22  C   UNL A   1      31.513  21.750  25.613  1.00  0.00     0.291 C 
ATOM     23  H   UNL A   1      30.759  23.070  26.903  1.00  0.00     0.348 HD
ATOM     24  C   UNL A   1      33.929  21.852  27.061  1.00  0.00     0.221 C 
ATOM     25  C   UNL A   1      32.813  21.086  25.147  1.00  0.00     0.221 C 
ATOM     26  O   UNL A   1      33.624  20.707  26.260  1.00  0.00    -0.370 OA
ENDBRANCH   7  20
ENDBRANCH   4   7
ENDBRANCH   2   3
ENDBRANCH   1   2
BRANCH   1  27
ATOM     27  C   UNL A   1      32.545  29.880  27.281  1.00  0.00     0.023 C 
BRANCH  27  28
ATOM     28  C   UNL A   1      34.054  29.812  27.461  1.00  0.00     0.116 C 
BRANCH  28  29
ATOM     29  N   UNL A   1      34.596  30.859  28.330  1.00  0.00    -0.352 N 
ATOM     30  C   UNL A   1      35.820  30.872  28.979  1.00  0.00     0.251 C 
ATOM     31  H   UNL A   1      34.023  31.646  28.471  1.00  0.00     0.163 HD
ATOM     32  O   UNL A   1      36.178  31.816  29.672  1.00  0.00    -0.269 OA
BRANCH  30  33
ATOM     33  C   UNL A   1      36.737  29.745  28.713  1.00  0.00     0.039 A 
ATOM     34  C   UNL A   1      37.078  28.924  29.790  1.00  0.00     0.014 A 
ATOM     35  C   UNL A   1      37.497  29.766  27.546  1.00  0.00     0.014 A 
ATOM     36  C   UNL A   1      38.333  28.327  29.800  1.00  0.00     0.010 A 
ATOM     37  C   UNL A   1      38.780  29.255  27.599  1.00  0.00     0.010 A 
ATOM     38  C   UNL A   1      39.222  28.605  28.758  1.00  0.00    -0.014 A 
BRANCH  38  39
ATOM     39  C   UNL A   1      40.656  28.369  28.879  1.00  0.00     0.031 A 
ATOM     40  C   UNL A   1      41.269  27.162  28.299  1.00  0.00     0.074 A 
ATOM     41  C   UNL A   1      41.451  29.239  29.547  1.00  0.00     0.049 A 
ATOM     42  N   UNL A   1      42.264  26.543  28.845  1.00  0.00    -0.248 NA
ATOM     43  C   UNL A   1      40.794  26.538  27.069  1.00  0.00     0.031 C 
ATOM     44  C   UNL A   1      42.911  29.220  29.607  1.00  0.00     0.029 A 
ATOM     45  N   UNL A   1      41.076  30.203  30.497  1.00  0.00    -0.354 N 
ATOM     46  C   UNL A   1      42.727  25.639  27.926  1.00  0.00     0.074 A 
ATOM     47  C   UNL A   1      41.738  25.612  26.871  1.00  0.00     0.031 C 
ATOM     48  C   UNL A   1      43.305  29.851  30.722  1.00  0.00     0.029 A 
ATOM     49  C   UNL A   1      42.111  30.204  31.463  1.00  0.00     0.049 A 
ATOM     50  H   UNL A   1      40.265  30.761  30.493  1.00  0.00     0.167 HD
ATOM     51  C   UNL A   1      43.973  25.106  28.057  1.00  0.00     0.037 A 
ATOM     52  C   UNL A   1      41.885  29.933  32.779  1.00  0.00     0.037 A 
ATOM     53  C   UNL A   1      44.681  25.617  29.221  1.00  0.00     0.049 A 
ATOM     54  C   UNL A   1      42.718  28.806  33.336  1.00  0.00     0.074 A 
ATOM     55  C   UNL A   1      45.648  26.598  29.378  1.00  0.00     0.029 A 
ATOM     56  N   UNL A   1      44.208  25.333  30.497  1.00  0.00    -0.354 N 
ATOM     57  N   UNL A   1      43.339  27.927  32.601  1.00  0.00    -0.248 NA
ATOM     58  C   UNL A   1      42.881  28.553  34.762  1.00  0.00     0.031 C 
ATOM     59  C   UNL A   1      45.775  26.885  30.757  1.00  0.00     0.029 A 
ATOM     60  C   UNL A   1      44.883  26.082  31.442  1.00  0.00     0.049 A 
ATOM     61  H   UNL A   1      43.491  24.689  30.699  1.00  0.00     0.167 HD
ATOM     62  C   UNL A   1      43.945  26.991  33.408  1.00  0.00     0.074 A 
ATOM     63  C   UNL A   1      43.651  27.450  34.752  1.00  0.00     0.031 C 
ATOM     64  C   UNL A   1      44.614  25.925  32.866  1.00  0.00     0.037 A 
BRANCH  51  65
ATOM     65  C   UNL A   1      44.608  24.359  26.918  1.00  0.00     0.064 A 
ATOM     66  C   UNL A   1      44.373  22.988  26.706  1.00  0.00     0.173 A 
ATOM     67  C   UNL A   1      45.529  24.961  26.042  1.00  0.00     0.173 A 
ATOM     68  F   UNL A   1      43.468  22.311  27.421  1.00  0.00    -0.203 F 
ATOM     69  C   UNL A   1      45.093  22.250  25.764  1.00  0.00     0.198 A 
ATOM     70  C   UNL A   1      46.286  24.214  25.136  1.00  0.00     0.198 A 
ATOM     71  F   UNL A   1      45.729  26.289  26.067  1.00  0.00    -0.203 F 
ATOM     72  F   UNL A   1      44.848  20.940  25.620  1.00  0.00    -0.200 F 
ATOM     73  C   UNL A   1      46.076  22.855  25.007  1.00  0.00     0.200 A 
ATOM     74  F   UNL A   1      47.238  24.815  24.409  1.00  0.00    -0.200 F 
ATOM     75  F   UNL A   1      46.815  22.131  24.155  1.00  0.00    -0.200 F 
ENDBRANCH  51  65
BRANCH  52  76
ATOM     76  C   UNL A   1      40.517  30.292  33.229  1.00  0.00     0.064 A 
ATOM     77  C   UNL A   1      40.185  31.657  33.334  1.00  0.00     0.173 A 
ATOM     78  C   UNL A   1      39.466  29.370  33.185  1.00  0.00     0.173 A 
ATOM     79  F   UNL A   1      41.158  32.582  33.369  1.00  0.00    -0.203 F 
ATOM     80  C   UNL A   1      38.863  32.087  33.276  1.00  0.00     0.198 A 
ATOM     81  C   UNL A   1      38.140  29.805  33.144  1.00  0.00     0.198 A 
ATOM     82  F   UNL A   1      39.720  28.059  33.063  1.00  0.00    -0.203 F 
ATOM     83  F   UNL A   1      38.590  33.399  33.252  1.00  0.00    -0.200 F 
ATOM     84  C   UNL A   1      37.843  31.161  33.153  1.00  0.00     0.200 A 
ATOM     85  F   UNL A   1      37.152  28.911  32.996  1.00  0.00    -0.200 F 
ATOM     86  F   UNL A   1      36.576  31.574  33.000  1.00  0.00    -0.200 F 
ENDBRANCH  52  76
BRANCH  64  87
ATOM     87  C   UNL A   1      45.174  24.687  33.559  1.00  0.00     0.064 A 
ATOM     88  C   UNL A   1      44.490  23.477  33.749  1.00  0.00     0.173 A 
ATOM     89  C   UNL A   1      46.535  24.662  33.981  1.00  0.00     0.173 A 
ATOM     90  F   UNL A   1      43.240  23.296  33.314  1.00  0.00    -0.203 F 
ATOM     91  C   UNL A   1      45.090  22.361  34.351  1.00  0.00     0.198 A 
ATOM     92  C   UNL A   1      47.146  23.531  34.527  1.00  0.00     0.198 A 
ATOM     93  F   UNL A   1      47.339  25.727  33.858  1.00  0.00    -0.203 F 
ATOM     94  F   UNL A   1      44.370  21.246  34.539  1.00  0.00    -0.200 F 
ATOM     95  C   UNL A   1      46.418  22.383  34.727  1.00  0.00     0.200 A 
ATOM     96  F   UNL A   1      48.450  23.566  34.838  1.00  0.00    -0.200 F 
ATOM     97  F   UNL A   1      46.998  21.297  35.255  1.00  0.00    -0.200 F 
ENDBRANCH  64  87
ENDBRANCH  38  39
ENDBRANCH  30  33
ENDBRANCH  28  29
ENDBRANCH  27  28
ENDBRANCH   1  27
TORSDOF 15
ENDMDL
