MODEL 1
REMARK VINA RESULT:     -13.3      0.000      0.000
REMARK SMILES O=C(NCCCCNC(=O)[C@H]1CC2(CCN(C(=O)c3cc4ccccc4[nH]3)CC2)CN1C(=O)C1CC1)c1ccc(-c2c3nc(c(-c4c(F)c(F)c(F)c(F)c4F)c4ccc([nH]4)c(-c4c(F)c(F)c(F)c(F)c4F)c4nc(c(-c5c(F)c(F)c(F)c(F)c5F)c5ccc2[nH]5)C=C4)C=C3)cc1
REMARK SMILES IDX 5 1 4 2 3 3 1 4 2 5 37 7 38 8 99 9 39 10 98 11 40 12 41 13
REMARK SMILES IDX 42 14 92 15 43 16 97 17 91 18 93 19 44 20 96 21 90 22 89 23
REMARK SMILES IDX 45 25 77 26 57 27 76 28 58 29 61 30 75 31 94 32 59 33 60 34
REMARK SMILES IDX 74 36 95 37 62 38 46 39 47 40 55 41 48 42 49 43 53 44 56 45
REMARK SMILES IDX 50 46 51 47 54 48 52 49 78 50 79 51 87 52 80 53 81 54 85 55
REMARK SMILES IDX 88 56 82 57 83 58 86 59 84 60 63 61 64 62 72 63 65 64 66 65
REMARK SMILES IDX 70 66 73 67 67 68 68 69 71 70 69 71 6 72 7 73 8 74 9 75
REMARK SMILES IDX 10 77 11 78 12 79 31 80 13 81 30 82 14 83 29 84 15 85 28 86
REMARK SMILES IDX 16 87 17 88 18 89 32 90 33 91 34 92 35 93 36 94 19 95 20 96
REMARK SMILES IDX 27 97 21 98 26 99 22 101 25 102 23 103 24 104
REMARK H PARENT 3 6 93 24 61 35 8 76 27 100
REMARK Flexibility Score: inf
ROOT
ATOM      1  C   UNL A   1      32.068  31.932  27.252  1.00  0.00     0.023 C 
ENDROOT
BRANCH   1   2
ATOM      2  C   UNL A   1      33.034  33.087  27.036  1.00  0.00     0.116 C 
BRANCH   2   3
ATOM      3  N   UNL A   1      32.593  34.341  27.624  1.00  0.00    -0.352 N 
ATOM      4  O   UNL A   1      32.526  36.002  29.155  1.00  0.00    -0.269 OA
ATOM      5  C   UNL A   1      33.062  34.975  28.751  1.00  0.00     0.251 C 
ATOM      6  H   UNL A   1      31.861  34.800  27.153  1.00  0.00     0.163 HD
BRANCH   5   7
ATOM      7  C   UNL A   1      34.188  34.381  29.503  1.00  0.00     0.039 A 
ATOM      8  C   UNL A   1      35.505  34.577  29.085  1.00  0.00     0.014 A 
ATOM      9  C   UNL A   1      33.911  33.583  30.615  1.00  0.00     0.014 A 
ATOM     10  C   UNL A   1      36.528  33.848  29.677  1.00  0.00     0.010 A 
ATOM     11  C   UNL A   1      34.954  32.921  31.267  1.00  0.00     0.010 A 
ATOM     12  C   UNL A   1      36.266  33.018  30.779  1.00  0.00    -0.014 A 
BRANCH  12  13
ATOM     13  C   UNL A   1      37.391  32.309  31.437  1.00  0.00     0.031 A 
ATOM     14  C   UNL A   1      38.122  31.194  30.744  1.00  0.00     0.074 A 
ATOM     15  C   UNL A   1      37.764  32.705  32.668  1.00  0.00     0.049 A 
ATOM     16  N   UNL A   1      39.133  30.481  31.176  1.00  0.00    -0.248 NA
ATOM     17  C   UNL A   1      37.659  30.823  29.400  1.00  0.00     0.031 C 
ATOM     18  C   UNL A   1      37.116  33.767  33.440  1.00  0.00     0.029 A 
ATOM     19  N   UNL A   1      38.785  32.281  33.477  1.00  0.00    -0.354 N 
ATOM     20  C   UNL A   1      39.411  29.565  30.170  1.00  0.00     0.074 A 
ATOM     21  C   UNL A   1      38.452  29.799  29.111  1.00  0.00     0.031 C 
ATOM     22  C   UNL A   1      37.779  33.941  34.591  1.00  0.00     0.029 A 
ATOM     23  C   UNL A   1      38.861  32.966  34.664  1.00  0.00     0.049 A 
ATOM     24  H   UNL A   1      39.403  31.554  33.233  1.00  0.00     0.167 HD
ATOM     25  C   UNL A   1      40.383  28.621  30.136  1.00  0.00     0.037 A 
ATOM     26  C   UNL A   1      39.699  32.817  35.706  1.00  0.00     0.037 A 
ATOM     27  C   UNL A   1      41.350  28.411  31.183  1.00  0.00     0.049 A 
ATOM     28  C   UNL A   1      40.763  31.762  35.639  1.00  0.00     0.074 A 
ATOM     29  C   UNL A   1      42.401  27.512  31.221  1.00  0.00     0.029 A 
ATOM     30  N   UNL A   1      41.382  29.111  32.382  1.00  0.00    -0.354 N 
ATOM     31  N   UNL A   1      41.033  30.923  34.669  1.00  0.00    -0.248 NA
ATOM     32  C   UNL A   1      41.635  31.630  36.813  1.00  0.00     0.031 C 
ATOM     33  C   UNL A   1      43.045  27.639  32.457  1.00  0.00     0.029 A 
ATOM     34  C   UNL A   1      42.421  28.648  33.173  1.00  0.00     0.049 A 
ATOM     35  H   UNL A   1      40.759  29.831  32.632  1.00  0.00     0.167 HD
ATOM     36  C   UNL A   1      42.110  30.169  35.109  1.00  0.00     0.074 A 
ATOM     37  C   UNL A   1      42.459  30.666  36.426  1.00  0.00     0.031 C 
ATOM     38  C   UNL A   1      42.748  29.150  34.483  1.00  0.00     0.037 A 
BRANCH  25  39
ATOM     39  C   UNL A   1      40.445  27.725  28.934  1.00  0.00     0.064 A 
ATOM     40  C   UNL A   1      39.675  26.556  28.844  1.00  0.00     0.173 A 
ATOM     41  C   UNL A   1      41.243  28.071  27.832  1.00  0.00     0.173 A 
ATOM     42  F   UNL A   1      38.904  26.176  29.874  1.00  0.00    -0.203 F 
ATOM     43  C   UNL A   1      39.713  25.759  27.703  1.00  0.00     0.198 A 
ATOM     44  C   UNL A   1      41.261  27.283  26.684  1.00  0.00     0.198 A 
ATOM     45  F   UNL A   1      41.995  29.182  27.865  1.00  0.00    -0.203 F 
ATOM     46  F   UNL A   1      38.994  24.629  27.652  1.00  0.00    -0.200 F 
ATOM     47  C   UNL A   1      40.501  26.127  26.621  1.00  0.00     0.200 A 
ATOM     48  F   UNL A   1      42.014  27.647  25.636  1.00  0.00    -0.200 F 
ATOM     49  F   UNL A   1      40.528  25.363  25.520  1.00  0.00    -0.200 F 
ENDBRANCH  25  39
BRANCH  26  50
ATOM     50  C   UNL A   1      39.551  33.695  36.893  1.00  0.00     0.064 A 
ATOM     51  C   UNL A   1      40.164  34.953  36.938  1.00  0.00     0.173 A 
ATOM     52  C   UNL A   1      38.763  33.309  37.987  1.00  0.00     0.173 A 
ATOM     53  F   UNL A   1      40.940  35.358  35.922  1.00  0.00    -0.203 F 
ATOM     54  C   UNL A   1      40.002  35.790  38.040  1.00  0.00     0.198 A 
ATOM     55  C   UNL A   1      38.579  34.158  39.074  1.00  0.00     0.198 A 
ATOM     56  F   UNL A   1      38.149  32.116  37.984  1.00  0.00    -0.203 F 
ATOM     57  F   UNL A   1      40.623  36.977  38.074  1.00  0.00    -0.200 F 
ATOM     58  C   UNL A   1      39.202  35.396  39.102  1.00  0.00     0.200 A 
ATOM     59  F   UNL A   1      37.792  33.780  40.090  1.00  0.00    -0.200 F 
ATOM     60  F   UNL A   1      39.035  36.207  40.155  1.00  0.00    -0.200 F 
ENDBRANCH  26  50
BRANCH  38  61
ATOM     61  C   UNL A   1      43.894  28.518  35.213  1.00  0.00     0.064 A 
ATOM     62  C   UNL A   1      43.710  27.390  36.025  1.00  0.00     0.173 A 
ATOM     63  C   UNL A   1      45.193  29.030  35.078  1.00  0.00     0.173 A 
ATOM     64  F   UNL A   1      42.483  26.877  36.198  1.00  0.00    -0.203 F 
ATOM     65  C   UNL A   1      44.783  26.813  36.698  1.00  0.00     0.198 A 
ATOM     66  C   UNL A   1      46.267  28.436  35.732  1.00  0.00     0.198 A 
ATOM     67  F   UNL A   1      45.419  30.106  34.308  1.00  0.00    -0.203 F 
ATOM     68  F   UNL A   1      44.577  25.763  37.506  1.00  0.00    -0.200 F 
ATOM     69  C   UNL A   1      46.060  27.332  36.546  1.00  0.00     0.200 A 
ATOM     70  F   UNL A   1      47.503  28.931  35.578  1.00  0.00    -0.200 F 
ATOM     71  F   UNL A   1      47.092  26.773  37.194  1.00  0.00    -0.200 F 
ENDBRANCH  38  61
ENDBRANCH  12  13
ENDBRANCH   5   7
ENDBRANCH   2   3
ENDBRANCH   1   2
BRANCH   1  72
ATOM     72  C   UNL A   1      32.685  30.538  27.208  1.00  0.00     0.023 C 
BRANCH  72  73
ATOM     73  C   UNL A   1      32.241  29.667  26.040  1.00  0.00     0.116 C 
BRANCH  73  74
ATOM     74  N   UNL A   1      31.344  28.583  26.421  1.00  0.00    -0.354 N 
ATOM     75  C   UNL A   1      31.417  27.250  26.085  1.00  0.00     0.242 C 
ATOM     76  H   UNL A   1      30.586  28.838  26.995  1.00  0.00     0.163 HD
ATOM     77  O   UNL A   1      30.698  26.447  26.677  1.00  0.00    -0.273 OA
BRANCH  75  78
ATOM     78  C   UNL A   1      32.468  26.849  25.044  1.00  0.00     0.175 C 
ATOM     79  C   UNL A   1      32.701  25.352  25.285  1.00  0.00     0.044 C 
ATOM     80  N   UNL A   1      32.239  26.893  23.607  1.00  0.00    -0.330 N 
ATOM     81  C   UNL A   1      33.403  24.825  24.028  1.00  0.00    -0.006 C 
ATOM     82  C   UNL A   1      32.962  25.817  22.940  1.00  0.00     0.127 C 
ATOM     83  C   UNL A   1      32.924  23.399  23.711  1.00  0.00     0.030 C 
ATOM     84  C   UNL A   1      34.939  24.797  24.197  1.00  0.00     0.030 C 
ATOM     85  C   UNL A   1      33.346  22.429  24.807  1.00  0.00     0.120 C 
ATOM     86  C   UNL A   1      35.426  23.724  25.180  1.00  0.00     0.120 C 
ATOM     87  N   UNL A   1      34.802  22.420  24.956  1.00  0.00    -0.337 N 
ATOM     88  C   UNL A   1      35.545  21.275  25.278  1.00  0.00     0.270 C 
ATOM     89  O   UNL A   1      36.679  21.357  25.746  1.00  0.00    -0.267 OA
BRANCH  80  90
ATOM     90  C   UNL A   1      31.865  27.980  22.836  1.00  0.00     0.226 C 
ATOM     91  O   UNL A   1      32.695  28.761  22.376  1.00  0.00    -0.275 OA
BRANCH  90  92
ATOM     92  C   UNL A   1      30.456  28.141  22.393  1.00  0.00     0.079 C 
ATOM     93  C   UNL A   1      29.193  27.799  23.135  1.00  0.00     0.014 C 
ATOM     94  C   UNL A   1      29.634  29.223  23.075  1.00  0.00     0.014 C 
ENDBRANCH  90  92
ENDBRANCH  80  90
BRANCH  88  95
ATOM     95  C   UNL A   1      34.909  19.994  25.067  1.00  0.00     0.105 A 
ATOM     96  C   UNL A   1      35.319  18.953  24.252  1.00  0.00     0.042 A 
ATOM     97  N   UNL A   1      33.711  19.602  25.624  1.00  0.00    -0.351 N 
ATOM     98  C   UNL A   1      34.449  17.850  24.470  1.00  0.00     0.000 A 
ATOM     99  C   UNL A   1      33.464  18.277  25.359  1.00  0.00     0.046 A 
ATOM    100  H   UNL A   1      33.116  20.192  26.140  1.00  0.00     0.167 HD
ATOM    101  C   UNL A   1      34.417  16.520  24.011  1.00  0.00     0.010 A 
ATOM    102  C   UNL A   1      32.451  17.433  25.831  1.00  0.00     0.026 A 
ATOM    103  C   UNL A   1      33.416  15.660  24.477  1.00  0.00     0.001 A 
ATOM    104  C   UNL A   1      32.452  16.111  25.377  1.00  0.00     0.002 A 
ENDBRANCH  88  95
ENDBRANCH  75  78
ENDBRANCH  73  74
ENDBRANCH  72  73
ENDBRANCH   1  72
TORSDOF 14
ENDMDL
MODEL 2
REMARK VINA RESULT:     -13.2      0.506      7.028
REMARK SMILES O=C(NCCCCNC(=O)[C@H]1CC2(CCN(C(=O)c3cc4ccccc4[nH]3)CC2)CN1C(=O)C1CC1)c1ccc(-c2c3nc(c(-c4c(F)c(F)c(F)c(F)c4F)c4ccc([nH]4)c(-c4c(F)c(F)c(F)c(F)c4F)c4nc(c(-c5c(F)c(F)c(F)c(F)c5F)c5ccc2[nH]5)C=C4)C=C3)cc1
REMARK SMILES IDX 5 1 4 2 3 3 1 4 2 5 37 7 38 8 99 9 39 10 98 11 40 12 41 13
REMARK SMILES IDX 42 14 92 15 43 16 97 17 91 18 93 19 44 20 96 21 90 22 89 23
REMARK SMILES IDX 45 25 77 26 57 27 76 28 58 29 61 30 75 31 94 32 59 33 60 34
REMARK SMILES IDX 74 36 95 37 62 38 46 39 47 40 55 41 48 42 49 43 53 44 56 45
REMARK SMILES IDX 50 46 51 47 54 48 52 49 78 50 79 51 87 52 80 53 81 54 85 55
REMARK SMILES IDX 88 56 82 57 83 58 86 59 84 60 63 61 64 62 72 63 65 64 66 65
REMARK SMILES IDX 70 66 73 67 67 68 68 69 71 70 69 71 6 72 7 73 8 74 9 75
REMARK SMILES IDX 10 77 11 78 12 79 31 80 13 81 30 82 14 83 29 84 15 85 28 86
REMARK SMILES IDX 16 87 17 88 18 89 32 90 33 91 34 92 35 93 36 94 19 95 20 96
REMARK SMILES IDX 27 97 21 98 26 99 22 101 25 102 23 103 24 104
REMARK H PARENT 3 6 93 24 61 35 8 76 27 100
REMARK Flexibility Score: inf
ROOT
ATOM      1  C   UNL A   1      32.051  31.797  27.245  1.00  0.00     0.023 C 
ENDROOT
BRANCH   1   2
ATOM      2  C   UNL A   1      32.988  32.971  27.003  1.00  0.00     0.116 C 
BRANCH   2   3
ATOM      3  N   UNL A   1      32.542  34.215  27.609  1.00  0.00    -0.352 N 
ATOM      4  O   UNL A   1      32.503  35.881  29.135  1.00  0.00    -0.269 OA
ATOM      5  C   UNL A   1      33.047  34.867  28.709  1.00  0.00     0.251 C 
ATOM      6  H   UNL A   1      31.774  34.650  27.172  1.00  0.00     0.163 HD
BRANCH   5   7
ATOM      7  C   UNL A   1      34.224  34.309  29.407  1.00  0.00     0.039 A 
ATOM      8  C   UNL A   1      35.517  34.611  28.975  1.00  0.00     0.014 A 
ATOM      9  C   UNL A   1      34.024  33.437  30.480  1.00  0.00     0.014 A 
ATOM     10  C   UNL A   1      36.597  33.919  29.507  1.00  0.00     0.010 A 
ATOM     11  C   UNL A   1      35.121  32.810  31.075  1.00  0.00     0.010 A 
ATOM     12  C   UNL A   1      36.413  33.017  30.568  1.00  0.00    -0.014 A 
BRANCH  12  13
ATOM     13  C   UNL A   1      37.595  32.349  31.166  1.00  0.00     0.031 A 
ATOM     14  C   UNL A   1      38.075  32.700  32.546  1.00  0.00     0.074 A 
ATOM     15  C   UNL A   1      38.219  31.394  30.452  1.00  0.00     0.049 A 
ATOM     16  N   UNL A   1      39.083  32.202  33.218  1.00  0.00    -0.248 NA
ATOM     17  C   UNL A   1      37.338  33.749  33.265  1.00  0.00     0.031 C 
ATOM     18  C   UNL A   1      37.848  30.982  29.097  1.00  0.00     0.029 A 
ATOM     19  N   UNL A   1      39.278  30.585  30.767  1.00  0.00    -0.354 N 
ATOM     20  C   UNL A   1      39.116  32.890  34.423  1.00  0.00     0.074 A 
ATOM     21  C   UNL A   1      38.037  33.855  34.388  1.00  0.00     0.031 C 
ATOM     22  C   UNL A   1      38.637  29.969  28.714  1.00  0.00     0.029 A 
ATOM     23  C   UNL A   1      39.605  29.700  29.770  1.00  0.00     0.049 A 
ATOM     24  H   UNL A   1      39.760  30.633  31.625  1.00  0.00     0.167 HD
ATOM     25  C   UNL A   1      39.968  32.724  35.464  1.00  0.00     0.037 A 
ATOM     26  C   UNL A   1      40.587  28.783  29.704  1.00  0.00     0.037 A 
ATOM     27  C   UNL A   1      41.024  31.744  35.503  1.00  0.00     0.049 A 
ATOM     28  C   UNL A   1      41.514  28.624  30.872  1.00  0.00     0.074 A 
ATOM     29  C   UNL A   1      41.908  31.467  36.531  1.00  0.00     0.029 A 
ATOM     30  N   UNL A   1      41.339  30.879  34.464  1.00  0.00    -0.354 N 
ATOM     31  N   UNL A   1      41.515  29.260  32.017  1.00  0.00    -0.248 NA
ATOM     32  C   UNL A   1      42.581  27.623  30.736  1.00  0.00     0.031 C 
ATOM     33  C   UNL A   1      42.783  30.464  36.100  1.00  0.00     0.029 A 
ATOM     34  C   UNL A   1      42.417  30.085  34.819  1.00  0.00     0.049 A 
ATOM     35  H   UNL A   1      40.864  30.836  33.602  1.00  0.00     0.167 HD
ATOM     36  C   UNL A   1      42.573  28.734  32.743  1.00  0.00     0.074 A 
ATOM     37  C   UNL A   1      43.178  27.708  31.916  1.00  0.00     0.031 C 
ATOM     38  C   UNL A   1      43.009  29.075  33.980  1.00  0.00     0.037 A 
BRANCH  25  39
ATOM     39  C   UNL A   1      39.810  33.631  36.649  1.00  0.00     0.064 A 
ATOM     40  C   UNL A   1      40.487  34.856  36.735  1.00  0.00     0.173 A 
ATOM     41  C   UNL A   1      38.923  33.298  37.684  1.00  0.00     0.173 A 
ATOM     42  F   UNL A   1      41.354  35.217  35.776  1.00  0.00    -0.203 F 
ATOM     43  C   UNL A   1      40.296  35.706  37.822  1.00  0.00     0.198 A 
ATOM     44  C   UNL A   1      38.716  34.161  38.758  1.00  0.00     0.198 A 
ATOM     45  F   UNL A   1      38.246  32.140  37.648  1.00  0.00    -0.203 F 
ATOM     46  F   UNL A   1      40.978  36.857  37.900  1.00  0.00    -0.200 F 
ATOM     47  C   UNL A   1      39.405  35.361  38.829  1.00  0.00     0.200 A 
ATOM     48  F   UNL A   1      37.847  33.830  39.724  1.00  0.00    -0.200 F 
ATOM     49  F   UNL A   1      39.215  36.184  39.868  1.00  0.00    -0.200 F 
ENDBRANCH  25  39
BRANCH  26  50
ATOM     50  C   UNL A   1      40.730  27.953  28.482  1.00  0.00     0.064 A 
ATOM     51  C   UNL A   1      41.505  28.391  27.401  1.00  0.00     0.173 A 
ATOM     52  C   UNL A   1      40.125  26.692  28.388  1.00  0.00     0.173 A 
ATOM     53  F   UNL A   1      42.089  29.597  27.439  1.00  0.00    -0.203 F 
ATOM     54  C   UNL A   1      41.662  27.599  26.265  1.00  0.00     0.198 A 
ATOM     55  C   UNL A   1      40.306  25.890  27.265  1.00  0.00     0.198 A 
ATOM     56  F   UNL A   1      39.379  26.227  29.402  1.00  0.00    -0.203 F 
ATOM     57  F   UNL A   1      42.385  28.051  25.232  1.00  0.00    -0.200 F 
ATOM     58  C   UNL A   1      41.071  26.346  26.203  1.00  0.00     0.200 A 
ATOM     59  F   UNL A   1      39.747  24.673  27.216  1.00  0.00    -0.200 F 
ATOM     60  F   UNL A   1      41.235  25.579  25.116  1.00  0.00    -0.200 F 
ENDBRANCH  26  50
BRANCH  38  61
ATOM     61  C   UNL A   1      44.189  28.320  34.514  1.00  0.00     0.064 A 
ATOM     62  C   UNL A   1      45.497  28.797  34.347  1.00  0.00     0.173 A 
ATOM     63  C   UNL A   1      44.007  27.123  35.221  1.00  0.00     0.173 A 
ATOM     64  F   UNL A   1      45.720  29.928  33.662  1.00  0.00    -0.203 F 
ATOM     65  C   UNL A   1      46.584  28.086  34.847  1.00  0.00     0.198 A 
ATOM     66  C   UNL A   1      45.095  26.428  35.741  1.00  0.00     0.198 A 
ATOM     67  F   UNL A   1      42.774  26.629  35.409  1.00  0.00    -0.203 F 
ATOM     68  F   UNL A   1      47.830  28.536  34.636  1.00  0.00    -0.200 F 
ATOM     69  C   UNL A   1      46.382  26.907  35.548  1.00  0.00     0.200 A 
ATOM     70  F   UNL A   1      44.899  25.293  36.426  1.00  0.00    -0.200 F 
ATOM     71  F   UNL A   1      47.430  26.225  36.030  1.00  0.00    -0.200 F 
ENDBRANCH  38  61
ENDBRANCH  12  13
ENDBRANCH   5   7
ENDBRANCH   2   3
ENDBRANCH   1   2
BRANCH   1  72
ATOM     72  C   UNL A   1      32.703  30.420  27.241  1.00  0.00     0.023 C 
BRANCH  72  73
ATOM     73  C   UNL A   1      32.281  29.501  26.102  1.00  0.00     0.116 C 
BRANCH  73  74
ATOM     74  N   UNL A   1      31.414  28.406  26.520  1.00  0.00    -0.354 N 
ATOM     75  C   UNL A   1      31.489  27.074  26.178  1.00  0.00     0.242 C 
ATOM     76  H   UNL A   1      30.679  28.651  27.126  1.00  0.00     0.163 HD
ATOM     77  O   UNL A   1      30.807  26.261  26.799  1.00  0.00    -0.273 OA
BRANCH  75  78
ATOM     78  C   UNL A   1      32.501  26.687  25.093  1.00  0.00     0.175 C 
ATOM     79  C   UNL A   1      32.778  25.198  25.335  1.00  0.00     0.044 C 
ATOM     80  N   UNL A   1      32.205  26.714  23.668  1.00  0.00    -0.330 N 
ATOM     81  C   UNL A   1      33.433  24.675  24.051  1.00  0.00    -0.006 C 
ATOM     82  C   UNL A   1      32.922  25.649  22.976  1.00  0.00     0.127 C 
ATOM     83  C   UNL A   1      32.972  23.238  23.766  1.00  0.00     0.030 C 
ATOM     84  C   UNL A   1      34.976  24.683  24.149  1.00  0.00     0.030 C 
ATOM     85  C   UNL A   1      33.465  22.286  24.848  1.00  0.00     0.120 C 
ATOM     86  C   UNL A   1      35.531  23.629  25.116  1.00  0.00     0.120 C 
ATOM     87  N   UNL A   1      34.926  22.310  24.931  1.00  0.00    -0.337 N 
ATOM     88  C   UNL A   1      35.709  21.184  25.227  1.00  0.00     0.270 C 
ATOM     89  O   UNL A   1      36.861  21.295  25.641  1.00  0.00    -0.267 OA
BRANCH  80  90
ATOM     90  C   UNL A   1      31.772  27.787  22.907  1.00  0.00     0.226 C 
ATOM     91  O   UNL A   1      32.564  28.568  22.383  1.00  0.00    -0.275 OA
BRANCH  90  92
ATOM     92  C   UNL A   1      30.337  27.928  22.553  1.00  0.00     0.079 C 
ATOM     93  C   UNL A   1      29.128  27.535  23.356  1.00  0.00     0.014 C 
ATOM     94  C   UNL A   1      29.534  28.970  23.316  1.00  0.00     0.014 C 
ENDBRANCH  90  92
ENDBRANCH  80  90
BRANCH  88  95
ATOM     95  C   UNL A   1      35.093  19.888  25.055  1.00  0.00     0.105 A 
ATOM     96  C   UNL A   1      35.668  18.715  24.598  1.00  0.00     0.042 A 
ATOM     97  N   UNL A   1      33.762  19.607  25.274  1.00  0.00    -0.351 N 
ATOM     98  C   UNL A   1      34.710  17.673  24.724  1.00  0.00     0.000 A 
ATOM     99  C   UNL A   1      33.529  18.256  25.179  1.00  0.00     0.046 A 
ATOM    100  H   UNL A   1      33.074  20.282  25.472  1.00  0.00     0.167 HD
ATOM    101  C   UNL A   1      34.740  16.281  24.515  1.00  0.00     0.010 A 
ATOM    102  C   UNL A   1      32.374  17.516  25.454  1.00  0.00     0.026 A 
ATOM    103  C   UNL A   1      33.597  15.523  24.790  1.00  0.00     0.001 A 
ATOM    104  C   UNL A   1      32.434  16.133  25.257  1.00  0.00     0.002 A 
ENDBRANCH  88  95
ENDBRANCH  75  78
ENDBRANCH  73  74
ENDBRANCH  72  73
ENDBRANCH   1  72
TORSDOF 14
ENDMDL
MODEL 3
REMARK VINA RESULT:     -13.1      5.757     11.118
REMARK SMILES O=C(NCCCCNC(=O)[C@H]1CC2(CCN(C(=O)c3cc4ccccc4[nH]3)CC2)CN1C(=O)C1CC1)c1ccc(-c2c3nc(c(-c4c(F)c(F)c(F)c(F)c4F)c4ccc([nH]4)c(-c4c(F)c(F)c(F)c(F)c4F)c4nc(c(-c5c(F)c(F)c(F)c(F)c5F)c5ccc2[nH]5)C=C4)C=C3)cc1
REMARK SMILES IDX 5 1 4 2 3 3 1 4 2 5 37 7 38 8 99 9 39 10 98 11 40 12 41 13
REMARK SMILES IDX 42 14 92 15 43 16 97 17 91 18 93 19 44 20 96 21 90 22 89 23
REMARK SMILES IDX 45 25 77 26 57 27 76 28 58 29 61 30 75 31 94 32 59 33 60 34
REMARK SMILES IDX 74 36 95 37 62 38 46 39 47 40 55 41 48 42 49 43 53 44 56 45
REMARK SMILES IDX 50 46 51 47 54 48 52 49 78 50 79 51 87 52 80 53 81 54 85 55
REMARK SMILES IDX 88 56 82 57 83 58 86 59 84 60 63 61 64 62 72 63 65 64 66 65
REMARK SMILES IDX 70 66 73 67 67 68 68 69 71 70 69 71 6 72 7 73 8 74 9 75
REMARK SMILES IDX 10 77 11 78 12 79 31 80 13 81 30 82 14 83 29 84 15 85 28 86
REMARK SMILES IDX 16 87 17 88 18 89 32 90 33 91 34 92 35 93 36 94 19 95 20 96
REMARK SMILES IDX 27 97 21 98 26 99 22 101 25 102 23 103 24 104
REMARK H PARENT 3 6 93 24 61 35 8 76 27 100
REMARK Flexibility Score: inf
ROOT
ATOM      1  C   UNL A   1      48.193  24.856  33.942  1.00  0.00     0.023 C 
ENDROOT
BRANCH   1   2
ATOM      2  C   UNL A   1      47.718  24.104  35.176  1.00  0.00     0.116 C 
BRANCH   2   3
ATOM      3  N   UNL A   1      47.824  24.869  36.408  1.00  0.00    -0.352 N 
ATOM      4  O   UNL A   1      47.387  26.558  37.844  1.00  0.00    -0.269 OA
ATOM      5  C   UNL A   1      47.122  25.988  36.790  1.00  0.00     0.251 C 
ATOM      6  H   UNL A   1      48.488  24.541  37.058  1.00  0.00     0.163 HD
BRANCH   5   7
ATOM      7  C   UNL A   1      46.076  26.529  35.897  1.00  0.00     0.039 A 
ATOM      8  C   UNL A   1      46.297  27.701  35.171  1.00  0.00     0.014 A 
ATOM      9  C   UNL A   1      44.845  25.873  35.823  1.00  0.00     0.014 A 
ATOM     10  C   UNL A   1      45.238  28.303  34.503  1.00  0.00     0.010 A 
ATOM     11  C   UNL A   1      43.807  26.434  35.075  1.00  0.00     0.010 A 
ATOM     12  C   UNL A   1      43.984  27.673  34.440  1.00  0.00    -0.014 A 
BRANCH  12  13
ATOM     13  C   UNL A   1      42.894  28.304  33.657  1.00  0.00     0.031 A 
ATOM     14  C   UNL A   1      42.693  27.984  32.202  1.00  0.00     0.074 A 
ATOM     15  C   UNL A   1      42.063  29.155  34.287  1.00  0.00     0.049 A 
ATOM     16  N   UNL A   1      41.782  28.440  31.379  1.00  0.00    -0.248 NA
ATOM     17  C   UNL A   1      43.638  27.041  31.587  1.00  0.00     0.031 C 
ATOM     18  C   UNL A   1      42.173  29.548  35.693  1.00  0.00     0.029 A 
ATOM     19  N   UNL A   1      40.957  29.827  33.839  1.00  0.00    -0.354 N 
ATOM     20  C   UNL A   1      42.056  27.860  30.147  1.00  0.00     0.074 A 
ATOM     21  C   UNL A   1      43.229  27.031  30.324  1.00  0.00     0.031 C 
ATOM     22  C   UNL A   1      41.151  30.357  36.004  1.00  0.00     0.029 A 
ATOM     23  C   UNL A   1      40.349  30.585  34.808  1.00  0.00     0.049 A 
ATOM     24  H   UNL A   1      40.629  29.772  32.912  1.00  0.00     0.167 HD
ATOM     25  C   UNL A   1      41.383  28.005  28.980  1.00  0.00     0.037 A 
ATOM     26  C   UNL A   1      39.274  31.391  34.740  1.00  0.00     0.037 A 
ATOM     27  C   UNL A   1      40.200  28.812  28.817  1.00  0.00     0.049 A 
ATOM     28  C   UNL A   1      38.551  31.531  33.434  1.00  0.00     0.074 A 
ATOM     29  C   UNL A   1      39.421  28.984  27.687  1.00  0.00     0.029 A 
ATOM     30  N   UNL A   1      39.627  29.584  29.818  1.00  0.00    -0.354 N 
ATOM     31  N   UNL A   1      38.803  30.953  32.285  1.00  0.00    -0.248 NA
ATOM     32  C   UNL A   1      37.397  32.440  33.412  1.00  0.00     0.031 C 
ATOM     33  C   UNL A   1      38.400  29.891  27.991  1.00  0.00     0.029 A 
ATOM     34  C   UNL A   1      38.517  30.251  29.324  1.00  0.00     0.049 A 
ATOM     35  H   UNL A   1      39.959  29.647  30.743  1.00  0.00     0.167 HD
ATOM     36  C   UNL A   1      37.838  31.419  31.406  1.00  0.00     0.074 A 
ATOM     37  C   UNL A   1      36.980  32.311  32.161  1.00  0.00     0.031 C 
ATOM     38  C   UNL A   1      37.681  31.140  30.089  1.00  0.00     0.037 A 
BRANCH  25  39
ATOM     39  C   UNL A   1      41.914  27.289  27.773  1.00  0.00     0.064 A 
ATOM     40  C   UNL A   1      42.903  27.854  26.955  1.00  0.00     0.173 A 
ATOM     41  C   UNL A   1      41.469  25.993  27.464  1.00  0.00     0.173 A 
ATOM     42  F   UNL A   1      43.355  29.094  27.202  1.00  0.00    -0.203 F 
ATOM     43  C   UNL A   1      43.416  27.157  25.864  1.00  0.00     0.198 A 
ATOM     44  C   UNL A   1      42.000  25.290  26.385  1.00  0.00     0.198 A 
ATOM     45  F   UNL A   1      40.529  25.404  28.218  1.00  0.00    -0.203 F 
ATOM     46  F   UNL A   1      44.336  27.730  25.077  1.00  0.00    -0.200 F 
ATOM     47  C   UNL A   1      42.969  25.873  25.584  1.00  0.00     0.200 A 
ATOM     48  F   UNL A   1      41.576  24.046  26.124  1.00  0.00    -0.200 F 
ATOM     49  F   UNL A   1      43.471  25.201  24.539  1.00  0.00    -0.200 F 
ENDBRANCH  25  39
BRANCH  26  50
ATOM     50  C   UNL A   1      38.830  32.119  35.955  1.00  0.00     0.064 A 
ATOM     51  C   UNL A   1      38.063  31.481  36.936  1.00  0.00     0.173 A 
ATOM     52  C   UNL A   1      39.197  33.455  36.173  1.00  0.00     0.173 A 
ATOM     53  F   UNL A   1      37.675  30.209  36.763  1.00  0.00    -0.203 F 
ATOM     54  C   UNL A   1      37.670  32.156  38.091  1.00  0.00     0.198 A 
ATOM     55  C   UNL A   1      38.828  34.119  37.339  1.00  0.00     0.198 A 
ATOM     56  F   UNL A   1      39.938  34.105  35.264  1.00  0.00    -0.203 F 
ATOM     57  F   UNL A   1      36.911  31.533  39.002  1.00  0.00    -0.200 F 
ATOM     58  C   UNL A   1      38.061  33.471  38.294  1.00  0.00     0.200 A 
ATOM     59  F   UNL A   1      39.221  35.384  37.540  1.00  0.00    -0.200 F 
ATOM     60  F   UNL A   1      37.695  34.115  39.411  1.00  0.00    -0.200 F 
ENDBRANCH  26  50
BRANCH  38  61
ATOM     61  C   UNL A   1      36.530  31.798  29.390  1.00  0.00     0.064 A 
ATOM     62  C   UNL A   1      35.409  31.063  28.976  1.00  0.00     0.173 A 
ATOM     63  C   UNL A   1      36.537  33.181  29.155  1.00  0.00     0.173 A 
ATOM     64  F   UNL A   1      35.367  29.736  29.164  1.00  0.00    -0.203 F 
ATOM     65  C   UNL A   1      34.347  31.687  28.327  1.00  0.00     0.198 A 
ATOM     66  C   UNL A   1      35.462  33.804  28.529  1.00  0.00     0.198 A 
ATOM     67  F   UNL A   1      37.585  33.926  29.536  1.00  0.00    -0.203 F 
ATOM     68  F   UNL A   1      33.307  30.958  27.899  1.00  0.00    -0.200 F 
ATOM     69  C   UNL A   1      34.372  33.056  28.110  1.00  0.00     0.200 A 
ATOM     70  F   UNL A   1      35.482  35.129  28.326  1.00  0.00    -0.200 F 
ATOM     71  F   UNL A   1      33.347  33.655  27.487  1.00  0.00    -0.200 F 
ENDBRANCH  38  61
ENDBRANCH  12  13
ENDBRANCH   5   7
ENDBRANCH   2   3
ENDBRANCH   1   2
BRANCH   1  72
ATOM     72  C   UNL A   1      47.148  25.066  32.853  1.00  0.00     0.023 C 
BRANCH  72  73
ATOM     73  C   UNL A   1      47.482  26.143  31.829  1.00  0.00     0.116 C 
BRANCH  73  74
ATOM     74  N   UNL A   1      48.895  26.203  31.476  1.00  0.00    -0.354 N 
ATOM     75  C   UNL A   1      49.478  26.760  30.360  1.00  0.00     0.242 C 
ATOM     76  H   UNL A   1      49.513  25.790  32.121  1.00  0.00     0.163 HD
ATOM     77  O   UNL A   1      50.698  26.909  30.339  1.00  0.00    -0.273 OA
BRANCH  75  78
ATOM     78  C   UNL A   1      48.539  27.243  29.248  1.00  0.00     0.175 C 
ATOM     79  C   UNL A   1      48.019  25.956  28.595  1.00  0.00     0.044 C 
ATOM     80  N   UNL A   1      47.307  27.977  29.495  1.00  0.00    -0.330 N 
ATOM     81  C   UNL A   1      46.783  26.362  27.785  1.00  0.00    -0.006 C 
ATOM     82  C   UNL A   1      46.297  27.633  28.501  1.00  0.00     0.127 C 
ATOM     83  C   UNL A   1      45.723  25.251  27.840  1.00  0.00     0.030 C 
ATOM     84  C   UNL A   1      47.131  26.632  26.303  1.00  0.00     0.030 C 
ATOM     85  C   UNL A   1      46.223  23.990  27.147  1.00  0.00     0.120 C 
ATOM     86  C   UNL A   1      47.492  25.363  25.520  1.00  0.00     0.120 C 
ATOM     87  N   UNL A   1      46.552  24.265  25.747  1.00  0.00    -0.337 N 
ATOM     88  C   UNL A   1      46.351  23.349  24.704  1.00  0.00     0.270 C 
ATOM     89  O   UNL A   1      46.952  23.452  23.636  1.00  0.00    -0.267 OA
BRANCH  80  90
ATOM     90  C   UNL A   1      47.149  29.174  30.173  1.00  0.00     0.226 C 
ATOM     91  O   UNL A   1      47.958  30.092  30.057  1.00  0.00    -0.275 OA
BRANCH  90  92
ATOM     92  C   UNL A   1      45.902  29.454  30.928  1.00  0.00     0.079 C 
ATOM     93  C   UNL A   1      45.491  30.719  31.630  1.00  0.00     0.014 C 
ATOM     94  C   UNL A   1      44.906  30.411  30.293  1.00  0.00     0.014 C 
ENDBRANCH  90  92
ENDBRANCH  80  90
BRANCH  88  95
ATOM     95  C   UNL A   1      45.432  22.260  24.949  1.00  0.00     0.105 A 
ATOM     96  C   UNL A   1      45.634  20.905  24.761  1.00  0.00     0.042 A 
ATOM     97  N   UNL A   1      44.130  22.404  25.377  1.00  0.00    -0.351 N 
ATOM     98  C   UNL A   1      44.496  20.214  25.261  1.00  0.00     0.000 A 
ATOM     99  C   UNL A   1      43.579  21.180  25.669  1.00  0.00     0.046 A 
ATOM    100  H   UNL A   1      43.662  23.265  25.461  1.00  0.00     0.167 HD
ATOM    101  C   UNL A   1      44.168  18.855  25.426  1.00  0.00     0.010 A 
ATOM    102  C   UNL A   1      42.348  20.858  26.254  1.00  0.00     0.026 A 
ATOM    103  C   UNL A   1      42.945  18.514  26.014  1.00  0.00     0.001 A 
ATOM    104  C   UNL A   1      42.053  19.503  26.425  1.00  0.00     0.002 A 
ENDBRANCH  88  95
ENDBRANCH  75  78
ENDBRANCH  73  74
ENDBRANCH  72  73
ENDBRANCH   1  72
TORSDOF 14
ENDMDL
