MODEL 1
REMARK VINA RESULT:     -12.3      0.000      0.000
REMARK SMILES Cc1cc(SCC(=O)NCCCCNC(=O)c2ccc(-c3c4nc(c(-c5c(F)c(F)c(F)c(F)c5F)c5ccc([nH]5)c(-c5c(F)c(F)c(F)c(F)c5F)c5nc(c(-c6c(F)c(F)c(F)c(F)c6F)c6ccc3[nH]6)C=C5)C=C4)cc2)nc(-c2ccccc2)n1
REMARK SMILES IDX 11 1 10 2 9 3 7 4 8 5 6 7 5 8 4 9 1 10 2 11 3 12 88 13 81 14
REMARK SMILES IDX 80 15 82 16 83 17 87 18 84 19 86 20 85 21 12 22 13 23 14 24
REMARK SMILES IDX 15 25 16 27 17 28 18 29 79 30 19 31 78 32 20 33 21 34 22 35
REMARK SMILES IDX 72 36 23 37 77 38 71 39 73 40 24 41 76 42 70 43 69 44 25 46
REMARK SMILES IDX 57 47 37 48 56 49 38 50 41 51 55 52 74 53 39 54 40 55 54 57
REMARK SMILES IDX 75 58 42 59 26 60 27 61 35 62 28 63 29 64 33 65 36 66 30 67
REMARK SMILES IDX 31 68 34 69 32 70 58 71 59 72 67 73 60 74 61 75 65 76 68 77
REMARK SMILES IDX 62 78 63 79 66 80 64 81 43 82 44 83 52 84 45 85 46 86 50 87
REMARK SMILES IDX 53 88 47 89 48 90 51 91 49 92
REMARK H PARENT 9 6 14 26 73 45 41 56
REMARK Flexibility Score: inf
ROOT
ATOM      1  C   UNL A   1      31.985  27.798  27.236  1.00  0.00     0.023 C 
ENDROOT
BRANCH   1   2
ATOM      2  C   UNL A   1      32.249  26.485  26.499  1.00  0.00     0.116 C 
BRANCH   2   3
ATOM      3  N   UNL A   1      31.405  25.419  27.003  1.00  0.00    -0.355 N 
ATOM      4  C   UNL A   1      31.021  24.261  26.401  1.00  0.00     0.230 C 
ATOM      5  O   UNL A   1      30.237  23.531  27.015  1.00  0.00    -0.274 OA
ATOM      6  H   UNL A   1      31.060  25.553  27.915  1.00  0.00     0.163 HD
BRANCH   4   7
ATOM      7  C   UNL A   1      31.594  23.833  25.064  1.00  0.00     0.176 C 
BRANCH   7   8
ATOM      8  S   UNL A   1      30.639  24.359  23.611  1.00  0.00    -0.096 SA
BRANCH   8   9
ATOM      9  C   UNL A   1      31.202  26.003  23.232  1.00  0.00     0.101 A 
ATOM     10  C   UNL A   1      34.121  28.146  22.287  1.00  0.00     0.067 C 
ATOM     11  C   UNL A   1      32.739  27.670  22.612  1.00  0.00     0.042 A 
ATOM     12  C   UNL A   1      32.504  26.353  22.956  1.00  0.00     0.059 A 
ATOM     13  N   UNL A   1      31.763  28.595  22.601  1.00  0.00    -0.233 NA
ATOM     14  C   UNL A   1      30.536  28.185  22.964  1.00  0.00     0.160 A 
ATOM     15  N   UNL A   1      30.212  26.917  23.267  1.00  0.00    -0.222 NA
BRANCH  14  16
ATOM     16  C   UNL A   1      29.512  29.220  23.138  1.00  0.00     0.019 A 
ATOM     17  C   UNL A   1      29.839  30.493  23.639  1.00  0.00     0.012 A 
ATOM     18  C   UNL A   1      28.159  28.948  22.865  1.00  0.00     0.012 A 
ATOM     19  C   UNL A   1      28.850  31.455  23.865  1.00  0.00     0.001 A 
ATOM     20  C   UNL A   1      27.167  29.901  23.109  1.00  0.00     0.001 A 
ATOM     21  C   UNL A   1      27.513  31.154  23.610  1.00  0.00     0.000 A 
ENDBRANCH  14  16
ENDBRANCH   8   9
ENDBRANCH   7   8
ENDBRANCH   4   7
ENDBRANCH   2   3
ENDBRANCH   1   2
BRANCH   1  22
ATOM     22  C   UNL A   1      31.691  28.996  26.328  1.00  0.00     0.023 C 
BRANCH  22  23
ATOM     23  C   UNL A   1      32.888  29.884  26.007  1.00  0.00     0.116 C 
BRANCH  23  24
ATOM     24  N   UNL A   1      32.692  31.269  26.408  1.00  0.00    -0.352 N 
ATOM     25  C   UNL A   1      33.422  32.031  27.287  1.00  0.00     0.251 C 
ATOM     26  H   UNL A   1      31.927  31.725  25.989  1.00  0.00     0.163 HD
ATOM     27  O   UNL A   1      33.028  33.150  27.606  1.00  0.00    -0.269 OA
BRANCH  25  28
ATOM     28  C   UNL A   1      34.666  31.494  27.879  1.00  0.00     0.039 A 
ATOM     29  C   UNL A   1      35.750  32.357  28.062  1.00  0.00     0.014 A 
ATOM     30  C   UNL A   1      34.765  30.153  28.258  1.00  0.00     0.014 A 
ATOM     31  C   UNL A   1      36.908  31.891  28.688  1.00  0.00     0.010 A 
ATOM     32  C   UNL A   1      35.888  29.710  28.950  1.00  0.00     0.010 A 
ATOM     33  C   UNL A   1      36.972  30.574  29.174  1.00  0.00    -0.014 A 
BRANCH  33  34
ATOM     34  C   UNL A   1      38.159  30.088  29.926  1.00  0.00     0.031 A 
ATOM     35  C   UNL A   1      38.415  30.564  31.328  1.00  0.00     0.074 A 
ATOM     36  C   UNL A   1      39.039  29.267  29.321  1.00  0.00     0.049 A 
ATOM     37  N   UNL A   1      39.426  30.305  32.120  1.00  0.00    -0.248 NA
ATOM     38  C   UNL A   1      37.417  31.475  31.910  1.00  0.00     0.031 C 
ATOM     39  C   UNL A   1      38.927  28.768  27.950  1.00  0.00     0.029 A 
ATOM     40  N   UNL A   1      40.210  28.714  29.780  1.00  0.00    -0.354 N 
ATOM     41  C   UNL A   1      39.190  31.027  33.283  1.00  0.00     0.074 A 
ATOM     42  C   UNL A   1      37.974  31.780  33.073  1.00  0.00     0.031 C 
ATOM     43  C   UNL A   1      39.969  27.964  27.687  1.00  0.00     0.029 A 
ATOM     44  C   UNL A   1      40.846  27.924  28.853  1.00  0.00     0.049 A 
ATOM     45  H   UNL A   1      40.561  28.869  30.687  1.00  0.00     0.167 HD
ATOM     46  C   UNL A   1      39.910  31.040  34.431  1.00  0.00     0.037 A 
ATOM     47  C   UNL A   1      42.010  27.251  28.932  1.00  0.00     0.037 A 
ATOM     48  C   UNL A   1      41.113  30.276  34.641  1.00  0.00     0.049 A 
ATOM     49  C   UNL A   1      42.805  27.305  30.210  1.00  0.00     0.074 A 
ATOM     50  C   UNL A   1      41.883  30.179  35.788  1.00  0.00     0.029 A 
ATOM     51  N   UNL A   1      41.725  29.484  33.681  1.00  0.00    -0.354 N 
ATOM     52  N   UNL A   1      42.534  27.932  31.329  1.00  0.00    -0.248 NA
ATOM     53  C   UNL A   1      44.066  26.551  30.236  1.00  0.00     0.031 C 
ATOM     54  C   UNL A   1      42.991  29.375  35.502  1.00  0.00     0.029 A 
ATOM     55  C   UNL A   1      42.879  28.918  34.199  1.00  0.00     0.049 A 
ATOM     56  H   UNL A   1      41.388  29.344  32.766  1.00  0.00     0.167 HD
ATOM     57  C   UNL A   1      43.569  27.622  32.200  1.00  0.00     0.074 A 
ATOM     58  C   UNL A   1      44.466  26.739  31.486  1.00  0.00     0.031 C 
ATOM     59  C   UNL A   1      43.759  28.032  33.479  1.00  0.00     0.037 A 
BRANCH  46  60
ATOM     60  C   UNL A   1      39.417  31.915  35.549  1.00  0.00     0.064 A 
ATOM     61  C   UNL A   1      38.519  31.439  36.517  1.00  0.00     0.173 A 
ATOM     62  C   UNL A   1      39.875  33.236  35.675  1.00  0.00     0.173 A 
ATOM     63  F   UNL A   1      38.042  30.188  36.440  1.00  0.00    -0.203 F 
ATOM     64  C   UNL A   1      38.068  32.263  37.546  1.00  0.00     0.198 A 
ATOM     65  C   UNL A   1      39.449  34.046  36.725  1.00  0.00     0.198 A 
ATOM     66  F   UNL A   1      40.740  33.740  34.783  1.00  0.00    -0.203 F 
ATOM     67  F   UNL A   1      37.166  31.804  38.424  1.00  0.00    -0.200 F 
ATOM     68  C   UNL A   1      38.541  33.563  37.653  1.00  0.00     0.200 A 
ATOM     69  F   UNL A   1      39.918  35.296  36.837  1.00  0.00    -0.200 F 
ATOM     70  F   UNL A   1      38.112  34.352  38.647  1.00  0.00    -0.200 F 
ENDBRANCH  46  60
BRANCH  47  71
ATOM     71  C   UNL A   1      42.488  26.450  27.773  1.00  0.00     0.064 A 
ATOM     72  C   UNL A   1      43.406  26.986  26.858  1.00  0.00     0.173 A 
ATOM     73  C   UNL A   1      42.032  25.143  27.549  1.00  0.00     0.173 A 
ATOM     74  F   UNL A   1      43.855  28.240  27.017  1.00  0.00    -0.203 F 
ATOM     75  C   UNL A   1      43.828  26.255  25.750  1.00  0.00     0.198 A 
ATOM     76  C   UNL A   1      42.480  24.401  26.458  1.00  0.00     0.198 A 
ATOM     77  F   UNL A   1      41.158  24.581  28.397  1.00  0.00    -0.203 F 
ATOM     78  F   UNL A   1      44.664  26.811  24.862  1.00  0.00    -0.200 F 
ATOM     79  C   UNL A   1      43.369  24.961  25.554  1.00  0.00     0.200 A 
ATOM     80  F   UNL A   1      42.047  23.146  26.281  1.00  0.00    -0.200 F 
ATOM     81  F   UNL A   1      43.778  24.257  24.489  1.00  0.00    -0.200 F 
ENDBRANCH  47  71
BRANCH  59  82
ATOM     82  C   UNL A   1      44.961  27.496  34.205  1.00  0.00     0.064 A 
ATOM     83  C   UNL A   1      46.184  28.183  34.221  1.00  0.00     0.173 A 
ATOM     84  C   UNL A   1      44.874  26.295  34.927  1.00  0.00     0.173 A 
ATOM     85  F   UNL A   1      46.324  29.328  33.536  1.00  0.00    -0.203 F 
ATOM     86  C   UNL A   1      47.283  27.674  34.907  1.00  0.00     0.198 A 
ATOM     87  C   UNL A   1      45.965  25.806  35.640  1.00  0.00     0.198 A 
ATOM     88  F   UNL A   1      43.727  25.601  34.951  1.00  0.00    -0.203 F 
ATOM     89  F   UNL A   1      48.456  28.319  34.864  1.00  0.00    -0.200 F 
ATOM     90  C   UNL A   1      47.170  26.491  35.623  1.00  0.00     0.200 A 
ATOM     91  F   UNL A   1      45.848  24.672  36.345  1.00  0.00    -0.200 F 
ATOM     92  F   UNL A   1      48.226  26.006  36.291  1.00  0.00    -0.200 F 
ENDBRANCH  59  82
ENDBRANCH  33  34
ENDBRANCH  25  28
ENDBRANCH  23  24
ENDBRANCH  22  23
ENDBRANCH   1  22
TORSDOF 14
ENDMDL
MODEL 2
REMARK VINA RESULT:     -12.0      5.451      9.083
REMARK SMILES Cc1cc(SCC(=O)NCCCCNC(=O)c2ccc(-c3c4nc(c(-c5c(F)c(F)c(F)c(F)c5F)c5ccc([nH]5)c(-c5c(F)c(F)c(F)c(F)c5F)c5nc(c(-c6c(F)c(F)c(F)c(F)c6F)c6ccc3[nH]6)C=C5)C=C4)cc2)nc(-c2ccccc2)n1
REMARK SMILES IDX 11 1 10 2 9 3 7 4 8 5 6 7 5 8 4 9 1 10 2 11 3 12 88 13 81 14
REMARK SMILES IDX 80 15 82 16 83 17 87 18 84 19 86 20 85 21 12 22 13 23 14 24
REMARK SMILES IDX 15 25 16 27 17 28 18 29 79 30 19 31 78 32 20 33 21 34 22 35
REMARK SMILES IDX 72 36 23 37 77 38 71 39 73 40 24 41 76 42 70 43 69 44 25 46
REMARK SMILES IDX 57 47 37 48 56 49 38 50 41 51 55 52 74 53 39 54 40 55 54 57
REMARK SMILES IDX 75 58 42 59 26 60 27 61 35 62 28 63 29 64 33 65 36 66 30 67
REMARK SMILES IDX 31 68 34 69 32 70 58 71 59 72 67 73 60 74 61 75 65 76 68 77
REMARK SMILES IDX 62 78 63 79 66 80 64 81 43 82 44 83 52 84 45 85 46 86 50 87
REMARK SMILES IDX 53 88 47 89 48 90 51 91 49 92
REMARK H PARENT 9 6 14 26 73 45 41 56
REMARK Flexibility Score: inf
ROOT
ATOM      1  C   UNL A   1      37.094  20.816  24.850  1.00  0.00     0.023 C 
ENDROOT
BRANCH   1   2
ATOM      2  C   UNL A   1      37.645  22.240  24.919  1.00  0.00     0.116 C 
BRANCH   2   3
ATOM      3  N   UNL A   1      36.695  23.141  25.541  1.00  0.00    -0.355 N 
ATOM      4  C   UNL A   1      35.711  23.889  24.971  1.00  0.00     0.230 C 
ATOM      5  O   UNL A   1      35.064  24.638  25.710  1.00  0.00    -0.274 OA
ATOM      6  H   UNL A   1      36.773  23.224  26.518  1.00  0.00     0.163 HD
BRANCH   4   7
ATOM      7  C   UNL A   1      35.358  23.751  23.504  1.00  0.00     0.176 C 
BRANCH   7   8
ATOM      8  S   UNL A   1      33.617  24.071  23.095  1.00  0.00    -0.096 SA
BRANCH   8   9
ATOM      9  C   UNL A   1      32.669  22.974  24.127  1.00  0.00     0.101 A 
ATOM     10  C   UNL A   1      30.140  22.703  26.871  1.00  0.00     0.067 C 
ATOM     11  C   UNL A   1      31.105  22.374  25.774  1.00  0.00     0.042 A 
ATOM     12  C   UNL A   1      31.810  23.369  25.127  1.00  0.00     0.059 A 
ATOM     13  N   UNL A   1      31.279  21.070  25.496  1.00  0.00    -0.233 NA
ATOM     14  C   UNL A   1      32.198  20.769  24.562  1.00  0.00     0.160 A 
ATOM     15  N   UNL A   1      32.893  21.673  23.853  1.00  0.00    -0.222 NA
BRANCH  14  16
ATOM     16  C   UNL A   1      32.531  19.351  24.388  1.00  0.00     0.019 A 
ATOM     17  C   UNL A   1      32.864  18.540  25.487  1.00  0.00     0.012 A 
ATOM     18  C   UNL A   1      32.583  18.776  23.105  1.00  0.00     0.012 A 
ATOM     19  C   UNL A   1      33.245  17.206  25.310  1.00  0.00     0.001 A 
ATOM     20  C   UNL A   1      32.982  17.449  22.924  1.00  0.00     0.001 A 
ATOM     21  C   UNL A   1      33.313  16.665  24.027  1.00  0.00     0.000 A 
ENDBRANCH  14  16
ENDBRANCH   8   9
ENDBRANCH   7   8
ENDBRANCH   4   7
ENDBRANCH   2   3
ENDBRANCH   1   2
BRANCH   1  22
ATOM     22  C   UNL A   1      38.139  19.713  25.050  1.00  0.00     0.023 C 
BRANCH  22  23
ATOM     23  C   UNL A   1      39.327  20.087  25.930  1.00  0.00     0.116 C 
BRANCH  23  24
ATOM     24  N   UNL A   1      40.350  19.055  25.973  1.00  0.00    -0.352 N 
ATOM     25  C   UNL A   1      41.708  19.182  26.126  1.00  0.00     0.251 C 
ATOM     26  H   UNL A   1      40.020  18.131  25.881  1.00  0.00     0.163 HD
ATOM     27  O   UNL A   1      42.437  18.199  26.005  1.00  0.00    -0.269 OA
BRANCH  25  28
ATOM     28  C   UNL A   1      42.303  20.507  26.402  1.00  0.00     0.039 A 
ATOM     29  C   UNL A   1      42.699  21.304  25.324  1.00  0.00     0.014 A 
ATOM     30  C   UNL A   1      42.463  20.968  27.711  1.00  0.00     0.014 A 
ATOM     31  C   UNL A   1      43.192  22.589  25.557  1.00  0.00     0.010 A 
ATOM     32  C   UNL A   1      42.882  22.276  27.938  1.00  0.00     0.010 A 
ATOM     33  C   UNL A   1      43.249  23.101  26.864  1.00  0.00    -0.014 A 
BRANCH  33  34
ATOM     34  C   UNL A   1      43.683  24.500  27.124  1.00  0.00     0.031 A 
ATOM     35  C   UNL A   1      42.698  25.517  27.627  1.00  0.00     0.074 A 
ATOM     36  C   UNL A   1      44.949  24.867  26.846  1.00  0.00     0.049 A 
ATOM     37  N   UNL A   1      42.869  26.797  27.852  1.00  0.00    -0.248 NA
ATOM     38  C   UNL A   1      41.331  25.042  27.888  1.00  0.00     0.031 C 
ATOM     39  C   UNL A   1      45.988  23.985  26.313  1.00  0.00     0.029 A 
ATOM     40  N   UNL A   1      45.575  26.084  26.965  1.00  0.00    -0.354 N 
ATOM     41  C   UNL A   1      41.633  27.276  28.268  1.00  0.00     0.074 A 
ATOM     42  C   UNL A   1      40.708  26.167  28.207  1.00  0.00     0.031 C 
ATOM     43  C   UNL A   1      47.127  24.680  26.175  1.00  0.00     0.029 A 
ATOM     44  C   UNL A   1      46.890  26.066  26.567  1.00  0.00     0.049 A 
ATOM     45  H   UNL A   1      45.125  26.892  27.302  1.00  0.00     0.167 HD
ATOM     46  C   UNL A   1      41.307  28.524  28.684  1.00  0.00     0.037 A 
ATOM     47  C   UNL A   1      47.799  27.058  26.515  1.00  0.00     0.037 A 
ATOM     48  C   UNL A   1      42.236  29.622  28.757  1.00  0.00     0.049 A 
ATOM     49  C   UNL A   1      47.403  28.442  26.958  1.00  0.00     0.074 A 
ATOM     50  C   UNL A   1      42.016  30.909  29.219  1.00  0.00     0.029 A 
ATOM     51  N   UNL A   1      43.561  29.566  28.350  1.00  0.00    -0.354 N 
ATOM     52  N   UNL A   1      46.252  28.867  27.419  1.00  0.00    -0.248 NA
ATOM     53  C   UNL A   1      48.438  29.483  26.879  1.00  0.00     0.031 C 
ATOM     54  C   UNL A   1      43.191  31.645  29.036  1.00  0.00     0.029 A 
ATOM     55  C   UNL A   1      44.163  30.803  28.522  1.00  0.00     0.049 A 
ATOM     56  H   UNL A   1      44.008  28.765  27.992  1.00  0.00     0.167 HD
ATOM     57  C   UNL A   1      46.432  30.211  27.716  1.00  0.00     0.074 A 
ATOM     58  C   UNL A   1      47.808  30.528  27.397  1.00  0.00     0.031 C 
ATOM     59  C   UNL A   1      45.537  31.103  28.209  1.00  0.00     0.037 A 
BRANCH  46  60
ATOM     60  C   UNL A   1      39.881  28.769  29.091  1.00  0.00     0.064 A 
ATOM     61  C   UNL A   1      38.915  29.200  28.169  1.00  0.00     0.173 A 
ATOM     62  C   UNL A   1      39.467  28.538  30.412  1.00  0.00     0.173 A 
ATOM     63  F   UNL A   1      39.257  29.445  26.895  1.00  0.00    -0.203 F 
ATOM     64  C   UNL A   1      37.597  29.426  28.562  1.00  0.00     0.198 A 
ATOM     65  C   UNL A   1      38.142  28.731  30.793  1.00  0.00     0.198 A 
ATOM     66  F   UNL A   1      40.347  28.118  31.333  1.00  0.00    -0.203 F 
ATOM     67  F   UNL A   1      36.707  29.893  27.676  1.00  0.00    -0.200 F 
ATOM     68  C   UNL A   1      37.211  29.183  29.872  1.00  0.00     0.200 A 
ATOM     69  F   UNL A   1      37.767  28.481  32.055  1.00  0.00    -0.200 F 
ATOM     70  F   UNL A   1      35.942  29.394  30.247  1.00  0.00    -0.200 F 
ENDBRANCH  46  60
BRANCH  47  71
ATOM     71  C   UNL A   1      49.183  26.779  26.044  1.00  0.00     0.064 A 
ATOM     72  C   UNL A   1      50.172  26.340  26.937  1.00  0.00     0.173 A 
ATOM     73  C   UNL A   1      49.549  26.955  24.702  1.00  0.00     0.173 A 
ATOM     74  F   UNL A   1      49.877  26.177  28.235  1.00  0.00    -0.203 F 
ATOM     75  C   UNL A   1      51.478  26.113  26.510  1.00  0.00     0.198 A 
ATOM     76  C   UNL A   1      50.848  26.697  24.270  1.00  0.00     0.198 A 
ATOM     77  F   UNL A   1      48.640  27.368  23.806  1.00  0.00    -0.203 F 
ATOM     78  F   UNL A   1      52.415  25.746  27.395  1.00  0.00    -0.200 F 
ATOM     79  C   UNL A   1      51.814  26.286  25.176  1.00  0.00     0.200 A 
ATOM     80  F   UNL A   1      51.165  26.850  22.978  1.00  0.00    -0.200 F 
ATOM     81  F   UNL A   1      53.071  26.066  24.765  1.00  0.00    -0.200 F 
ENDBRANCH  47  71
BRANCH  59  82
ATOM     82  C   UNL A   1      46.028  32.498  28.476  1.00  0.00     0.064 A 
ATOM     83  C   UNL A   1      45.937  33.513  27.513  1.00  0.00     0.173 A 
ATOM     84  C   UNL A   1      46.562  32.832  29.731  1.00  0.00     0.173 A 
ATOM     85  F   UNL A   1      45.448  33.243  26.292  1.00  0.00    -0.203 F 
ATOM     86  C   UNL A   1      46.390  34.801  27.783  1.00  0.00     0.198 A 
ATOM     87  C   UNL A   1      46.982  34.130  30.010  1.00  0.00     0.198 A 
ATOM     88  F   UNL A   1      46.666  31.901  30.692  1.00  0.00    -0.203 F 
ATOM     89  F   UNL A   1      46.343  35.741  26.830  1.00  0.00    -0.200 F 
ATOM     90  C   UNL A   1      46.903  35.110  29.035  1.00  0.00     0.200 A 
ATOM     91  F   UNL A   1      47.462  34.429  31.225  1.00  0.00    -0.200 F 
ATOM     92  F   UNL A   1      47.330  36.353  29.298  1.00  0.00    -0.200 F 
ENDBRANCH  59  82
ENDBRANCH  33  34
ENDBRANCH  25  28
ENDBRANCH  23  24
ENDBRANCH  22  23
ENDBRANCH   1  22
TORSDOF 14
ENDMDL
MODEL 3
REMARK VINA RESULT:     -12.0      5.511     10.799
REMARK SMILES Cc1cc(SCC(=O)NCCCCNC(=O)c2ccc(-c3c4nc(c(-c5c(F)c(F)c(F)c(F)c5F)c5ccc([nH]5)c(-c5c(F)c(F)c(F)c(F)c5F)c5nc(c(-c6c(F)c(F)c(F)c(F)c6F)c6ccc3[nH]6)C=C5)C=C4)cc2)nc(-c2ccccc2)n1
REMARK SMILES IDX 11 1 10 2 9 3 7 4 8 5 6 7 5 8 4 9 1 10 2 11 3 12 88 13 81 14
REMARK SMILES IDX 80 15 82 16 83 17 87 18 84 19 86 20 85 21 12 22 13 23 14 24
REMARK SMILES IDX 15 25 16 27 17 28 18 29 79 30 19 31 78 32 20 33 21 34 22 35
REMARK SMILES IDX 72 36 23 37 77 38 71 39 73 40 24 41 76 42 70 43 69 44 25 46
REMARK SMILES IDX 57 47 37 48 56 49 38 50 41 51 55 52 74 53 39 54 40 55 54 57
REMARK SMILES IDX 75 58 42 59 26 60 27 61 35 62 28 63 29 64 33 65 36 66 30 67
REMARK SMILES IDX 31 68 34 69 32 70 58 71 59 72 67 73 60 74 61 75 65 76 68 77
REMARK SMILES IDX 62 78 63 79 66 80 64 81 43 82 44 83 52 84 45 85 46 86 50 87
REMARK SMILES IDX 53 88 47 89 48 90 51 91 49 92
REMARK H PARENT 9 6 14 26 73 45 41 56
REMARK Flexibility Score: inf
ROOT
ATOM      1  C   UNL A   1      37.331  19.994  25.055  1.00  0.00     0.023 C 
ENDROOT
BRANCH   1   2
ATOM      2  C   UNL A   1      37.642  21.475  25.274  1.00  0.00     0.116 C 
BRANCH   2   3
ATOM      3  N   UNL A   1      37.406  22.245  24.069  1.00  0.00    -0.355 N 
ATOM      4  C   UNL A   1      36.589  23.315  23.871  1.00  0.00     0.230 C 
ATOM      5  O   UNL A   1      36.508  23.768  22.725  1.00  0.00    -0.274 OA
ATOM      6  H   UNL A   1      37.912  21.952  23.278  1.00  0.00     0.163 HD
BRANCH   4   7
ATOM      7  C   UNL A   1      35.866  23.986  25.023  1.00  0.00     0.176 C 
BRANCH   7   8
ATOM      8  S   UNL A   1      34.241  24.687  24.612  1.00  0.00    -0.096 SA
BRANCH   8   9
ATOM      9  C   UNL A   1      33.054  23.427  25.024  1.00  0.00     0.101 A 
ATOM     10  C   UNL A   1      29.902  22.614  26.868  1.00  0.00     0.067 C 
ATOM     11  C   UNL A   1      31.115  22.523  25.995  1.00  0.00     0.042 A 
ATOM     12  C   UNL A   1      31.968  23.599  25.852  1.00  0.00     0.059 A 
ATOM     13  N   UNL A   1      31.349  21.335  25.409  1.00  0.00    -0.233 NA
ATOM     14  C   UNL A   1      32.475  21.231  24.685  1.00  0.00     0.160 A 
ATOM     15  N   UNL A   1      33.335  22.237  24.456  1.00  0.00    -0.222 NA
BRANCH  14  16
ATOM     16  C   UNL A   1      32.835  19.893  24.202  1.00  0.00     0.019 A 
ATOM     17  C   UNL A   1      33.907  19.178  24.765  1.00  0.00     0.012 A 
ATOM     18  C   UNL A   1      32.151  19.310  23.119  1.00  0.00     0.012 A 
ATOM     19  C   UNL A   1      34.287  17.931  24.258  1.00  0.00     0.001 A 
ATOM     20  C   UNL A   1      32.542  18.073  22.600  1.00  0.00     0.001 A 
ATOM     21  C   UNL A   1      33.611  17.385  23.169  1.00  0.00     0.000 A 
ENDBRANCH  14  16
ENDBRANCH   8   9
ENDBRANCH   7   8
ENDBRANCH   4   7
ENDBRANCH   2   3
ENDBRANCH   1   2
BRANCH   1  22
ATOM     22  C   UNL A   1      38.523  19.053  25.254  1.00  0.00     0.023 C 
BRANCH  22  23
ATOM     23  C   UNL A   1      39.792  19.706  25.792  1.00  0.00     0.116 C 
BRANCH  23  24
ATOM     24  N   UNL A   1      40.892  18.767  25.949  1.00  0.00    -0.352 N 
ATOM     25  C   UNL A   1      42.221  19.016  26.188  1.00  0.00     0.251 C 
ATOM     26  H   UNL A   1      40.648  17.816  25.873  1.00  0.00     0.163 HD
ATOM     27  O   UNL A   1      43.035  18.097  26.159  1.00  0.00    -0.269 OA
BRANCH  25  28
ATOM     28  C   UNL A   1      42.681  20.397  26.447  1.00  0.00     0.039 A 
ATOM     29  C   UNL A   1      43.147  21.163  25.374  1.00  0.00     0.014 A 
ATOM     30  C   UNL A   1      42.649  20.939  27.734  1.00  0.00     0.014 A 
ATOM     31  C   UNL A   1      43.515  22.494  25.582  1.00  0.00     0.010 A 
ATOM     32  C   UNL A   1      42.943  22.286  27.925  1.00  0.00     0.010 A 
ATOM     33  C   UNL A   1      43.378  23.079  26.852  1.00  0.00    -0.014 A 
BRANCH  33  34
ATOM     34  C   UNL A   1      43.675  24.519  27.072  1.00  0.00     0.031 A 
ATOM     35  C   UNL A   1      45.057  25.054  26.820  1.00  0.00     0.074 A 
ATOM     36  C   UNL A   1      42.716  25.330  27.559  1.00  0.00     0.049 A 
ATOM     37  N   UNL A   1      45.526  26.262  27.013  1.00  0.00    -0.248 NA
ATOM     38  C   UNL A   1      46.052  24.100  26.307  1.00  0.00     0.031 C 
ATOM     39  C   UNL A   1      41.349  24.923  27.885  1.00  0.00     0.029 A 
ATOM     40  N   UNL A   1      42.748  26.667  27.874  1.00  0.00    -0.354 N 
ATOM     41  C   UNL A   1      46.868  26.208  26.658  1.00  0.00     0.074 A 
ATOM     42  C   UNL A   1      47.153  24.838  26.294  1.00  0.00     0.031 C 
ATOM     43  C   UNL A   1      40.666  25.990  28.329  1.00  0.00     0.029 A 
ATOM     44  C   UNL A   1      41.557  27.146  28.361  1.00  0.00     0.049 A 
ATOM     45  H   UNL A   1      43.549  27.228  27.762  1.00  0.00     0.167 HD
ATOM     46  C   UNL A   1      47.774  27.216  26.616  1.00  0.00     0.037 A 
ATOM     47  C   UNL A   1      41.222  28.377  28.794  1.00  0.00     0.037 A 
ATOM     48  C   UNL A   1      47.480  28.582  26.965  1.00  0.00     0.049 A 
ATOM     49  C   UNL A   1      42.255  29.472  28.762  1.00  0.00     0.074 A 
ATOM     50  C   UNL A   1      48.314  29.686  26.902  1.00  0.00     0.029 A 
ATOM     51  N   UNL A   1      46.260  29.030  27.450  1.00  0.00    -0.354 N 
ATOM     52  N   UNL A   1      43.500  29.426  28.355  1.00  0.00    -0.248 NA
ATOM     53  C   UNL A   1      41.832  30.793  29.247  1.00  0.00     0.031 C 
ATOM     54  C   UNL A   1      47.616  30.789  27.404  1.00  0.00     0.029 A 
ATOM     55  C   UNL A   1      46.328  30.389  27.719  1.00  0.00     0.049 A 
ATOM     56  H   UNL A   1      45.465  28.466  27.584  1.00  0.00     0.167 HD
ATOM     57  C   UNL A   1      43.998  30.714  28.501  1.00  0.00     0.074 A 
ATOM     58  C   UNL A   1      42.916  31.523  29.021  1.00  0.00     0.031 C 
ATOM     59  C   UNL A   1      45.240  31.185  28.228  1.00  0.00     0.037 A 
BRANCH  46  60
ATOM     60  C   UNL A   1      49.171  26.875  26.181  1.00  0.00     0.064 A 
ATOM     61  C   UNL A   1      50.128  26.388  27.085  1.00  0.00     0.173 A 
ATOM     62  C   UNL A   1      49.550  27.006  24.836  1.00  0.00     0.173 A 
ATOM     63  F   UNL A   1      49.822  26.251  28.384  1.00  0.00    -0.203 F 
ATOM     64  C   UNL A   1      51.420  26.080  26.666  1.00  0.00     0.198 A 
ATOM     65  C   UNL A   1      50.832  26.665  24.414  1.00  0.00     0.198 A 
ATOM     66  F   UNL A   1      48.674  27.461  23.928  1.00  0.00    -0.203 F 
ATOM     67  F   UNL A   1      52.332  25.670  27.559  1.00  0.00    -0.200 F 
ATOM     68  C   UNL A   1      51.768  26.211  25.330  1.00  0.00     0.200 A 
ATOM     69  F   UNL A   1      51.162  26.777  23.121  1.00  0.00    -0.200 F 
ATOM     70  F   UNL A   1      53.010  25.908  24.928  1.00  0.00    -0.200 F 
ENDBRANCH  46  60
BRANCH  47  71
ATOM     71  C   UNL A   1      39.841  28.648  29.276  1.00  0.00     0.064 A 
ATOM     72  C   UNL A   1      39.483  28.398  30.609  1.00  0.00     0.173 A 
ATOM     73  C   UNL A   1      38.852  29.150  28.418  1.00  0.00     0.173 A 
ATOM     74  F   UNL A   1      40.388  27.898  31.463  1.00  0.00    -0.203 F 
ATOM     75  C   UNL A   1      38.182  28.614  31.058  1.00  0.00     0.198 A 
ATOM     76  C   UNL A   1      37.559  29.396  28.877  1.00  0.00     0.198 A 
ATOM     77  F   UNL A   1      39.143  29.411  27.136  1.00  0.00    -0.203 F 
ATOM     78  F   UNL A   1      37.853  28.315  32.322  1.00  0.00    -0.200 F 
ATOM     79  C   UNL A   1      37.222  29.118  30.192  1.00  0.00     0.200 A 
ATOM     80  F   UNL A   1      36.639  29.897  28.042  1.00  0.00    -0.200 F 
ATOM     81  F   UNL A   1      35.971  29.328  30.626  1.00  0.00    -0.200 F 
ENDBRANCH  47  71
BRANCH  59  82
ATOM     82  C   UNL A   1      45.486  32.651  28.445  1.00  0.00     0.064 A 
ATOM     83  C   UNL A   1      45.207  33.603  27.454  1.00  0.00     0.173 A 
ATOM     84  C   UNL A   1      45.972  33.113  29.678  1.00  0.00     0.173 A 
ATOM     85  F   UNL A   1      44.754  33.214  26.252  1.00  0.00    -0.203 F 
ATOM     86  C   UNL A   1      45.433  34.959  27.677  1.00  0.00     0.198 A 
ATOM     87  C   UNL A   1      46.164  34.472  29.911  1.00  0.00     0.198 A 
ATOM     88  F   UNL A   1      46.249  32.246  30.664  1.00  0.00    -0.203 F 
ATOM     89  F   UNL A   1      45.211  35.845  26.697  1.00  0.00    -0.200 F 
ATOM     90  C   UNL A   1      45.903  35.392  28.909  1.00  0.00     0.200 A 
ATOM     91  F   UNL A   1      46.602  34.889  31.107  1.00  0.00    -0.200 F 
ATOM     92  F   UNL A   1      46.112  36.698  29.126  1.00  0.00    -0.200 F 
ENDBRANCH  59  82
ENDBRANCH  33  34
ENDBRANCH  25  28
ENDBRANCH  23  24
ENDBRANCH  22  23
ENDBRANCH   1  22
TORSDOF 14
ENDMDL
