MODEL 1
REMARK VINA RESULT:     -10.7      0.000      0.000
REMARK SMILES CC(C)Cc1ccc([C@@H]2CC[NH2+][C@H]2C(=O)NCCCCNC(=O)c2ccc(-c3c4nc(c(-c5c(F)c(F)c(F)c(F)c5F)c5ccc([nH]5)c(-c5c(F)c(F)c(F)c(F)c5F)c5nc(c(-c6c(F)c(F)c(F)c(F)c6F)c6ccc3[nH]6)C=C5)C=C4)cc2)cc1
REMARK SMILES IDX 18 1 17 2 16 3 14 4 15 5 13 7 9 8 10 9 11 10 12 11 8 14 5 15
REMARK SMILES IDX 6 16 88 17 7 18 87 19 4 20 2 21 1 22 3 23 19 24 20 25 21 26
REMARK SMILES IDX 22 27 23 29 24 30 25 31 86 32 26 33 85 34 27 35 28 36 29 37
REMARK SMILES IDX 79 38 30 39 84 40 78 41 80 42 31 43 83 44 77 45 76 46 32 48
REMARK SMILES IDX 64 49 44 50 63 51 45 52 48 53 62 54 81 55 46 56 47 57 61 59
REMARK SMILES IDX 82 60 49 61 33 62 34 63 42 64 35 65 36 66 40 67 43 68 37 69
REMARK SMILES IDX 38 70 41 71 39 72 65 73 66 74 74 75 67 76 68 77 72 78 75 79
REMARK SMILES IDX 69 80 70 81 73 82 71 83 50 84 51 85 59 86 52 87 53 88 57 89
REMARK SMILES IDX 60 90 54 91 55 92 58 93 56 94
REMARK H PARENT 16 6 12 12 12 13 21 28 80 47 48 58
REMARK Flexibility Score: inf
ROOT
ATOM      1  C   UNL A   1      42.919  18.589  27.178  1.00  0.00     0.023 C 
ENDROOT
BRANCH   1   2
ATOM      2  C   UNL A   1      43.347  18.557  25.714  1.00  0.00     0.116 C 
BRANCH   2   3
ATOM      3  N   UNL A   1      44.781  18.657  25.558  1.00  0.00    -0.351 N 
ATOM      4  C   UNL A   1      45.579  19.728  25.285  1.00  0.00     0.278 C 
ATOM      5  O   UNL A   1      46.787  19.501  25.160  1.00  0.00    -0.268 OA
ATOM      6  H   UNL A   1      45.264  17.806  25.667  1.00  0.00     0.163 HD
BRANCH   4   7
ATOM      7  C   UNL A   1      45.015  21.145  25.119  1.00  0.00     0.280 C 
ATOM      8  C   UNL A   1      46.014  22.256  25.498  1.00  0.00     0.093 C 
ATOM      9  C   UNL A   1      45.984  23.227  24.318  1.00  0.00     0.076 C 
ATOM     10  C   UNL A   1      44.760  22.839  23.506  1.00  0.00     0.262 C 
ATOM     11  N   UNL A   1      44.534  21.412  23.738  1.00  0.00    -0.335 N 
ATOM     12  H   UNL A   1      45.060  20.855  23.064  1.00  0.00     0.346 HD
ATOM     13  H   UNL A   1      43.550  21.166  23.630  1.00  0.00     0.346 HD
BRANCH   8  14
ATOM     14  C   UNL A   1      45.660  22.889  26.828  1.00  0.00    -0.038 A 
ATOM     15  C   UNL A   1      44.823  24.349  29.096  1.00  0.00    -0.048 A 
ATOM     16  C   UNL A   1      44.044  23.297  28.597  1.00  0.00     0.004 A 
ATOM     17  C   UNL A   1      46.037  24.632  28.466  1.00  0.00     0.004 A 
ATOM     18  C   UNL A   1      44.453  22.579  27.467  1.00  0.00     0.004 A 
ATOM     19  C   UNL A   1      46.473  23.886  27.377  1.00  0.00     0.004 A 
BRANCH  15  20
ATOM     20  C   UNL A   1      44.310  25.224  30.216  1.00  0.00     0.038 C 
BRANCH  20  21
ATOM     21  C   UNL A   1      44.931  26.634  30.324  1.00  0.00    -0.013 C 
ATOM     22  C   UNL A   1      43.905  27.743  30.575  1.00  0.00     0.008 C 
ATOM     23  C   UNL A   1      45.949  26.644  31.469  1.00  0.00     0.008 C 
ENDBRANCH  20  21
ENDBRANCH  15  20
ENDBRANCH   8  14
ENDBRANCH   4   7
ENDBRANCH   2   3
ENDBRANCH   1   2
BRANCH   1  24
ATOM     24  C   UNL A   1      41.835  19.612  27.503  1.00  0.00     0.023 C 
BRANCH  24  25
ATOM     25  C   UNL A   1      41.447  20.525  26.350  1.00  0.00     0.116 C 
BRANCH  25  26
ATOM     26  N   UNL A   1      40.032  20.467  26.018  1.00  0.00    -0.352 N 
ATOM     27  C   UNL A   1      39.094  21.466  26.113  1.00  0.00     0.251 C 
ATOM     28  H   UNL A   1      39.704  19.601  25.682  1.00  0.00     0.163 HD
ATOM     29  O   UNL A   1      37.912  21.243  25.876  1.00  0.00    -0.269 OA
BRANCH  27  30
ATOM     30  C   UNL A   1      39.528  22.803  26.555  1.00  0.00     0.039 A 
ATOM     31  C   UNL A   1      40.400  22.901  27.640  1.00  0.00     0.014 A 
ATOM     32  C   UNL A   1      39.133  23.943  25.849  1.00  0.00     0.014 A 
ATOM     33  C   UNL A   1      40.937  24.143  27.977  1.00  0.00     0.010 A 
ATOM     34  C   UNL A   1      39.727  25.165  26.139  1.00  0.00     0.010 A 
ATOM     35  C   UNL A   1      40.634  25.276  27.203  1.00  0.00    -0.014 A 
BRANCH  35  36
ATOM     36  C   UNL A   1      41.255  26.591  27.494  1.00  0.00     0.031 A 
ATOM     37  C   UNL A   1      42.651  26.878  27.021  1.00  0.00     0.074 A 
ATOM     38  C   UNL A   1      40.589  27.490  28.244  1.00  0.00     0.049 A 
ATOM     39  N   UNL A   1      43.395  27.932  27.236  1.00  0.00    -0.248 NA
ATOM     40  C   UNL A   1      43.310  25.828  26.228  1.00  0.00     0.031 C 
ATOM     41  C   UNL A   1      39.248  27.303  28.804  1.00  0.00     0.029 A 
ATOM     42  N   UNL A   1      40.954  28.741  28.674  1.00  0.00    -0.354 N 
ATOM     43  C   UNL A   1      44.614  27.661  26.628  1.00  0.00     0.074 A 
ATOM     44  C   UNL A   1      44.528  26.328  26.075  1.00  0.00     0.031 C 
ATOM     45  C   UNL A   1      38.895  28.407  29.481  1.00  0.00     0.029 A 
ATOM     46  C   UNL A   1      39.995  29.365  29.435  1.00  0.00     0.049 A 
ATOM     47  H   UNL A   1      41.822  29.152  28.459  1.00  0.00     0.167 HD
ATOM     48  C   UNL A   1      45.699  28.463  26.523  1.00  0.00     0.037 A 
ATOM     49  C   UNL A   1      40.008  30.573  30.029  1.00  0.00     0.037 A 
ATOM     50  C   UNL A   1      45.761  29.807  27.032  1.00  0.00     0.049 A 
ATOM     51  C   UNL A   1      41.225  31.447  29.882  1.00  0.00     0.074 A 
ATOM     52  C   UNL A   1      46.779  30.734  26.897  1.00  0.00     0.029 A 
ATOM     53  N   UNL A   1      44.760  30.414  27.776  1.00  0.00    -0.354 N 
ATOM     54  N   UNL A   1      42.338  31.215  29.230  1.00  0.00    -0.248 NA
ATOM     55  C   UNL A   1      41.184  32.754  30.552  1.00  0.00     0.031 C 
ATOM     56  C   UNL A   1      46.414  31.888  27.595  1.00  0.00     0.029 A 
ATOM     57  C   UNL A   1      45.149  31.697  28.127  1.00  0.00     0.049 A 
ATOM     58  H   UNL A   1      43.903  29.997  28.018  1.00  0.00     0.167 HD
ATOM     59  C   UNL A   1      43.113  32.357  29.380  1.00  0.00     0.074 A 
ATOM     60  C   UNL A   1      42.338  33.286  30.177  1.00  0.00     0.031 C 
ATOM     61  C   UNL A   1      44.354  32.614  28.903  1.00  0.00     0.037 A 
BRANCH  48  62
ATOM     62  C   UNL A   1      46.908  27.916  25.824  1.00  0.00     0.064 A 
ATOM     63  C   UNL A   1      47.026  27.941  24.427  1.00  0.00     0.173 A 
ATOM     64  C   UNL A   1      47.985  27.407  26.566  1.00  0.00     0.173 A 
ATOM     65  F   UNL A   1      46.017  28.405  23.673  1.00  0.00    -0.203 F 
ATOM     66  C   UNL A   1      48.168  27.458  23.796  1.00  0.00     0.198 A 
ATOM     67  C   UNL A   1      49.138  26.951  25.933  1.00  0.00     0.198 A 
ATOM     68  F   UNL A   1      47.924  27.364  27.905  1.00  0.00    -0.203 F 
ATOM     69  F   UNL A   1      48.243  27.455  22.458  1.00  0.00    -0.200 F 
ATOM     70  C   UNL A   1      49.227  26.972  24.550  1.00  0.00     0.200 A 
ATOM     71  F   UNL A   1      50.165  26.493  26.663  1.00  0.00    -0.200 F 
ATOM     72  F   UNL A   1      50.333  26.520  23.941  1.00  0.00    -0.200 F 
ENDBRANCH  48  62
BRANCH  49  73
ATOM     73  C   UNL A   1      38.824  31.048  30.792  1.00  0.00     0.064 A 
ATOM     74  C   UNL A   1      37.816  31.791  30.161  1.00  0.00     0.173 A 
ATOM     75  C   UNL A   1      38.686  30.797  32.164  1.00  0.00     0.173 A 
ATOM     76  F   UNL A   1      37.914  32.074  28.854  1.00  0.00    -0.203 F 
ATOM     77  C   UNL A   1      36.732  32.290  30.879  1.00  0.00     0.198 A 
ATOM     78  C   UNL A   1      37.587  31.272  32.876  1.00  0.00     0.198 A 
ATOM     79  F   UNL A   1      39.620  30.087  32.815  1.00  0.00    -0.203 F 
ATOM     80  F   UNL A   1      35.812  33.043  30.261  1.00  0.00    -0.200 F 
ATOM     81  C   UNL A   1      36.616  32.027  32.235  1.00  0.00     0.200 A 
ATOM     82  F   UNL A   1      37.471  31.006  34.184  1.00  0.00    -0.200 F 
ATOM     83  F   UNL A   1      35.574  32.510  32.926  1.00  0.00    -0.200 F 
ENDBRANCH  49  73
BRANCH  61  84
ATOM     84  C   UNL A   1      44.934  33.967  29.187  1.00  0.00     0.064 A 
ATOM     85  C   UNL A   1      44.715  35.057  28.332  1.00  0.00     0.173 A 
ATOM     86  C   UNL A   1      45.684  34.186  30.353  1.00  0.00     0.173 A 
ATOM     87  F   UNL A   1      44.019  34.894  27.197  1.00  0.00    -0.203 F 
ATOM     88  C   UNL A   1      45.247  36.310  28.622  1.00  0.00     0.198 A 
ATOM     89  C   UNL A   1      46.188  35.447  30.655  1.00  0.00     0.198 A 
ATOM     90  F   UNL A   1      45.915  33.177  31.207  1.00  0.00    -0.203 F 
ATOM     91  F   UNL A   1      45.064  37.327  27.767  1.00  0.00    -0.200 F 
ATOM     92  C   UNL A   1      45.975  36.506  29.786  1.00  0.00     0.200 A 
ATOM     93  F   UNL A   1      46.879  35.638  31.787  1.00  0.00    -0.200 F 
ATOM     94  F   UNL A   1      46.478  37.716  30.067  1.00  0.00    -0.200 F 
ENDBRANCH  61  84
ENDBRANCH  35  36
ENDBRANCH  27  30
ENDBRANCH  25  26
ENDBRANCH  24  25
ENDBRANCH   1  24
TORSDOF 14
ENDMDL
MODEL 2
REMARK VINA RESULT:     -10.6      0.415      2.039
REMARK SMILES CC(C)Cc1ccc([C@@H]2CC[NH2+][C@H]2C(=O)NCCCCNC(=O)c2ccc(-c3c4nc(c(-c5c(F)c(F)c(F)c(F)c5F)c5ccc([nH]5)c(-c5c(F)c(F)c(F)c(F)c5F)c5nc(c(-c6c(F)c(F)c(F)c(F)c6F)c6ccc3[nH]6)C=C5)C=C4)cc2)cc1
REMARK SMILES IDX 18 1 17 2 16 3 14 4 15 5 13 7 9 8 10 9 11 10 12 11 8 14 5 15
REMARK SMILES IDX 6 16 88 17 7 18 87 19 4 20 2 21 1 22 3 23 19 24 20 25 21 26
REMARK SMILES IDX 22 27 23 29 24 30 25 31 86 32 26 33 85 34 27 35 28 36 29 37
REMARK SMILES IDX 79 38 30 39 84 40 78 41 80 42 31 43 83 44 77 45 76 46 32 48
REMARK SMILES IDX 64 49 44 50 63 51 45 52 48 53 62 54 81 55 46 56 47 57 61 59
REMARK SMILES IDX 82 60 49 61 33 62 34 63 42 64 35 65 36 66 40 67 43 68 37 69
REMARK SMILES IDX 38 70 41 71 39 72 65 73 66 74 74 75 67 76 68 77 72 78 75 79
REMARK SMILES IDX 69 80 70 81 73 82 71 83 50 84 51 85 59 86 52 87 53 88 57 89
REMARK SMILES IDX 60 90 54 91 55 92 58 93 56 94
REMARK H PARENT 16 6 12 12 12 13 21 28 80 47 48 58
REMARK Flexibility Score: inf
ROOT
ATOM      1  C   UNL A   1      42.863  18.490  26.992  1.00  0.00     0.023 C 
ENDROOT
BRANCH   1   2
ATOM      2  C   UNL A   1      43.355  18.600  25.552  1.00  0.00     0.116 C 
BRANCH   2   3
ATOM      3  N   UNL A   1      44.795  18.712  25.471  1.00  0.00    -0.351 N 
ATOM      4  C   UNL A   1      45.599  19.795  25.279  1.00  0.00     0.278 C 
ATOM      5  O   UNL A   1      46.813  19.578  25.205  1.00  0.00    -0.268 OA
ATOM      6  H   UNL A   1      45.276  17.858  25.571  1.00  0.00     0.163 HD
BRANCH   4   7
ATOM      7  C   UNL A   1      45.036  21.216  25.141  1.00  0.00     0.280 C 
ATOM      8  C   UNL A   1      46.026  22.317  25.570  1.00  0.00     0.093 C 
ATOM      9  C   UNL A   1      46.017  23.320  24.416  1.00  0.00     0.076 C 
ATOM     10  C   UNL A   1      44.810  22.952  23.570  1.00  0.00     0.262 C 
ATOM     11  N   UNL A   1      44.581  21.520  23.759  1.00  0.00    -0.335 N 
ATOM     12  H   UNL A   1      45.121  20.981  23.081  1.00  0.00     0.346 HD
ATOM     13  H   UNL A   1      43.600  21.275  23.625  1.00  0.00     0.346 HD
BRANCH   8  14
ATOM     14  C   UNL A   1      45.645  22.913  26.909  1.00  0.00    -0.038 A 
ATOM     15  C   UNL A   1      44.760  24.309  29.200  1.00  0.00    -0.048 A 
ATOM     16  C   UNL A   1      43.997  23.264  28.661  1.00  0.00     0.004 A 
ATOM     17  C   UNL A   1      45.983  24.616  28.597  1.00  0.00     0.004 A 
ATOM     18  C   UNL A   1      44.430  22.579  27.520  1.00  0.00     0.004 A 
ATOM     19  C   UNL A   1      46.441  23.901  27.497  1.00  0.00     0.004 A 
BRANCH  15  20
ATOM     20  C   UNL A   1      44.223  25.151  30.333  1.00  0.00     0.038 C 
BRANCH  20  21
ATOM     21  C   UNL A   1      44.791  24.854  31.738  1.00  0.00    -0.013 C 
ATOM     22  C   UNL A   1      44.546  25.975  32.752  1.00  0.00     0.008 C 
ATOM     23  C   UNL A   1      44.154  23.567  32.271  1.00  0.00     0.008 C 
ENDBRANCH  20  21
ENDBRANCH  15  20
ENDBRANCH   8  14
ENDBRANCH   4   7
ENDBRANCH   2   3
ENDBRANCH   1   2
BRANCH   1  24
ATOM     24  C   UNL A   1      41.902  19.594  27.424  1.00  0.00     0.023 C 
BRANCH  24  25
ATOM     25  C   UNL A   1      41.479  20.545  26.315  1.00  0.00     0.116 C 
BRANCH  25  26
ATOM     26  N   UNL A   1      40.058  20.480  26.009  1.00  0.00    -0.352 N 
ATOM     27  C   UNL A   1      39.115  21.472  26.127  1.00  0.00     0.251 C 
ATOM     28  H   UNL A   1      39.730  19.613  25.675  1.00  0.00     0.163 HD
ATOM     29  O   UNL A   1      37.930  21.241  25.910  1.00  0.00    -0.269 OA
BRANCH  27  30
ATOM     30  C   UNL A   1      39.548  22.809  26.569  1.00  0.00     0.039 A 
ATOM     31  C   UNL A   1      40.406  22.909  27.664  1.00  0.00     0.014 A 
ATOM     32  C   UNL A   1      39.165  23.947  25.853  1.00  0.00     0.014 A 
ATOM     33  C   UNL A   1      40.943  24.150  28.002  1.00  0.00     0.010 A 
ATOM     34  C   UNL A   1      39.759  25.169  26.144  1.00  0.00     0.010 A 
ATOM     35  C   UNL A   1      40.653  25.282  27.220  1.00  0.00    -0.014 A 
BRANCH  35  36
ATOM     36  C   UNL A   1      41.274  26.596  27.512  1.00  0.00     0.031 A 
ATOM     37  C   UNL A   1      42.667  26.886  27.032  1.00  0.00     0.074 A 
ATOM     38  C   UNL A   1      40.612  27.491  28.270  1.00  0.00     0.049 A 
ATOM     39  N   UNL A   1      43.412  27.940  27.247  1.00  0.00    -0.248 NA
ATOM     40  C   UNL A   1      43.323  25.840  26.231  1.00  0.00     0.031 C 
ATOM     41  C   UNL A   1      39.275  27.299  28.838  1.00  0.00     0.029 A 
ATOM     42  N   UNL A   1      40.979  28.740  28.704  1.00  0.00    -0.354 N 
ATOM     43  C   UNL A   1      44.627  27.673  26.631  1.00  0.00     0.074 A 
ATOM     44  C   UNL A   1      44.539  26.342  26.072  1.00  0.00     0.031 C 
ATOM     45  C   UNL A   1      38.925  28.401  29.522  1.00  0.00     0.029 A 
ATOM     46  C   UNL A   1      40.024  29.360  29.473  1.00  0.00     0.049 A 
ATOM     47  H   UNL A   1      41.845  29.153  28.486  1.00  0.00     0.167 HD
ATOM     48  C   UNL A   1      45.711  28.477  26.523  1.00  0.00     0.037 A 
ATOM     49  C   UNL A   1      40.039  30.565  30.073  1.00  0.00     0.037 A 
ATOM     50  C   UNL A   1      45.775  29.819  27.037  1.00  0.00     0.049 A 
ATOM     51  C   UNL A   1      41.254  31.441  29.923  1.00  0.00     0.074 A 
ATOM     52  C   UNL A   1      46.791  30.747  26.899  1.00  0.00     0.029 A 
ATOM     53  N   UNL A   1      44.778  30.422  27.790  1.00  0.00    -0.354 N 
ATOM     54  N   UNL A   1      42.363  31.213  29.263  1.00  0.00    -0.248 NA
ATOM     55  C   UNL A   1      41.216  32.745  30.599  1.00  0.00     0.031 C 
ATOM     56  C   UNL A   1      46.429  31.898  27.605  1.00  0.00     0.029 A 
ATOM     57  C   UNL A   1      45.167  31.703  28.144  1.00  0.00     0.049 A 
ATOM     58  H   UNL A   1      43.922  30.002  28.035  1.00  0.00     0.167 HD
ATOM     59  C   UNL A   1      43.138  32.355  29.413  1.00  0.00     0.074 A 
ATOM     60  C   UNL A   1      42.367  33.280  30.218  1.00  0.00     0.031 C 
ATOM     61  C   UNL A   1      44.377  32.615  28.929  1.00  0.00     0.037 A 
BRANCH  48  62
ATOM     62  C   UNL A   1      46.916  27.934  25.814  1.00  0.00     0.064 A 
ATOM     63  C   UNL A   1      47.960  27.308  26.510  1.00  0.00     0.173 A 
ATOM     64  C   UNL A   1      47.001  27.995  24.415  1.00  0.00     0.173 A 
ATOM     65  F   UNL A   1      47.931  27.236  27.850  1.00  0.00    -0.203 F 
ATOM     66  C   UNL A   1      49.056  26.780  25.834  1.00  0.00     0.198 A 
ATOM     67  C   UNL A   1      48.085  27.441  23.739  1.00  0.00     0.198 A 
ATOM     68  F   UNL A   1      46.028  28.580  23.702  1.00  0.00    -0.203 F 
ATOM     69  F   UNL A   1      50.061  26.222  26.522  1.00  0.00    -0.200 F 
ATOM     70  C   UNL A   1      49.114  26.839  24.448  1.00  0.00     0.200 A 
ATOM     71  F   UNL A   1      48.135  27.488  22.401  1.00  0.00    -0.200 F 
ATOM     72  F   UNL A   1      50.164  26.319  23.798  1.00  0.00    -0.200 F 
ENDBRANCH  48  62
BRANCH  49  73
ATOM     73  C   UNL A   1      38.860  31.035  30.846  1.00  0.00     0.064 A 
ATOM     74  C   UNL A   1      38.780  30.825  32.230  1.00  0.00     0.173 A 
ATOM     75  C   UNL A   1      37.780  31.676  30.221  1.00  0.00     0.173 A 
ATOM     76  F   UNL A   1      39.779  30.198  32.869  1.00  0.00    -0.203 F 
ATOM     77  C   UNL A   1      37.654  31.209  32.954  1.00  0.00     0.198 A 
ATOM     78  C   UNL A   1      36.667  32.086  30.951  1.00  0.00     0.198 A 
ATOM     79  F   UNL A   1      37.809  31.906  28.900  1.00  0.00    -0.203 F 
ATOM     80  F   UNL A   1      37.583  30.945  34.266  1.00  0.00    -0.200 F 
ATOM     81  C   UNL A   1      36.600  31.843  32.315  1.00  0.00     0.200 A 
ATOM     82  F   UNL A   1      35.655  32.709  30.333  1.00  0.00    -0.200 F 
ATOM     83  F   UNL A   1      35.515  32.209  33.012  1.00  0.00    -0.200 F 
ENDBRANCH  49  73
BRANCH  61  84
ATOM     84  C   UNL A   1      44.957  33.968  29.216  1.00  0.00     0.064 A 
ATOM     85  C   UNL A   1      45.801  34.190  30.314  1.00  0.00     0.173 A 
ATOM     86  C   UNL A   1      44.698  35.047  28.356  1.00  0.00     0.173 A 
ATOM     87  F   UNL A   1      46.065  33.195  31.173  1.00  0.00    -0.203 F 
ATOM     88  C   UNL A   1      46.345  35.449  30.553  1.00  0.00     0.198 A 
ATOM     89  C   UNL A   1      45.267  36.296  28.582  1.00  0.00     0.198 A 
ATOM     90  F   UNL A   1      43.902  34.883  27.288  1.00  0.00    -0.203 F 
ATOM     91  F   UNL A   1      47.111  35.649  31.634  1.00  0.00    -0.200 F 
ATOM     92  C   UNL A   1      46.084  36.497  29.684  1.00  0.00     0.200 A 
ATOM     93  F   UNL A   1      45.026  37.304  27.733  1.00  0.00    -0.200 F 
ATOM     94  F   UNL A   1      46.616  37.706  29.912  1.00  0.00    -0.200 F 
ENDBRANCH  61  84
ENDBRANCH  35  36
ENDBRANCH  27  30
ENDBRANCH  25  26
ENDBRANCH  24  25
ENDBRANCH   1  24
TORSDOF 14
ENDMDL
MODEL 3
REMARK VINA RESULT:     -10.5      6.518     11.334
REMARK SMILES CC(C)Cc1ccc([C@@H]2CC[NH2+][C@H]2C(=O)NCCCCNC(=O)c2ccc(-c3c4nc(c(-c5c(F)c(F)c(F)c(F)c5F)c5ccc([nH]5)c(-c5c(F)c(F)c(F)c(F)c5F)c5nc(c(-c6c(F)c(F)c(F)c(F)c6F)c6ccc3[nH]6)C=C5)C=C4)cc2)cc1
REMARK SMILES IDX 18 1 17 2 16 3 14 4 15 5 13 7 9 8 10 9 11 10 12 11 8 14 5 15
REMARK SMILES IDX 6 16 88 17 7 18 87 19 4 20 2 21 1 22 3 23 19 24 20 25 21 26
REMARK SMILES IDX 22 27 23 29 24 30 25 31 86 32 26 33 85 34 27 35 28 36 29 37
REMARK SMILES IDX 79 38 30 39 84 40 78 41 80 42 31 43 83 44 77 45 76 46 32 48
REMARK SMILES IDX 64 49 44 50 63 51 45 52 48 53 62 54 81 55 46 56 47 57 61 59
REMARK SMILES IDX 82 60 49 61 33 62 34 63 42 64 35 65 36 66 40 67 43 68 37 69
REMARK SMILES IDX 38 70 41 71 39 72 65 73 66 74 74 75 67 76 68 77 72 78 75 79
REMARK SMILES IDX 69 80 70 81 73 82 71 83 50 84 51 85 59 86 52 87 53 88 57 89
REMARK SMILES IDX 60 90 54 91 55 92 58 93 56 94
REMARK H PARENT 16 6 12 12 12 13 21 28 80 47 48 58
REMARK Flexibility Score: inf
ROOT
ATOM      1  C   UNL A   1      32.020  30.456  26.199  1.00  0.00     0.023 C 
ENDROOT
BRANCH   1   2
ATOM      2  C   UNL A   1      32.593  29.487  27.228  1.00  0.00     0.116 C 
BRANCH   2   3
ATOM      3  N   UNL A   1      33.417  28.464  26.621  1.00  0.00    -0.351 N 
ATOM      4  C   UNL A   1      33.086  27.281  26.032  1.00  0.00     0.278 C 
ATOM      5  O   UNL A   1      34.021  26.578  25.638  1.00  0.00    -0.268 OA
ATOM      6  H   UNL A   1      34.382  28.657  26.637  1.00  0.00     0.163 HD
BRANCH   4   7
ATOM      7  C   UNL A   1      31.628  26.825  25.879  1.00  0.00     0.280 C 
ATOM      8  C   UNL A   1      31.276  26.353  24.455  1.00  0.00     0.093 C 
ATOM      9  C   UNL A   1      30.587  25.002  24.651  1.00  0.00     0.076 C 
ATOM     10  C   UNL A   1      30.267  24.923  26.134  1.00  0.00     0.262 C 
ATOM     11  N   UNL A   1      31.265  25.739  26.826  1.00  0.00    -0.335 N 
ATOM     12  H   UNL A   1      32.086  25.177  27.054  1.00  0.00     0.346 HD
ATOM     13  H   UNL A   1      30.903  26.112  27.703  1.00  0.00     0.346 HD
BRANCH   8  14
ATOM     14  C   UNL A   1      30.430  27.376  23.725  1.00  0.00    -0.038 A 
ATOM     15  C   UNL A   1      28.786  29.439  22.717  1.00  0.00    -0.048 A 
ATOM     16  C   UNL A   1      30.177  29.598  22.773  1.00  0.00     0.004 A 
ATOM     17  C   UNL A   1      28.240  28.223  23.137  1.00  0.00     0.004 A 
ATOM     18  C   UNL A   1      30.992  28.580  23.282  1.00  0.00     0.004 A 
ATOM     19  C   UNL A   1      29.051  27.190  23.591  1.00  0.00     0.004 A 
BRANCH  15  20
ATOM     20  C   UNL A   1      27.894  30.590  22.316  1.00  0.00     0.038 C 
BRANCH  20  21
ATOM     21  C   UNL A   1      28.590  31.799  21.653  1.00  0.00    -0.013 C 
ATOM     22  C   UNL A   1      27.879  32.308  20.396  1.00  0.00     0.008 C 
ATOM     23  C   UNL A   1      28.667  32.946  22.666  1.00  0.00     0.008 C 
ENDBRANCH  20  21
ENDBRANCH  15  20
ENDBRANCH   8  14
ENDBRANCH   4   7
ENDBRANCH   2   3
ENDBRANCH   1   2
BRANCH   1  24
ATOM     24  C   UNL A   1      31.602  31.811  26.763  1.00  0.00     0.023 C 
BRANCH  24  25
ATOM     25  C   UNL A   1      32.736  32.637  27.353  1.00  0.00     0.116 C 
BRANCH  25  26
ATOM     26  N   UNL A   1      32.368  34.020  27.616  1.00  0.00    -0.352 N 
ATOM     27  C   UNL A   1      32.940  34.898  28.503  1.00  0.00     0.251 C 
ATOM     28  H   UNL A   1      31.611  34.370  27.093  1.00  0.00     0.163 HD
ATOM     29  O   UNL A   1      32.463  36.014  28.678  1.00  0.00    -0.269 OA
BRANCH  27  30
ATOM     30  C   UNL A   1      34.113  34.457  29.279  1.00  0.00     0.039 A 
ATOM     31  C   UNL A   1      33.907  33.845  30.516  1.00  0.00     0.014 A 
ATOM     32  C   UNL A   1      35.399  34.580  28.746  1.00  0.00     0.014 A 
ATOM     33  C   UNL A   1      34.992  33.288  31.192  1.00  0.00     0.010 A 
ATOM     34  C   UNL A   1      36.465  33.960  29.385  1.00  0.00     0.010 A 
ATOM     35  C   UNL A   1      36.272  33.308  30.613  1.00  0.00    -0.014 A 
BRANCH  35  36
ATOM     36  C   UNL A   1      37.424  32.653  31.276  1.00  0.00     0.031 A 
ATOM     37  C   UNL A   1      38.129  31.515  30.597  1.00  0.00     0.074 A 
ATOM     38  C   UNL A   1      37.784  33.036  32.517  1.00  0.00     0.049 A 
ATOM     39  N   UNL A   1      39.104  30.764  31.040  1.00  0.00    -0.248 NA
ATOM     40  C   UNL A   1      37.653  31.149  29.253  1.00  0.00     0.031 C 
ATOM     41  C   UNL A   1      37.140  34.095  33.299  1.00  0.00     0.029 A 
ATOM     42  N   UNL A   1      38.775  32.571  33.344  1.00  0.00    -0.354 N 
ATOM     43  C   UNL A   1      39.340  29.827  30.043  1.00  0.00     0.074 A 
ATOM     44  C   UNL A   1      38.378  30.072  28.992  1.00  0.00     0.031 C 
ATOM     45  C   UNL A   1      37.768  34.215  34.479  1.00  0.00     0.029 A 
ATOM     46  C   UNL A   1      38.833  33.220  34.554  1.00  0.00     0.049 A 
ATOM     47  H   UNL A   1      39.385  31.841  33.095  1.00  0.00     0.167 HD
ATOM     48  C   UNL A   1      40.290  28.863  30.002  1.00  0.00     0.037 A 
ATOM     49  C   UNL A   1      39.654  33.027  35.604  1.00  0.00     0.037 A 
ATOM     50  C   UNL A   1      41.276  28.657  31.028  1.00  0.00     0.049 A 
ATOM     51  C   UNL A   1      40.708  31.956  35.521  1.00  0.00     0.074 A 
ATOM     52  C   UNL A   1      42.337  27.770  31.038  1.00  0.00     0.029 A 
ATOM     53  N   UNL A   1      41.319  29.350  32.229  1.00  0.00    -0.354 N 
ATOM     54  N   UNL A   1      40.978  31.134  34.537  1.00  0.00    -0.248 NA
ATOM     55  C   UNL A   1      41.575  31.790  36.696  1.00  0.00     0.031 C 
ATOM     56  C   UNL A   1      42.998  27.894  32.264  1.00  0.00     0.029 A 
ATOM     57  C   UNL A   1      42.377  28.892  32.998  1.00  0.00     0.049 A 
ATOM     58  H   UNL A   1      40.693  30.061  32.494  1.00  0.00     0.167 HD
ATOM     59  C   UNL A   1      42.065  30.380  34.958  1.00  0.00     0.074 A 
ATOM     60  C   UNL A   1      42.412  30.849  36.283  1.00  0.00     0.031 C 
ATOM     61  C   UNL A   1      42.717  29.387  34.306  1.00  0.00     0.037 A 
BRANCH  48  62
ATOM     62  C   UNL A   1      40.317  27.961  28.804  1.00  0.00     0.064 A 
ATOM     63  C   UNL A   1      41.045  28.288  27.651  1.00  0.00     0.173 A 
ATOM     64  C   UNL A   1      39.648  26.728  28.831  1.00  0.00     0.173 A 
ATOM     65  F   UNL A   1      41.691  29.462  27.571  1.00  0.00    -0.203 F 
ATOM     66  C   UNL A   1      41.087  27.424  26.560  1.00  0.00     0.198 A 
ATOM     67  C   UNL A   1      39.715  25.853  27.750  1.00  0.00     0.198 A 
ATOM     68  F   UNL A   1      38.940  26.366  29.911  1.00  0.00    -0.203 F 
ATOM     69  F   UNL A   1      41.756  27.775  25.454  1.00  0.00    -0.200 F 
ATOM     70  C   UNL A   1      40.429  26.204  26.614  1.00  0.00     0.200 A 
ATOM     71  F   UNL A   1      39.088  24.670  27.807  1.00  0.00    -0.200 F 
ATOM     72  F   UNL A   1      40.480  25.367  25.568  1.00  0.00    -0.200 F 
ENDBRANCH  48  62
BRANCH  49  73
ATOM     73  C   UNL A   1      39.539  33.882  36.814  1.00  0.00     0.064 A 
ATOM     74  C   UNL A   1      38.767  33.471  37.911  1.00  0.00     0.173 A 
ATOM     75  C   UNL A   1      40.169  35.132  36.893  1.00  0.00     0.173 A 
ATOM     76  F   UNL A   1      38.129  32.292  37.874  1.00  0.00    -0.203 F 
ATOM     77  C   UNL A   1      38.605  34.290  39.026  1.00  0.00     0.198 A 
ATOM     78  C   UNL A   1      40.030  35.938  38.021  1.00  0.00     0.198 A 
ATOM     79  F   UNL A   1      40.923  35.570  35.874  1.00  0.00    -0.203 F 
ATOM     80  F   UNL A   1      37.818  33.895  40.035  1.00  0.00    -0.200 F 
ATOM     81  C   UNL A   1      39.240  35.521  39.082  1.00  0.00     0.200 A 
ATOM     82  F   UNL A   1      40.654  37.123  38.077  1.00  0.00    -0.200 F 
ATOM     83  F   UNL A   1      39.081  36.310  40.153  1.00  0.00    -0.200 F 
ENDBRANCH  49  73
BRANCH  61  84
ATOM     84  C   UNL A   1      43.900  28.773  34.995  1.00  0.00     0.064 A 
ATOM     85  C   UNL A   1      45.190  29.307  34.860  1.00  0.00     0.173 A 
ATOM     86  C   UNL A   1      43.732  27.661  35.834  1.00  0.00     0.173 A 
ATOM     87  F   UNL A   1      45.404  30.359  34.056  1.00  0.00    -0.203 F 
ATOM     88  C   UNL A   1      46.272  28.735  35.522  1.00  0.00     0.198 A 
ATOM     89  C   UNL A   1      44.811  27.110  36.517  1.00  0.00     0.198 A 
ATOM     90  F   UNL A   1      42.517  27.118  36.002  1.00  0.00    -0.203 F 
ATOM     91  F   UNL A   1      47.504  29.233  35.342  1.00  0.00    -0.200 F 
ATOM     92  C   UNL A   1      46.081  27.643  36.356  1.00  0.00     0.200 A 
ATOM     93  F   UNL A   1      44.623  26.065  37.334  1.00  0.00    -0.200 F 
ATOM     94  F   UNL A   1      47.124  27.100  36.998  1.00  0.00    -0.200 F 
ENDBRANCH  61  84
ENDBRANCH  35  36
ENDBRANCH  27  30
ENDBRANCH  25  26
ENDBRANCH  24  25
ENDBRANCH   1  24
TORSDOF 14
ENDMDL
