MODEL 1
REMARK VINA RESULT:     -13.5      0.000      0.000
REMARK SMILES O=C(Cn1c(O)c(/N=N/C(=O)c2ccc(Cl)cc2Cl)c2ccccc21)NCCCCNC(=O)c1ccc(-c2c3nc(c(-c4c(F)c(F)c(F)c(F)c4F)c4ccc([nH]4)c(-c4c(F)c(F)c(F)c(F)c4F)c4nc(c(-c5c(F)c(F)c(F)c(F)c5F)c5ccc2[nH]5)C=C4)C=C3)cc1
REMARK SMILES IDX 27 1 26 2 1 3 2 4 3 6 4 7 5 8 25 9 7 10 20 11 24 12 21 13
REMARK SMILES IDX 23 14 22 15 6 16 8 18 9 19 10 20 11 21 12 22 13 23 18 24
REMARK SMILES IDX 14 25 17 26 19 27 15 28 16 29 28 30 29 31 30 32 31 33 32 34
REMARK SMILES IDX 33 36 34 37 35 38 96 39 36 40 95 41 37 42 38 43 39 44 89 45
REMARK SMILES IDX 40 46 94 47 88 48 90 49 41 50 93 51 87 52 86 53 42 55 74 56
REMARK SMILES IDX 54 57 73 58 55 59 58 60 72 61 91 62 56 63 57 64 71 66 92 67
REMARK SMILES IDX 59 68 43 69 44 70 52 71 45 72 46 73 50 74 53 75 47 76 48 77
REMARK SMILES IDX 51 78 49 79 75 80 76 81 84 82 77 83 78 84 82 85 85 86 79 87
REMARK SMILES IDX 80 88 83 89 81 90 60 91 61 92 69 93 62 94 63 95 67 96 70 97
REMARK SMILES IDX 64 98 65 99 68 100 66 101
REMARK H PARENT 26 5 6 17 31 35 90 54 58 65
REMARK Flexibility Score: inf
ROOT
ATOM      1  C   UNL A   1      40.382  20.343  26.370  1.00  0.00     0.116 C 
ENDROOT
BRANCH   1   2
ATOM      2  N   UNL A   1      39.124  20.148  25.669  1.00  0.00    -0.355 N 
ATOM      3  O   UNL A   1      38.453  22.341  25.794  1.00  0.00    -0.273 OA
ATOM      4  C   UNL A   1      38.264  21.193  25.397  1.00  0.00     0.240 C 
ATOM      5  H   UNL A   1      38.878  19.240  25.377  1.00  0.00     0.163 HD
BRANCH   4   6
ATOM      6  C   UNL A   1      36.995  20.828  24.652  1.00  0.00     0.225 C 
BRANCH   6   7
ATOM      7  N   UNL A   1      36.043  21.926  24.538  1.00  0.00    -0.301 N 
ATOM      8  C   UNL A   1      35.959  22.833  23.497  1.00  0.00     0.221 A 
ATOM      9  C   UNL A   1      35.078  22.205  25.496  1.00  0.00     0.054 A 
ATOM     10  C   UNL A   1      34.929  23.703  23.808  1.00  0.00     0.155 A 
ATOM     11  C   UNL A   1      34.370  23.326  25.057  1.00  0.00     0.031 A 
ATOM     12  C   UNL A   1      34.777  21.573  26.717  1.00  0.00     0.027 A 
ATOM     13  C   UNL A   1      33.324  23.832  25.859  1.00  0.00     0.013 A 
ATOM     14  C   UNL A   1      33.745  22.101  27.498  1.00  0.00     0.002 A 
ATOM     15  C   UNL A   1      33.026  23.215  27.077  1.00  0.00     0.001 A 
BRANCH   8  16
ATOM     16  O   UNL A   1      36.778  22.822  22.444  1.00  0.00    -0.493 OA
ATOM     17  H   UNL A   1      36.831  23.571  21.885  1.00  0.00     0.295 HD
ENDBRANCH   8  16
BRANCH  10  18
ATOM     18  N   UNL A   1      34.440  24.800  23.078  1.00  0.00    -0.141 NA
ATOM     19  N   UNL A   1      33.534  24.515  22.272  1.00  0.00    -0.106 NA
BRANCH  19  20
ATOM     20  C   UNL A   1      33.067  25.622  21.592  1.00  0.00     0.296 C 
ATOM     21  O   UNL A   1      33.061  25.796  20.381  1.00  0.00    -0.265 OA
BRANCH  20  22
ATOM     22  C   UNL A   1      32.589  26.708  22.491  1.00  0.00     0.062 A 
ATOM     23  C   UNL A   1      33.331  27.903  22.548  1.00  0.00     0.017 A 
ATOM     24  C   UNL A   1      31.431  26.576  23.269  1.00  0.00     0.055 A 
ATOM     25  C   UNL A   1      32.917  28.950  23.374  1.00  0.00     0.021 A 
ATOM     26  C   UNL A   1      31.023  27.631  24.096  1.00  0.00     0.041 A 
ATOM     27  Cl  UNL A   1      30.494  25.127  23.330  1.00  0.00    -0.083 Cl
ATOM     28  C   UNL A   1      31.766  28.809  24.145  1.00  0.00     0.042 A 
ATOM     29  Cl  UNL A   1      31.266  30.092  25.174  1.00  0.00    -0.084 Cl
ENDBRANCH  20  22
ENDBRANCH  19  20
ENDBRANCH  10  18
ENDBRANCH   6   7
ENDBRANCH   4   6
ENDBRANCH   1   2
BRANCH   1  30
ATOM     30  C   UNL A   1      41.468  19.359  25.932  1.00  0.00     0.023 C 
BRANCH  30  31
ATOM     31  C   UNL A   1      42.589  19.093  26.950  1.00  0.00     0.023 C 
BRANCH  31  32
ATOM     32  C   UNL A   1      43.813  18.347  26.413  1.00  0.00     0.116 C 
BRANCH  32  33
ATOM     33  N   UNL A   1      44.237  18.787  25.099  1.00  0.00    -0.352 N 
ATOM     34  C   UNL A   1      44.681  19.956  24.546  1.00  0.00     0.251 C 
ATOM     35  H   UNL A   1      44.195  18.060  24.437  1.00  0.00     0.163 HD
ATOM     36  O   UNL A   1      45.175  19.845  23.418  1.00  0.00    -0.269 OA
BRANCH  34  37
ATOM     37  C   UNL A   1      44.568  21.324  25.128  1.00  0.00     0.039 A 
ATOM     38  C   UNL A   1      45.382  21.872  26.116  1.00  0.00     0.014 A 
ATOM     39  C   UNL A   1      43.464  22.084  24.681  1.00  0.00     0.014 A 
ATOM     40  C   UNL A   1      45.042  23.101  26.697  1.00  0.00     0.010 A 
ATOM     41  C   UNL A   1      43.125  23.308  25.256  1.00  0.00     0.010 A 
ATOM     42  C   UNL A   1      43.884  23.799  26.306  1.00  0.00    -0.014 A 
BRANCH  42  43
ATOM     43  C   UNL A   1      43.578  25.083  26.953  1.00  0.00     0.031 A 
ATOM     44  C   UNL A   1      44.576  26.155  26.667  1.00  0.00     0.074 A 
ATOM     45  C   UNL A   1      42.486  25.364  27.702  1.00  0.00     0.049 A 
ATOM     46  N   UNL A   1      45.414  26.683  27.498  1.00  0.00    -0.248 NA
ATOM     47  C   UNL A   1      44.751  26.597  25.277  1.00  0.00     0.031 C 
ATOM     48  C   UNL A   1      41.275  24.563  27.894  1.00  0.00     0.029 A 
ATOM     49  N   UNL A   1      42.213  26.492  28.434  1.00  0.00    -0.354 N 
ATOM     50  C   UNL A   1      46.124  27.641  26.779  1.00  0.00     0.074 A 
ATOM     51  C   UNL A   1      45.761  27.463  25.397  1.00  0.00     0.031 C 
ATOM     52  C   UNL A   1      40.324  25.308  28.510  1.00  0.00     0.029 A 
ATOM     53  C   UNL A   1      40.903  26.583  28.901  1.00  0.00     0.049 A 
ATOM     54  H   UNL A   1      42.890  27.182  28.617  1.00  0.00     0.167 HD
ATOM     55  C   UNL A   1      46.807  28.632  27.417  1.00  0.00     0.037 A 
ATOM     56  C   UNL A   1      40.331  27.628  29.557  1.00  0.00     0.037 A 
ATOM     57  C   UNL A   1      47.032  28.301  28.799  1.00  0.00     0.049 A 
ATOM     58  C   UNL A   1      41.426  28.419  30.163  1.00  0.00     0.074 A 
ATOM     59  C   UNL A   1      47.734  27.319  29.469  1.00  0.00     0.029 A 
ATOM     60  N   UNL A   1      46.186  28.855  29.724  1.00  0.00    -0.354 N 
ATOM     61  N   UNL A   1      42.173  28.000  31.144  1.00  0.00    -0.248 NA
ATOM     62  C   UNL A   1      41.961  29.527  29.391  1.00  0.00     0.031 C 
ATOM     63  C   UNL A   1      46.943  27.018  30.617  1.00  0.00     0.029 A 
ATOM     64  C   UNL A   1      45.841  27.874  30.613  1.00  0.00     0.049 A 
ATOM     65  H   UNL A   1      45.882  29.791  29.745  1.00  0.00     0.167 HD
ATOM     66  C   UNL A   1      43.437  28.470  30.837  1.00  0.00     0.074 A 
ATOM     67  C   UNL A   1      43.230  29.480  29.801  1.00  0.00     0.031 C 
ATOM     68  C   UNL A   1      44.549  27.799  31.252  1.00  0.00     0.037 A 
BRANCH  55  69
ATOM     69  C   UNL A   1      46.937  30.050  26.915  1.00  0.00     0.064 A 
ATOM     70  C   UNL A   1      48.188  30.698  27.002  1.00  0.00     0.173 A 
ATOM     71  C   UNL A   1      45.832  30.893  26.675  1.00  0.00     0.173 A 
ATOM     72  F   UNL A   1      49.306  29.997  27.245  1.00  0.00    -0.203 F 
ATOM     73  C   UNL A   1      48.306  32.089  26.946  1.00  0.00     0.198 A 
ATOM     74  C   UNL A   1      45.960  32.277  26.571  1.00  0.00     0.198 A 
ATOM     75  F   UNL A   1      44.577  30.430  26.650  1.00  0.00    -0.203 F 
ATOM     76  F   UNL A   1      49.494  32.666  27.170  1.00  0.00    -0.200 F 
ATOM     77  C   UNL A   1      47.190  32.878  26.740  1.00  0.00     0.200 A 
ATOM     78  F   UNL A   1      44.864  33.028  26.393  1.00  0.00    -0.200 F 
ATOM     79  F   UNL A   1      47.287  34.214  26.756  1.00  0.00    -0.200 F 
ENDBRANCH  55  69
BRANCH  56  80
ATOM     80  C   UNL A   1      38.957  28.187  29.441  1.00  0.00     0.064 A 
ATOM     81  C   UNL A   1      38.164  28.425  30.580  1.00  0.00     0.173 A 
ATOM     82  C   UNL A   1      38.529  28.800  28.249  1.00  0.00     0.173 A 
ATOM     83  F   UNL A   1      38.523  27.923  31.770  1.00  0.00    -0.203 F 
ATOM     84  C   UNL A   1      37.035  29.254  30.535  1.00  0.00     0.198 A 
ATOM     85  C   UNL A   1      37.402  29.624  28.204  1.00  0.00     0.198 A 
ATOM     86  F   UNL A   1      39.257  28.694  27.128  1.00  0.00    -0.203 F 
ATOM     87  F   UNL A   1      36.348  29.514  31.656  1.00  0.00    -0.200 F 
ATOM     88  C   UNL A   1      36.664  29.865  29.348  1.00  0.00     0.200 A 
ATOM     89  F   UNL A   1      37.078  30.244  27.060  1.00  0.00    -0.200 F 
ATOM     90  F   UNL A   1      35.628  30.715  29.318  1.00  0.00    -0.200 F 
ENDBRANCH  56  80
BRANCH  68  91
ATOM     91  C   UNL A   1      44.385  26.732  32.296  1.00  0.00     0.064 A 
ATOM     92  C   UNL A   1      44.238  25.363  32.012  1.00  0.00     0.173 A 
ATOM     93  C   UNL A   1      44.575  27.101  33.635  1.00  0.00     0.173 A 
ATOM     94  F   UNL A   1      44.133  24.925  30.752  1.00  0.00    -0.203 F 
ATOM     95  C   UNL A   1      44.271  24.412  33.033  1.00  0.00     0.198 A 
ATOM     96  C   UNL A   1      44.644  26.148  34.644  1.00  0.00     0.198 A 
ATOM     97  F   UNL A   1      44.763  28.391  33.955  1.00  0.00    -0.203 F 
ATOM     98  F   UNL A   1      44.141  23.109  32.742  1.00  0.00    -0.200 F 
ATOM     99  C   UNL A   1      44.490  24.804  34.344  1.00  0.00     0.200 A 
ATOM    100  F   UNL A   1      44.905  26.528  35.903  1.00  0.00    -0.200 F 
ATOM    101  F   UNL A   1      44.586  23.884  35.315  1.00  0.00    -0.200 F 
ENDBRANCH  68  91
ENDBRANCH  42  43
ENDBRANCH  34  37
ENDBRANCH  32  33
ENDBRANCH  31  32
ENDBRANCH  30  31
ENDBRANCH   1  30
TORSDOF 16
ENDMDL
MODEL 2
REMARK VINA RESULT:     -13.0      4.465     10.113
REMARK SMILES O=C(Cn1c(O)c(/N=N/C(=O)c2ccc(Cl)cc2Cl)c2ccccc21)NCCCCNC(=O)c1ccc(-c2c3nc(c(-c4c(F)c(F)c(F)c(F)c4F)c4ccc([nH]4)c(-c4c(F)c(F)c(F)c(F)c4F)c4nc(c(-c5c(F)c(F)c(F)c(F)c5F)c5ccc2[nH]5)C=C4)C=C3)cc1
REMARK SMILES IDX 27 1 26 2 1 3 2 4 3 6 4 7 5 8 25 9 7 10 20 11 24 12 21 13
REMARK SMILES IDX 23 14 22 15 6 16 8 18 9 19 10 20 11 21 12 22 13 23 18 24
REMARK SMILES IDX 14 25 17 26 19 27 15 28 16 29 28 30 29 31 30 32 31 33 32 34
REMARK SMILES IDX 33 36 34 37 35 38 96 39 36 40 95 41 37 42 38 43 39 44 89 45
REMARK SMILES IDX 40 46 94 47 88 48 90 49 41 50 93 51 87 52 86 53 42 55 74 56
REMARK SMILES IDX 54 57 73 58 55 59 58 60 72 61 91 62 56 63 57 64 71 66 92 67
REMARK SMILES IDX 59 68 43 69 44 70 52 71 45 72 46 73 50 74 53 75 47 76 48 77
REMARK SMILES IDX 51 78 49 79 75 80 76 81 84 82 77 83 78 84 82 85 85 86 79 87
REMARK SMILES IDX 80 88 83 89 81 90 60 91 61 92 69 93 62 94 63 95 67 96 70 97
REMARK SMILES IDX 64 98 65 99 68 100 66 101
REMARK H PARENT 26 5 6 17 31 35 90 54 58 65
REMARK Flexibility Score: inf
ROOT
ATOM      1  C   UNL A   1      34.671  32.572  27.953  1.00  0.00     0.116 C 
ENDROOT
BRANCH   1   2
ATOM      2  N   UNL A   1      33.369  32.053  27.568  1.00  0.00    -0.355 N 
ATOM      3  O   UNL A   1      34.123  29.961  26.991  1.00  0.00    -0.273 OA
ATOM      4  C   UNL A   1      33.193  30.750  27.148  1.00  0.00     0.240 C 
ATOM      5  H   UNL A   1      32.588  32.651  27.609  1.00  0.00     0.163 HD
BRANCH   4   6
ATOM      6  C   UNL A   1      31.773  30.358  26.787  1.00  0.00     0.225 C 
BRANCH   6   7
ATOM      7  N   UNL A   1      31.641  28.981  26.329  1.00  0.00    -0.301 N 
ATOM      8  C   UNL A   1      31.739  27.845  27.112  1.00  0.00     0.221 A 
ATOM      9  C   UNL A   1      31.399  28.633  25.007  1.00  0.00     0.054 A 
ATOM     10  C   UNL A   1      31.563  26.763  26.268  1.00  0.00     0.155 A 
ATOM     11  C   UNL A   1      31.353  27.239  24.947  1.00  0.00     0.031 A 
ATOM     12  C   UNL A   1      31.228  29.428  23.859  1.00  0.00     0.027 A 
ATOM     13  C   UNL A   1      31.125  26.614  23.701  1.00  0.00     0.013 A 
ATOM     14  C   UNL A   1      31.017  28.786  22.636  1.00  0.00     0.002 A 
ATOM     15  C   UNL A   1      30.964  27.398  22.555  1.00  0.00     0.001 A 
BRANCH   8  16
ATOM     16  O   UNL A   1      31.991  27.873  28.422  1.00  0.00    -0.493 OA
ATOM     17  H   UNL A   1      32.288  28.664  28.824  1.00  0.00     0.295 HD
ENDBRANCH   8  16
BRANCH  10  18
ATOM     18  N   UNL A   1      31.570  25.389  26.568  1.00  0.00    -0.141 NA
ATOM     19  N   UNL A   1      30.436  24.887  26.691  1.00  0.00    -0.106 NA
BRANCH  19  20
ATOM     20  C   UNL A   1      30.486  23.535  26.964  1.00  0.00     0.296 C 
ATOM     21  O   UNL A   1      29.635  22.864  27.530  1.00  0.00    -0.265 OA
BRANCH  20  22
ATOM     22  C   UNL A   1      31.767  22.896  26.552  1.00  0.00     0.062 A 
ATOM     23  C   UNL A   1      32.701  22.568  27.552  1.00  0.00     0.017 A 
ATOM     24  C   UNL A   1      32.062  22.614  25.212  1.00  0.00     0.055 A 
ATOM     25  C   UNL A   1      33.914  21.965  27.213  1.00  0.00     0.021 A 
ATOM     26  C   UNL A   1      33.281  22.009  24.879  1.00  0.00     0.041 A 
ATOM     27  Cl  UNL A   1      31.020  23.044  23.904  1.00  0.00    -0.083 Cl
ATOM     28  C   UNL A   1      34.198  21.688  25.877  1.00  0.00     0.042 A 
ATOM     29  Cl  UNL A   1      35.698  20.960  25.458  1.00  0.00    -0.084 Cl
ENDBRANCH  20  22
ENDBRANCH  19  20
ENDBRANCH  10  18
ENDBRANCH   6   7
ENDBRANCH   4   6
ENDBRANCH   1   2
BRANCH   1  30
ATOM     30  C   UNL A   1      34.630  34.050  28.347  1.00  0.00     0.023 C 
BRANCH  30  31
ATOM     31  C   UNL A   1      33.233  34.658  28.547  1.00  0.00     0.023 C 
BRANCH  31  32
ATOM     32  C   UNL A   1      33.155  35.849  29.505  1.00  0.00     0.116 C 
BRANCH  32  33
ATOM     33  N   UNL A   1      32.739  35.494  30.847  1.00  0.00    -0.352 N 
ATOM     34  C   UNL A   1      33.319  34.911  31.939  1.00  0.00     0.251 C 
ATOM     35  H   UNL A   1      31.799  35.734  31.016  1.00  0.00     0.163 HD
ATOM     36  O   UNL A   1      32.674  35.010  32.988  1.00  0.00    -0.269 OA
BRANCH  34  37
ATOM     37  C   UNL A   1      34.589  34.131  31.969  1.00  0.00     0.039 A 
ATOM     38  C   UNL A   1      35.874  34.646  32.119  1.00  0.00     0.014 A 
ATOM     39  C   UNL A   1      34.455  32.744  31.730  1.00  0.00     0.014 A 
ATOM     40  C   UNL A   1      36.986  33.812  31.942  1.00  0.00     0.010 A 
ATOM     41  C   UNL A   1      35.559  31.911  31.557  1.00  0.00     0.010 A 
ATOM     42  C   UNL A   1      36.834  32.452  31.609  1.00  0.00    -0.014 A 
BRANCH  42  43
ATOM     43  C   UNL A   1      38.038  31.627  31.435  1.00  0.00     0.031 A 
ATOM     44  C   UNL A   1      38.777  31.364  32.703  1.00  0.00     0.074 A 
ATOM     45  C   UNL A   1      38.469  31.071  30.278  1.00  0.00     0.049 A 
ATOM     46  N   UNL A   1      39.938  31.823  33.041  1.00  0.00    -0.248 NA
ATOM     47  C   UNL A   1      38.097  30.614  33.769  1.00  0.00     0.031 C 
ATOM     48  C   UNL A   1      37.777  30.981  28.991  1.00  0.00     0.029 A 
ATOM     49  N   UNL A   1      39.644  30.408  30.029  1.00  0.00    -0.354 N 
ATOM     50  C   UNL A   1      40.215  31.296  34.300  1.00  0.00     0.074 A 
ATOM     51  C   UNL A   1      39.003  30.662  34.749  1.00  0.00     0.031 C 
ATOM     52  C   UNL A   1      38.444  30.134  28.169  1.00  0.00     0.029 A 
ATOM     53  C   UNL A   1      39.691  29.744  28.805  1.00  0.00     0.049 A 
ATOM     54  H   UNL A   1      40.395  30.402  30.665  1.00  0.00     0.167 HD
ATOM     55  C   UNL A   1      41.488  31.264  34.782  1.00  0.00     0.037 A 
ATOM     56  C   UNL A   1      40.680  28.929  28.346  1.00  0.00     0.037 A 
ATOM     57  C   UNL A   1      42.339  32.173  34.060  1.00  0.00     0.049 A 
ATOM     58  C   UNL A   1      41.912  29.270  29.090  1.00  0.00     0.074 A 
ATOM     59  C   UNL A   1      42.388  33.541  33.887  1.00  0.00     0.029 A 
ATOM     60  N   UNL A   1      43.137  31.642  33.079  1.00  0.00    -0.354 N 
ATOM     61  N   UNL A   1      42.556  30.395  28.961  1.00  0.00    -0.248 NA
ATOM     62  C   UNL A   1      42.199  28.513  30.297  1.00  0.00     0.031 C 
ATOM     63  C   UNL A   1      42.818  33.729  32.541  1.00  0.00     0.029 A 
ATOM     64  C   UNL A   1      43.067  32.470  31.992  1.00  0.00     0.049 A 
ATOM     65  H   UNL A   1      43.666  30.815  33.146  1.00  0.00     0.167 HD
ATOM     66  C   UNL A   1      42.968  30.703  30.246  1.00  0.00     0.074 A 
ATOM     67  C   UNL A   1      42.804  29.467  31.008  1.00  0.00     0.031 C 
ATOM     68  C   UNL A   1      43.138  31.999  30.629  1.00  0.00     0.037 A 
BRANCH  55  69
ATOM     69  C   UNL A   1      42.061  30.154  35.630  1.00  0.00     0.064 A 
ATOM     70  C   UNL A   1      42.937  30.481  36.688  1.00  0.00     0.173 A 
ATOM     71  C   UNL A   1      42.054  28.798  35.243  1.00  0.00     0.173 A 
ATOM     72  F   UNL A   1      43.038  31.745  37.127  1.00  0.00    -0.203 F 
ATOM     73  C   UNL A   1      43.804  29.539  37.247  1.00  0.00     0.198 A 
ATOM     74  C   UNL A   1      42.887  27.851  35.838  1.00  0.00     0.198 A 
ATOM     75  F   UNL A   1      41.336  28.359  34.203  1.00  0.00    -0.203 F 
ATOM     76  F   UNL A   1      44.713  29.925  38.152  1.00  0.00    -0.200 F 
ATOM     77  C   UNL A   1      43.785  28.226  36.814  1.00  0.00     0.200 A 
ATOM     78  F   UNL A   1      42.870  26.588  35.389  1.00  0.00    -0.200 F 
ATOM     79  F   UNL A   1      44.662  27.337  37.297  1.00  0.00    -0.200 F 
ENDBRANCH  55  69
BRANCH  56  80
ATOM     80  C   UNL A   1      40.584  27.671  27.557  1.00  0.00     0.064 A 
ATOM     81  C   UNL A   1      41.374  27.464  26.410  1.00  0.00     0.173 A 
ATOM     82  C   UNL A   1      39.967  26.528  28.099  1.00  0.00     0.173 A 
ATOM     83  F   UNL A   1      42.040  28.487  25.854  1.00  0.00    -0.203 F 
ATOM     84  C   UNL A   1      41.562  26.188  25.862  1.00  0.00     0.198 A 
ATOM     85  C   UNL A   1      40.154  25.256  27.551  1.00  0.00     0.198 A 
ATOM     86  F   UNL A   1      39.257  26.609  29.233  1.00  0.00    -0.203 F 
ATOM     87  F   UNL A   1      42.379  26.022  24.812  1.00  0.00    -0.200 F 
ATOM     88  C   UNL A   1      40.963  25.083  26.443  1.00  0.00     0.200 A 
ATOM     89  F   UNL A   1      39.604  24.189  28.147  1.00  0.00    -0.200 F 
ATOM     90  F   UNL A   1      41.199  23.853  25.965  1.00  0.00    -0.200 F 
ENDBRANCH  56  80
BRANCH  68  91
ATOM     91  C   UNL A   1      43.173  33.057  29.563  1.00  0.00     0.064 A 
ATOM     92  C   UNL A   1      42.100  33.913  29.262  1.00  0.00     0.173 A 
ATOM     93  C   UNL A   1      44.409  33.327  28.959  1.00  0.00     0.173 A 
ATOM     94  F   UNL A   1      40.910  33.768  29.859  1.00  0.00    -0.203 F 
ATOM     95  C   UNL A   1      42.263  34.986  28.386  1.00  0.00     0.198 A 
ATOM     96  C   UNL A   1      44.576  34.419  28.116  1.00  0.00     0.198 A 
ATOM     97  F   UNL A   1      45.477  32.566  29.246  1.00  0.00    -0.203 F 
ATOM     98  F   UNL A   1      41.230  35.800  28.119  1.00  0.00    -0.200 F 
ATOM     99  C   UNL A   1      43.504  35.247  27.827  1.00  0.00     0.200 A 
ATOM    100  F   UNL A   1      45.790  34.695  27.617  1.00  0.00    -0.200 F 
ATOM    101  F   UNL A   1      43.676  36.316  27.035  1.00  0.00    -0.200 F 
ENDBRANCH  68  91
ENDBRANCH  42  43
ENDBRANCH  34  37
ENDBRANCH  32  33
ENDBRANCH  31  32
ENDBRANCH  30  31
ENDBRANCH   1  30
TORSDOF 16
ENDMDL
MODEL 3
REMARK VINA RESULT:     -12.8      2.982      4.183
REMARK SMILES O=C(Cn1c(O)c(/N=N/C(=O)c2ccc(Cl)cc2Cl)c2ccccc21)NCCCCNC(=O)c1ccc(-c2c3nc(c(-c4c(F)c(F)c(F)c(F)c4F)c4ccc([nH]4)c(-c4c(F)c(F)c(F)c(F)c4F)c4nc(c(-c5c(F)c(F)c(F)c(F)c5F)c5ccc2[nH]5)C=C4)C=C3)cc1
REMARK SMILES IDX 27 1 26 2 1 3 2 4 3 6 4 7 5 8 25 9 7 10 20 11 24 12 21 13
REMARK SMILES IDX 23 14 22 15 6 16 8 18 9 19 10 20 11 21 12 22 13 23 18 24
REMARK SMILES IDX 14 25 17 26 19 27 15 28 16 29 28 30 29 31 30 32 31 33 32 34
REMARK SMILES IDX 33 36 34 37 35 38 96 39 36 40 95 41 37 42 38 43 39 44 89 45
REMARK SMILES IDX 40 46 94 47 88 48 90 49 41 50 93 51 87 52 86 53 42 55 74 56
REMARK SMILES IDX 54 57 73 58 55 59 58 60 72 61 91 62 56 63 57 64 71 66 92 67
REMARK SMILES IDX 59 68 43 69 44 70 52 71 45 72 46 73 50 74 53 75 47 76 48 77
REMARK SMILES IDX 51 78 49 79 75 80 76 81 84 82 77 83 78 84 82 85 85 86 79 87
REMARK SMILES IDX 80 88 83 89 81 90 60 91 61 92 69 93 62 94 63 95 67 96 70 97
REMARK SMILES IDX 64 98 65 99 68 100 66 101
REMARK H PARENT 26 5 6 17 31 35 90 54 58 65
REMARK Flexibility Score: inf
ROOT
ATOM      1  C   UNL A   1      39.298  22.661  26.499  1.00  0.00     0.116 C 
ENDROOT
BRANCH   1   2
ATOM      2  N   UNL A   1      38.374  22.388  25.411  1.00  0.00    -0.355 N 
ATOM      3  O   UNL A   1      36.903  24.073  25.938  1.00  0.00    -0.273 OA
ATOM      4  C   UNL A   1      37.249  23.159  25.191  1.00  0.00     0.240 C 
ATOM      5  H   UNL A   1      38.556  21.630  24.810  1.00  0.00     0.163 HD
BRANCH   4   6
ATOM      6  C   UNL A   1      36.388  22.752  24.012  1.00  0.00     0.225 C 
BRANCH   6   7
ATOM      7  N   UNL A   1      34.966  22.672  24.322  1.00  0.00    -0.301 N 
ATOM      8  C   UNL A   1      34.085  23.736  24.402  1.00  0.00     0.221 A 
ATOM      9  C   UNL A   1      34.305  21.481  24.587  1.00  0.00     0.054 A 
ATOM     10  C   UNL A   1      32.850  23.207  24.731  1.00  0.00     0.155 A 
ATOM     11  C   UNL A   1      32.971  21.798  24.854  1.00  0.00     0.031 A 
ATOM     12  C   UNL A   1      34.771  20.154  24.626  1.00  0.00     0.027 A 
ATOM     13  C   UNL A   1      32.069  20.757  25.167  1.00  0.00     0.013 A 
ATOM     14  C   UNL A   1      33.862  19.143  24.950  1.00  0.00     0.002 A 
ATOM     15  C   UNL A   1      32.528  19.437  25.217  1.00  0.00     0.001 A 
BRANCH   8  16
ATOM     16  O   UNL A   1      34.446  25.007  24.216  1.00  0.00    -0.493 OA
ATOM     17  H   UNL A   1      34.468  25.598  24.942  1.00  0.00     0.295 HD
ENDBRANCH   8  16
BRANCH  10  18
ATOM     18  N   UNL A   1      31.623  23.865  24.929  1.00  0.00    -0.141 NA
ATOM     19  N   UNL A   1      31.699  24.884  25.642  1.00  0.00    -0.106 NA
BRANCH  19  20
ATOM     20  C   UNL A   1      30.479  25.512  25.793  1.00  0.00     0.296 C 
ATOM     21  O   UNL A   1      29.548  25.155  26.502  1.00  0.00    -0.265 OA
BRANCH  20  22
ATOM     22  C   UNL A   1      30.321  26.713  24.927  1.00  0.00     0.062 A 
ATOM     23  C   UNL A   1      29.310  26.702  23.948  1.00  0.00     0.017 A 
ATOM     24  C   UNL A   1      31.141  27.841  25.062  1.00  0.00     0.055 A 
ATOM     25  C   UNL A   1      29.124  27.808  23.116  1.00  0.00     0.021 A 
ATOM     26  C   UNL A   1      30.948  28.947  24.223  1.00  0.00     0.041 A 
ATOM     27  Cl  UNL A   1      32.456  27.927  26.177  1.00  0.00    -0.083 Cl
ATOM     28  C   UNL A   1      29.944  28.925  23.257  1.00  0.00     0.042 A 
ATOM     29  Cl  UNL A   1      29.724  30.279  22.222  1.00  0.00    -0.084 Cl
ENDBRANCH  20  22
ENDBRANCH  19  20
ENDBRANCH  10  18
ENDBRANCH   6   7
ENDBRANCH   4   6
ENDBRANCH   1   2
BRANCH   1  30
ATOM     30  C   UNL A   1      40.173  21.457  26.852  1.00  0.00     0.023 C 
BRANCH  30  31
ATOM     31  C   UNL A   1      41.173  21.663  28.001  1.00  0.00     0.023 C 
BRANCH  31  32
ATOM     32  C   UNL A   1      42.649  21.714  27.598  1.00  0.00     0.116 C 
BRANCH  32  33
ATOM     33  N   UNL A   1      42.883  22.328  26.307  1.00  0.00    -0.352 N 
ATOM     34  C   UNL A   1      42.919  23.602  25.812  1.00  0.00     0.251 C 
ATOM     35  H   UNL A   1      43.061  21.658  25.609  1.00  0.00     0.163 HD
ATOM     36  O   UNL A   1      43.398  23.708  24.678  1.00  0.00    -0.269 OA
BRANCH  34  37
ATOM     37  C   UNL A   1      42.388  24.833  26.465  1.00  0.00     0.039 A 
ATOM     38  C   UNL A   1      41.400  25.676  25.962  1.00  0.00     0.014 A 
ATOM     39  C   UNL A   1      43.031  25.209  27.666  1.00  0.00     0.014 A 
ATOM     40  C   UNL A   1      41.135  26.897  26.597  1.00  0.00     0.010 A 
ATOM     41  C   UNL A   1      42.767  26.421  28.301  1.00  0.00     0.010 A 
ATOM     42  C   UNL A   1      41.853  27.298  27.739  1.00  0.00    -0.014 A 
BRANCH  42  43
ATOM     43  C   UNL A   1      41.531  28.591  28.361  1.00  0.00     0.031 A 
ATOM     44  C   UNL A   1      42.572  29.637  28.150  1.00  0.00     0.074 A 
ATOM     45  C   UNL A   1      40.392  28.899  29.025  1.00  0.00     0.049 A 
ATOM     46  N   UNL A   1      43.358  30.147  29.041  1.00  0.00    -0.248 NA
ATOM     47  C   UNL A   1      42.863  30.071  26.777  1.00  0.00     0.031 C 
ATOM     48  C   UNL A   1      39.151  28.128  29.125  1.00  0.00     0.029 A 
ATOM     49  N   UNL A   1      40.092  30.035  29.733  1.00  0.00    -0.354 N 
ATOM     50  C   UNL A   1      44.143  31.086  28.378  1.00  0.00     0.074 A 
ATOM     51  C   UNL A   1      43.882  30.913  26.973  1.00  0.00     0.031 C 
ATOM     52  C   UNL A   1      38.175  28.898  29.667  1.00  0.00     0.029 A 
ATOM     53  C   UNL A   1      38.753  30.159  30.100  1.00  0.00     0.049 A 
ATOM     54  H   UNL A   1      40.769  30.710  29.966  1.00  0.00     0.167 HD
ATOM     55  C   UNL A   1      44.800  32.062  29.064  1.00  0.00     0.037 A 
ATOM     56  C   UNL A   1      38.159  31.219  30.710  1.00  0.00     0.037 A 
ATOM     57  C   UNL A   1      44.912  31.729  30.460  1.00  0.00     0.049 A 
ATOM     58  C   UNL A   1      39.223  31.985  31.397  1.00  0.00     0.074 A 
ATOM     59  C   UNL A   1      45.537  30.732  31.182  1.00  0.00     0.029 A 
ATOM     60  N   UNL A   1      44.012  32.306  31.318  1.00  0.00    -0.354 N 
ATOM     61  N   UNL A   1      39.884  31.551  32.432  1.00  0.00    -0.248 NA
ATOM     62  C   UNL A   1      39.841  33.078  30.666  1.00  0.00     0.031 C 
ATOM     63  C   UNL A   1      44.654  30.453  32.267  1.00  0.00     0.029 A 
ATOM     64  C   UNL A   1      43.577  31.336  32.180  1.00  0.00     0.049 A 
ATOM     65  H   UNL A   1      43.729  33.249  31.315  1.00  0.00     0.167 HD
ATOM     66  C   UNL A   1      41.178  31.990  32.220  1.00  0.00     0.074 A 
ATOM     67  C   UNL A   1      41.074  33.001  31.171  1.00  0.00     0.031 C 
ATOM     68  C   UNL A   1      42.239  31.293  32.719  1.00  0.00     0.037 A 
BRANCH  55  69
ATOM     69  C   UNL A   1      45.001  33.476  28.573  1.00  0.00     0.064 A 
ATOM     70  C   UNL A   1      43.870  34.269  28.283  1.00  0.00     0.173 A 
ATOM     71  C   UNL A   1      46.226  33.954  28.064  1.00  0.00     0.173 A 
ATOM     72  F   UNL A   1      42.650  33.901  28.703  1.00  0.00    -0.203 F 
ATOM     73  C   UNL A   1      43.951  35.401  27.468  1.00  0.00     0.198 A 
ATOM     74  C   UNL A   1      46.309  35.112  27.291  1.00  0.00     0.198 A 
ATOM     75  F   UNL A   1      47.366  33.265  28.190  1.00  0.00    -0.203 F 
ATOM     76  F   UNL A   1      42.832  36.044  27.109  1.00  0.00    -0.200 F 
ATOM     77  C   UNL A   1      45.169  35.816  26.965  1.00  0.00     0.200 A 
ATOM     78  F   UNL A   1      47.496  35.485  26.794  1.00  0.00    -0.200 F 
ATOM     79  F   UNL A   1      45.241  36.857  26.127  1.00  0.00    -0.200 F 
ENDBRANCH  55  69
BRANCH  56  80
ATOM     80  C   UNL A   1      36.811  31.810  30.489  1.00  0.00     0.064 A 
ATOM     81  C   UNL A   1      35.899  31.970  31.550  1.00  0.00     0.173 A 
ATOM     82  C   UNL A   1      36.524  32.525  29.312  1.00  0.00     0.173 A 
ATOM     83  F   UNL A   1      36.118  31.366  32.727  1.00  0.00    -0.203 F 
ATOM     84  C   UNL A   1      34.789  32.820  31.450  1.00  0.00     0.198 A 
ATOM     85  C   UNL A   1      35.416  33.371  29.212  1.00  0.00     0.198 A 
ATOM     86  F   UNL A   1      37.370  32.497  28.273  1.00  0.00    -0.203 F 
ATOM     87  F   UNL A   1      33.984  33.001  32.506  1.00  0.00    -0.200 F 
ATOM     88  C   UNL A   1      34.558  33.532  30.284  1.00  0.00     0.200 A 
ATOM     89  F   UNL A   1      35.226  34.087  28.095  1.00  0.00    -0.200 F 
ATOM     90  F   UNL A   1      33.539  34.400  30.210  1.00  0.00    -0.200 F 
ENDBRANCH  56  80
BRANCH  68  91
ATOM     91  C   UNL A   1      41.971  30.233  33.748  1.00  0.00     0.064 A 
ATOM     92  C   UNL A   1      41.595  28.913  33.445  1.00  0.00     0.173 A 
ATOM     93  C   UNL A   1      42.293  30.527  35.080  1.00  0.00     0.173 A 
ATOM     94  F   UNL A   1      41.350  28.534  32.185  1.00  0.00    -0.203 F 
ATOM     95  C   UNL A   1      41.538  27.937  34.441  1.00  0.00     0.198 A 
ATOM     96  C   UNL A   1      42.271  29.544  36.062  1.00  0.00     0.198 A 
ATOM     97  F   UNL A   1      42.700  31.762  35.415  1.00  0.00    -0.203 F 
ATOM     98  F   UNL A   1      41.189  26.679  34.131  1.00  0.00    -0.200 F 
ATOM     99  C   UNL A   1      41.892  28.250  35.744  1.00  0.00     0.200 A 
ATOM    100  F   UNL A   1      42.660  29.841  37.311  1.00  0.00    -0.200 F 
ATOM    101  F   UNL A   1      41.898  27.298  36.688  1.00  0.00    -0.200 F 
ENDBRANCH  68  91
ENDBRANCH  42  43
ENDBRANCH  34  37
ENDBRANCH  32  33
ENDBRANCH  31  32
ENDBRANCH  30  31
ENDBRANCH   1  30
TORSDOF 16
ENDMDL
