MODEL 1
REMARK VINA RESULT:     -10.9      0.000      0.000
REMARK SMILES CSCC[C@@H]([NH2+]Cc1cccnc1)C(=O)NCCCCNC(=O)c1ccc(-c2c3nc(c(-c4c(F)c(F)c(F)c(F)c4F)c4ccc([nH]4)c(-c4c(F)c(F)c(F)c(F)c4F)c4nc(c(-c5c(F)c(F)c(F)c(F)c5F)c5ccc2[nH]5)C=C4)C=C3)cc1
REMARK SMILES IDX 18 1 17 2 16 3 14 4 15 5 5 7 4 8 3 9 2 10 1 11 6 12 7 15
REMARK SMILES IDX 8 16 9 17 13 18 10 19 12 20 11 21 19 22 20 23 21 24 22 25
REMARK SMILES IDX 23 27 24 28 25 29 86 30 26 31 85 32 27 33 28 34 29 35 79 36
REMARK SMILES IDX 30 37 84 38 78 39 80 40 31 41 83 42 77 43 76 44 32 46 64 47
REMARK SMILES IDX 44 48 63 49 45 50 48 51 62 52 81 53 46 54 47 55 61 57 82 58
REMARK SMILES IDX 49 59 33 60 34 61 42 62 35 63 36 64 40 65 43 66 37 67 38 68
REMARK SMILES IDX 41 69 39 70 65 71 66 72 74 73 67 74 68 75 72 76 75 77 69 78
REMARK SMILES IDX 70 79 73 80 71 81 50 82 51 83 59 84 52 85 53 86 57 87 60 88
REMARK SMILES IDX 54 89 55 90 58 91 56 92
REMARK H PARENT 16 6 6 13 6 14 21 26 80 45 48 56
REMARK Flexibility Score: inf
ROOT
ATOM      1  C   UNL A   1      37.270  21.962  24.276  1.00  0.00     0.023 C 
ENDROOT
BRANCH   1   2
ATOM      2  C   UNL A   1      35.795  22.316  24.455  1.00  0.00     0.116 C 
BRANCH   2   3
ATOM      3  N   UNL A   1      35.257  22.973  23.279  1.00  0.00    -0.351 N 
ATOM      4  C   UNL A   1      33.966  23.265  22.949  1.00  0.00     0.278 C 
ATOM      5  O   UNL A   1      33.774  23.881  21.898  1.00  0.00    -0.268 OA
ATOM      6  H   UNL A   1      35.929  23.250  22.614  1.00  0.00     0.163 HD
BRANCH   4   7
ATOM      7  C   UNL A   1      32.779  22.868  23.861  1.00  0.00     0.273 C 
BRANCH   7   8
ATOM      8  C   UNL A   1      31.751  24.016  23.923  1.00  0.00     0.086 C 
BRANCH   8   9
ATOM      9  C   UNL A   1      31.630  24.753  25.259  1.00  0.00     0.076 C 
BRANCH   9  10
ATOM     10  S   UNL A   1      31.844  23.686  26.719  1.00  0.00    -0.165 SA
ATOM     11  C   UNL A   1      30.203  22.939  26.822  1.00  0.00     0.085 C 
ENDBRANCH   9  10
ENDBRANCH   8   9
ENDBRANCH   7   8
BRANCH   7  12
ATOM     12  N   UNL A   1      32.183  21.580  23.423  1.00  0.00    -0.332 N 
ATOM     13  H   UNL A   1      32.701  21.245  22.611  1.00  0.00     0.347 HD
ATOM     14  H   UNL A   1      31.202  21.761  23.211  1.00  0.00     0.347 HD
BRANCH  12  15
ATOM     15  C   UNL A   1      32.215  20.535  24.459  1.00  0.00     0.299 C 
BRANCH  15  16
ATOM     16  C   UNL A   1      32.934  19.275  24.055  1.00  0.00     0.024 A 
ATOM     17  C   UNL A   1      34.127  18.866  24.657  1.00  0.00     0.013 A 
ATOM     18  C   UNL A   1      32.405  18.446  23.069  1.00  0.00     0.120 A 
ATOM     19  C   UNL A   1      34.755  17.698  24.234  1.00  0.00     0.021 A 
ATOM     20  N   UNL A   1      32.982  17.294  22.653  1.00  0.00    -0.264 NA
ATOM     21  C   UNL A   1      34.149  16.952  23.237  1.00  0.00     0.111 A 
ENDBRANCH  15  16
ENDBRANCH  12  15
ENDBRANCH   7  12
ENDBRANCH   4   7
ENDBRANCH   2   3
ENDBRANCH   1   2
BRANCH   1  22
ATOM     22  C   UNL A   1      37.727  20.722  25.046  1.00  0.00     0.023 C 
BRANCH  22  23
ATOM     23  C   UNL A   1      39.034  20.880  25.818  1.00  0.00     0.116 C 
BRANCH  23  24
ATOM     24  N   UNL A   1      39.860  19.681  25.798  1.00  0.00    -0.352 N 
ATOM     25  C   UNL A   1      41.204  19.559  26.051  1.00  0.00     0.251 C 
ATOM     26  H   UNL A   1      39.391  18.844  25.574  1.00  0.00     0.163 HD
ATOM     27  O   UNL A   1      41.780  18.487  25.890  1.00  0.00    -0.269 OA
BRANCH  25  28
ATOM     28  C   UNL A   1      41.964  20.750  26.481  1.00  0.00     0.039 A 
ATOM     29  C   UNL A   1      42.474  21.610  25.506  1.00  0.00     0.014 A 
ATOM     30  C   UNL A   1      42.104  21.048  27.839  1.00  0.00     0.014 A 
ATOM     31  C   UNL A   1      43.043  22.824  25.891  1.00  0.00     0.010 A 
ATOM     32  C   UNL A   1      42.619  22.283  28.219  1.00  0.00     0.010 A 
ATOM     33  C   UNL A   1      43.069  23.190  27.247  1.00  0.00    -0.014 A 
BRANCH  33  34
ATOM     34  C   UNL A   1      43.500  24.545  27.671  1.00  0.00     0.031 A 
ATOM     35  C   UNL A   1      42.485  25.594  28.007  1.00  0.00     0.074 A 
ATOM     36  C   UNL A   1      44.813  24.852  27.650  1.00  0.00     0.049 A 
ATOM     37  N   UNL A   1      42.664  26.860  28.283  1.00  0.00    -0.248 NA
ATOM     38  C   UNL A   1      41.076  25.171  28.008  1.00  0.00     0.031 C 
ATOM     39  C   UNL A   1      45.892  23.929  27.291  1.00  0.00     0.029 A 
ATOM     40  N   UNL A   1      45.461  26.033  27.913  1.00  0.00    -0.354 N 
ATOM     41  C   UNL A   1      41.396  27.388  28.477  1.00  0.00     0.074 A 
ATOM     42  C   UNL A   1      40.451  26.315  28.249  1.00  0.00     0.031 C 
ATOM     43  C   UNL A   1      47.065  24.575  27.364  1.00  0.00     0.029 A 
ATOM     44  C   UNL A   1      46.820  25.965  27.735  1.00  0.00     0.049 A 
ATOM     45  H   UNL A   1      44.995  26.850  28.203  1.00  0.00     0.167 HD
ATOM     46  C   UNL A   1      41.055  28.650  28.831  1.00  0.00     0.037 A 
ATOM     47  C   UNL A   1      47.762  26.921  27.841  1.00  0.00     0.037 A 
ATOM     48  C   UNL A   1      42.000  29.706  29.082  1.00  0.00     0.049 A 
ATOM     49  C   UNL A   1      47.353  28.318  28.216  1.00  0.00     0.074 A 
ATOM     50  C   UNL A   1      41.756  30.992  29.532  1.00  0.00     0.029 A 
ATOM     51  N   UNL A   1      43.370  29.600  28.895  1.00  0.00    -0.354 N 
ATOM     52  N   UNL A   1      46.157  28.787  28.472  1.00  0.00    -0.248 NA
ATOM     53  C   UNL A   1      48.426  29.319  28.312  1.00  0.00     0.031 C 
ATOM     54  C   UNL A   1      42.975  31.678  29.576  1.00  0.00     0.029 A 
ATOM     55  C   UNL A   1      43.982  30.807  29.190  1.00  0.00     0.049 A 
ATOM     56  H   UNL A   1      43.838  28.787  28.597  1.00  0.00     0.167 HD
ATOM     57  C   UNL A   1      46.331  30.130  28.771  1.00  0.00     0.074 A 
ATOM     58  C   UNL A   1      47.752  30.398  28.684  1.00  0.00     0.031 C 
ATOM     59  C   UNL A   1      45.396  31.059  29.087  1.00  0.00     0.037 A 
BRANCH  46  60
ATOM     60  C   UNL A   1      39.595  28.958  28.975  1.00  0.00     0.064 A 
ATOM     61  C   UNL A   1      38.818  29.357  27.877  1.00  0.00     0.173 A 
ATOM     62  C   UNL A   1      38.956  28.810  30.214  1.00  0.00     0.173 A 
ATOM     63  F   UNL A   1      39.387  29.524  26.673  1.00  0.00    -0.203 F 
ATOM     64  C   UNL A   1      37.458  29.619  28.020  1.00  0.00     0.198 A 
ATOM     65  C   UNL A   1      37.590  29.049  30.348  1.00  0.00     0.198 A 
ATOM     66  F   UNL A   1      39.653  28.427  31.295  1.00  0.00    -0.203 F 
ATOM     67  F   UNL A   1      36.745  30.038  26.966  1.00  0.00    -0.200 F 
ATOM     68  C   UNL A   1      36.845  29.458  29.253  1.00  0.00     0.200 A 
ATOM     69  F   UNL A   1      36.996  28.885  31.538  1.00  0.00    -0.200 F 
ATOM     70  F   UNL A   1      35.534  29.703  29.387  1.00  0.00    -0.200 F 
ENDBRANCH  46  60
BRANCH  47  71
ATOM     71  C   UNL A   1      49.187  26.587  27.589  1.00  0.00     0.064 A 
ATOM     72  C   UNL A   1      49.690  26.535  26.282  1.00  0.00     0.173 A 
ATOM     73  C   UNL A   1      50.072  26.316  28.643  1.00  0.00     0.173 A 
ATOM     74  F   UNL A   1      48.875  26.764  25.242  1.00  0.00    -0.203 F 
ATOM     75  C   UNL A   1      51.024  26.212  26.038  1.00  0.00     0.198 A 
ATOM     76  C   UNL A   1      51.411  26.017  28.397  1.00  0.00     0.198 A 
ATOM     77  F   UNL A   1      49.638  26.356  29.911  1.00  0.00    -0.203 F 
ATOM     78  F   UNL A   1      51.471  26.134  24.777  1.00  0.00    -0.200 F 
ATOM     79  C   UNL A   1      51.884  25.960  27.096  1.00  0.00     0.200 A 
ATOM     80  F   UNL A   1      52.242  25.786  29.423  1.00  0.00    -0.200 F 
ATOM     81  F   UNL A   1      53.167  25.655  26.860  1.00  0.00    -0.200 F 
ENDBRANCH  47  71
BRANCH  59  82
ATOM     82  C   UNL A   1      45.881  32.450  29.364  1.00  0.00     0.064 A 
ATOM     83  C   UNL A   1      46.295  32.836  30.648  1.00  0.00     0.173 A 
ATOM     84  C   UNL A   1      45.974  33.394  28.331  1.00  0.00     0.173 A 
ATOM     85  F   UNL A   1      46.208  31.973  31.671  1.00  0.00    -0.203 F 
ATOM     86  C   UNL A   1      46.770  34.122  30.889  1.00  0.00     0.198 A 
ATOM     87  C   UNL A   1      46.471  34.671  28.570  1.00  0.00     0.198 A 
ATOM     88  F   UNL A   1      45.592  33.072  27.085  1.00  0.00    -0.203 F 
ATOM     89  F   UNL A   1      47.124  34.481  32.131  1.00  0.00    -0.200 F 
ATOM     90  C   UNL A   1      46.864  35.036  29.850  1.00  0.00     0.200 A 
ATOM     91  F   UNL A   1      46.572  35.550  27.564  1.00  0.00    -0.200 F 
ATOM     92  F   UNL A   1      47.328  36.271  30.082  1.00  0.00    -0.200 F 
ENDBRANCH  59  82
ENDBRANCH  33  34
ENDBRANCH  25  28
ENDBRANCH  23  24
ENDBRANCH  22  23
ENDBRANCH   1  22
TORSDOF 17
ENDMDL
MODEL 2
REMARK VINA RESULT:     -10.8      5.976     10.837
REMARK SMILES CSCC[C@@H]([NH2+]Cc1cccnc1)C(=O)NCCCCNC(=O)c1ccc(-c2c3nc(c(-c4c(F)c(F)c(F)c(F)c4F)c4ccc([nH]4)c(-c4c(F)c(F)c(F)c(F)c4F)c4nc(c(-c5c(F)c(F)c(F)c(F)c5F)c5ccc2[nH]5)C=C4)C=C3)cc1
REMARK SMILES IDX 18 1 17 2 16 3 14 4 15 5 5 7 4 8 3 9 2 10 1 11 6 12 7 15
REMARK SMILES IDX 8 16 9 17 13 18 10 19 12 20 11 21 19 22 20 23 21 24 22 25
REMARK SMILES IDX 23 27 24 28 25 29 86 30 26 31 85 32 27 33 28 34 29 35 79 36
REMARK SMILES IDX 30 37 84 38 78 39 80 40 31 41 83 42 77 43 76 44 32 46 64 47
REMARK SMILES IDX 44 48 63 49 45 50 48 51 62 52 81 53 46 54 47 55 61 57 82 58
REMARK SMILES IDX 49 59 33 60 34 61 42 62 35 63 36 64 40 65 43 66 37 67 38 68
REMARK SMILES IDX 41 69 39 70 65 71 66 72 74 73 67 74 68 75 72 76 75 77 69 78
REMARK SMILES IDX 70 79 73 80 71 81 50 82 51 83 59 84 52 85 53 86 57 87 60 88
REMARK SMILES IDX 54 89 55 90 58 91 56 92
REMARK H PARENT 16 6 6 13 6 14 21 26 80 45 48 56
REMARK Flexibility Score: inf
ROOT
ATOM      1  C   UNL A   1      32.094  30.174  26.974  1.00  0.00     0.023 C 
ENDROOT
BRANCH   1   2
ATOM      2  C   UNL A   1      33.511  29.745  26.595  1.00  0.00     0.116 C 
BRANCH   2   3
ATOM      3  N   UNL A   1      33.667  29.632  25.157  1.00  0.00    -0.351 N 
ATOM      4  C   UNL A   1      33.225  28.666  24.300  1.00  0.00     0.278 C 
ATOM      5  O   UNL A   1      33.450  28.829  23.098  1.00  0.00    -0.268 OA
ATOM      6  H   UNL A   1      34.171  30.364  24.735  1.00  0.00     0.163 HD
BRANCH   4   7
ATOM      7  C   UNL A   1      32.447  27.424  24.798  1.00  0.00     0.273 C 
BRANCH   7   8
ATOM      8  C   UNL A   1      30.935  27.618  24.570  1.00  0.00     0.086 C 
BRANCH   8   9
ATOM      9  C   UNL A   1      30.435  27.465  23.132  1.00  0.00     0.076 C 
BRANCH   9  10
ATOM     10  S   UNL A   1      29.512  28.905  22.509  1.00  0.00    -0.165 SA
ATOM     11  C   UNL A   1      29.902  30.122  23.784  1.00  0.00     0.085 C 
ENDBRANCH   9  10
ENDBRANCH   8   9
ENDBRANCH   7   8
BRANCH   7  12
ATOM     12  N   UNL A   1      32.972  26.184  24.169  1.00  0.00    -0.332 N 
ATOM     13  H   UNL A   1      33.729  26.440  23.535  1.00  0.00     0.347 HD
ATOM     14  H   UNL A   1      32.193  25.741  23.685  1.00  0.00     0.347 HD
BRANCH  12  15
ATOM     15  C   UNL A   1      33.491  25.207  25.141  1.00  0.00     0.299 C 
BRANCH  15  16
ATOM     16  C   UNL A   1      34.668  24.405  24.654  1.00  0.00     0.024 A 
ATOM     17  C   UNL A   1      35.779  24.139  25.460  1.00  0.00     0.013 A 
ATOM     18  C   UNL A   1      34.673  23.866  23.370  1.00  0.00     0.120 A 
ATOM     19  C   UNL A   1      36.846  23.402  24.953  1.00  0.00     0.021 A 
ATOM     20  N   UNL A   1      35.686  23.128  22.859  1.00  0.00    -0.264 NA
ATOM     21  C   UNL A   1      36.753  22.922  23.658  1.00  0.00     0.111 A 
ENDBRANCH  15  16
ENDBRANCH  12  15
ENDBRANCH   7  12
ENDBRANCH   4   7
ENDBRANCH   2   3
ENDBRANCH   1   2
BRANCH   1  22
ATOM     22  C   UNL A   1      31.835  31.678  26.873  1.00  0.00     0.023 C 
BRANCH  22  23
ATOM     23  C   UNL A   1      32.934  32.568  27.445  1.00  0.00     0.116 C 
BRANCH  23  24
ATOM     24  N   UNL A   1      32.502  33.941  27.667  1.00  0.00    -0.352 N 
ATOM     25  C   UNL A   1      33.011  34.871  28.540  1.00  0.00     0.251 C 
ATOM     26  H   UNL A   1      31.743  34.243  27.117  1.00  0.00     0.163 HD
ATOM     27  O   UNL A   1      32.466  35.961  28.686  1.00  0.00    -0.269 OA
BRANCH  25  28
ATOM     28  C   UNL A   1      34.204  34.528  29.338  1.00  0.00     0.039 A 
ATOM     29  C   UNL A   1      34.028  33.991  30.615  1.00  0.00     0.014 A 
ATOM     30  C   UNL A   1      35.484  34.670  28.795  1.00  0.00     0.014 A 
ATOM     31  C   UNL A   1      35.132  33.503  31.314  1.00  0.00     0.010 A 
ATOM     32  C   UNL A   1      36.576  34.132  29.468  1.00  0.00     0.010 A 
ATOM     33  C   UNL A   1      36.405  33.522  30.720  1.00  0.00    -0.014 A 
BRANCH  33  34
ATOM     34  C   UNL A   1      37.563  32.850  31.359  1.00  0.00     0.031 A 
ATOM     35  C   UNL A   1      38.202  31.660  30.711  1.00  0.00     0.074 A 
ATOM     36  C   UNL A   1      37.968  33.259  32.578  1.00  0.00     0.049 A 
ATOM     37  N   UNL A   1      39.142  30.874  31.170  1.00  0.00    -0.248 NA
ATOM     38  C   UNL A   1      37.700  31.285  29.380  1.00  0.00     0.031 C 
ATOM     39  C   UNL A   1      37.390  34.374  33.331  1.00  0.00     0.029 A 
ATOM     40  N   UNL A   1      38.944  32.768  33.409  1.00  0.00    -0.354 N 
ATOM     41  C   UNL A   1      39.335  29.907  30.195  1.00  0.00     0.074 A 
ATOM     42  C   UNL A   1      38.389  30.179  29.134  1.00  0.00     0.031 C 
ATOM     43  C   UNL A   1      38.026  34.487  34.507  1.00  0.00     0.029 A 
ATOM     44  C   UNL A   1      39.028  33.430  34.609  1.00  0.00     0.049 A 
ATOM     45  H   UNL A   1      39.528  32.014  33.168  1.00  0.00     0.167 HD
ATOM     46  C   UNL A   1      40.235  28.894  30.180  1.00  0.00     0.037 A 
ATOM     47  C   UNL A   1      39.811  33.200  35.679  1.00  0.00     0.037 A 
ATOM     48  C   UNL A   1      41.192  28.644  31.225  1.00  0.00     0.049 A 
ATOM     49  C   UNL A   1      40.787  32.057  35.643  1.00  0.00     0.074 A 
ATOM     50  C   UNL A   1      42.202  27.698  31.261  1.00  0.00     0.029 A 
ATOM     51  N   UNL A   1      41.250  29.337  32.425  1.00  0.00    -0.354 N 
ATOM     52  N   UNL A   1      41.014  31.195  34.683  1.00  0.00    -0.248 NA
ATOM     53  C   UNL A   1      41.613  31.853  36.843  1.00  0.00     0.031 C 
ATOM     54  C   UNL A   1      42.845  27.792  32.500  1.00  0.00     0.029 A 
ATOM     55  C   UNL A   1      42.259  28.820  33.221  1.00  0.00     0.049 A 
ATOM     56  H   UNL A   1      40.662  30.086  32.673  1.00  0.00     0.167 HD
ATOM     57  C   UNL A   1      42.013  30.356  35.153  1.00  0.00     0.074 A 
ATOM     58  C   UNL A   1      42.364  30.823  36.479  1.00  0.00     0.031 C 
ATOM     59  C   UNL A   1      42.587  29.291  34.541  1.00  0.00     0.037 A 
BRANCH  46  60
ATOM     60  C   UNL A   1      40.232  27.982  28.990  1.00  0.00     0.064 A 
ATOM     61  C   UNL A   1      40.957  28.288  27.829  1.00  0.00     0.173 A 
ATOM     62  C   UNL A   1      39.531  26.767  29.028  1.00  0.00     0.173 A 
ATOM     63  F   UNL A   1      41.633  29.444  27.741  1.00  0.00    -0.203 F 
ATOM     64  C   UNL A   1      40.963  27.421  26.740  1.00  0.00     0.198 A 
ATOM     65  C   UNL A   1      39.560  25.891  27.947  1.00  0.00     0.198 A 
ATOM     66  F   UNL A   1      38.825  26.426  30.117  1.00  0.00    -0.203 F 
ATOM     67  F   UNL A   1      41.631  27.752  25.627  1.00  0.00    -0.200 F 
ATOM     68  C   UNL A   1      40.271  26.220  26.803  1.00  0.00     0.200 A 
ATOM     69  F   UNL A   1      38.898  24.728  28.011  1.00  0.00    -0.200 F 
ATOM     70  F   UNL A   1      40.284  25.384  25.756  1.00  0.00    -0.200 F 
ENDBRANCH  46  60
BRANCH  47  71
ATOM     71  C   UNL A   1      39.704  34.073  36.876  1.00  0.00     0.064 A 
ATOM     72  C   UNL A   1      38.896  33.706  37.960  1.00  0.00     0.173 A 
ATOM     73  C   UNL A   1      40.406  35.284  36.962  1.00  0.00     0.173 A 
ATOM     74  F   UNL A   1      38.188  32.567  37.912  1.00  0.00    -0.203 F 
ATOM     75  C   UNL A   1      38.783  34.525  39.082  1.00  0.00     0.198 A 
ATOM     76  C   UNL A   1      40.311  36.090  38.095  1.00  0.00     0.198 A 
ATOM     77  F   UNL A   1      41.195  35.676  35.951  1.00  0.00    -0.203 F 
ATOM     78  F   UNL A   1      37.975  34.169  40.089  1.00  0.00    -0.200 F 
ATOM     79  C   UNL A   1      39.496  35.713  39.151  1.00  0.00     0.200 A 
ATOM     80  F   UNL A   1      41.010  37.231  38.163  1.00  0.00    -0.200 F 
ATOM     81  F   UNL A   1      39.391  36.497  40.232  1.00  0.00    -0.200 F 
ENDBRANCH  47  71
BRANCH  59  82
ATOM     82  C   UNL A   1      43.655  28.561  35.300  1.00  0.00     0.064 A 
ATOM     83  C   UNL A   1      43.338  27.524  36.189  1.00  0.00     0.173 A 
ATOM     84  C   UNL A   1      45.008  28.873  35.105  1.00  0.00     0.173 A 
ATOM     85  F   UNL A   1      42.057  27.203  36.421  1.00  0.00    -0.203 F 
ATOM     86  C   UNL A   1      44.338  26.835  36.869  1.00  0.00     0.198 A 
ATOM     87  C   UNL A   1      46.007  28.166  35.768  1.00  0.00     0.198 A 
ATOM     88  F   UNL A   1      45.362  29.855  34.262  1.00  0.00    -0.203 F 
ATOM     89  F   UNL A   1      44.012  25.874  37.743  1.00  0.00    -0.200 F 
ATOM     90  C   UNL A   1      45.672  27.152  36.653  1.00  0.00     0.200 A 
ATOM     91  F   UNL A   1      47.295  28.465  35.552  1.00  0.00    -0.200 F 
ATOM     92  F   UNL A   1      46.634  26.483  37.302  1.00  0.00    -0.200 F 
ENDBRANCH  59  82
ENDBRANCH  33  34
ENDBRANCH  25  28
ENDBRANCH  23  24
ENDBRANCH  22  23
ENDBRANCH   1  22
TORSDOF 17
ENDMDL
MODEL 3
REMARK VINA RESULT:     -10.8      5.942     10.822
REMARK SMILES CSCC[C@@H]([NH2+]Cc1cccnc1)C(=O)NCCCCNC(=O)c1ccc(-c2c3nc(c(-c4c(F)c(F)c(F)c(F)c4F)c4ccc([nH]4)c(-c4c(F)c(F)c(F)c(F)c4F)c4nc(c(-c5c(F)c(F)c(F)c(F)c5F)c5ccc2[nH]5)C=C4)C=C3)cc1
REMARK SMILES IDX 18 1 17 2 16 3 14 4 15 5 5 7 4 8 3 9 2 10 1 11 6 12 7 15
REMARK SMILES IDX 8 16 9 17 13 18 10 19 12 20 11 21 19 22 20 23 21 24 22 25
REMARK SMILES IDX 23 27 24 28 25 29 86 30 26 31 85 32 27 33 28 34 29 35 79 36
REMARK SMILES IDX 30 37 84 38 78 39 80 40 31 41 83 42 77 43 76 44 32 46 64 47
REMARK SMILES IDX 44 48 63 49 45 50 48 51 62 52 81 53 46 54 47 55 61 57 82 58
REMARK SMILES IDX 49 59 33 60 34 61 42 62 35 63 36 64 40 65 43 66 37 67 38 68
REMARK SMILES IDX 41 69 39 70 65 71 66 72 74 73 67 74 68 75 72 76 75 77 69 78
REMARK SMILES IDX 70 79 73 80 71 81 50 82 51 83 59 84 52 85 53 86 57 87 60 88
REMARK SMILES IDX 54 89 55 90 58 91 56 92
REMARK H PARENT 16 6 6 13 6 14 21 26 80 45 48 56
REMARK Flexibility Score: inf
ROOT
ATOM      1  C   UNL A   1      32.094  30.138  26.960  1.00  0.00     0.023 C 
ENDROOT
BRANCH   1   2
ATOM      2  C   UNL A   1      33.505  29.689  26.584  1.00  0.00     0.116 C 
BRANCH   2   3
ATOM      3  N   UNL A   1      33.665  29.583  25.146  1.00  0.00    -0.351 N 
ATOM      4  C   UNL A   1      33.215  28.627  24.281  1.00  0.00     0.278 C 
ATOM      5  O   UNL A   1      33.446  28.795  23.081  1.00  0.00    -0.268 OA
ATOM      6  H   UNL A   1      34.178  30.312  24.730  1.00  0.00     0.163 HD
BRANCH   4   7
ATOM      7  C   UNL A   1      32.422  27.390  24.769  1.00  0.00     0.273 C 
BRANCH   7   8
ATOM      8  C   UNL A   1      30.912  27.604  24.540  1.00  0.00     0.086 C 
BRANCH   8   9
ATOM      9  C   UNL A   1      30.410  27.450  23.103  1.00  0.00     0.076 C 
BRANCH   9  10
ATOM     10  S   UNL A   1      29.539  28.913  22.458  1.00  0.00    -0.165 SA
ATOM     11  C   UNL A   1      29.892  30.107  23.766  1.00  0.00     0.085 C 
ENDBRANCH   9  10
ENDBRANCH   8   9
ENDBRANCH   7   8
BRANCH   7  12
ATOM     12  N   UNL A   1      32.933  26.150  24.132  1.00  0.00    -0.332 N 
ATOM     13  H   UNL A   1      33.698  26.401  23.505  1.00  0.00     0.347 HD
ATOM     14  H   UNL A   1      32.151  25.722  23.638  1.00  0.00     0.347 HD
BRANCH  12  15
ATOM     15  C   UNL A   1      33.431  25.156  25.097  1.00  0.00     0.299 C 
BRANCH  15  16
ATOM     16  C   UNL A   1      34.645  24.392  24.640  1.00  0.00     0.024 A 
ATOM     17  C   UNL A   1      35.745  24.162  25.473  1.00  0.00     0.013 A 
ATOM     18  C   UNL A   1      34.698  23.853  23.356  1.00  0.00     0.120 A 
ATOM     19  C   UNL A   1      36.846  23.460  24.991  1.00  0.00     0.021 A 
ATOM     20  N   UNL A   1      35.746  23.148  22.871  1.00  0.00    -0.264 NA
ATOM     21  C   UNL A   1      36.800  22.976  23.695  1.00  0.00     0.111 A 
ENDBRANCH  15  16
ENDBRANCH  12  15
ENDBRANCH   7  12
ENDBRANCH   4   7
ENDBRANCH   2   3
ENDBRANCH   1   2
BRANCH   1  22
ATOM     22  C   UNL A   1      31.851  31.644  26.842  1.00  0.00     0.023 C 
BRANCH  22  23
ATOM     23  C   UNL A   1      32.936  32.528  27.449  1.00  0.00     0.116 C 
BRANCH  23  24
ATOM     24  N   UNL A   1      32.498  33.897  27.678  1.00  0.00    -0.352 N 
ATOM     25  C   UNL A   1      33.005  34.826  28.555  1.00  0.00     0.251 C 
ATOM     26  H   UNL A   1      31.736  34.198  27.132  1.00  0.00     0.163 HD
ATOM     27  O   UNL A   1      32.455  35.912  28.707  1.00  0.00    -0.269 OA
BRANCH  25  28
ATOM     28  C   UNL A   1      34.203  34.485  29.347  1.00  0.00     0.039 A 
ATOM     29  C   UNL A   1      34.033  33.926  30.616  1.00  0.00     0.014 A 
ATOM     30  C   UNL A   1      35.481  34.651  28.806  1.00  0.00     0.014 A 
ATOM     31  C   UNL A   1      35.144  33.440  31.306  1.00  0.00     0.010 A 
ATOM     32  C   UNL A   1      36.580  34.116  29.470  1.00  0.00     0.010 A 
ATOM     33  C   UNL A   1      36.417  33.485  30.713  1.00  0.00    -0.014 A 
BRANCH  33  34
ATOM     34  C   UNL A   1      37.583  32.817  31.341  1.00  0.00     0.031 A 
ATOM     35  C   UNL A   1      38.218  31.627  30.689  1.00  0.00     0.074 A 
ATOM     36  C   UNL A   1      37.999  33.229  32.555  1.00  0.00     0.049 A 
ATOM     37  N   UNL A   1      39.165  30.845  31.140  1.00  0.00    -0.248 NA
ATOM     38  C   UNL A   1      37.704  31.249  29.364  1.00  0.00     0.031 C 
ATOM     39  C   UNL A   1      37.426  34.344  33.312  1.00  0.00     0.029 A 
ATOM     40  N   UNL A   1      38.984  32.743  33.377  1.00  0.00    -0.354 N 
ATOM     41  C   UNL A   1      39.351  29.877  30.164  1.00  0.00     0.074 A 
ATOM     42  C   UNL A   1      38.393  30.145  29.113  1.00  0.00     0.031 C 
ATOM     43  C   UNL A   1      38.073  34.461  34.481  1.00  0.00     0.029 A 
ATOM     44  C   UNL A   1      39.079  33.407  34.575  1.00  0.00     0.049 A 
ATOM     45  H   UNL A   1      39.569  31.990  33.131  1.00  0.00     0.167 HD
ATOM     46  C   UNL A   1      40.254  28.867  30.141  1.00  0.00     0.037 A 
ATOM     47  C   UNL A   1      39.874  33.181  35.637  1.00  0.00     0.037 A 
ATOM     48  C   UNL A   1      41.222  28.621  31.177  1.00  0.00     0.049 A 
ATOM     49  C   UNL A   1      40.853  32.041  35.593  1.00  0.00     0.074 A 
ATOM     50  C   UNL A   1      42.235  27.678  31.204  1.00  0.00     0.029 A 
ATOM     51  N   UNL A   1      41.291  29.317  32.375  1.00  0.00    -0.354 N 
ATOM     52  N   UNL A   1      41.072  31.178  34.633  1.00  0.00    -0.248 NA
ATOM     53  C   UNL A   1      41.691  31.841  36.784  1.00  0.00     0.031 C 
ATOM     54  C   UNL A   1      42.890  27.776  32.436  1.00  0.00     0.029 A 
ATOM     55  C   UNL A   1      42.309  28.804  33.161  1.00  0.00     0.049 A 
ATOM     56  H   UNL A   1      40.703  30.064  32.628  1.00  0.00     0.167 HD
ATOM     57  C   UNL A   1      42.078  30.342  35.093  1.00  0.00     0.074 A 
ATOM     58  C   UNL A   1      42.441  30.813  36.415  1.00  0.00     0.031 C 
ATOM     59  C   UNL A   1      42.649  29.277  34.478  1.00  0.00     0.037 A 
BRANCH  46  60
ATOM     60  C   UNL A   1      40.241  27.952  28.953  1.00  0.00     0.064 A 
ATOM     61  C   UNL A   1      40.964  28.252  27.789  1.00  0.00     0.173 A 
ATOM     62  C   UNL A   1      39.534  26.742  28.996  1.00  0.00     0.173 A 
ATOM     63  F   UNL A   1      41.646  29.403  27.696  1.00  0.00    -0.203 F 
ATOM     64  C   UNL A   1      40.961  27.383  26.702  1.00  0.00     0.198 A 
ATOM     65  C   UNL A   1      39.553  25.863  27.916  1.00  0.00     0.198 A 
ATOM     66  F   UNL A   1      38.830  26.407  30.088  1.00  0.00    -0.203 F 
ATOM     67  F   UNL A   1      41.626  27.708  25.585  1.00  0.00    -0.200 F 
ATOM     68  C   UNL A   1      40.262  26.186  26.769  1.00  0.00     0.200 A 
ATOM     69  F   UNL A   1      38.885  24.704  27.985  1.00  0.00    -0.200 F 
ATOM     70  F   UNL A   1      40.267  25.348  25.724  1.00  0.00    -0.200 F 
ENDBRANCH  46  60
BRANCH  47  71
ATOM     71  C   UNL A   1      39.777  34.055  36.833  1.00  0.00     0.064 A 
ATOM     72  C   UNL A   1      38.951  33.707  37.910  1.00  0.00     0.173 A 
ATOM     73  C   UNL A   1      40.505  35.250  36.926  1.00  0.00     0.173 A 
ATOM     74  F   UNL A   1      38.218  32.585  37.856  1.00  0.00    -0.203 F 
ATOM     75  C   UNL A   1      38.848  34.528  39.032  1.00  0.00     0.198 A 
ATOM     76  C   UNL A   1      40.419  36.058  38.059  1.00  0.00     0.198 A 
ATOM     77  F   UNL A   1      41.312  35.625  35.923  1.00  0.00    -0.203 F 
ATOM     78  F   UNL A   1      38.023  34.190  40.032  1.00  0.00    -0.200 F 
ATOM     79  C   UNL A   1      39.587  35.699  39.107  1.00  0.00     0.200 A 
ATOM     80  F   UNL A   1      41.144  37.183  38.133  1.00  0.00    -0.200 F 
ATOM     81  F   UNL A   1      39.491  36.485  40.188  1.00  0.00    -0.200 F 
ENDBRANCH  47  71
BRANCH  59  82
ATOM     82  C   UNL A   1      43.727  28.552  35.227  1.00  0.00     0.064 A 
ATOM     83  C   UNL A   1      45.073  28.931  35.116  1.00  0.00     0.173 A 
ATOM     84  C   UNL A   1      43.407  27.498  36.095  1.00  0.00     0.173 A 
ATOM     85  F   UNL A   1      45.428  29.922  34.285  1.00  0.00    -0.203 F 
ATOM     86  C   UNL A   1      46.063  28.269  35.836  1.00  0.00     0.198 A 
ATOM     87  C   UNL A   1      44.397  26.854  36.832  1.00  0.00     0.198 A 
ATOM     88  F   UNL A   1      42.133  27.101  36.237  1.00  0.00    -0.203 F 
ATOM     89  F   UNL A   1      47.347  28.621  35.686  1.00  0.00    -0.200 F 
ATOM     90  C   UNL A   1      45.724  27.236  36.698  1.00  0.00     0.200 A 
ATOM     91  F   UNL A   1      44.068  25.863  37.672  1.00  0.00    -0.200 F 
ATOM     92  F   UNL A   1      46.677  26.604  37.395  1.00  0.00    -0.200 F 
ENDBRANCH  59  82
ENDBRANCH  33  34
ENDBRANCH  25  28
ENDBRANCH  23  24
ENDBRANCH  22  23
ENDBRANCH   1  22
TORSDOF 17
ENDMDL
