MODEL 1
REMARK VINA RESULT:     -12.6      0.000      0.000
REMARK SMILES Cc1cc(N2N=C(C(=O)NCCCCNC(=O)c3ccc(-c4c5nc(c(-c6c(F)c(F)c(F)c(F)c6F)c6ccc([nH]6)c(-c6c(F)c(F)c(F)c(F)c6F)c6nc(c(-c7c(F)c(F)c(F)c(F)c7F)c7ccc4[nH]7)C=C6)C=C5)cc3)C[C@H]2c2ccccc2)c([N+](=O)[O-])cc1C
REMARK SMILES IDX 12 1 11 2 10 3 8 4 9 5 7 7 5 8 6 9 82 10 81 11 4 12 1 13
REMARK SMILES IDX 2 14 3 15 94 16 93 17 95 18 89 19 90 20 91 21 92 22 83 23
REMARK SMILES IDX 84 24 88 25 85 26 87 27 86 28 13 29 14 30 15 31 16 32 17 34
REMARK SMILES IDX 18 35 19 36 80 37 20 38 79 39 21 40 22 41 23 42 73 43 24 44
REMARK SMILES IDX 78 45 72 46 74 47 25 48 77 49 71 50 70 51 26 53 58 54 38 55
REMARK SMILES IDX 57 56 39 57 42 58 56 59 75 60 40 61 41 62 55 64 76 65 43 66
REMARK SMILES IDX 27 67 28 68 36 69 29 70 30 71 34 72 37 73 31 74 32 75 35 76
REMARK SMILES IDX 33 77 59 78 60 79 68 80 61 81 62 82 66 83 69 84 63 85 64 86
REMARK SMILES IDX 67 87 65 88 44 89 45 90 53 91 46 92 47 93 51 94 54 95 48 96
REMARK SMILES IDX 49 97 52 98 50 99
REMARK H PARENT 10 6 15 33 74 52 42 63
REMARK Flexibility Score: inf
ROOT
ATOM      1  C   UNL A   1      31.578  27.779  25.919  1.00  0.00     0.023 C 
ENDROOT
BRANCH   1   2
ATOM      2  C   UNL A   1      31.526  26.337  25.427  1.00  0.00     0.116 C 
BRANCH   2   3
ATOM      3  N   UNL A   1      31.526  26.261  23.982  1.00  0.00    -0.351 N 
ATOM      4  C   UNL A   1      32.152  25.458  23.062  1.00  0.00     0.267 C 
ATOM      5  O   UNL A   1      31.938  25.695  21.875  1.00  0.00    -0.268 OA
ATOM      6  H   UNL A   1      30.947  26.940  23.565  1.00  0.00     0.163 HD
BRANCH   4   7
ATOM      7  C   UNL A   1      33.047  24.277  23.415  1.00  0.00     0.128 C 
ATOM      8  N   UNL A   1      33.647  22.464  24.381  1.00  0.00    -0.250 N 
ATOM      9  N   UNL A   1      32.620  23.338  24.209  1.00  0.00    -0.171 NA
ATOM     10  C   UNL A   1      34.839  22.795  23.593  1.00  0.00     0.144 C 
ATOM     11  C   UNL A   1      34.413  24.064  22.854  1.00  0.00     0.096 C 
BRANCH   8  12
ATOM     12  C   UNL A   1      33.374  21.123  24.656  1.00  0.00     0.138 A 
ATOM     13  C   UNL A   1      32.232  18.183  22.507  1.00  0.00     0.045 C 
ATOM     14  C   UNL A   1      32.641  18.953  23.733  1.00  0.00    -0.046 A 
ATOM     15  C   UNL A   1      33.042  20.292  23.573  1.00  0.00     0.039 A 
ATOM     16  C   UNL A   1      32.624  18.391  25.021  1.00  0.00    -0.041 A 
ATOM     17  C   UNL A   1      32.997  19.191  26.114  1.00  0.00     0.091 A 
ATOM     18  C   UNL A   1      32.234  16.964  25.288  1.00  0.00     0.045 C 
ATOM     19  C   UNL A   1      33.354  20.539  25.927  1.00  0.00     0.294 A 
BRANCH  19  20
ATOM     20  N   UNL A   1      33.604  21.330  27.124  1.00  0.00     0.065 N 
ATOM     21  O   UNL A   1      32.625  21.867  27.662  1.00  0.00    -0.258 OA
ATOM     22  O   UNL A   1      34.787  21.514  27.459  1.00  0.00    -0.258 OA
ENDBRANCH  19  20
ENDBRANCH   8  12
BRANCH  10  23
ATOM     23  C   UNL A   1      36.069  22.940  24.484  1.00  0.00    -0.023 A 
ATOM     24  C   UNL A   1      36.289  24.041  25.329  1.00  0.00     0.006 A 
ATOM     25  C   UNL A   1      37.018  21.901  24.498  1.00  0.00     0.006 A 
ATOM     26  C   UNL A   1      37.438  24.122  26.120  1.00  0.00     0.000 A 
ATOM     27  C   UNL A   1      38.143  21.963  25.321  1.00  0.00     0.000 A 
ATOM     28  C   UNL A   1      38.361  23.080  26.121  1.00  0.00     0.000 A 
ENDBRANCH  10  23
ENDBRANCH   4   7
ENDBRANCH   2   3
ENDBRANCH   1   2
BRANCH   1  29
ATOM     29  C   UNL A   1      32.229  27.952  27.289  1.00  0.00     0.023 C 
BRANCH  29  30
ATOM     30  C   UNL A   1      33.603  28.613  27.277  1.00  0.00     0.116 C 
BRANCH  30  31
ATOM     31  N   UNL A   1      33.580  30.023  27.647  1.00  0.00    -0.352 N 
ATOM     32  C   UNL A   1      34.577  30.778  28.212  1.00  0.00     0.251 C 
ATOM     33  H   UNL A   1      32.736  30.496  27.469  1.00  0.00     0.163 HD
ATOM     34  O   UNL A   1      34.369  31.939  28.549  1.00  0.00    -0.269 OA
BRANCH  32  35
ATOM     35  C   UNL A   1      35.895  30.162  28.451  1.00  0.00     0.039 A 
ATOM     36  C   UNL A   1      36.854  30.203  27.438  1.00  0.00     0.014 A 
ATOM     37  C   UNL A   1      36.198  29.603  29.696  1.00  0.00     0.014 A 
ATOM     38  C   UNL A   1      38.149  29.755  27.700  1.00  0.00     0.010 A 
ATOM     39  C   UNL A   1      37.506  29.230  29.979  1.00  0.00     0.010 A 
ATOM     40  C   UNL A   1      38.494  29.306  28.985  1.00  0.00    -0.014 A 
BRANCH  40  41
ATOM     41  C   UNL A   1      39.888  28.921  29.316  1.00  0.00     0.031 A 
ATOM     42  C   UNL A   1      40.771  29.871  30.072  1.00  0.00     0.074 A 
ATOM     43  C   UNL A   1      40.382  27.755  28.857  1.00  0.00     0.049 A 
ATOM     44  N   UNL A   1      42.037  29.757  30.381  1.00  0.00    -0.248 NA
ATOM     45  C   UNL A   1      40.159  31.137  30.503  1.00  0.00     0.031 C 
ATOM     46  C   UNL A   1      39.643  26.782  28.051  1.00  0.00     0.029 A 
ATOM     47  N   UNL A   1      41.631  27.201  28.985  1.00  0.00    -0.354 N 
ATOM     48  C   UNL A   1      42.376  30.941  31.020  1.00  0.00     0.074 A 
ATOM     49  C   UNL A   1      41.198  31.782  31.009  1.00  0.00     0.031 C 
ATOM     50  C   UNL A   1      40.449  25.747  27.766  1.00  0.00     0.029 A 
ATOM     51  C   UNL A   1      41.766  25.996  28.342  1.00  0.00     0.049 A 
ATOM     52  H   UNL A   1      42.361  27.628  29.491  1.00  0.00     0.167 HD
ATOM     53  C   UNL A   1      43.556  31.285  31.589  1.00  0.00     0.037 A 
ATOM     54  C   UNL A   1      42.837  25.187  28.223  1.00  0.00     0.037 A 
ATOM     55  C   UNL A   1      44.712  30.431  31.629  1.00  0.00     0.049 A 
ATOM     56  C   UNL A   1      44.127  25.575  28.891  1.00  0.00     0.074 A 
ATOM     57  C   UNL A   1      45.926  30.649  32.257  1.00  0.00     0.029 A 
ATOM     58  N   UNL A   1      44.799  29.192  31.009  1.00  0.00    -0.354 N 
ATOM     59  N   UNL A   1      44.410  26.657  29.575  1.00  0.00    -0.248 NA
ATOM     60  C   UNL A   1      45.241  24.624  28.784  1.00  0.00     0.031 C 
ATOM     61  C   UNL A   1      46.761  29.561  31.980  1.00  0.00     0.029 A 
ATOM     62  C   UNL A   1      46.054  28.644  31.219  1.00  0.00     0.049 A 
ATOM     63  H   UNL A   1      44.075  28.766  30.495  1.00  0.00     0.167 HD
ATOM     64  C   UNL A   1      45.725  26.511  29.994  1.00  0.00     0.074 A 
ATOM     65  C   UNL A   1      46.178  25.225  29.503  1.00  0.00     0.031 C 
ATOM     66  C   UNL A   1      46.488  27.364  30.721  1.00  0.00     0.037 A 
BRANCH  53  67
ATOM     67  C   UNL A   1      43.649  32.648  32.214  1.00  0.00     0.064 A 
ATOM     68  C   UNL A   1      44.041  33.773  31.473  1.00  0.00     0.173 A 
ATOM     69  C   UNL A   1      43.329  32.832  33.567  1.00  0.00     0.173 A 
ATOM     70  F   UNL A   1      44.371  33.648  30.178  1.00  0.00    -0.203 F 
ATOM     71  C   UNL A   1      44.147  35.025  32.073  1.00  0.00     0.198 A 
ATOM     72  C   UNL A   1      43.405  34.092  34.156  1.00  0.00     0.198 A 
ATOM     73  F   UNL A   1      42.943  31.791  34.319  1.00  0.00    -0.203 F 
ATOM     74  F   UNL A   1      44.582  36.073  31.360  1.00  0.00    -0.200 F 
ATOM     75  C   UNL A   1      43.824  35.184  33.411  1.00  0.00     0.200 A 
ATOM     76  F   UNL A   1      43.080  34.247  35.446  1.00  0.00    -0.200 F 
ATOM     77  F   UNL A   1      43.925  36.391  33.987  1.00  0.00    -0.200 F 
ENDBRANCH  53  67
BRANCH  54  78
ATOM     78  C   UNL A   1      42.718  23.919  27.458  1.00  0.00     0.064 A 
ATOM     79  C   UNL A   1      43.081  23.858  26.106  1.00  0.00     0.173 A 
ATOM     80  C   UNL A   1      42.258  22.743  28.067  1.00  0.00     0.173 A 
ATOM     81  F   UNL A   1      43.510  24.962  25.477  1.00  0.00    -0.203 F 
ATOM     82  C   UNL A   1      42.976  22.669  25.386  1.00  0.00     0.198 A 
ATOM     83  C   UNL A   1      42.178  21.549  27.353  1.00  0.00     0.198 A 
ATOM     84  F   UNL A   1      41.906  22.749  29.360  1.00  0.00    -0.203 F 
ATOM     85  F   UNL A   1      43.296  22.645  24.086  1.00  0.00    -0.200 F 
ATOM     86  C   UNL A   1      42.531  21.514  26.012  1.00  0.00     0.200 A 
ATOM     87  F   UNL A   1      41.761  20.432  27.964  1.00  0.00    -0.200 F 
ATOM     88  F   UNL A   1      42.438  20.369  25.322  1.00  0.00    -0.200 F 
ENDBRANCH  54  78
BRANCH  66  89
ATOM     89  C   UNL A   1      47.886  26.927  31.047  1.00  0.00     0.064 A 
ATOM     90  C   UNL A   1      48.981  27.330  30.270  1.00  0.00     0.173 A 
ATOM     91  C   UNL A   1      48.137  26.133  32.176  1.00  0.00     0.173 A 
ATOM     92  F   UNL A   1      48.791  28.077  29.171  1.00  0.00    -0.203 F 
ATOM     93  C   UNL A   1      50.276  26.935  30.598  1.00  0.00     0.198 A 
ATOM     94  C   UNL A   1      49.434  25.763  32.518  1.00  0.00     0.198 A 
ATOM     95  F   UNL A   1      47.123  25.726  32.956  1.00  0.00    -0.203 F 
ATOM     96  F   UNL A   1      51.303  27.296  29.817  1.00  0.00    -0.200 F 
ATOM     97  C   UNL A   1      50.501  26.159  31.726  1.00  0.00     0.200 A 
ATOM     98  F   UNL A   1      49.652  25.024  33.614  1.00  0.00    -0.200 F 
ATOM     99  F   UNL A   1      51.748  25.786  32.046  1.00  0.00    -0.200 F 
ENDBRANCH  66  89
ENDBRANCH  40  41
ENDBRANCH  32  35
ENDBRANCH  30  31
ENDBRANCH  29  30
ENDBRANCH   1  29
TORSDOF 14
ENDMDL
MODEL 2
REMARK VINA RESULT:     -12.4      3.804      8.807
REMARK SMILES Cc1cc(N2N=C(C(=O)NCCCCNC(=O)c3ccc(-c4c5nc(c(-c6c(F)c(F)c(F)c(F)c6F)c6ccc([nH]6)c(-c6c(F)c(F)c(F)c(F)c6F)c6nc(c(-c7c(F)c(F)c(F)c(F)c7F)c7ccc4[nH]7)C=C6)C=C5)cc3)C[C@H]2c2ccccc2)c([N+](=O)[O-])cc1C
REMARK SMILES IDX 12 1 11 2 10 3 8 4 9 5 7 7 5 8 6 9 82 10 81 11 4 12 1 13
REMARK SMILES IDX 2 14 3 15 94 16 93 17 95 18 89 19 90 20 91 21 92 22 83 23
REMARK SMILES IDX 84 24 88 25 85 26 87 27 86 28 13 29 14 30 15 31 16 32 17 34
REMARK SMILES IDX 18 35 19 36 80 37 20 38 79 39 21 40 22 41 23 42 73 43 24 44
REMARK SMILES IDX 78 45 72 46 74 47 25 48 77 49 71 50 70 51 26 53 58 54 38 55
REMARK SMILES IDX 57 56 39 57 42 58 56 59 75 60 40 61 41 62 55 64 76 65 43 66
REMARK SMILES IDX 27 67 28 68 36 69 29 70 30 71 34 72 37 73 31 74 32 75 35 76
REMARK SMILES IDX 33 77 59 78 60 79 68 80 61 81 62 82 66 83 69 84 63 85 64 86
REMARK SMILES IDX 67 87 65 88 44 89 45 90 53 91 46 92 47 93 51 94 54 95 48 96
REMARK SMILES IDX 49 97 52 98 50 99
REMARK H PARENT 10 6 15 33 74 52 42 63
REMARK Flexibility Score: inf
ROOT
ATOM      1  C   UNL A   1      32.169  30.405  26.485  1.00  0.00     0.023 C 
ENDROOT
BRANCH   1   2
ATOM      2  C   UNL A   1      31.653  29.891  25.145  1.00  0.00     0.116 C 
BRANCH   2   3
ATOM      3  N   UNL A   1      32.728  29.680  24.200  1.00  0.00    -0.351 N 
ATOM      4  C   UNL A   1      33.579  28.637  23.931  1.00  0.00     0.267 C 
ATOM      5  O   UNL A   1      34.417  28.812  23.049  1.00  0.00    -0.268 OA
ATOM      6  H   UNL A   1      32.886  30.461  23.621  1.00  0.00     0.163 HD
BRANCH   4   7
ATOM      7  C   UNL A   1      33.521  27.277  24.615  1.00  0.00     0.128 C 
ATOM      8  N   UNL A   1      33.712  25.156  24.829  1.00  0.00    -0.250 N 
ATOM      9  N   UNL A   1      33.944  26.210  24.001  1.00  0.00    -0.171 NA
ATOM     10  C   UNL A   1      33.153  25.542  26.129  1.00  0.00     0.144 C 
ATOM     11  C   UNL A   1      33.054  27.063  26.016  1.00  0.00     0.096 C 
BRANCH   8  12
ATOM     12  C   UNL A   1      34.532  24.029  24.757  1.00  0.00     0.138 A 
ATOM     13  C   UNL A   1      38.033  23.242  26.058  1.00  0.00     0.045 C 
ATOM     14  C   UNL A   1      36.719  23.048  25.351  1.00  0.00    -0.046 A 
ATOM     15  C   UNL A   1      35.761  24.075  25.437  1.00  0.00     0.039 A 
ATOM     16  C   UNL A   1      36.424  21.895  24.605  1.00  0.00    -0.041 A 
ATOM     17  C   UNL A   1      35.181  21.808  23.955  1.00  0.00     0.091 A 
ATOM     18  C   UNL A   1      37.374  20.737  24.475  1.00  0.00     0.045 C 
ATOM     19  C   UNL A   1      34.260  22.868  24.025  1.00  0.00     0.294 A 
BRANCH  19  20
ATOM     20  N   UNL A   1      33.052  22.751  23.221  1.00  0.00     0.065 N 
ATOM     21  O   UNL A   1      32.042  22.298  23.780  1.00  0.00    -0.258 OA
ATOM     22  O   UNL A   1      33.140  22.997  22.006  1.00  0.00    -0.258 OA
ENDBRANCH  19  20
ENDBRANCH   8  12
BRANCH  10  23
ATOM     23  C   UNL A   1      31.837  24.820  26.402  1.00  0.00    -0.023 A 
ATOM     24  C   UNL A   1      31.761  23.514  26.916  1.00  0.00     0.006 A 
ATOM     25  C   UNL A   1      30.630  25.506  26.169  1.00  0.00     0.006 A 
ATOM     26  C   UNL A   1      30.526  22.901  27.142  1.00  0.00     0.000 A 
ATOM     27  C   UNL A   1      29.398  24.908  26.436  1.00  0.00     0.000 A 
ATOM     28  C   UNL A   1      29.346  23.600  26.909  1.00  0.00     0.000 A 
ENDBRANCH  10  23
ENDBRANCH   4   7
ENDBRANCH   2   3
ENDBRANCH   1   2
BRANCH   1  29
ATOM     29  C   UNL A   1      31.767  31.842  26.804  1.00  0.00     0.023 C 
BRANCH  29  30
ATOM     30  C   UNL A   1      32.879  32.714  27.379  1.00  0.00     0.116 C 
BRANCH  30  31
ATOM     31  N   UNL A   1      32.459  34.079  27.677  1.00  0.00    -0.352 N 
ATOM     32  C   UNL A   1      32.976  34.953  28.601  1.00  0.00     0.251 C 
ATOM     33  H   UNL A   1      31.704  34.417  27.145  1.00  0.00     0.163 HD
ATOM     34  O   UNL A   1      32.449  36.043  28.793  1.00  0.00    -0.269 OA
BRANCH  32  35
ATOM     35  C   UNL A   1      34.151  34.546  29.393  1.00  0.00     0.039 A 
ATOM     36  C   UNL A   1      33.953  34.002  30.664  1.00  0.00     0.014 A 
ATOM     37  C   UNL A   1      35.436  34.643  28.854  1.00  0.00     0.014 A 
ATOM     38  C   UNL A   1      35.040  33.478  31.363  1.00  0.00     0.010 A 
ATOM     39  C   UNL A   1      36.505  34.053  29.516  1.00  0.00     0.010 A 
ATOM     40  C   UNL A   1      36.316  33.462  30.776  1.00  0.00    -0.014 A 
BRANCH  40  41
ATOM     41  C   UNL A   1      37.468  32.821  31.456  1.00  0.00     0.031 A 
ATOM     42  C   UNL A   1      38.173  31.664  30.810  1.00  0.00     0.074 A 
ATOM     43  C   UNL A   1      37.817  33.223  32.693  1.00  0.00     0.049 A 
ATOM     44  N   UNL A   1      39.140  30.917  31.279  1.00  0.00    -0.248 NA
ATOM     45  C   UNL A   1      37.702  31.269  29.474  1.00  0.00     0.031 C 
ATOM     46  C   UNL A   1      37.160  34.288  33.453  1.00  0.00     0.029 A 
ATOM     47  N   UNL A   1      38.798  32.768  33.538  1.00  0.00    -0.354 N 
ATOM     48  C   UNL A   1      39.375  29.954  30.307  1.00  0.00     0.074 A 
ATOM     49  C   UNL A   1      38.416  30.177  29.247  1.00  0.00     0.031 C 
ATOM     50  C   UNL A   1      37.763  34.411  34.646  1.00  0.00     0.029 A 
ATOM     51  C   UNL A   1      38.826  33.416  34.747  1.00  0.00     0.049 A 
ATOM     52  H   UNL A   1      39.422  32.045  33.299  1.00  0.00     0.167 HD
ATOM     53  C   UNL A   1      40.322  28.987  30.291  1.00  0.00     0.037 A 
ATOM     54  C   UNL A   1      39.617  33.223  35.821  1.00  0.00     0.037 A 
ATOM     55  C   UNL A   1      41.296  28.792  31.332  1.00  0.00     0.049 A 
ATOM     56  C   UNL A   1      40.684  32.166  35.765  1.00  0.00     0.074 A 
ATOM     57  C   UNL A   1      42.354  27.900  31.369  1.00  0.00     0.029 A 
ATOM     58  N   UNL A   1      41.328  29.502  32.523  1.00  0.00    -0.354 N 
ATOM     59  N   UNL A   1      40.959  31.320  34.803  1.00  0.00    -0.248 NA
ATOM     60  C   UNL A   1      41.559  32.044  36.939  1.00  0.00     0.031 C 
ATOM     61  C   UNL A   1      42.998  28.040  32.604  1.00  0.00     0.029 A 
ATOM     62  C   UNL A   1      42.372  29.052  33.315  1.00  0.00     0.049 A 
ATOM     63  H   UNL A   1      40.700  30.220  32.771  1.00  0.00     0.167 HD
ATOM     64  C   UNL A   1      42.047  30.579  35.244  1.00  0.00     0.074 A 
ATOM     65  C   UNL A   1      42.393  31.089  36.555  1.00  0.00     0.031 C 
ATOM     66  C   UNL A   1      42.701  29.569  34.619  1.00  0.00     0.037 A 
BRANCH  53  67
ATOM     67  C   UNL A   1      40.347  28.066  29.105  1.00  0.00     0.064 A 
ATOM     68  C   UNL A   1      41.081  28.373  27.948  1.00  0.00     0.173 A 
ATOM     69  C   UNL A   1      39.641  26.855  29.130  1.00  0.00     0.173 A 
ATOM     70  F   UNL A   1      41.764  29.526  27.868  1.00  0.00    -0.203 F 
ATOM     71  C   UNL A   1      41.074  27.521  26.848  1.00  0.00     0.198 A 
ATOM     72  C   UNL A   1      39.661  25.989  28.039  1.00  0.00     0.198 A 
ATOM     73  F   UNL A   1      38.928  26.510  30.213  1.00  0.00    -0.203 F 
ATOM     74  F   UNL A   1      41.733  27.865  25.732  1.00  0.00    -0.200 F 
ATOM     75  C   UNL A   1      40.369  26.328  26.896  1.00  0.00     0.200 A 
ATOM     76  F   UNL A   1      38.991  24.831  28.091  1.00  0.00    -0.200 F 
ATOM     77  F   UNL A   1      40.365  25.508  25.835  1.00  0.00    -0.200 F 
ENDBRANCH  53  67
BRANCH  54  78
ATOM     78  C   UNL A   1      39.438  34.072  37.027  1.00  0.00     0.064 A 
ATOM     79  C   UNL A   1      38.711  33.609  38.132  1.00  0.00     0.173 A 
ATOM     80  C   UNL A   1      40.002  35.354  37.105  1.00  0.00     0.173 A 
ATOM     81  F   UNL A   1      38.138  32.397  38.096  1.00  0.00    -0.203 F 
ATOM     82  C   UNL A   1      38.546  34.401  39.267  1.00  0.00     0.198 A 
ATOM     83  C   UNL A   1      39.858  36.134  38.250  1.00  0.00     0.198 A 
ATOM     84  F   UNL A   1      40.712  35.838  36.076  1.00  0.00    -0.203 F 
ATOM     85  F   UNL A   1      37.818  33.948  40.296  1.00  0.00    -0.200 F 
ATOM     86  C   UNL A   1      39.124  35.659  39.328  1.00  0.00     0.200 A 
ATOM     87  F   UNL A   1      40.430  37.344  38.311  1.00  0.00    -0.200 F 
ATOM     88  F   UNL A   1      38.972  36.417  40.423  1.00  0.00    -0.200 F 
ENDBRANCH  54  78
BRANCH  66  89
ATOM     89  C   UNL A   1      43.870  28.960  35.336  1.00  0.00     0.064 A 
ATOM     90  C   UNL A   1      45.177  29.427  35.137  1.00  0.00     0.173 A 
ATOM     91  C   UNL A   1      43.674  27.928  36.266  1.00  0.00     0.173 A 
ATOM     92  F   UNL A   1      45.417  30.402  34.248  1.00  0.00    -0.203 F 
ATOM     93  C   UNL A   1      46.249  28.867  35.828  1.00  0.00     0.198 A 
ATOM     94  C   UNL A   1      44.743  27.390  36.975  1.00  0.00     0.198 A 
ATOM     95  F   UNL A   1      42.441  27.449  36.496  1.00  0.00    -0.203 F 
ATOM     96  F   UNL A   1      47.495  29.300  35.590  1.00  0.00    -0.200 F 
ATOM     97  C   UNL A   1      46.030  27.855  36.751  1.00  0.00     0.200 A 
ATOM     98  F   UNL A   1      44.529  26.421  37.875  1.00  0.00    -0.200 F 
ATOM     99  F   UNL A   1      47.062  27.323  37.420  1.00  0.00    -0.200 F 
ENDBRANCH  66  89
ENDBRANCH  40  41
ENDBRANCH  32  35
ENDBRANCH  30  31
ENDBRANCH  29  30
ENDBRANCH   1  29
TORSDOF 14
ENDMDL
MODEL 3
REMARK VINA RESULT:     -12.3      2.692      3.728
REMARK SMILES Cc1cc(N2N=C(C(=O)NCCCCNC(=O)c3ccc(-c4c5nc(c(-c6c(F)c(F)c(F)c(F)c6F)c6ccc([nH]6)c(-c6c(F)c(F)c(F)c(F)c6F)c6nc(c(-c7c(F)c(F)c(F)c(F)c7F)c7ccc4[nH]7)C=C6)C=C5)cc3)C[C@H]2c2ccccc2)c([N+](=O)[O-])cc1C
REMARK SMILES IDX 12 1 11 2 10 3 8 4 9 5 7 7 5 8 6 9 82 10 81 11 4 12 1 13
REMARK SMILES IDX 2 14 3 15 94 16 93 17 95 18 89 19 90 20 91 21 92 22 83 23
REMARK SMILES IDX 84 24 88 25 85 26 87 27 86 28 13 29 14 30 15 31 16 32 17 34
REMARK SMILES IDX 18 35 19 36 80 37 20 38 79 39 21 40 22 41 23 42 73 43 24 44
REMARK SMILES IDX 78 45 72 46 74 47 25 48 77 49 71 50 70 51 26 53 58 54 38 55
REMARK SMILES IDX 57 56 39 57 42 58 56 59 75 60 40 61 41 62 55 64 76 65 43 66
REMARK SMILES IDX 27 67 28 68 36 69 29 70 30 71 34 72 37 73 31 74 32 75 35 76
REMARK SMILES IDX 33 77 59 78 60 79 68 80 61 81 62 82 66 83 69 84 63 85 64 86
REMARK SMILES IDX 67 87 65 88 44 89 45 90 53 91 46 92 47 93 51 94 54 95 48 96
REMARK SMILES IDX 49 97 52 98 50 99
REMARK H PARENT 10 6 15 33 74 52 42 63
REMARK Flexibility Score: inf
ROOT
ATOM      1  C   UNL A   1      33.619  28.916  23.740  1.00  0.00     0.023 C 
ENDROOT
BRANCH   1   2
ATOM      2  C   UNL A   1      33.741  27.514  23.154  1.00  0.00     0.116 C 
BRANCH   2   3
ATOM      3  N   UNL A   1      32.454  26.861  23.048  1.00  0.00    -0.351 N 
ATOM      4  C   UNL A   1      32.028  25.559  23.124  1.00  0.00     0.267 C 
ATOM      5  O   UNL A   1      30.827  25.352  22.957  1.00  0.00    -0.268 OA
ATOM      6  H   UNL A   1      31.718  27.494  22.882  1.00  0.00     0.163 HD
BRANCH   4   7
ATOM      7  C   UNL A   1      32.929  24.373  23.445  1.00  0.00     0.128 C 
ATOM      8  N   UNL A   1      33.540  22.539  24.363  1.00  0.00    -0.250 N 
ATOM      9  N   UNL A   1      32.508  23.412  24.215  1.00  0.00    -0.171 NA
ATOM     10  C   UNL A   1      34.729  22.897  23.583  1.00  0.00     0.144 C 
ATOM     11  C   UNL A   1      34.296  24.182  22.877  1.00  0.00     0.096 C 
BRANCH   8  12
ATOM     12  C   UNL A   1      33.274  21.189  24.603  1.00  0.00     0.138 A 
ATOM     13  C   UNL A   1      32.153  18.299  22.377  1.00  0.00     0.045 C 
ATOM     14  C   UNL A   1      32.555  19.040  23.623  1.00  0.00    -0.046 A 
ATOM     15  C   UNL A   1      32.949  20.385  23.498  1.00  0.00     0.039 A 
ATOM     16  C   UNL A   1      32.539  18.446  24.896  1.00  0.00    -0.041 A 
ATOM     17  C   UNL A   1      32.906  19.219  26.010  1.00  0.00     0.091 A 
ATOM     18  C   UNL A   1      32.157  17.010  25.125  1.00  0.00     0.045 C 
ATOM     19  C   UNL A   1      33.255  20.573  25.858  1.00  0.00     0.294 A 
BRANCH  19  20
ATOM     20  N   UNL A   1      33.499  21.335  27.075  1.00  0.00     0.065 N 
ATOM     21  O   UNL A   1      32.528  21.915  27.583  1.00  0.00    -0.258 OA
ATOM     22  O   UNL A   1      34.675  21.453  27.458  1.00  0.00    -0.258 OA
ENDBRANCH  19  20
ENDBRANCH   8  12
BRANCH  10  23
ATOM     23  C   UNL A   1      35.960  23.025  24.476  1.00  0.00    -0.023 A 
ATOM     24  C   UNL A   1      36.153  24.080  25.383  1.00  0.00     0.006 A 
ATOM     25  C   UNL A   1      36.938  22.014  24.425  1.00  0.00     0.006 A 
ATOM     26  C   UNL A   1      37.303  24.148  26.173  1.00  0.00     0.000 A 
ATOM     27  C   UNL A   1      38.065  22.060  25.246  1.00  0.00     0.000 A 
ATOM     28  C   UNL A   1      38.255  23.135  26.110  1.00  0.00     0.000 A 
ENDBRANCH  10  23
ENDBRANCH   4   7
ENDBRANCH   2   3
ENDBRANCH   1   2
BRANCH   1  29
ATOM     29  C   UNL A   1      32.432  29.102  24.681  1.00  0.00     0.023 C 
BRANCH  29  30
ATOM     30  C   UNL A   1      32.795  29.429  26.126  1.00  0.00     0.116 C 
BRANCH  30  31
ATOM     31  N   UNL A   1      32.588  30.828  26.482  1.00  0.00    -0.352 N 
ATOM     32  C   UNL A   1      33.379  31.644  27.251  1.00  0.00     0.251 C 
ATOM     33  H   UNL A   1      31.771  31.242  26.122  1.00  0.00     0.163 HD
ATOM     34  O   UNL A   1      33.018  32.781  27.532  1.00  0.00    -0.269 OA
BRANCH  32  35
ATOM     35  C   UNL A   1      34.654  31.119  27.774  1.00  0.00     0.039 A 
ATOM     36  C   UNL A   1      35.706  32.006  28.006  1.00  0.00     0.014 A 
ATOM     37  C   UNL A   1      34.783  29.764  28.095  1.00  0.00     0.014 A 
ATOM     38  C   UNL A   1      36.864  31.550  28.636  1.00  0.00     0.010 A 
ATOM     39  C   UNL A   1      35.902  29.328  28.791  1.00  0.00     0.010 A 
ATOM     40  C   UNL A   1      36.952  30.218  29.071  1.00  0.00    -0.014 A 
BRANCH  40  41
ATOM     41  C   UNL A   1      38.129  29.733  29.833  1.00  0.00     0.031 A 
ATOM     42  C   UNL A   1      38.392  30.249  31.218  1.00  0.00     0.074 A 
ATOM     43  C   UNL A   1      39.007  28.901  29.241  1.00  0.00     0.049 A 
ATOM     44  N   UNL A   1      39.408  30.017  32.009  1.00  0.00    -0.248 NA
ATOM     45  C   UNL A   1      37.400  31.183  31.772  1.00  0.00     0.031 C 
ATOM     46  C   UNL A   1      38.897  28.388  27.874  1.00  0.00     0.029 A 
ATOM     47  N   UNL A   1      40.177  28.356  29.708  1.00  0.00    -0.354 N 
ATOM     48  C   UNL A   1      39.187  30.790  33.140  1.00  0.00     0.074 A 
ATOM     49  C   UNL A   1      37.971  31.539  32.912  1.00  0.00     0.031 C 
ATOM     50  C   UNL A   1      39.950  27.596  27.617  1.00  0.00     0.029 A 
ATOM     51  C   UNL A   1      40.822  27.569  28.787  1.00  0.00     0.049 A 
ATOM     52  H   UNL A   1      40.520  28.515  30.616  1.00  0.00     0.167 HD
ATOM     53  C   UNL A   1      39.921  30.850  34.277  1.00  0.00     0.037 A 
ATOM     54  C   UNL A   1      41.992  26.906  28.875  1.00  0.00     0.037 A 
ATOM     55  C   UNL A   1      41.111  30.076  34.512  1.00  0.00     0.049 A 
ATOM     56  C   UNL A   1      42.771  26.961  30.159  1.00  0.00     0.074 A 
ATOM     57  C   UNL A   1      41.876  29.997  35.662  1.00  0.00     0.029 A 
ATOM     58  N   UNL A   1      41.710  29.248  33.574  1.00  0.00    -0.354 N 
ATOM     59  N   UNL A   1      42.506  27.623  31.258  1.00  0.00    -0.248 NA
ATOM     60  C   UNL A   1      44.006  26.166  30.220  1.00  0.00     0.031 C 
ATOM     61  C   UNL A   1      42.963  29.154  35.405  1.00  0.00     0.029 A 
ATOM     62  C   UNL A   1      42.850  28.672  34.111  1.00  0.00     0.049 A 
ATOM     63  H   UNL A   1      41.375  29.093  32.661  1.00  0.00     0.167 HD
ATOM     64  C   UNL A   1      43.526  27.313  32.147  1.00  0.00     0.074 A 
ATOM     65  C   UNL A   1      44.406  26.388  31.463  1.00  0.00     0.031 C 
ATOM     66  C   UNL A   1      43.716  27.754  33.415  1.00  0.00     0.037 A 
BRANCH  53  67
ATOM     67  C   UNL A   1      39.452  31.788  35.351  1.00  0.00     0.064 A 
ATOM     68  C   UNL A   1      38.576  31.370  36.365  1.00  0.00     0.173 A 
ATOM     69  C   UNL A   1      39.895  33.119  35.377  1.00  0.00     0.173 A 
ATOM     70  F   UNL A   1      38.112  30.110  36.378  1.00  0.00    -0.203 F 
ATOM     71  C   UNL A   1      38.131  32.258  37.339  1.00  0.00     0.198 A 
ATOM     72  C   UNL A   1      39.473  33.996  36.372  1.00  0.00     0.198 A 
ATOM     73  F   UNL A   1      40.738  33.570  34.435  1.00  0.00    -0.203 F 
ATOM     74  F   UNL A   1      37.247  31.850  38.261  1.00  0.00    -0.200 F 
ATOM     75  C   UNL A   1      38.583  33.568  37.346  1.00  0.00     0.200 A 
ATOM     76  F   UNL A   1      39.921  35.259  36.385  1.00  0.00    -0.200 F 
ATOM     77  F   UNL A   1      38.154  34.422  38.286  1.00  0.00    -0.200 F 
ENDBRANCH  53  67
BRANCH  54  78
ATOM     78  C   UNL A   1      42.476  26.115  27.714  1.00  0.00     0.064 A 
ATOM     79  C   UNL A   1      41.968  24.835  27.452  1.00  0.00     0.173 A 
ATOM     80  C   UNL A   1      43.442  26.628  26.835  1.00  0.00     0.173 A 
ATOM     81  F   UNL A   1      41.057  24.296  28.275  1.00  0.00    -0.203 F 
ATOM     82  C   UNL A   1      42.416  24.093  26.362  1.00  0.00     0.198 A 
ATOM     83  C   UNL A   1      43.870  25.895  25.731  1.00  0.00     0.198 A 
ATOM     84  F   UNL A   1      43.953  27.851  27.039  1.00  0.00    -0.203 F 
ATOM     85  F   UNL A   1      41.939  22.859  26.153  1.00  0.00    -0.200 F 
ATOM     86  C   UNL A   1      43.361  24.625  25.498  1.00  0.00     0.200 A 
ATOM     87  F   UNL A   1      44.772  26.419  24.890  1.00  0.00    -0.200 F 
ATOM     88  F   UNL A   1      43.785  23.914  24.445  1.00  0.00    -0.200 F 
ENDBRANCH  54  78
BRANCH  66  89
ATOM     89  C   UNL A   1      44.910  27.227  34.154  1.00  0.00     0.064 A 
ATOM     90  C   UNL A   1      46.131  27.915  34.163  1.00  0.00     0.173 A 
ATOM     91  C   UNL A   1      44.818  26.040  34.898  1.00  0.00     0.173 A 
ATOM     92  F   UNL A   1      46.273  29.047  33.455  1.00  0.00    -0.203 F 
ATOM     93  C   UNL A   1      47.225  27.425  34.873  1.00  0.00     0.198 A 
ATOM     94  C   UNL A   1      45.904  25.567  35.629  1.00  0.00     0.198 A 
ATOM     95  F   UNL A   1      43.670  25.346  34.926  1.00  0.00    -0.203 F 
ATOM     96  F   UNL A   1      48.394  28.077  34.832  1.00  0.00    -0.200 F 
ATOM     97  C   UNL A   1      47.107  26.256  35.611  1.00  0.00     0.200 A 
ATOM     98  F   UNL A   1      45.785  24.445  36.351  1.00  0.00    -0.200 F 
ATOM     99  F   UNL A   1      48.157  25.789  36.300  1.00  0.00    -0.200 F 
ENDBRANCH  66  89
ENDBRANCH  40  41
ENDBRANCH  32  35
ENDBRANCH  30  31
ENDBRANCH  29  30
ENDBRANCH   1  29
TORSDOF 14
ENDMDL
