MODEL 1
REMARK VINA RESULT:     -12.9      0.000      0.000
REMARK SMILES CS(=O)(=O)c1ccc(-c2cc(Cl)cnc2-c2ccc(C(=O)NCCCCNC(=O)c3ccc(-c4c5nc(c(-c6c(F)c(F)c(F)c(F)c6F)c6ccc([nH]6)c(-c6c(F)c(F)c(F)c(F)c6F)c6nc(c(-c7c(F)c(F)c(F)c(F)c7F)c7ccc4[nH]7)C=C6)C=C5)cc3)nc2)cc1
REMARK SMILES IDX 24 1 23 2 22 3 20 4 21 5 19 7 16 8 17 9 94 10 18 11 93 12
REMARK SMILES IDX 15 13 9 14 10 15 11 16 14 17 12 18 13 19 8 20 5 21 6 22
REMARK SMILES IDX 96 23 7 24 95 25 2 26 1 27 3 28 4 29 25 30 26 31 27 32 28 33
REMARK SMILES IDX 29 35 30 36 31 37 92 38 32 39 91 40 33 41 34 42 35 43 85 44
REMARK SMILES IDX 36 45 90 46 84 47 86 48 37 49 89 50 83 51 82 52 38 54 70 55
REMARK SMILES IDX 50 56 69 57 51 58 54 59 68 60 87 61 52 62 53 63 67 65 88 66
REMARK SMILES IDX 55 67 39 68 40 69 48 70 41 71 42 72 46 73 49 74 43 75 44 76
REMARK SMILES IDX 47 77 45 78 71 79 72 80 80 81 73 82 74 83 78 84 81 85 75 86
REMARK SMILES IDX 76 87 79 88 77 89 56 90 57 91 65 92 58 93 59 94 63 95 66 96
REMARK SMILES IDX 60 97 61 98 64 99 62 100
REMARK H PARENT 22 6 27 34 86 53 54 64
REMARK Flexibility Score: inf
ROOT
ATOM      1  C   UNL A   1      34.730  21.138  24.682  1.00  0.00     0.023 C 
ENDROOT
BRANCH   1   2
ATOM      2  C   UNL A   1      33.221  21.358  24.819  1.00  0.00     0.116 C 
BRANCH   2   3
ATOM      3  N   UNL A   1      32.870  21.641  26.195  1.00  0.00    -0.351 N 
ATOM      4  C   UNL A   1      32.384  22.762  26.832  1.00  0.00     0.269 C 
ATOM      5  O   UNL A   1      32.186  22.643  28.044  1.00  0.00    -0.268 OA
ATOM      6  H   UNL A   1      33.008  20.877  26.799  1.00  0.00     0.163 HD
BRANCH   4   7
ATOM      7  C   UNL A   1      32.060  24.066  26.141  1.00  0.00     0.128 A 
ATOM      8  C   UNL A   1      31.174  26.417  24.951  1.00  0.00     0.019 A 
ATOM      9  C   UNL A   1      32.216  25.686  24.378  1.00  0.00     0.014 A 
ATOM     10  C   UNL A   1      30.685  25.951  26.163  1.00  0.00     0.122 A 
ATOM     11  C   UNL A   1      32.681  24.522  24.987  1.00  0.00     0.035 A 
ATOM     12  N   UNL A   1      31.082  24.795  26.748  1.00  0.00    -0.250 NA
BRANCH   8  13
ATOM     13  C   UNL A   1      30.611  27.581  24.266  1.00  0.00     0.080 A 
ATOM     14  C   UNL A   1      31.018  28.903  24.568  1.00  0.00     0.010 A 
ATOM     15  C   UNL A   1      30.278  29.945  23.988  1.00  0.00     0.033 A 
ATOM     16  C   UNL A   1      29.214  29.655  23.140  1.00  0.00     0.060 A 
ATOM     17  N   UNL A   1      29.596  27.288  23.413  1.00  0.00    -0.254 NA
ATOM     18  Cl  UNL A   1      28.273  30.918  22.458  1.00  0.00    -0.083 Cl
ATOM     19  C   UNL A   1      28.922  28.329  22.871  1.00  0.00     0.132 A 
BRANCH  14  20
ATOM     20  C   UNL A   1      32.148  29.196  25.473  1.00  0.00    -0.016 A 
ATOM     21  C   UNL A   1      34.344  29.941  27.061  1.00  0.00     0.067 A 
ATOM     22  C   UNL A   1      33.087  30.478  27.331  1.00  0.00     0.021 A 
ATOM     23  C   UNL A   1      34.518  29.020  26.025  1.00  0.00     0.021 A 
ATOM     24  C   UNL A   1      31.996  30.094  26.547  1.00  0.00     0.010 A 
ATOM     25  C   UNL A   1      33.421  28.645  25.243  1.00  0.00     0.010 A 
BRANCH  21  26
ATOM     26  S   UNL A   1      35.759  30.492  27.988  1.00  0.00     0.175 S 
ATOM     27  C   UNL A   1      35.596  32.257  28.018  1.00  0.00     0.163 C 
ATOM     28  O   UNL A   1      36.943  30.173  27.224  1.00  0.00    -0.224 OA
ATOM     29  O   UNL A   1      35.584  29.990  29.343  1.00  0.00    -0.224 OA
ENDBRANCH  21  26
ENDBRANCH  14  20
ENDBRANCH   8  13
ENDBRANCH   4   7
ENDBRANCH   2   3
ENDBRANCH   1   2
BRANCH   1  30
ATOM     30  C   UNL A   1      35.551  22.431  24.675  1.00  0.00     0.023 C 
BRANCH  30  31
ATOM     31  C   UNL A   1      36.591  22.536  25.785  1.00  0.00     0.116 C 
BRANCH  31  32
ATOM     32  N   UNL A   1      37.577  21.466  25.760  1.00  0.00    -0.352 N 
ATOM     33  C   UNL A   1      38.905  21.526  26.107  1.00  0.00     0.251 C 
ATOM     34  H   UNL A   1      37.251  20.587  25.457  1.00  0.00     0.163 HD
ATOM     35  O   UNL A   1      39.646  20.565  25.934  1.00  0.00    -0.269 OA
BRANCH  33  36
ATOM     36  C   UNL A   1      39.438  22.789  26.651  1.00  0.00     0.039 A 
ATOM     37  C   UNL A   1      40.457  22.736  27.603  1.00  0.00     0.014 A 
ATOM     38  C   UNL A   1      38.976  24.016  26.168  1.00  0.00     0.014 A 
ATOM     39  C   UNL A   1      41.066  23.920  28.020  1.00  0.00     0.010 A 
ATOM     40  C   UNL A   1      39.638  25.185  26.522  1.00  0.00     0.010 A 
ATOM     41  C   UNL A   1      40.690  25.147  27.450  1.00  0.00    -0.014 A 
BRANCH  41  42
ATOM     42  C   UNL A   1      41.389  26.406  27.809  1.00  0.00     0.031 A 
ATOM     43  C   UNL A   1      42.793  26.649  27.337  1.00  0.00     0.074 A 
ATOM     44  C   UNL A   1      40.782  27.295  28.619  1.00  0.00     0.049 A 
ATOM     45  N   UNL A   1      43.591  27.656  27.589  1.00  0.00    -0.248 NA
ATOM     46  C   UNL A   1      43.394  25.606  26.491  1.00  0.00     0.031 C 
ATOM     47  C   UNL A   1      39.443  27.143  29.188  1.00  0.00     0.029 A 
ATOM     48  N   UNL A   1      41.218  28.499  29.111  1.00  0.00    -0.354 N 
ATOM     49  C   UNL A   1      44.785  27.361  26.947  1.00  0.00     0.074 A 
ATOM     50  C   UNL A   1      44.632  26.054  26.347  1.00  0.00     0.031 C 
ATOM     51  C   UNL A   1      39.153  28.227  29.927  1.00  0.00     0.029 A 
ATOM     52  C   UNL A   1      40.300  29.129  29.917  1.00  0.00     0.049 A 
ATOM     53  H   UNL A   1      42.104  28.877  28.907  1.00  0.00     0.167 HD
ATOM     54  C   UNL A   1      45.900  28.123  26.845  1.00  0.00     0.037 A 
ATOM     55  C   UNL A   1      40.380  30.300  30.576  1.00  0.00     0.037 A 
ATOM     56  C   UNL A   1      46.038  29.431  27.430  1.00  0.00     0.049 A 
ATOM     57  C   UNL A   1      41.634  31.125  30.456  1.00  0.00     0.074 A 
ATOM     58  C   UNL A   1      47.100  30.312  27.332  1.00  0.00     0.029 A 
ATOM     59  N   UNL A   1      45.084  30.041  28.232  1.00  0.00    -0.354 N 
ATOM     60  N   UNL A   1      42.727  30.873  29.779  1.00  0.00    -0.248 NA
ATOM     61  C   UNL A   1      41.659  32.398  31.189  1.00  0.00     0.031 C 
ATOM     62  C   UNL A   1      46.812  31.432  28.119  1.00  0.00     0.029 A 
ATOM     63  C   UNL A   1      45.545  31.276  28.659  1.00  0.00     0.049 A 
ATOM     64  H   UNL A   1      44.209  29.654  28.463  1.00  0.00     0.167 HD
ATOM     65  C   UNL A   1      43.560  31.967  29.980  1.00  0.00     0.074 A 
ATOM     66  C   UNL A   1      42.837  32.890  30.830  1.00  0.00     0.031 C 
ATOM     67  C   UNL A   1      44.810  32.186  29.502  1.00  0.00     0.037 A 
BRANCH  54  68
ATOM     68  C   UNL A   1      47.057  27.555  26.072  1.00  0.00     0.064 A 
ATOM     69  C   UNL A   1      47.148  27.687  24.678  1.00  0.00     0.173 A 
ATOM     70  C   UNL A   1      48.095  26.884  26.735  1.00  0.00     0.173 A 
ATOM     71  F   UNL A   1      46.177  28.310  23.993  1.00  0.00    -0.203 F 
ATOM     72  C   UNL A   1      48.214  27.135  23.973  1.00  0.00     0.198 A 
ATOM     73  C   UNL A   1      49.177  26.363  26.030  1.00  0.00     0.198 A 
ATOM     74  F   UNL A   1      48.063  26.733  28.068  1.00  0.00    -0.203 F 
ATOM     75  F   UNL A   1      48.247  27.221  22.635  1.00  0.00    -0.200 F 
ATOM     76  C   UNL A   1      49.231  26.479  24.650  1.00  0.00     0.200 A 
ATOM     77  F   UNL A   1      50.167  25.743  26.688  1.00  0.00    -0.200 F 
ATOM     78  F   UNL A   1      50.258  25.952  23.970  1.00  0.00    -0.200 F 
ENDBRANCH  54  68
BRANCH  55  79
ATOM     79  C   UNL A   1      39.225  30.778  31.380  1.00  0.00     0.064 A 
ATOM     80  C   UNL A   1      39.049  30.356  32.706  1.00  0.00     0.173 A 
ATOM     81  C   UNL A   1      38.279  31.667  30.848  1.00  0.00     0.173 A 
ATOM     82  F   UNL A   1      39.916  29.492  33.254  1.00  0.00    -0.203 F 
ATOM     83  C   UNL A   1      37.962  30.789  33.462  1.00  0.00     0.198 A 
ATOM     84  C   UNL A   1      37.208  32.122  31.614  1.00  0.00     0.198 A 
ATOM     85  F   UNL A   1      38.405  32.105  29.587  1.00  0.00    -0.203 F 
ATOM     86  F   UNL A   1      37.794  30.336  34.712  1.00  0.00    -0.200 F 
ATOM     87  C   UNL A   1      37.046  31.678  32.917  1.00  0.00     0.200 A 
ATOM     88  F   UNL A   1      36.335  32.992  31.090  1.00  0.00    -0.200 F 
ATOM     89  F   UNL A   1      36.004  32.100  33.647  1.00  0.00    -0.200 F 
ENDBRANCH  55  79
BRANCH  67  90
ATOM     90  C   UNL A   1      45.465  33.489  29.860  1.00  0.00     0.064 A 
ATOM     91  C   UNL A   1      46.240  33.632  31.020  1.00  0.00     0.173 A 
ATOM     92  C   UNL A   1      45.347  34.599  29.008  1.00  0.00     0.173 A 
ATOM     93  F   UNL A   1      46.373  32.606  31.875  1.00  0.00    -0.203 F 
ATOM     94  C   UNL A   1      46.852  34.845  31.327  1.00  0.00     0.198 A 
ATOM     95  C   UNL A   1      45.987  35.799  29.302  1.00  0.00     0.198 A 
ATOM     96  F   UNL A   1      44.622  34.513  27.883  1.00  0.00    -0.203 F 
ATOM     97  F   UNL A   1      47.546  34.973  32.467  1.00  0.00    -0.200 F 
ATOM     98  C   UNL A   1      46.732  35.924  30.465  1.00  0.00     0.200 A 
ATOM     99  F   UNL A   1      45.882  36.836  28.459  1.00  0.00    -0.200 F 
ATOM    100  F   UNL A   1      47.328  37.088  30.757  1.00  0.00    -0.200 F 
ENDBRANCH  67  90
ENDBRANCH  41  42
ENDBRANCH  33  36
ENDBRANCH  31  32
ENDBRANCH  30  31
ENDBRANCH   1  30
TORSDOF 14
ENDMDL
MODEL 2
REMARK VINA RESULT:     -12.7      4.151      7.599
REMARK SMILES CS(=O)(=O)c1ccc(-c2cc(Cl)cnc2-c2ccc(C(=O)NCCCCNC(=O)c3ccc(-c4c5nc(c(-c6c(F)c(F)c(F)c(F)c6F)c6ccc([nH]6)c(-c6c(F)c(F)c(F)c(F)c6F)c6nc(c(-c7c(F)c(F)c(F)c(F)c7F)c7ccc4[nH]7)C=C6)C=C5)cc3)nc2)cc1
REMARK SMILES IDX 24 1 23 2 22 3 20 4 21 5 19 7 16 8 17 9 94 10 18 11 93 12
REMARK SMILES IDX 15 13 9 14 10 15 11 16 14 17 12 18 13 19 8 20 5 21 6 22
REMARK SMILES IDX 96 23 7 24 95 25 2 26 1 27 3 28 4 29 25 30 26 31 27 32 28 33
REMARK SMILES IDX 29 35 30 36 31 37 92 38 32 39 91 40 33 41 34 42 35 43 85 44
REMARK SMILES IDX 36 45 90 46 84 47 86 48 37 49 89 50 83 51 82 52 38 54 70 55
REMARK SMILES IDX 50 56 69 57 51 58 54 59 68 60 87 61 52 62 53 63 67 65 88 66
REMARK SMILES IDX 55 67 39 68 40 69 48 70 41 71 42 72 46 73 49 74 43 75 44 76
REMARK SMILES IDX 47 77 45 78 71 79 72 80 80 81 73 82 74 83 78 84 81 85 75 86
REMARK SMILES IDX 76 87 79 88 77 89 56 90 57 91 65 92 58 93 59 94 63 95 66 96
REMARK SMILES IDX 60 97 61 98 64 99 62 100
REMARK H PARENT 22 6 27 34 86 53 54 64
REMARK Flexibility Score: inf
ROOT
ATOM      1  C   UNL A   1      31.328  27.738  26.076  1.00  0.00     0.023 C 
ENDROOT
BRANCH   1   2
ATOM      2  C   UNL A   1      30.665  26.649  25.229  1.00  0.00     0.116 C 
BRANCH   2   3
ATOM      3  N   UNL A   1      30.186  25.571  26.069  1.00  0.00    -0.351 N 
ATOM      4  C   UNL A   1      30.758  24.401  26.518  1.00  0.00     0.269 C 
ATOM      5  O   UNL A   1      30.043  23.703  27.243  1.00  0.00    -0.268 OA
ATOM      6  H   UNL A   1      29.262  25.701  26.383  1.00  0.00     0.163 HD
BRANCH   4   7
ATOM      7  C   UNL A   1      32.170  23.964  26.207  1.00  0.00     0.128 A 
ATOM      8  C   UNL A   1      34.835  23.226  25.928  1.00  0.00     0.019 A 
ATOM      9  C   UNL A   1      34.156  23.829  24.868  1.00  0.00     0.014 A 
ATOM     10  C   UNL A   1      34.089  22.951  27.064  1.00  0.00     0.122 A 
ATOM     11  C   UNL A   1      32.811  24.175  24.996  1.00  0.00     0.035 A 
ATOM     12  N   UNL A   1      32.797  23.324  27.233  1.00  0.00    -0.250 NA
BRANCH   8  13
ATOM     13  C   UNL A   1      36.271  22.955  25.839  1.00  0.00     0.080 A 
ATOM     14  C   UNL A   1      36.776  21.676  25.505  1.00  0.00     0.010 A 
ATOM     15  C   UNL A   1      38.161  21.485  25.636  1.00  0.00     0.033 A 
ATOM     16  C   UNL A   1      38.972  22.534  26.054  1.00  0.00     0.060 A 
ATOM     17  N   UNL A   1      37.058  23.995  26.215  1.00  0.00    -0.254 NA
ATOM     18  Cl  UNL A   1      40.660  22.304  26.259  1.00  0.00    -0.083 Cl
ATOM     19  C   UNL A   1      38.387  23.762  26.313  1.00  0.00     0.132 A 
BRANCH  14  20
ATOM     20  C   UNL A   1      35.902  20.569  25.066  1.00  0.00    -0.016 A 
ATOM     21  C   UNL A   1      34.186  18.428  24.456  1.00  0.00     0.067 A 
ATOM     22  C   UNL A   1      33.667  19.717  24.561  1.00  0.00     0.021 A 
ATOM     23  C   UNL A   1      35.553  18.194  24.628  1.00  0.00     0.021 A 
ATOM     24  C   UNL A   1      34.526  20.779  24.852  1.00  0.00     0.010 A 
ATOM     25  C   UNL A   1      36.404  19.264  24.922  1.00  0.00     0.010 A 
BRANCH  21  26
ATOM     26  S   UNL A   1      33.092  17.053  24.182  1.00  0.00     0.175 S 
ATOM     27  C   UNL A   1      33.707  15.787  25.259  1.00  0.00     0.163 C 
ATOM     28  O   UNL A   1      33.277  16.601  22.821  1.00  0.00    -0.224 OA
ATOM     29  O   UNL A   1      31.781  17.468  24.660  1.00  0.00    -0.224 OA
ENDBRANCH  21  26
ENDBRANCH  14  20
ENDBRANCH   8  13
ENDBRANCH   4   7
ENDBRANCH   2   3
ENDBRANCH   1   2
BRANCH   1  30
ATOM     30  C   UNL A   1      32.853  27.634  26.145  1.00  0.00     0.023 C 
BRANCH  30  31
ATOM     31  C   UNL A   1      33.603  28.868  25.653  1.00  0.00     0.116 C 
BRANCH  31  32
ATOM     32  N   UNL A   1      33.015  30.122  26.101  1.00  0.00    -0.352 N 
ATOM     33  C   UNL A   1      33.507  31.006  27.030  1.00  0.00     0.251 C 
ATOM     34  H   UNL A   1      32.156  30.367  25.687  1.00  0.00     0.163 HD
ATOM     35  O   UNL A   1      32.848  31.976  27.388  1.00  0.00    -0.269 OA
BRANCH  33  36
ATOM     36  C   UNL A   1      34.830  30.744  27.627  1.00  0.00     0.039 A 
ATOM     37  C   UNL A   1      35.742  31.795  27.732  1.00  0.00     0.014 A 
ATOM     38  C   UNL A   1      35.134  29.481  28.140  1.00  0.00     0.014 A 
ATOM     39  C   UNL A   1      36.938  31.595  28.422  1.00  0.00     0.010 A 
ATOM     40  C   UNL A   1      36.287  29.307  28.895  1.00  0.00     0.010 A 
ATOM     41  C   UNL A   1      37.199  30.363  29.044  1.00  0.00    -0.014 A 
BRANCH  41  42
ATOM     42  C   UNL A   1      38.421  30.160  29.860  1.00  0.00     0.031 A 
ATOM     43  C   UNL A   1      39.569  29.361  29.312  1.00  0.00     0.074 A 
ATOM     44  C   UNL A   1      38.466  30.636  31.120  1.00  0.00     0.049 A 
ATOM     45  N   UNL A   1      40.696  29.026  29.888  1.00  0.00    -0.248 NA
ATOM     46  C   UNL A   1      39.418  28.844  27.944  1.00  0.00     0.031 C 
ATOM     47  C   UNL A   1      37.393  31.377  31.783  1.00  0.00     0.029 A 
ATOM     48  N   UNL A   1      39.453  30.558  32.070  1.00  0.00    -0.354 N 
ATOM     49  C   UNL A   1      41.377  28.251  28.959  1.00  0.00     0.074 A 
ATOM     50  C   UNL A   1      40.513  28.112  27.809  1.00  0.00     0.031 C 
ATOM     51  C   UNL A   1      37.789  31.713  33.021  1.00  0.00     0.029 A 
ATOM     52  C   UNL A   1      39.126  31.177  33.253  1.00  0.00     0.049 A 
ATOM     53  H   UNL A   1      40.312  30.103  31.920  1.00  0.00     0.167 HD
ATOM     54  C   UNL A   1      42.621  27.725  29.049  1.00  0.00     0.037 A 
ATOM     55  C   UNL A   1      39.828  31.292  34.397  1.00  0.00     0.037 A 
ATOM     56  C   UNL A   1      43.483  27.884  30.192  1.00  0.00     0.049 A 
ATOM     57  C   UNL A   1      41.205  30.690  34.476  1.00  0.00     0.074 A 
ATOM     58  C   UNL A   1      44.785  27.447  30.357  1.00  0.00     0.029 A 
ATOM     59  N   UNL A   1      43.123  28.525  31.368  1.00  0.00    -0.354 N 
ATOM     60  N   UNL A   1      41.872  30.029  33.563  1.00  0.00    -0.248 NA
ATOM     61  C   UNL A   1      41.927  30.857  35.745  1.00  0.00     0.031 C 
ATOM     62  C   UNL A   1      45.194  27.775  31.654  1.00  0.00     0.029 A 
ATOM     63  C   UNL A   1      44.168  28.470  32.276  1.00  0.00     0.049 A 
ATOM     64  H   UNL A   1      42.252  28.955  31.534  1.00  0.00     0.167 HD
ATOM     65  C   UNL A   1      43.101  29.725  34.133  1.00  0.00     0.074 A 
ATOM     66  C   UNL A   1      43.091  30.289  35.468  1.00  0.00     0.031 C 
ATOM     67  C   UNL A   1      44.144  29.040  33.600  1.00  0.00     0.037 A 
BRANCH  54  68
ATOM     68  C   UNL A   1      43.120  26.928  27.877  1.00  0.00     0.064 A 
ATOM     69  C   UNL A   1      42.974  25.533  27.817  1.00  0.00     0.173 A 
ATOM     70  C   UNL A   1      43.738  27.568  26.793  1.00  0.00     0.173 A 
ATOM     71  F   UNL A   1      42.400  24.869  28.833  1.00  0.00    -0.203 F 
ATOM     72  C   UNL A   1      43.464  24.806  26.736  1.00  0.00     0.198 A 
ATOM     73  C   UNL A   1      44.195  26.841  25.696  1.00  0.00     0.198 A 
ATOM     74  F   UNL A   1      43.899  28.900  26.793  1.00  0.00    -0.203 F 
ATOM     75  F   UNL A   1      43.367  23.469  26.731  1.00  0.00    -0.200 F 
ATOM     76  C   UNL A   1      44.067  25.460  25.673  1.00  0.00     0.200 A 
ATOM     77  F   UNL A   1      44.764  27.477  24.663  1.00  0.00    -0.200 F 
ATOM     78  F   UNL A   1      44.534  24.759  24.631  1.00  0.00    -0.200 F 
ENDBRANCH  54  68
BRANCH  55  79
ATOM     79  C   UNL A   1      39.252  32.037  35.547  1.00  0.00     0.064 A 
ATOM     80  C   UNL A   1      39.526  33.401  35.730  1.00  0.00     0.173 A 
ATOM     81  C   UNL A   1      38.414  31.410  36.481  1.00  0.00     0.173 A 
ATOM     82  F   UNL A   1      40.338  34.040  34.874  1.00  0.00    -0.203 F 
ATOM     83  C   UNL A   1      39.001  34.103  36.812  1.00  0.00     0.198 A 
ATOM     84  C   UNL A   1      37.865  32.121  37.547  1.00  0.00     0.198 A 
ATOM     85  F   UNL A   1      38.115  30.110  36.348  1.00  0.00    -0.203 F 
ATOM     86  F   UNL A   1      39.315  35.394  36.987  1.00  0.00    -0.200 F 
ATOM     87  C   UNL A   1      38.165  33.464  37.716  1.00  0.00     0.200 A 
ATOM     88  F   UNL A   1      37.045  31.504  38.408  1.00  0.00    -0.200 F 
ATOM     89  F   UNL A   1      37.653  34.142  38.753  1.00  0.00    -0.200 F 
ENDBRANCH  55  79
BRANCH  67  90
ATOM     90  C   UNL A   1      45.374  28.891  34.447  1.00  0.00     0.064 A 
ATOM     91  C   UNL A   1      46.390  29.859  34.450  1.00  0.00     0.173 A 
ATOM     92  C   UNL A   1      45.521  27.783  35.297  1.00  0.00     0.173 A 
ATOM     93  F   UNL A   1      46.306  30.929  33.646  1.00  0.00    -0.203 F 
ATOM     94  C   UNL A   1      47.518  29.709  35.254  1.00  0.00     0.198 A 
ATOM     95  C   UNL A   1      46.633  27.654  36.122  1.00  0.00     0.198 A 
ATOM     96  F   UNL A   1      44.575  26.832  35.336  1.00  0.00    -0.203 F 
ATOM     97  F   UNL A   1      48.500  30.621  35.202  1.00  0.00    -0.200 F 
ATOM     98  C   UNL A   1      47.635  28.613  36.094  1.00  0.00     0.200 A 
ATOM     99  F   UNL A   1      46.736  26.601  36.945  1.00  0.00    -0.200 F 
ATOM    100  F   UNL A   1      48.717  28.475  36.873  1.00  0.00    -0.200 F 
ENDBRANCH  67  90
ENDBRANCH  41  42
ENDBRANCH  33  36
ENDBRANCH  31  32
ENDBRANCH  30  31
ENDBRANCH   1  30
TORSDOF 14
ENDMDL
MODEL 3
REMARK VINA RESULT:     -12.7      3.398      8.365
REMARK SMILES CS(=O)(=O)c1ccc(-c2cc(Cl)cnc2-c2ccc(C(=O)NCCCCNC(=O)c3ccc(-c4c5nc(c(-c6c(F)c(F)c(F)c(F)c6F)c6ccc([nH]6)c(-c6c(F)c(F)c(F)c(F)c6F)c6nc(c(-c7c(F)c(F)c(F)c(F)c7F)c7ccc4[nH]7)C=C6)C=C5)cc3)nc2)cc1
REMARK SMILES IDX 24 1 23 2 22 3 20 4 21 5 19 7 16 8 17 9 94 10 18 11 93 12
REMARK SMILES IDX 15 13 9 14 10 15 11 16 14 17 12 18 13 19 8 20 5 21 6 22
REMARK SMILES IDX 96 23 7 24 95 25 2 26 1 27 3 28 4 29 25 30 26 31 27 32 28 33
REMARK SMILES IDX 29 35 30 36 31 37 92 38 32 39 91 40 33 41 34 42 35 43 85 44
REMARK SMILES IDX 36 45 90 46 84 47 86 48 37 49 89 50 83 51 82 52 38 54 70 55
REMARK SMILES IDX 50 56 69 57 51 58 54 59 68 60 87 61 52 62 53 63 67 65 88 66
REMARK SMILES IDX 55 67 39 68 40 69 48 70 41 71 42 72 46 73 49 74 43 75 44 76
REMARK SMILES IDX 47 77 45 78 71 79 72 80 80 81 73 82 74 83 78 84 81 85 75 86
REMARK SMILES IDX 76 87 79 88 77 89 56 90 57 91 65 92 58 93 59 94 63 95 66 96
REMARK SMILES IDX 60 97 61 98 64 99 62 100
REMARK H PARENT 22 6 27 34 86 53 54 64
REMARK Flexibility Score: inf
ROOT
ATOM      1  C   UNL A   1      35.923  31.799  29.428  1.00  0.00     0.023 C 
ENDROOT
BRANCH   1   2
ATOM      2  C   UNL A   1      35.274  30.829  28.438  1.00  0.00     0.116 C 
BRANCH   2   3
ATOM      3  N   UNL A   1      34.010  31.353  27.965  1.00  0.00    -0.351 N 
ATOM      4  C   UNL A   1      32.966  30.798  27.257  1.00  0.00     0.269 C 
ATOM      5  O   UNL A   1      32.017  31.554  27.028  1.00  0.00    -0.268 OA
ATOM      6  H   UNL A   1      33.868  32.299  28.196  1.00  0.00     0.163 HD
BRANCH   4   7
ATOM      7  C   UNL A   1      32.912  29.361  26.796  1.00  0.00     0.128 A 
ATOM      8  C   UNL A   1      32.877  26.820  25.668  1.00  0.00     0.019 A 
ATOM      9  C   UNL A   1      32.010  27.139  26.715  1.00  0.00     0.014 A 
ATOM     10  C   UNL A   1      33.787  27.799  25.300  1.00  0.00     0.122 A 
ATOM     11  C   UNL A   1      32.045  28.404  27.301  1.00  0.00     0.035 A 
ATOM     12  N   UNL A   1      33.806  29.052  25.816  1.00  0.00    -0.250 NA
BRANCH   8  13
ATOM     13  C   UNL A   1      32.777  25.533  24.980  1.00  0.00     0.080 A 
ATOM     14  C   UNL A   1      31.759  25.261  24.035  1.00  0.00     0.010 A 
ATOM     15  C   UNL A   1      31.649  23.936  23.582  1.00  0.00     0.033 A 
ATOM     16  C   UNL A   1      32.533  22.967  24.044  1.00  0.00     0.060 A 
ATOM     17  N   UNL A   1      33.667  24.602  25.410  1.00  0.00    -0.254 NA
ATOM     18  Cl  UNL A   1      32.384  21.336  23.533  1.00  0.00    -0.083 Cl
ATOM     19  C   UNL A   1      33.525  23.343  24.934  1.00  0.00     0.132 A 
BRANCH  14  20
ATOM     20  C   UNL A   1      30.825  26.299  23.556  1.00  0.00    -0.016 A 
ATOM     21  C   UNL A   1      29.103  28.401  22.835  1.00  0.00     0.067 A 
ATOM     22  C   UNL A   1      30.441  28.443  22.446  1.00  0.00     0.021 A 
ATOM     23  C   UNL A   1      28.606  27.314  23.558  1.00  0.00     0.021 A 
ATOM     24  C   UNL A   1      31.289  27.390  22.796  1.00  0.00     0.010 A 
ATOM     25  C   UNL A   1      29.464  26.266  23.907  1.00  0.00     0.010 A 
BRANCH  21  26
ATOM     26  S   UNL A   1      28.035  29.778  22.480  1.00  0.00     0.175 S 
ATOM     27  C   UNL A   1      28.849  31.162  23.230  1.00  0.00     0.163 C 
ATOM     28  O   UNL A   1      26.789  29.566  23.183  1.00  0.00    -0.224 OA
ATOM     29  O   UNL A   1      28.059  29.956  21.036  1.00  0.00    -0.224 OA
ENDBRANCH  21  26
ENDBRANCH  14  20
ENDBRANCH   8  13
ENDBRANCH   4   7
ENDBRANCH   2   3
ENDBRANCH   1   2
BRANCH   1  30
ATOM     30  C   UNL A   1      35.111  32.023  30.706  1.00  0.00     0.023 C 
BRANCH  30  31
ATOM     31  C   UNL A   1      35.906  31.900  32.001  1.00  0.00     0.116 C 
BRANCH  31  32
ATOM     32  N   UNL A   1      36.054  33.160  32.714  1.00  0.00    -0.352 N 
ATOM     33  C   UNL A   1      37.192  33.910  32.887  1.00  0.00     0.251 C 
ATOM     34  H   UNL A   1      35.234  33.521  33.124  1.00  0.00     0.163 HD
ATOM     35  O   UNL A   1      37.189  34.903  33.606  1.00  0.00    -0.269 OA
BRANCH  33  36
ATOM     36  C   UNL A   1      38.435  33.472  32.227  1.00  0.00     0.039 A 
ATOM     37  C   UNL A   1      39.347  32.701  32.949  1.00  0.00     0.014 A 
ATOM     38  C   UNL A   1      38.660  33.767  30.880  1.00  0.00     0.014 A 
ATOM     39  C   UNL A   1      40.455  32.161  32.297  1.00  0.00     0.010 A 
ATOM     40  C   UNL A   1      39.719  33.163  30.214  1.00  0.00     0.010 A 
ATOM     41  C   UNL A   1      40.626  32.353  30.915  1.00  0.00    -0.014 A 
BRANCH  41  42
ATOM     42  C   UNL A   1      41.746  31.712  30.185  1.00  0.00     0.031 A 
ATOM     43  C   UNL A   1      43.001  32.485  29.900  1.00  0.00     0.074 A 
ATOM     44  C   UNL A   1      41.602  30.456  29.718  1.00  0.00     0.049 A 
ATOM     45  N   UNL A   1      44.066  32.121  29.231  1.00  0.00    -0.248 NA
ATOM     46  C   UNL A   1      43.056  33.863  30.412  1.00  0.00     0.031 C 
ATOM     47  C   UNL A   1      40.409  29.625  29.880  1.00  0.00     0.029 A 
ATOM     48  N   UNL A   1      42.464  29.664  29.002  1.00  0.00    -0.354 N 
ATOM     49  C   UNL A   1      44.906  33.227  29.230  1.00  0.00     0.074 A 
ATOM     50  C   UNL A   1      44.204  34.293  29.909  1.00  0.00     0.031 C 
ATOM     51  C   UNL A   1      40.625  28.428  29.309  1.00  0.00     0.029 A 
ATOM     52  C   UNL A   1      41.953  28.423  28.705  1.00  0.00     0.049 A 
ATOM     53  H   UNL A   1      43.363  29.956  28.726  1.00  0.00     0.167 HD
ATOM     54  C   UNL A   1      46.159  33.334  28.730  1.00  0.00     0.037 A 
ATOM     55  C   UNL A   1      42.497  27.400  28.019  1.00  0.00     0.037 A 
ATOM     56  C   UNL A   1      46.859  32.261  28.072  1.00  0.00     0.049 A 
ATOM     57  C   UNL A   1      43.888  27.547  27.464  1.00  0.00     0.074 A 
ATOM     58  C   UNL A   1      48.155  32.246  27.587  1.00  0.00     0.029 A 
ATOM     59  N   UNL A   1      46.314  31.015  27.798  1.00  0.00    -0.354 N 
ATOM     60  N   UNL A   1      44.705  28.568  27.540  1.00  0.00    -0.248 NA
ATOM     61  C   UNL A   1      44.433  26.394  26.734  1.00  0.00     0.031 C 
ATOM     62  C   UNL A   1      48.376  31.010  26.971  1.00  0.00     0.029 A 
ATOM     63  C   UNL A   1      47.238  30.232  27.125  1.00  0.00     0.049 A 
ATOM     64  H   UNL A   1      45.405  30.730  28.044  1.00  0.00     0.167 HD
ATOM     65  C   UNL A   1      45.869  28.174  26.893  1.00  0.00     0.074 A 
ATOM     66  C   UNL A   1      45.657  26.813  26.445  1.00  0.00     0.031 C 
ATOM     67  C   UNL A   1      47.012  28.877  26.689  1.00  0.00     0.037 A 
BRANCH  54  68
ATOM     68  C   UNL A   1      46.851  34.659  28.879  1.00  0.00     0.064 A 
ATOM     69  C   UNL A   1      46.770  35.649  27.887  1.00  0.00     0.173 A 
ATOM     70  C   UNL A   1      47.591  34.950  30.034  1.00  0.00     0.173 A 
ATOM     71  F   UNL A   1      46.084  35.419  26.756  1.00  0.00    -0.203 F 
ATOM     72  C   UNL A   1      47.436  36.863  28.028  1.00  0.00     0.198 A 
ATOM     73  C   UNL A   1      48.228  36.180  30.187  1.00  0.00     0.198 A 
ATOM     74  F   UNL A   1      47.698  34.044  31.017  1.00  0.00    -0.203 F 
ATOM     75  F   UNL A   1      47.394  37.768  27.040  1.00  0.00    -0.200 F 
ATOM     76  C   UNL A   1      48.159  37.131  29.181  1.00  0.00     0.200 A 
ATOM     77  F   UNL A   1      48.913  36.442  31.309  1.00  0.00    -0.200 F 
ATOM     78  F   UNL A   1      48.796  38.301  29.317  1.00  0.00    -0.200 F 
ENDBRANCH  54  68
BRANCH  55  79
ATOM     79  C   UNL A   1      41.735  26.135  27.848  1.00  0.00     0.064 A 
ATOM     80  C   UNL A   1      42.064  24.992  28.593  1.00  0.00     0.173 A 
ATOM     81  C   UNL A   1      40.664  26.041  26.948  1.00  0.00     0.173 A 
ATOM     82  F   UNL A   1      43.093  25.028  29.452  1.00  0.00    -0.203 F 
ATOM     83  C   UNL A   1      41.363  23.800  28.429  1.00  0.00     0.198 A 
ATOM     84  C   UNL A   1      39.944  24.855  26.807  1.00  0.00     0.198 A 
ATOM     85  F   UNL A   1      40.305  27.106  26.217  1.00  0.00    -0.203 F 
ATOM     86  F   UNL A   1      41.726  22.711  29.122  1.00  0.00    -0.200 F 
ATOM     87  C   UNL A   1      40.299  23.734  27.542  1.00  0.00     0.200 A 
ATOM     88  F   UNL A   1      38.908  24.800  25.961  1.00  0.00    -0.200 F 
ATOM     89  F   UNL A   1      39.620  22.588  27.390  1.00  0.00    -0.200 F 
ENDBRANCH  55  79
BRANCH  67  90
ATOM     90  C   UNL A   1      48.133  28.176  25.979  1.00  0.00     0.064 A 
ATOM     91  C   UNL A   1      49.257  27.695  26.667  1.00  0.00     0.173 A 
ATOM     92  C   UNL A   1      48.063  27.946  24.595  1.00  0.00     0.173 A 
ATOM     93  F   UNL A   1      49.381  27.901  27.987  1.00  0.00    -0.203 F 
ATOM     94  C   UNL A   1      50.281  27.034  25.992  1.00  0.00     0.198 A 
ATOM     95  C   UNL A   1      49.072  27.257  23.931  1.00  0.00     0.198 A 
ATOM     96  F   UNL A   1      47.007  28.380  23.891  1.00  0.00    -0.203 F 
ATOM     97  F   UNL A   1      51.369  26.629  26.662  1.00  0.00    -0.200 F 
ATOM     98  C   UNL A   1      50.184  26.808  24.627  1.00  0.00     0.200 A 
ATOM     99  F   UNL A   1      48.969  27.026  22.614  1.00  0.00    -0.200 F 
ATOM    100  F   UNL A   1      51.166  26.165  23.981  1.00  0.00    -0.200 F 
ENDBRANCH  67  90
ENDBRANCH  41  42
ENDBRANCH  33  36
ENDBRANCH  31  32
ENDBRANCH  30  31
ENDBRANCH   1  30
TORSDOF 14
ENDMDL
