MODEL 1
REMARK VINA RESULT:     -13.1      0.000      0.000
REMARK SMILES C[C@H]1[C@@H](C(=O)NCCCCNC(=O)c2ccc(-c3c4nc(c(-c5c(F)c(F)c(F)c(F)c5F)c5ccc([nH]5)c(-c5c(F)c(F)c(F)c(F)c5F)c5nc(c(-c6c(F)c(F)c(F)c(F)c6F)c6ccc3[nH]6)C=C5)C=C4)cc2)CCN1C(=O)N[C@@H]1CC[N@H+]2CCCC[C@H]12
REMARK SMILES IDX 8 1 7 2 6 3 4 4 5 5 3 7 1 8 2 9 79 10 77 11 78 12 80 13
REMARK SMILES IDX 81 14 82 15 83 17 84 18 91 19 85 20 86 21 90 22 87 23 89 25
REMARK SMILES IDX 88 26 9 27 10 28 11 29 12 30 13 32 14 33 15 34 76 35 16 36
REMARK SMILES IDX 75 37 17 38 18 39 19 40 69 41 20 42 74 43 68 44 70 45 21 46
REMARK SMILES IDX 73 47 67 48 66 49 22 51 54 52 34 53 53 54 35 55 38 56 52 57
REMARK SMILES IDX 71 58 36 59 37 60 51 62 72 63 39 64 23 65 24 66 32 67 25 68
REMARK SMILES IDX 26 69 30 70 33 71 27 72 28 73 31 74 29 75 55 76 56 77 64 78
REMARK SMILES IDX 57 79 58 80 62 81 65 82 59 83 60 84 63 85 61 86 40 87 41 88
REMARK SMILES IDX 49 89 42 90 43 91 47 92 50 93 44 94 45 95 48 96 46 97
REMARK H PARENT 6 6 82 16 86 24 11 31 70 50 38 61
REMARK Flexibility Score: inf
ROOT
ATOM      1  C   UNL A   1      37.447  21.180  24.622  1.00  0.00     0.023 C 
ENDROOT
BRANCH   1   2
ATOM      2  C   UNL A   1      36.420  21.568  25.683  1.00  0.00     0.116 C 
BRANCH   2   3
ATOM      3  N   UNL A   1      35.289  20.661  25.716  1.00  0.00    -0.356 N 
ATOM      4  C   UNL A   1      33.968  20.887  25.471  1.00  0.00     0.225 C 
ATOM      5  O   UNL A   1      33.246  19.897  25.374  1.00  0.00    -0.275 OA
ATOM      6  H   UNL A   1      35.512  19.731  25.952  1.00  0.00     0.163 HD
BRANCH   4   7
ATOM      7  C   UNL A   1      33.486  22.311  25.249  1.00  0.00     0.102 C 
ATOM      8  C   UNL A   1      33.053  22.404  27.819  1.00  0.00     0.032 C 
ATOM      9  C   UNL A   1      32.957  23.104  26.469  1.00  0.00     0.096 C 
ATOM     10  N   UNL A   1      31.578  23.465  26.145  1.00  0.00    -0.321 N 
ATOM     11  C   UNL A   1      32.330  22.311  24.243  1.00  0.00     0.037 C 
ATOM     12  C   UNL A   1      31.100  22.596  25.085  1.00  0.00     0.122 C 
BRANCH  10  13
ATOM     13  C   UNL A   1      30.713  24.348  26.717  1.00  0.00     0.318 C 
ATOM     14  O   UNL A   1      29.643  23.963  27.202  1.00  0.00    -0.249 OA
ATOM     15  N   UNL A   1      30.936  25.673  26.789  1.00  0.00    -0.329 N 
ATOM     16  H   UNL A   1      30.252  26.123  27.336  1.00  0.00     0.165 HD
BRANCH  15  17
ATOM     17  C   UNL A   1      31.920  26.622  26.278  1.00  0.00     0.147 C 
ATOM     18  C   UNL A   1      31.945  27.919  27.111  1.00  0.00     0.092 C 
ATOM     19  C   UNL A   1      31.648  27.133  24.845  1.00  0.00     0.207 C 
ATOM     20  C   UNL A   1      31.822  29.063  26.116  1.00  0.00     0.264 C 
ATOM     21  N   UNL A   1      31.043  28.459  25.046  1.00  0.00    -0.331 N 
ATOM     22  C   UNL A   1      30.765  26.307  23.917  1.00  0.00     0.067 C 
ATOM     23  C   UNL A   1      31.041  29.230  23.806  1.00  0.00     0.262 C 
ATOM     24  H   UNL A   1      30.059  28.415  25.307  1.00  0.00     0.348 HD
ATOM     25  C   UNL A   1      30.645  27.032  22.570  1.00  0.00     0.012 C 
ATOM     26  C   UNL A   1      30.212  28.492  22.749  1.00  0.00     0.062 C 
ENDBRANCH  15  17
ENDBRANCH  10  13
ENDBRANCH   4   7
ENDBRANCH   2   3
ENDBRANCH   1   2
BRANCH   1  27
ATOM     27  C   UNL A   1      38.261  19.921  24.933  1.00  0.00     0.023 C 
BRANCH  27  28
ATOM     28  C   UNL A   1      39.354  20.081  25.982  1.00  0.00     0.116 C 
BRANCH  28  29
ATOM     29  N   UNL A   1      40.363  19.037  25.924  1.00  0.00    -0.352 N 
ATOM     30  C   UNL A   1      41.726  19.146  26.050  1.00  0.00     0.251 C 
ATOM     31  H   UNL A   1      40.023  18.126  25.772  1.00  0.00     0.163 HD
ATOM     32  O   UNL A   1      42.444  18.168  25.862  1.00  0.00    -0.269 OA
BRANCH  30  33
ATOM     33  C   UNL A   1      42.332  20.455  26.373  1.00  0.00     0.039 A 
ATOM     34  C   UNL A   1      42.779  21.263  25.327  1.00  0.00     0.014 A 
ATOM     35  C   UNL A   1      42.442  20.893  27.696  1.00  0.00     0.014 A 
ATOM     36  C   UNL A   1      43.272  22.540  25.599  1.00  0.00     0.010 A 
ATOM     37  C   UNL A   1      42.864  22.193  27.962  1.00  0.00     0.010 A 
ATOM     38  C   UNL A   1      43.283  23.030  26.916  1.00  0.00    -0.014 A 
BRANCH  38  39
ATOM     39  C   UNL A   1      43.720  24.419  27.212  1.00  0.00     0.031 A 
ATOM     40  C   UNL A   1      42.731  25.434  27.717  1.00  0.00     0.074 A 
ATOM     41  C   UNL A   1      44.994  24.782  26.970  1.00  0.00     0.049 A 
ATOM     42  N   UNL A   1      42.909  26.704  27.978  1.00  0.00    -0.248 NA
ATOM     43  C   UNL A   1      41.354  24.964  27.933  1.00  0.00     0.031 C 
ATOM     44  C   UNL A   1      46.035  23.904  26.435  1.00  0.00     0.029 A 
ATOM     45  N   UNL A   1      45.630  25.988  27.132  1.00  0.00    -0.354 N 
ATOM     46  C   UNL A   1      41.668  27.185  28.376  1.00  0.00     0.074 A 
ATOM     47  C   UNL A   1      40.734  26.085  28.268  1.00  0.00     0.031 C 
ATOM     48  C   UNL A   1      47.184  24.593  26.336  1.00  0.00     0.029 A 
ATOM     49  C   UNL A   1      46.952  25.970  26.760  1.00  0.00     0.049 A 
ATOM     50  H   UNL A   1      45.179  26.791  27.482  1.00  0.00     0.167 HD
ATOM     51  C   UNL A   1      41.344  28.425  28.814  1.00  0.00     0.037 A 
ATOM     52  C   UNL A   1      47.871  26.954  26.754  1.00  0.00     0.037 A 
ATOM     53  C   UNL A   1      42.280  29.511  28.939  1.00  0.00     0.049 A 
ATOM     54  C   UNL A   1      47.479  28.326  27.234  1.00  0.00     0.074 A 
ATOM     55  C   UNL A   1      42.062  30.786  29.429  1.00  0.00     0.029 A 
ATOM     56  N   UNL A   1      43.614  29.451  28.562  1.00  0.00    -0.354 N 
ATOM     57  N   UNL A   1      46.321  28.749  27.679  1.00  0.00    -0.248 NA
ATOM     58  C   UNL A   1      48.527  29.357  27.216  1.00  0.00     0.031 C 
ATOM     59  C   UNL A   1      43.249  31.514  29.301  1.00  0.00     0.029 A 
ATOM     60  C   UNL A   1      44.224  30.676  28.786  1.00  0.00     0.049 A 
ATOM     61  H   UNL A   1      44.061  28.656  28.193  1.00  0.00     0.167 HD
ATOM     62  C   UNL A   1      46.507  30.082  28.020  1.00  0.00     0.074 A 
ATOM     63  C   UNL A   1      47.894  30.393  27.747  1.00  0.00     0.031 C 
ATOM     64  C   UNL A   1      45.609  30.968  28.515  1.00  0.00     0.037 A 
BRANCH  51  65
ATOM     65  C   UNL A   1      39.912  28.674  29.195  1.00  0.00     0.064 A 
ATOM     66  C   UNL A   1      39.444  28.442  30.498  1.00  0.00     0.173 A 
ATOM     67  C   UNL A   1      39.004  29.187  28.256  1.00  0.00     0.173 A 
ATOM     68  F   UNL A   1      40.268  27.942  31.431  1.00  0.00    -0.203 F 
ATOM     69  C   UNL A   1      38.116  28.685  30.837  1.00  0.00     0.198 A 
ATOM     70  C   UNL A   1      37.685  29.460  28.608  1.00  0.00     0.198 A 
ATOM     71  F   UNL A   1      39.399  29.434  26.998  1.00  0.00    -0.203 F 
ATOM     72  F   UNL A   1      37.681  28.405  32.075  1.00  0.00    -0.200 F 
ATOM     73  C   UNL A   1      37.240  29.201  29.895  1.00  0.00     0.200 A 
ATOM     74  F   UNL A   1      36.843  29.973  27.700  1.00  0.00    -0.200 F 
ATOM     75  F   UNL A   1      35.963  29.442  30.226  1.00  0.00    -0.200 F 
ENDBRANCH  51  65
BRANCH  52  76
ATOM     76  C   UNL A   1      49.258  26.674  26.299  1.00  0.00     0.064 A 
ATOM     77  C   UNL A   1      50.219  26.168  27.186  1.00  0.00     0.173 A 
ATOM     78  C   UNL A   1      49.655  26.914  24.975  1.00  0.00     0.173 A 
ATOM     79  F   UNL A   1      49.894  25.942  28.467  1.00  0.00    -0.203 F 
ATOM     80  C   UNL A   1      51.529  25.935  26.772  1.00  0.00     0.198 A 
ATOM     81  C   UNL A   1      50.958  26.650  24.555  1.00  0.00     0.198 A 
ATOM     82  F   UNL A   1      48.773  27.392  24.086  1.00  0.00    -0.203 F 
ATOM     83  F   UNL A   1      52.439  25.498  27.653  1.00  0.00    -0.200 F 
ATOM     84  C   UNL A   1      51.895  26.171  25.456  1.00  0.00     0.200 A 
ATOM     85  F   UNL A   1      51.303  26.865  23.279  1.00  0.00    -0.200 F 
ATOM     86  F   UNL A   1      53.155  25.943  25.058  1.00  0.00    -0.200 F 
ENDBRANCH  52  76
BRANCH  64  87
ATOM     87  C   UNL A   1      46.105  32.351  28.830  1.00  0.00     0.064 A 
ATOM     88  C   UNL A   1      46.050  33.388  27.887  1.00  0.00     0.173 A 
ATOM     89  C   UNL A   1      46.609  32.651  30.106  1.00  0.00     0.173 A 
ATOM     90  F   UNL A   1      45.592  33.151  26.648  1.00  0.00    -0.203 F 
ATOM     91  C   UNL A   1      46.506  34.666  28.200  1.00  0.00     0.198 A 
ATOM     92  C   UNL A   1      47.032  33.937  30.426  1.00  0.00     0.198 A 
ATOM     93  F   UNL A   1      46.677  31.697  31.046  1.00  0.00    -0.203 F 
ATOM     94  F   UNL A   1      46.491  35.628  27.267  1.00  0.00    -0.200 F 
ATOM     95  C   UNL A   1      46.988  34.941  29.472  1.00  0.00     0.200 A 
ATOM     96  F   UNL A   1      47.483  34.205  31.659  1.00  0.00    -0.200 F 
ATOM     97  F   UNL A   1      47.418  36.173  29.774  1.00  0.00    -0.200 F 
ENDBRANCH  64  87
ENDBRANCH  38  39
ENDBRANCH  30  33
ENDBRANCH  28  29
ENDBRANCH  27  28
ENDBRANCH   1  27
TORSDOF 13
ENDMDL
MODEL 2
REMARK VINA RESULT:     -13.1      0.223      1.942
REMARK SMILES C[C@H]1[C@@H](C(=O)NCCCCNC(=O)c2ccc(-c3c4nc(c(-c5c(F)c(F)c(F)c(F)c5F)c5ccc([nH]5)c(-c5c(F)c(F)c(F)c(F)c5F)c5nc(c(-c6c(F)c(F)c(F)c(F)c6F)c6ccc3[nH]6)C=C5)C=C4)cc2)CCN1C(=O)N[C@@H]1CC[N@H+]2CCCC[C@H]12
REMARK SMILES IDX 8 1 7 2 6 3 4 4 5 5 3 7 1 8 2 9 79 10 77 11 78 12 80 13
REMARK SMILES IDX 81 14 82 15 83 17 84 18 91 19 85 20 86 21 90 22 87 23 89 25
REMARK SMILES IDX 88 26 9 27 10 28 11 29 12 30 13 32 14 33 15 34 76 35 16 36
REMARK SMILES IDX 75 37 17 38 18 39 19 40 69 41 20 42 74 43 68 44 70 45 21 46
REMARK SMILES IDX 73 47 67 48 66 49 22 51 54 52 34 53 53 54 35 55 38 56 52 57
REMARK SMILES IDX 71 58 36 59 37 60 51 62 72 63 39 64 23 65 24 66 32 67 25 68
REMARK SMILES IDX 26 69 30 70 33 71 27 72 28 73 31 74 29 75 55 76 56 77 64 78
REMARK SMILES IDX 57 79 58 80 62 81 65 82 59 83 60 84 63 85 61 86 40 87 41 88
REMARK SMILES IDX 49 89 42 90 43 91 47 92 50 93 44 94 45 95 48 96 46 97
REMARK H PARENT 6 6 82 16 86 24 11 31 70 50 38 61
REMARK Flexibility Score: inf
ROOT
ATOM      1  C   UNL A   1      37.354  21.173  24.661  1.00  0.00     0.023 C 
ENDROOT
BRANCH   1   2
ATOM      2  C   UNL A   1      36.334  21.469  25.758  1.00  0.00     0.116 C 
BRANCH   2   3
ATOM      3  N   UNL A   1      35.192  20.578  25.705  1.00  0.00    -0.356 N 
ATOM      4  C   UNL A   1      33.892  20.826  25.378  1.00  0.00     0.225 C 
ATOM      5  O   UNL A   1      33.165  19.847  25.222  1.00  0.00    -0.275 OA
ATOM      6  H   UNL A   1      35.386  19.643  25.944  1.00  0.00     0.163 HD
BRANCH   4   7
ATOM      7  C   UNL A   1      33.446  22.260  25.142  1.00  0.00     0.102 C 
ATOM      8  C   UNL A   1      33.072  22.406  27.718  1.00  0.00     0.032 C 
ATOM      9  C   UNL A   1      32.966  23.087  26.359  1.00  0.00     0.096 C 
ATOM     10  N   UNL A   1      31.591  23.482  26.059  1.00  0.00    -0.321 N 
ATOM     11  C   UNL A   1      32.268  22.276  24.161  1.00  0.00     0.037 C 
ATOM     12  C   UNL A   1      31.065  22.609  25.024  1.00  0.00     0.122 C 
BRANCH  10  13
ATOM     13  C   UNL A   1      30.764  24.397  26.634  1.00  0.00     0.318 C 
ATOM     14  O   UNL A   1      29.725  24.044  27.203  1.00  0.00    -0.249 OA
ATOM     15  N   UNL A   1      30.993  25.724  26.622  1.00  0.00    -0.329 N 
ATOM     16  H   UNL A   1      30.343  26.206  27.184  1.00  0.00     0.165 HD
BRANCH  15  17
ATOM     17  C   UNL A   1      31.945  26.639  26.001  1.00  0.00     0.147 C 
ATOM     18  C   UNL A   1      32.345  27.779  26.959  1.00  0.00     0.092 C 
ATOM     19  C   UNL A   1      31.409  27.395  24.764  1.00  0.00     0.207 C 
ATOM     20  C   UNL A   1      32.143  29.073  26.185  1.00  0.00     0.264 C 
ATOM     21  N   UNL A   1      31.056  28.726  25.282  1.00  0.00    -0.331 N 
ATOM     22  C   UNL A   1      30.226  26.819  23.996  1.00  0.00     0.067 C 
ATOM     23  C   UNL A   1      30.862  29.680  24.194  1.00  0.00     0.262 C 
ATOM     24  H   UNL A   1      30.166  28.739  25.780  1.00  0.00     0.348 HD
ATOM     25  C   UNL A   1      29.886  27.756  22.829  1.00  0.00     0.012 C 
ATOM     26  C   UNL A   1      29.711  29.205  23.300  1.00  0.00     0.062 C 
ENDBRANCH  15  17
ENDBRANCH  10  13
ENDBRANCH   4   7
ENDBRANCH   2   3
ENDBRANCH   1   2
BRANCH   1  27
ATOM     27  C   UNL A   1      38.251  19.958  24.916  1.00  0.00     0.023 C 
BRANCH  27  28
ATOM     28  C   UNL A   1      39.339  20.146  25.966  1.00  0.00     0.116 C 
BRANCH  28  29
ATOM     29  N   UNL A   1      40.339  19.092  25.952  1.00  0.00    -0.352 N 
ATOM     30  C   UNL A   1      41.700  19.192  26.106  1.00  0.00     0.251 C 
ATOM     31  H   UNL A   1      39.993  18.181  25.811  1.00  0.00     0.163 HD
ATOM     32  O   UNL A   1      42.412  18.203  25.954  1.00  0.00    -0.269 OA
BRANCH  30  33
ATOM     33  C   UNL A   1      42.311  20.501  26.415  1.00  0.00     0.039 A 
ATOM     34  C   UNL A   1      42.732  21.310  25.359  1.00  0.00     0.014 A 
ATOM     35  C   UNL A   1      42.451  20.939  27.736  1.00  0.00     0.014 A 
ATOM     36  C   UNL A   1      43.229  22.588  25.620  1.00  0.00     0.010 A 
ATOM     37  C   UNL A   1      42.877  22.240  27.991  1.00  0.00     0.010 A 
ATOM     38  C   UNL A   1      43.269  23.078  26.936  1.00  0.00    -0.014 A 
BRANCH  38  39
ATOM     39  C   UNL A   1      43.711  24.468  27.222  1.00  0.00     0.031 A 
ATOM     40  C   UNL A   1      42.729  25.484  27.739  1.00  0.00     0.074 A 
ATOM     41  C   UNL A   1      44.981  24.830  26.960  1.00  0.00     0.049 A 
ATOM     42  N   UNL A   1      42.911  26.755  27.994  1.00  0.00    -0.248 NA
ATOM     43  C   UNL A   1      41.356  25.014  27.976  1.00  0.00     0.031 C 
ATOM     44  C   UNL A   1      46.014  23.950  26.412  1.00  0.00     0.029 A 
ATOM     45  N   UNL A   1      45.619  26.037  27.110  1.00  0.00    -0.354 N 
ATOM     46  C   UNL A   1      41.676  27.237  28.409  1.00  0.00     0.074 A 
ATOM     47  C   UNL A   1      40.740  26.136  28.318  1.00  0.00     0.031 C 
ATOM     48  C   UNL A   1      47.161  24.639  26.295  1.00  0.00     0.029 A 
ATOM     49  C   UNL A   1      46.935  26.017  26.719  1.00  0.00     0.049 A 
ATOM     50  H   UNL A   1      45.174  26.840  27.465  1.00  0.00     0.167 HD
ATOM     51  C   UNL A   1      41.358  28.477  28.849  1.00  0.00     0.037 A 
ATOM     52  C   UNL A   1      47.854  27.001  26.697  1.00  0.00     0.037 A 
ATOM     53  C   UNL A   1      42.296  29.564  28.958  1.00  0.00     0.049 A 
ATOM     54  C   UNL A   1      47.470  28.374  27.179  1.00  0.00     0.074 A 
ATOM     55  C   UNL A   1      42.085  30.840  29.447  1.00  0.00     0.029 A 
ATOM     56  N   UNL A   1      43.624  29.503  28.561  1.00  0.00    -0.354 N 
ATOM     57  N   UNL A   1      46.318  28.799  27.639  1.00  0.00    -0.248 NA
ATOM     58  C   UNL A   1      48.517  29.405  27.142  1.00  0.00     0.031 C 
ATOM     59  C   UNL A   1      43.271  31.568  29.300  1.00  0.00     0.029 A 
ATOM     60  C   UNL A   1      44.238  30.728  28.773  1.00  0.00     0.049 A 
ATOM     61  H   UNL A   1      44.066  28.707  28.187  1.00  0.00     0.167 HD
ATOM     62  C   UNL A   1      46.510  30.133  27.975  1.00  0.00     0.074 A 
ATOM     63  C   UNL A   1      47.893  30.443  27.681  1.00  0.00     0.031 C 
ATOM     64  C   UNL A   1      45.619  31.020  28.481  1.00  0.00     0.037 A 
BRANCH  51  65
ATOM     65  C   UNL A   1      39.932  28.727  29.250  1.00  0.00     0.064 A 
ATOM     66  C   UNL A   1      38.979  29.194  28.332  1.00  0.00     0.173 A 
ATOM     67  C   UNL A   1      39.503  28.461  30.559  1.00  0.00     0.173 A 
ATOM     68  F   UNL A   1      39.339  29.475  27.070  1.00  0.00    -0.203 F 
ATOM     69  C   UNL A   1      37.659  29.414  28.717  1.00  0.00     0.198 A 
ATOM     70  C   UNL A   1      38.175  28.650  30.931  1.00  0.00     0.198 A 
ATOM     71  F   UNL A   1      40.370  28.006  31.476  1.00  0.00    -0.203 F 
ATOM     72  F   UNL A   1      36.780  29.911  27.834  1.00  0.00    -0.200 F 
ATOM     73  C   UNL A   1      37.256  29.134  30.013  1.00  0.00     0.200 A 
ATOM     74  F   UNL A   1      37.783  28.364  32.182  1.00  0.00    -0.200 F 
ATOM     75  F   UNL A   1      35.983  29.338  30.380  1.00  0.00    -0.200 F 
ENDBRANCH  51  65
BRANCH  52  76
ATOM     76  C   UNL A   1      49.235  26.720  26.222  1.00  0.00     0.064 A 
ATOM     77  C   UNL A   1      49.602  26.963  24.892  1.00  0.00     0.173 A 
ATOM     78  C   UNL A   1      50.211  26.196  27.083  1.00  0.00     0.173 A 
ATOM     79  F   UNL A   1      48.700  27.445  24.026  1.00  0.00    -0.203 F 
ATOM     80  C   UNL A   1      50.886  26.672  24.434  1.00  0.00     0.198 A 
ATOM     81  C   UNL A   1      51.503  25.934  26.631  1.00  0.00     0.198 A 
ATOM     82  F   UNL A   1      49.912  25.950  28.366  1.00  0.00    -0.203 F 
ATOM     83  F   UNL A   1      51.195  26.868  23.145  1.00  0.00    -0.200 F 
ATOM     84  C   UNL A   1      51.836  26.162  25.305  1.00  0.00     0.200 A 
ATOM     85  F   UNL A   1      52.423  25.456  27.480  1.00  0.00    -0.200 F 
ATOM     86  F   UNL A   1      53.071  25.885  24.865  1.00  0.00    -0.200 F 
ENDBRANCH  52  76
BRANCH  64  87
ATOM     87  C   UNL A   1      46.119  32.404  28.785  1.00  0.00     0.064 A 
ATOM     88  C   UNL A   1      46.692  32.726  30.024  1.00  0.00     0.173 A 
ATOM     89  C   UNL A   1      46.057  33.411  27.809  1.00  0.00     0.173 A 
ATOM     90  F   UNL A   1      46.761  31.805  30.996  1.00  0.00    -0.203 F 
ATOM     91  C   UNL A   1      47.159  34.012  30.283  1.00  0.00     0.198 A 
ATOM     92  C   UNL A   1      46.555  34.685  28.060  1.00  0.00     0.198 A 
ATOM     93  F   UNL A   1      45.524  33.153  26.605  1.00  0.00    -0.203 F 
ATOM     94  F   UNL A   1      47.656  34.311  31.492  1.00  0.00    -0.200 F 
ATOM     95  C   UNL A   1      47.098  34.988  29.299  1.00  0.00     0.200 A 
ATOM     96  F   UNL A   1      46.509  35.622  27.103  1.00  0.00    -0.200 F 
ATOM     97  F   UNL A   1      47.556  36.222  29.548  1.00  0.00    -0.200 F 
ENDBRANCH  64  87
ENDBRANCH  38  39
ENDBRANCH  30  33
ENDBRANCH  28  29
ENDBRANCH  27  28
ENDBRANCH   1  27
TORSDOF 13
ENDMDL
MODEL 3
REMARK VINA RESULT:     -13.1      5.114     10.378
REMARK SMILES C[C@H]1[C@@H](C(=O)NCCCCNC(=O)c2ccc(-c3c4nc(c(-c5c(F)c(F)c(F)c(F)c5F)c5ccc([nH]5)c(-c5c(F)c(F)c(F)c(F)c5F)c5nc(c(-c6c(F)c(F)c(F)c(F)c6F)c6ccc3[nH]6)C=C5)C=C4)cc2)CCN1C(=O)N[C@@H]1CC[N@H+]2CCCC[C@H]12
REMARK SMILES IDX 8 1 7 2 6 3 4 4 5 5 3 7 1 8 2 9 79 10 77 11 78 12 80 13
REMARK SMILES IDX 81 14 82 15 83 17 84 18 91 19 85 20 86 21 90 22 87 23 89 25
REMARK SMILES IDX 88 26 9 27 10 28 11 29 12 30 13 32 14 33 15 34 76 35 16 36
REMARK SMILES IDX 75 37 17 38 18 39 19 40 69 41 20 42 74 43 68 44 70 45 21 46
REMARK SMILES IDX 73 47 67 48 66 49 22 51 54 52 34 53 53 54 35 55 38 56 52 57
REMARK SMILES IDX 71 58 36 59 37 60 51 62 72 63 39 64 23 65 24 66 32 67 25 68
REMARK SMILES IDX 26 69 30 70 33 71 27 72 28 73 31 74 29 75 55 76 56 77 64 78
REMARK SMILES IDX 57 79 58 80 62 81 65 82 59 83 60 84 63 85 61 86 40 87 41 88
REMARK SMILES IDX 49 89 42 90 43 91 47 92 50 93 44 94 45 95 48 96 46 97
REMARK H PARENT 6 6 82 16 86 24 11 31 70 50 38 61
REMARK Flexibility Score: inf
ROOT
ATOM      1  C   UNL A   1      37.341  33.269  29.259  1.00  0.00     0.023 C 
ENDROOT
BRANCH   1   2
ATOM      2  C   UNL A   1      37.967  34.214  30.281  1.00  0.00     0.116 C 
BRANCH   2   3
ATOM      3  N   UNL A   1      37.016  34.650  31.286  1.00  0.00    -0.356 N 
ATOM      4  C   UNL A   1      37.083  34.598  32.646  1.00  0.00     0.225 C 
ATOM      5  O   UNL A   1      36.222  35.219  33.266  1.00  0.00    -0.275 OA
ATOM      6  H   UNL A   1      36.189  35.046  30.928  1.00  0.00     0.163 HD
BRANCH   4   7
ATOM      7  C   UNL A   1      38.241  33.869  33.306  1.00  0.00     0.102 C 
ATOM      8  C   UNL A   1      36.855  31.685  32.977  1.00  0.00     0.032 C 
ATOM      9  C   UNL A   1      38.113  32.342  33.530  1.00  0.00     0.096 C 
ATOM     10  N   UNL A   1      38.241  32.136  34.971  1.00  0.00    -0.321 N 
ATOM     11  C   UNL A   1      38.490  34.455  34.700  1.00  0.00     0.037 C 
ATOM     12  C   UNL A   1      37.976  33.391  35.653  1.00  0.00     0.122 C 
BRANCH  10  13
ATOM     13  C   UNL A   1      38.446  31.012  35.712  1.00  0.00     0.318 C 
ATOM     14  O   UNL A   1      37.858  30.845  36.787  1.00  0.00    -0.249 OA
ATOM     15  N   UNL A   1      39.288  30.025  35.355  1.00  0.00    -0.329 N 
ATOM     16  H   UNL A   1      39.213  29.252  35.961  1.00  0.00     0.165 HD
BRANCH  15  17
ATOM     17  C   UNL A   1      40.281  29.790  34.313  1.00  0.00     0.147 C 
ATOM     18  C   UNL A   1      39.702  28.955  33.154  1.00  0.00     0.092 C 
ATOM     19  C   UNL A   1      41.510  28.965  34.757  1.00  0.00     0.207 C 
ATOM     20  C   UNL A   1      40.679  27.810  32.928  1.00  0.00     0.264 C 
ATOM     21  N   UNL A   1      41.232  27.609  34.259  1.00  0.00    -0.331 N 
ATOM     22  C   UNL A   1      41.864  28.899  36.238  1.00  0.00     0.067 C 
ATOM     23  C   UNL A   1      42.434  26.782  34.284  1.00  0.00     0.262 C 
ATOM     24  H   UNL A   1      40.571  27.096  34.842  1.00  0.00     0.348 HD
ATOM     25  C   UNL A   1      43.107  28.017  36.414  1.00  0.00     0.012 C 
ATOM     26  C   UNL A   1      42.937  26.657  35.726  1.00  0.00     0.062 C 
ENDBRANCH  15  17
ENDBRANCH  10  13
ENDBRANCH   4   7
ENDBRANCH   2   3
ENDBRANCH   1   2
BRANCH   1  27
ATOM     27  C   UNL A   1      35.854  33.506  28.977  1.00  0.00     0.023 C 
BRANCH  27  28
ATOM     28  C   UNL A   1      34.888  32.562  29.682  1.00  0.00     0.116 C 
BRANCH  28  29
ATOM     29  N   UNL A   1      34.158  31.700  28.768  1.00  0.00    -0.352 N 
ATOM     30  C   UNL A   1      34.597  30.583  28.100  1.00  0.00     0.251 C 
ATOM     31  H   UNL A   1      33.221  31.952  28.603  1.00  0.00     0.163 HD
ATOM     32  O   UNL A   1      33.873  30.034  27.274  1.00  0.00    -0.269 OA
BRANCH  30  33
ATOM     33  C   UNL A   1      35.958  30.064  28.349  1.00  0.00     0.039 A 
ATOM     34  C   UNL A   1      36.916  30.187  27.340  1.00  0.00     0.014 A 
ATOM     35  C   UNL A   1      36.297  29.480  29.573  1.00  0.00     0.014 A 
ATOM     36  C   UNL A   1      38.231  29.788  27.582  1.00  0.00     0.010 A 
ATOM     37  C   UNL A   1      37.623  29.151  29.839  1.00  0.00     0.010 A 
ATOM     38  C   UNL A   1      38.604  29.302  28.847  1.00  0.00    -0.014 A 
BRANCH  38  39
ATOM     39  C   UNL A   1      40.018  28.958  29.147  1.00  0.00     0.031 A 
ATOM     40  C   UNL A   1      40.891  29.927  29.897  1.00  0.00     0.074 A 
ATOM     41  C   UNL A   1      40.532  27.799  28.694  1.00  0.00     0.049 A 
ATOM     42  N   UNL A   1      42.160  29.830  30.204  1.00  0.00    -0.248 NA
ATOM     43  C   UNL A   1      40.261  31.181  30.336  1.00  0.00     0.031 C 
ATOM     44  C   UNL A   1      39.801  26.798  27.914  1.00  0.00     0.029 A 
ATOM     45  N   UNL A   1      41.793  27.268  28.814  1.00  0.00    -0.354 N 
ATOM     46  C   UNL A   1      42.480  31.012  30.861  1.00  0.00     0.074 A 
ATOM     47  C   UNL A   1      41.289  31.834  30.857  1.00  0.00     0.031 C 
ATOM     48  C   UNL A   1      40.618  25.766  27.647  1.00  0.00     0.029 A 
ATOM     49  C   UNL A   1      41.940  26.049  28.199  1.00  0.00     0.049 A 
ATOM     50  H   UNL A   1      42.523  27.721  29.296  1.00  0.00     0.167 HD
ATOM     51  C   UNL A   1      43.654  31.368  31.435  1.00  0.00     0.037 A 
ATOM     52  C   UNL A   1      43.019  25.253  28.086  1.00  0.00     0.037 A 
ATOM     53  C   UNL A   1      44.831  30.540  31.453  1.00  0.00     0.049 A 
ATOM     54  C   UNL A   1      44.315  25.680  28.722  1.00  0.00     0.074 A 
ATOM     55  C   UNL A   1      46.049  30.786  32.060  1.00  0.00     0.029 A 
ATOM     56  N   UNL A   1      44.938  29.306  30.829  1.00  0.00    -0.354 N 
ATOM     57  N   UNL A   1      44.585  26.765  29.405  1.00  0.00    -0.248 NA
ATOM     58  C   UNL A   1      45.456  24.764  28.576  1.00  0.00     0.031 C 
ATOM     59  C   UNL A   1      46.911  29.725  31.759  1.00  0.00     0.029 A 
ATOM     60  C   UNL A   1      46.212  28.790  31.015  1.00  0.00     0.049 A 
ATOM     61  H   UNL A   1      44.216  28.861  30.328  1.00  0.00     0.167 HD
ATOM     62  C   UNL A   1      45.913  26.651  29.794  1.00  0.00     0.074 A 
ATOM     63  C   UNL A   1      46.390  25.383  29.286  1.00  0.00     0.031 C 
ATOM     64  C   UNL A   1      46.670  27.521  30.508  1.00  0.00     0.037 A 
BRANCH  51  65
ATOM     65  C   UNL A   1      43.723  32.716  32.094  1.00  0.00     0.064 A 
ATOM     66  C   UNL A   1      44.043  33.876  31.371  1.00  0.00     0.173 A 
ATOM     67  C   UNL A   1      43.428  32.857  33.459  1.00  0.00     0.173 A 
ATOM     68  F   UNL A   1      44.345  33.795  30.066  1.00  0.00    -0.203 F 
ATOM     69  C   UNL A   1      44.097  35.119  31.995  1.00  0.00     0.198 A 
ATOM     70  C   UNL A   1      43.449  34.107  34.072  1.00  0.00     0.198 A 
ATOM     71  F   UNL A   1      43.108  31.784  34.197  1.00  0.00    -0.203 F 
ATOM     72  F   UNL A   1      44.457  36.203  31.293  1.00  0.00    -0.200 F 
ATOM     73  C   UNL A   1      43.791  35.235  33.342  1.00  0.00     0.200 A 
ATOM     74  F   UNL A   1      43.139  34.220  35.371  1.00  0.00    -0.200 F 
ATOM     75  F   UNL A   1      43.835  36.434  33.939  1.00  0.00    -0.200 F 
ENDBRANCH  51  65
BRANCH  52  76
ATOM     76  C   UNL A   1      42.918  23.960  27.360  1.00  0.00     0.064 A 
ATOM     77  C   UNL A   1      42.491  22.797  28.016  1.00  0.00     0.173 A 
ATOM     78  C   UNL A   1      43.253  23.856  26.002  1.00  0.00     0.173 A 
ATOM     79  F   UNL A   1      42.178  22.839  29.318  1.00  0.00    -0.203 F 
ATOM     80  C   UNL A   1      42.425  21.575  27.347  1.00  0.00     0.198 A 
ATOM     81  C   UNL A   1      43.157  22.640  25.327  1.00  0.00     0.198 A 
ATOM     82  F   UNL A   1      43.663  24.939  25.327  1.00  0.00    -0.203 F 
ATOM     83  F   UNL A   1      42.060  20.470  28.011  1.00  0.00    -0.200 F 
ATOM     84  C   UNL A   1      42.753  21.500  26.003  1.00  0.00     0.200 A 
ATOM     85  F   UNL A   1      43.460  22.575  24.024  1.00  0.00    -0.200 F 
ATOM     86  F   UNL A   1      42.686  20.326  25.360  1.00  0.00    -0.200 F 
ENDBRANCH  52  76
BRANCH  64  87
ATOM     87  C   UNL A   1      48.083  27.115  30.816  1.00  0.00     0.064 A 
ATOM     88  C   UNL A   1      48.394  26.301  31.914  1.00  0.00     0.173 A 
ATOM     89  C   UNL A   1      49.135  27.518  29.978  1.00  0.00     0.173 A 
ATOM     90  F   UNL A   1      47.429  25.901  32.755  1.00  0.00    -0.203 F 
ATOM     91  C   UNL A   1      49.710  25.927  32.178  1.00  0.00     0.198 A 
ATOM     92  C   UNL A   1      50.443  27.115  30.224  1.00  0.00     0.198 A 
ATOM     93  F   UNL A   1      48.889  28.291  28.910  1.00  0.00    -0.203 F 
ATOM     94  F   UNL A   1      49.991  25.191  33.262  1.00  0.00    -0.200 F 
ATOM     95  C   UNL A   1      50.732  26.327  31.328  1.00  0.00     0.200 A 
ATOM     96  F   UNL A   1      51.427  27.489  29.395  1.00  0.00    -0.200 F 
ATOM     97  F   UNL A   1      51.995  25.960  31.579  1.00  0.00    -0.200 F 
ENDBRANCH  64  87
ENDBRANCH  38  39
ENDBRANCH  30  33
ENDBRANCH  28  29
ENDBRANCH  27  28
ENDBRANCH   1  27
TORSDOF 13
ENDMDL
