MODEL 1
REMARK VINA RESULT:     -13.9      0.000      0.000
REMARK SMILES Cc1ccccc1NC(=O)NC[C@@H]1CC[C@@H](C(=O)NCCCCNC(=O)c2ccc(-c3c4nc(c(-c5c(F)c(F)c(F)c(F)c5F)c5ccc([nH]5)c(-c5c(F)c(F)c(F)c(F)c5F)c5nc(c(-c6c(F)c(F)c(F)c(F)c6F)c6ccc3[nH]6)C=C5)C=C4)cc2)O1
REMARK SMILES IDX 21 1 20 2 19 3 17 4 18 5 16 7 13 8 14 9 90 10 15 11 12 12
REMARK SMILES IDX 11 13 8 14 9 15 10 17 7 19 1 20 2 21 3 22 4 23 6 24 5 25
REMARK SMILES IDX 22 26 23 27 24 28 25 29 26 31 27 32 28 33 89 34 29 35 88 36
REMARK SMILES IDX 30 37 31 38 32 39 82 40 33 41 87 42 81 43 83 44 34 45 86 46
REMARK SMILES IDX 80 47 79 48 35 50 67 51 47 52 66 53 48 54 51 55 65 56 84 57
REMARK SMILES IDX 49 58 50 59 64 61 85 62 52 63 36 64 37 65 45 66 38 67 39 68
REMARK SMILES IDX 43 69 46 70 40 71 41 72 44 73 42 74 68 75 69 76 77 77 70 78
REMARK SMILES IDX 71 79 75 80 78 81 72 82 73 83 76 84 74 85 53 86 54 87 62 88
REMARK SMILES IDX 55 89 56 90 60 91 63 92 57 93 58 94 61 95 59 96
REMARK H PARENT 19 6 8 16 11 18 24 30 83 49 51 60
REMARK Flexibility Score: inf
ROOT
ATOM      1  C   UNL A   1      36.997  21.425  24.708  1.00  0.00     0.023 C 
ENDROOT
BRANCH   1   2
ATOM      2  C   UNL A   1      35.772  21.074  25.573  1.00  0.00     0.116 C 
BRANCH   2   3
ATOM      3  N   UNL A   1      34.682  20.493  24.805  1.00  0.00    -0.354 N 
ATOM      4  C   UNL A   1      33.417  20.917  24.514  1.00  0.00     0.249 C 
ATOM      5  O   UNL A   1      32.738  20.143  23.831  1.00  0.00    -0.272 OA
ATOM      6  H   UNL A   1      34.900  19.616  24.417  1.00  0.00     0.163 HD
BRANCH   4   7
ATOM      7  C   UNL A   1      32.878  22.309  24.935  1.00  0.00     0.207 C 
ATOM      8  C   UNL A   1      31.112  23.454  23.890  1.00  0.00     0.138 C 
ATOM      9  C   UNL A   1      30.901  23.527  25.384  1.00  0.00     0.037 C 
ATOM     10  O   UNL A   1      32.516  23.130  23.784  1.00  0.00    -0.363 OA
ATOM     11  C   UNL A   1      31.645  22.299  25.820  1.00  0.00     0.045 C 
BRANCH   8  12
ATOM     12  C   UNL A   1      30.711  24.746  23.152  1.00  0.00     0.149 C 
BRANCH  12  13
ATOM     13  N   UNL A   1      31.549  24.967  21.974  1.00  0.00    -0.335 N 
ATOM     14  N   UNL A   1      33.668  25.951  22.559  1.00  0.00    -0.308 N 
ATOM     15  C   UNL A   1      32.800  25.361  21.725  1.00  0.00     0.319 C 
ATOM     16  H   UNL A   1      34.585  25.879  22.207  1.00  0.00     0.171 HD
ATOM     17  O   UNL A   1      33.228  25.105  20.591  1.00  0.00    -0.249 OA
ATOM     18  H   UNL A   1      31.060  24.772  21.143  1.00  0.00     0.165 HD
BRANCH  14  19
ATOM     19  C   UNL A   1      33.666  26.642  23.785  1.00  0.00     0.045 A 
ATOM     20  C   UNL A   1      33.296  28.910  22.603  1.00  0.00     0.046 C 
ATOM     21  C   UNL A   1      33.587  28.054  23.809  1.00  0.00    -0.027 A 
ATOM     22  C   UNL A   1      33.665  28.735  25.045  1.00  0.00     0.005 A 
ATOM     23  C   UNL A   1      33.793  28.042  26.242  1.00  0.00     0.000 A 
ATOM     24  C   UNL A   1      33.654  25.980  25.004  1.00  0.00     0.026 A 
ATOM     25  C   UNL A   1      33.757  26.659  26.223  1.00  0.00     0.002 A 
ENDBRANCH  14  19
ENDBRANCH  12  13
ENDBRANCH   8  12
ENDBRANCH   4   7
ENDBRANCH   2   3
ENDBRANCH   1   2
BRANCH   1  26
ATOM     26  C   UNL A   1      38.351  21.335  25.424  1.00  0.00     0.023 C 
BRANCH  26  27
ATOM     27  C   UNL A   1      38.793  22.643  26.069  1.00  0.00     0.116 C 
BRANCH  27  28
ATOM     28  N   UNL A   1      40.221  22.747  26.337  1.00  0.00    -0.352 N 
ATOM     29  C   UNL A   1      40.972  23.884  26.603  1.00  0.00     0.251 C 
ATOM     30  H   UNL A   1      40.720  21.898  26.327  1.00  0.00     0.163 HD
ATOM     31  O   UNL A   1      42.193  23.811  26.728  1.00  0.00    -0.269 OA
BRANCH  29  32
ATOM     32  C   UNL A   1      40.273  25.157  26.878  1.00  0.00     0.039 A 
ATOM     33  C   UNL A   1      40.692  26.295  26.179  1.00  0.00     0.014 A 
ATOM     34  C   UNL A   1      39.436  25.280  27.985  1.00  0.00     0.014 A 
ATOM     35  C   UNL A   1      40.520  27.548  26.759  1.00  0.00     0.010 A 
ATOM     36  C   UNL A   1      39.356  26.508  28.614  1.00  0.00     0.010 A 
ATOM     37  C   UNL A   1      39.983  27.623  28.043  1.00  0.00    -0.014 A 
BRANCH  37  38
ATOM     38  C   UNL A   1      40.188  28.766  28.928  1.00  0.00     0.031 A 
ATOM     39  C   UNL A   1      39.174  29.835  29.027  1.00  0.00     0.074 A 
ATOM     40  C   UNL A   1      41.272  28.784  29.742  1.00  0.00     0.049 A 
ATOM     41  N   UNL A   1      39.363  30.940  29.662  1.00  0.00    -0.248 NA
ATOM     42  C   UNL A   1      37.881  29.779  28.349  1.00  0.00     0.031 C 
ATOM     43  C   UNL A   1      41.503  29.641  30.906  1.00  0.00     0.029 A 
ATOM     44  N   UNL A   1      42.520  28.173  29.517  1.00  0.00    -0.354 N 
ATOM     45  C   UNL A   1      38.166  31.607  29.713  1.00  0.00     0.074 A 
ATOM     46  C   UNL A   1      37.312  30.908  28.786  1.00  0.00     0.031 C 
ATOM     47  C   UNL A   1      42.825  29.770  31.090  1.00  0.00     0.029 A 
ATOM     48  C   UNL A   1      43.477  29.117  29.972  1.00  0.00     0.049 A 
ATOM     49  H   UNL A   1      42.692  27.285  29.128  1.00  0.00     0.167 HD
ATOM     50  C   UNL A   1      38.019  32.609  30.622  1.00  0.00     0.037 A 
ATOM     51  C   UNL A   1      44.330  29.723  29.095  1.00  0.00     0.037 A 
ATOM     52  C   UNL A   1      39.322  33.085  31.090  1.00  0.00     0.049 A 
ATOM     53  C   UNL A   1      44.184  31.230  29.002  1.00  0.00     0.074 A 
ATOM     54  C   UNL A   1      40.052  33.014  32.262  1.00  0.00     0.029 A 
ATOM     55  N   UNL A   1      40.188  33.592  30.133  1.00  0.00    -0.354 N 
ATOM     56  N   UNL A   1      43.297  31.927  29.657  1.00  0.00    -0.248 NA
ATOM     57  C   UNL A   1      44.971  32.055  28.084  1.00  0.00     0.031 C 
ATOM     58  C   UNL A   1      41.393  33.423  31.969  1.00  0.00     0.029 A 
ATOM     59  C   UNL A   1      41.461  33.770  30.630  1.00  0.00     0.049 A 
ATOM     60  H   UNL A   1      39.925  33.800  29.208  1.00  0.00     0.167 HD
ATOM     61  C   UNL A   1      43.352  33.232  29.248  1.00  0.00     0.074 A 
ATOM     62  C   UNL A   1      44.414  33.265  28.259  1.00  0.00     0.031 C 
ATOM     63  C   UNL A   1      42.505  34.192  29.712  1.00  0.00     0.037 A 
BRANCH  50  64
ATOM     64  C   UNL A   1      36.698  33.114  31.154  1.00  0.00     0.064 A 
ATOM     65  C   UNL A   1      35.857  33.903  30.339  1.00  0.00     0.173 A 
ATOM     66  C   UNL A   1      36.256  32.973  32.489  1.00  0.00     0.173 A 
ATOM     67  F   UNL A   1      36.166  34.148  29.057  1.00  0.00    -0.203 F 
ATOM     68  C   UNL A   1      34.681  34.492  30.819  1.00  0.00     0.198 A 
ATOM     69  C   UNL A   1      35.053  33.514  32.951  1.00  0.00     0.198 A 
ATOM     70  F   UNL A   1      36.994  32.370  33.426  1.00  0.00    -0.203 F 
ATOM     71  F   UNL A   1      33.955  35.280  30.014  1.00  0.00    -0.200 F 
ATOM     72  C   UNL A   1      34.272  34.285  32.120  1.00  0.00     0.200 A 
ATOM     73  F   UNL A   1      34.680  33.306  34.222  1.00  0.00    -0.200 F 
ATOM     74  F   UNL A   1      33.145  34.845  32.580  1.00  0.00    -0.200 F 
ENDBRANCH  50  64
BRANCH  51  75
ATOM     75  C   UNL A   1      44.744  28.822  27.987  1.00  0.00     0.064 A 
ATOM     76  C   UNL A   1      45.620  27.759  28.288  1.00  0.00     0.173 A 
ATOM     77  C   UNL A   1      44.031  28.751  26.786  1.00  0.00     0.173 A 
ATOM     78  F   UNL A   1      46.327  27.775  29.431  1.00  0.00    -0.203 F 
ATOM     79  C   UNL A   1      45.677  26.619  27.492  1.00  0.00     0.198 A 
ATOM     80  C   UNL A   1      44.110  27.615  25.978  1.00  0.00     0.198 A 
ATOM     81  F   UNL A   1      43.163  29.716  26.452  1.00  0.00    -0.203 F 
ATOM     82  F   UNL A   1      46.419  25.571  27.879  1.00  0.00    -0.200 F 
ATOM     83  C   UNL A   1      44.900  26.537  26.351  1.00  0.00     0.200 A 
ATOM     84  F   UNL A   1      43.333  27.521  24.890  1.00  0.00    -0.200 F 
ATOM     85  F   UNL A   1      44.874  25.404  25.636  1.00  0.00    -0.200 F 
ENDBRANCH  51  75
BRANCH  63  86
ATOM     86  C   UNL A   1      42.596  35.628  29.291  1.00  0.00     0.064 A 
ATOM     87  C   UNL A   1      41.981  36.098  28.120  1.00  0.00     0.173 A 
ATOM     88  C   UNL A   1      43.399  36.551  29.990  1.00  0.00     0.173 A 
ATOM     89  F   UNL A   1      41.232  35.279  27.366  1.00  0.00    -0.203 F 
ATOM     90  C   UNL A   1      42.133  37.419  27.693  1.00  0.00     0.198 A 
ATOM     91  C   UNL A   1      43.588  37.856  29.536  1.00  0.00     0.198 A 
ATOM     92  F   UNL A   1      43.996  36.220  31.145  1.00  0.00    -0.203 F 
ATOM     93  F   UNL A   1      41.489  37.840  26.596  1.00  0.00    -0.200 F 
ATOM     94  C   UNL A   1      42.947  38.291  28.392  1.00  0.00     0.200 A 
ATOM     95  F   UNL A   1      44.390  38.687  30.216  1.00  0.00    -0.200 F 
ATOM     96  F   UNL A   1      43.109  39.552  27.969  1.00  0.00    -0.200 F 
ENDBRANCH  63  86
ENDBRANCH  37  38
ENDBRANCH  29  32
ENDBRANCH  27  28
ENDBRANCH  26  27
ENDBRANCH   1  26
TORSDOF 14
ENDMDL
MODEL 2
REMARK VINA RESULT:     -13.7      3.820     10.050
REMARK SMILES Cc1ccccc1NC(=O)NC[C@@H]1CC[C@@H](C(=O)NCCCCNC(=O)c2ccc(-c3c4nc(c(-c5c(F)c(F)c(F)c(F)c5F)c5ccc([nH]5)c(-c5c(F)c(F)c(F)c(F)c5F)c5nc(c(-c6c(F)c(F)c(F)c(F)c6F)c6ccc3[nH]6)C=C5)C=C4)cc2)O1
REMARK SMILES IDX 21 1 20 2 19 3 17 4 18 5 16 7 13 8 14 9 90 10 15 11 12 12
REMARK SMILES IDX 11 13 8 14 9 15 10 17 7 19 1 20 2 21 3 22 4 23 6 24 5 25
REMARK SMILES IDX 22 26 23 27 24 28 25 29 26 31 27 32 28 33 89 34 29 35 88 36
REMARK SMILES IDX 30 37 31 38 32 39 82 40 33 41 87 42 81 43 83 44 34 45 86 46
REMARK SMILES IDX 80 47 79 48 35 50 67 51 47 52 66 53 48 54 51 55 65 56 84 57
REMARK SMILES IDX 49 58 50 59 64 61 85 62 52 63 36 64 37 65 45 66 38 67 39 68
REMARK SMILES IDX 43 69 46 70 40 71 41 72 44 73 42 74 68 75 69 76 77 77 70 78
REMARK SMILES IDX 71 79 75 80 78 81 72 82 73 83 76 84 74 85 53 86 54 87 62 88
REMARK SMILES IDX 55 89 56 90 60 91 63 92 57 93 58 94 61 95 59 96
REMARK H PARENT 19 6 8 16 11 18 24 30 83 49 51 60
REMARK Flexibility Score: inf
ROOT
ATOM      1  C   UNL A   1      34.095  28.672  27.184  1.00  0.00     0.023 C 
ENDROOT
BRANCH   1   2
ATOM      2  C   UNL A   1      33.311  27.936  26.080  1.00  0.00     0.116 C 
BRANCH   2   3
ATOM      3  N   UNL A   1      32.209  27.142  26.599  1.00  0.00    -0.354 N 
ATOM      4  C   UNL A   1      31.401  26.191  26.043  1.00  0.00     0.249 C 
ATOM      5  O   UNL A   1      30.534  25.723  26.790  1.00  0.00    -0.272 OA
ATOM      6  H   UNL A   1      32.003  27.327  27.544  1.00  0.00     0.163 HD
BRANCH   4   7
ATOM      7  C   UNL A   1      31.594  25.663  24.598  1.00  0.00     0.207 C 
ATOM      8  C   UNL A   1      31.818  23.402  23.998  1.00  0.00     0.138 C 
ATOM      9  C   UNL A   1      30.837  24.046  23.046  1.00  0.00     0.037 C 
ATOM     10  O   UNL A   1      32.524  24.538  24.543  1.00  0.00    -0.363 OA
ATOM     11  C   UNL A   1      30.339  25.175  23.901  1.00  0.00     0.045 C 
BRANCH   8  12
ATOM     12  C   UNL A   1      32.733  22.363  23.322  1.00  0.00     0.149 C 
BRANCH  12  13
ATOM     13  N   UNL A   1      32.503  21.023  23.859  1.00  0.00    -0.335 N 
ATOM     14  N   UNL A   1      34.032  20.502  25.646  1.00  0.00    -0.308 N 
ATOM     15  C   UNL A   1      32.955  20.287  24.877  1.00  0.00     0.319 C 
ATOM     16  H   UNL A   1      33.972  19.974  26.475  1.00  0.00     0.171 HD
ATOM     17  O   UNL A   1      32.262  19.305  25.179  1.00  0.00    -0.249 OA
ATOM     18  H   UNL A   1      31.835  20.533  23.328  1.00  0.00     0.165 HD
BRANCH  14  19
ATOM     19  C   UNL A   1      35.220  21.254  25.627  1.00  0.00     0.045 A 
ATOM     20  C   UNL A   1      34.189  23.081  27.135  1.00  0.00     0.046 C 
ATOM     21  C   UNL A   1      35.273  22.524  26.249  1.00  0.00    -0.027 A 
ATOM     22  C   UNL A   1      36.450  23.299  26.152  1.00  0.00     0.005 A 
ATOM     23  C   UNL A   1      37.570  22.828  25.478  1.00  0.00     0.000 A 
ATOM     24  C   UNL A   1      36.397  20.761  25.082  1.00  0.00     0.026 A 
ATOM     25  C   UNL A   1      37.552  21.542  24.967  1.00  0.00     0.002 A 
ENDBRANCH  14  19
ENDBRANCH  12  13
ENDBRANCH   8  12
ENDBRANCH   4   7
ENDBRANCH   2   3
ENDBRANCH   1   2
BRANCH   1  26
ATOM     26  C   UNL A   1      33.644  30.112  27.456  1.00  0.00     0.023 C 
BRANCH  26  27
ATOM     27  C   UNL A   1      34.770  31.136  27.365  1.00  0.00     0.116 C 
BRANCH  27  28
ATOM     28  N   UNL A   1      35.201  31.693  28.640  1.00  0.00    -0.352 N 
ATOM     29  C   UNL A   1      36.057  31.140  29.583  1.00  0.00     0.251 C 
ATOM     30  H   UNL A   1      34.837  32.581  28.863  1.00  0.00     0.163 HD
ATOM     31  O   UNL A   1      36.258  31.708  30.654  1.00  0.00    -0.269 OA
BRANCH  29  32
ATOM     32  C   UNL A   1      36.836  29.936  29.226  1.00  0.00     0.039 A 
ATOM     33  C   UNL A   1      37.038  28.972  30.220  1.00  0.00     0.014 A 
ATOM     34  C   UNL A   1      37.576  29.896  28.046  1.00  0.00     0.014 A 
ATOM     35  C   UNL A   1      38.170  28.164  30.160  1.00  0.00     0.010 A 
ATOM     36  C   UNL A   1      38.754  29.173  28.035  1.00  0.00     0.010 A 
ATOM     37  C   UNL A   1      39.092  28.380  29.139  1.00  0.00    -0.014 A 
BRANCH  37  38
ATOM     38  C   UNL A   1      40.490  27.967  29.226  1.00  0.00     0.031 A 
ATOM     39  C   UNL A   1      40.915  26.638  28.742  1.00  0.00     0.074 A 
ATOM     40  C   UNL A   1      41.417  28.857  29.657  1.00  0.00     0.049 A 
ATOM     41  N   UNL A   1      42.093  26.152  28.934  1.00  0.00    -0.248 NA
ATOM     42  C   UNL A   1      40.017  25.706  28.064  1.00  0.00     0.031 C 
ATOM     43  C   UNL A   1      42.871  28.773  29.523  1.00  0.00     0.029 A 
ATOM     44  N   UNL A   1      41.220  29.933  30.545  1.00  0.00    -0.354 N 
ATOM     45  C   UNL A   1      42.201  25.002  28.196  1.00  0.00     0.074 A 
ATOM     46  C   UNL A   1      40.856  24.705  27.773  1.00  0.00     0.031 C 
ATOM     47  C   UNL A   1      43.437  29.487  30.507  1.00  0.00     0.029 A 
ATOM     48  C   UNL A   1      42.369  29.934  31.378  1.00  0.00     0.049 A 
ATOM     49  H   UNL A   1      40.452  30.548  30.581  1.00  0.00     0.167 HD
ATOM     50  C   UNL A   1      43.443  24.504  27.947  1.00  0.00     0.037 A 
ATOM     51  C   UNL A   1      42.266  29.645  32.708  1.00  0.00     0.037 A 
ATOM     52  C   UNL A   1      44.423  25.052  28.886  1.00  0.00     0.049 A 
ATOM     53  C   UNL A   1      43.024  28.410  33.153  1.00  0.00     0.074 A 
ATOM     54  C   UNL A   1      45.481  25.940  28.824  1.00  0.00     0.029 A 
ATOM     55  N   UNL A   1      44.205  24.816  30.234  1.00  0.00    -0.354 N 
ATOM     56  N   UNL A   1      43.698  27.630  32.354  1.00  0.00    -0.248 NA
ATOM     57  C   UNL A   1      42.999  27.906  34.528  1.00  0.00     0.031 C 
ATOM     58  C   UNL A   1      45.845  26.285  30.166  1.00  0.00     0.029 A 
ATOM     59  C   UNL A   1      45.028  25.580  31.033  1.00  0.00     0.049 A 
ATOM     60  H   UNL A   1      43.541  24.178  30.581  1.00  0.00     0.167 HD
ATOM     61  C   UNL A   1      44.149  26.543  33.053  1.00  0.00     0.074 A 
ATOM     62  C   UNL A   1      43.684  26.758  34.411  1.00  0.00     0.031 C 
ATOM     63  C   UNL A   1      44.838  25.521  32.473  1.00  0.00     0.037 A 
BRANCH  50  64
ATOM     64  C   UNL A   1      43.796  23.578  26.806  1.00  0.00     0.064 A 
ATOM     65  C   UNL A   1      43.338  22.242  26.806  1.00  0.00     0.173 A 
ATOM     66  C   UNL A   1      44.684  23.894  25.753  1.00  0.00     0.173 A 
ATOM     67  F   UNL A   1      42.514  21.792  27.763  1.00  0.00    -0.203 F 
ATOM     68  C   UNL A   1      43.732  21.313  25.836  1.00  0.00     0.198 A 
ATOM     69  C   UNL A   1      45.030  22.981  24.754  1.00  0.00     0.198 A 
ATOM     70  F   UNL A   1      45.312  25.072  25.677  1.00  0.00    -0.203 F 
ATOM     71  F   UNL A   1      43.311  20.043  25.922  1.00  0.00    -0.200 F 
ATOM     72  C   UNL A   1      44.566  21.686  24.802  1.00  0.00     0.200 A 
ATOM     73  F   UNL A   1      45.848  23.365  23.763  1.00  0.00    -0.200 F 
ATOM     74  F   UNL A   1      44.941  20.799  23.871  1.00  0.00    -0.200 F 
ENDBRANCH  50  64
BRANCH  51  75
ATOM     75  C   UNL A   1      40.999  30.147  33.304  1.00  0.00     0.064 A 
ATOM     76  C   UNL A   1      40.870  31.534  33.520  1.00  0.00     0.173 A 
ATOM     77  C   UNL A   1      39.828  29.382  33.304  1.00  0.00     0.173 A 
ATOM     78  F   UNL A   1      41.963  32.316  33.527  1.00  0.00    -0.203 F 
ATOM     79  C   UNL A   1      39.621  32.143  33.597  1.00  0.00     0.198 A 
ATOM     80  C   UNL A   1      38.578  29.994  33.405  1.00  0.00     0.198 A 
ATOM     81  F   UNL A   1      39.878  28.062  33.079  1.00  0.00    -0.203 F 
ATOM     82  F   UNL A   1      39.533  33.480  33.666  1.00  0.00    -0.200 F 
ATOM     83  C   UNL A   1      38.475  31.375  33.511  1.00  0.00     0.200 A 
ATOM     84  F   UNL A   1      37.466  29.255  33.290  1.00  0.00    -0.200 F 
ATOM     85  F   UNL A   1      37.271  31.964  33.482  1.00  0.00    -0.200 F 
ENDBRANCH  51  75
BRANCH  63  86
ATOM     86  C   UNL A   1      45.365  24.353  33.251  1.00  0.00     0.064 A 
ATOM     87  C   UNL A   1      44.567  23.234  33.540  1.00  0.00     0.173 A 
ATOM     88  C   UNL A   1      46.651  24.370  33.825  1.00  0.00     0.173 A 
ATOM     89  F   UNL A   1      43.313  23.150  33.072  1.00  0.00    -0.203 F 
ATOM     90  C   UNL A   1      45.039  22.184  34.330  1.00  0.00     0.198 A 
ATOM     91  C   UNL A   1      47.103  23.343  34.653  1.00  0.00     0.198 A 
ATOM     92  F   UNL A   1      47.511  25.369  33.577  1.00  0.00    -0.203 F 
ATOM     93  F   UNL A   1      44.263  21.112  34.543  1.00  0.00    -0.200 F 
ATOM     94  C   UNL A   1      46.299  22.245  34.896  1.00  0.00     0.200 A 
ATOM     95  F   UNL A   1      48.321  23.421  35.206  1.00  0.00    -0.200 F 
ATOM     96  F   UNL A   1      46.743  21.246  35.671  1.00  0.00    -0.200 F 
ENDBRANCH  63  86
ENDBRANCH  37  38
ENDBRANCH  29  32
ENDBRANCH  27  28
ENDBRANCH  26  27
ENDBRANCH   1  26
TORSDOF 14
ENDMDL
MODEL 3
REMARK VINA RESULT:     -13.7      1.202      1.850
REMARK SMILES Cc1ccccc1NC(=O)NC[C@@H]1CC[C@@H](C(=O)NCCCCNC(=O)c2ccc(-c3c4nc(c(-c5c(F)c(F)c(F)c(F)c5F)c5ccc([nH]5)c(-c5c(F)c(F)c(F)c(F)c5F)c5nc(c(-c6c(F)c(F)c(F)c(F)c6F)c6ccc3[nH]6)C=C5)C=C4)cc2)O1
REMARK SMILES IDX 21 1 20 2 19 3 17 4 18 5 16 7 13 8 14 9 90 10 15 11 12 12
REMARK SMILES IDX 11 13 8 14 9 15 10 17 7 19 1 20 2 21 3 22 4 23 6 24 5 25
REMARK SMILES IDX 22 26 23 27 24 28 25 29 26 31 27 32 28 33 89 34 29 35 88 36
REMARK SMILES IDX 30 37 31 38 32 39 82 40 33 41 87 42 81 43 83 44 34 45 86 46
REMARK SMILES IDX 80 47 79 48 35 50 67 51 47 52 66 53 48 54 51 55 65 56 84 57
REMARK SMILES IDX 49 58 50 59 64 61 85 62 52 63 36 64 37 65 45 66 38 67 39 68
REMARK SMILES IDX 43 69 46 70 40 71 41 72 44 73 42 74 68 75 69 76 77 77 70 78
REMARK SMILES IDX 71 79 75 80 78 81 72 82 73 83 76 84 74 85 53 86 54 87 62 88
REMARK SMILES IDX 55 89 56 90 60 91 63 92 57 93 58 94 61 95 59 96
REMARK H PARENT 19 6 8 16 11 18 24 30 83 49 51 60
REMARK Flexibility Score: inf
ROOT
ATOM      1  C   UNL A   1      37.024  21.648  24.519  1.00  0.00     0.023 C 
ENDROOT
BRANCH   1   2
ATOM      2  C   UNL A   1      36.456  23.066  24.319  1.00  0.00     0.116 C 
BRANCH   2   3
ATOM      3  N   UNL A   1      35.606  23.177  23.145  1.00  0.00    -0.354 N 
ATOM      4  C   UNL A   1      34.263  23.367  22.981  1.00  0.00     0.249 C 
ATOM      5  O   UNL A   1      33.867  23.397  21.810  1.00  0.00    -0.272 OA
ATOM      6  H   UNL A   1      36.098  23.100  22.296  1.00  0.00     0.163 HD
BRANCH   4   7
ATOM      7  C   UNL A   1      33.296  23.612  24.168  1.00  0.00     0.207 C 
ATOM      8  C   UNL A   1      31.363  24.946  24.091  1.00  0.00     0.138 C 
ATOM      9  C   UNL A   1      31.013  23.650  24.785  1.00  0.00     0.037 C 
ATOM     10  O   UNL A   1      32.802  24.986  24.201  1.00  0.00    -0.363 OA
ATOM     11  C   UNL A   1      32.053  22.743  24.196  1.00  0.00     0.045 C 
BRANCH   8  12
ATOM     12  C   UNL A   1      30.655  26.174  24.695  1.00  0.00     0.149 C 
BRANCH  12  13
ATOM     13  N   UNL A   1      30.145  27.060  23.651  1.00  0.00    -0.335 N 
ATOM     14  N   UNL A   1      31.368  29.134  23.564  1.00  0.00    -0.308 N 
ATOM     15  C   UNL A   1      30.491  28.229  23.105  1.00  0.00     0.319 C 
ATOM     16  H   UNL A   1      31.630  29.752  22.844  1.00  0.00     0.171 HD
ATOM     17  O   UNL A   1      29.969  28.487  22.012  1.00  0.00    -0.249 OA
ATOM     18  H   UNL A   1      29.328  26.698  23.239  1.00  0.00     0.165 HD
BRANCH  14  19
ATOM     19  C   UNL A   1      32.027  29.466  24.761  1.00  0.00     0.045 A 
ATOM     20  C   UNL A   1      34.136  28.144  24.068  1.00  0.00     0.046 C 
ATOM     21  C   UNL A   1      33.300  28.922  25.051  1.00  0.00    -0.027 A 
ATOM     22  C   UNL A   1      33.912  29.205  26.293  1.00  0.00     0.005 A 
ATOM     23  C   UNL A   1      33.298  30.029  27.228  1.00  0.00     0.000 A 
ATOM     24  C   UNL A   1      31.508  30.391  25.657  1.00  0.00     0.026 A 
ATOM     25  C   UNL A   1      32.105  30.647  26.895  1.00  0.00     0.002 A 
ENDBRANCH  14  19
ENDBRANCH  12  13
ENDBRANCH   8  12
ENDBRANCH   4   7
ENDBRANCH   2   3
ENDBRANCH   1   2
BRANCH   1  26
ATOM     26  C   UNL A   1      38.232  21.553  25.459  1.00  0.00     0.023 C 
BRANCH  26  27
ATOM     27  C   UNL A   1      38.697  22.900  26.000  1.00  0.00     0.116 C 
BRANCH  27  28
ATOM     28  N   UNL A   1      40.101  22.960  26.381  1.00  0.00    -0.352 N 
ATOM     29  C   UNL A   1      40.853  24.068  26.750  1.00  0.00     0.251 C 
ATOM     30  H   UNL A   1      40.582  22.100  26.376  1.00  0.00     0.163 HD
ATOM     31  O   UNL A   1      42.058  23.961  26.967  1.00  0.00    -0.269 OA
BRANCH  29  32
ATOM     32  C   UNL A   1      40.161  25.345  27.022  1.00  0.00     0.039 A 
ATOM     33  C   UNL A   1      40.550  26.467  26.282  1.00  0.00     0.014 A 
ATOM     34  C   UNL A   1      39.366  25.492  28.157  1.00  0.00     0.014 A 
ATOM     35  C   UNL A   1      40.395  27.733  26.839  1.00  0.00     0.010 A 
ATOM     36  C   UNL A   1      39.306  26.734  28.760  1.00  0.00     0.010 A 
ATOM     37  C   UNL A   1      39.907  27.836  28.139  1.00  0.00    -0.014 A 
BRANCH  37  38
ATOM     38  C   UNL A   1      40.142  29.000  28.990  1.00  0.00     0.031 A 
ATOM     39  C   UNL A   1      39.140  30.081  29.083  1.00  0.00     0.074 A 
ATOM     40  C   UNL A   1      41.244  29.030  29.779  1.00  0.00     0.049 A 
ATOM     41  N   UNL A   1      39.352  31.201  29.684  1.00  0.00    -0.248 NA
ATOM     42  C   UNL A   1      37.832  30.020  28.435  1.00  0.00     0.031 C 
ATOM     43  C   UNL A   1      41.509  29.915  30.914  1.00  0.00     0.029 A 
ATOM     44  N   UNL A   1      42.482  28.401  29.542  1.00  0.00    -0.354 N 
ATOM     45  C   UNL A   1      38.163  31.880  29.744  1.00  0.00     0.074 A 
ATOM     46  C   UNL A   1      37.282  31.165  28.854  1.00  0.00     0.031 C 
ATOM     47  C   UNL A   1      42.835  30.036  31.065  1.00  0.00     0.029 A 
ATOM     48  C   UNL A   1      43.456  29.348  29.951  1.00  0.00     0.049 A 
ATOM     49  H   UNL A   1      42.636  27.502  29.173  1.00  0.00     0.167 HD
ATOM     50  C   UNL A   1      38.045  32.907  30.629  1.00  0.00     0.037 A 
ATOM     51  C   UNL A   1      44.295  29.923  29.040  1.00  0.00     0.037 A 
ATOM     52  C   UNL A   1      39.362  33.382  31.055  1.00  0.00     0.049 A 
ATOM     53  C   UNL A   1      44.160  31.428  28.910  1.00  0.00     0.074 A 
ATOM     54  C   UNL A   1      40.118  33.336  32.212  1.00  0.00     0.029 A 
ATOM     55  N   UNL A   1      40.211  33.856  30.066  1.00  0.00    -0.354 N 
ATOM     56  N   UNL A   1      43.294  32.151  29.566  1.00  0.00    -0.248 NA
ATOM     57  C   UNL A   1      44.933  32.222  27.954  1.00  0.00     0.031 C 
ATOM     58  C   UNL A   1      41.455  33.724  31.879  1.00  0.00     0.029 A 
ATOM     59  C   UNL A   1      41.496  34.035  30.531  1.00  0.00     0.049 A 
ATOM     60  H   UNL A   1      39.929  34.043  29.142  1.00  0.00     0.167 HD
ATOM     61  C   UNL A   1      43.352  33.444  29.121  1.00  0.00     0.074 A 
ATOM     62  C   UNL A   1      44.391  33.441  28.109  1.00  0.00     0.031 C 
ATOM     63  C   UNL A   1      42.523  34.424  29.579  1.00  0.00     0.037 A 
BRANCH  50  64
ATOM     64  C   UNL A   1      36.740  33.438  31.177  1.00  0.00     0.064 A 
ATOM     65  C   UNL A   1      36.376  33.186  32.518  1.00  0.00     0.173 A 
ATOM     66  C   UNL A   1      35.746  34.085  30.410  1.00  0.00     0.173 A 
ATOM     67  F   UNL A   1      37.210  32.551  33.355  1.00  0.00    -0.203 F 
ATOM     68  C   UNL A   1      35.130  33.554  33.040  1.00  0.00     0.198 A 
ATOM     69  C   UNL A   1      34.525  34.503  30.949  1.00  0.00     0.198 A 
ATOM     70  F   UNL A   1      35.873  34.283  29.094  1.00  0.00    -0.203 F 
ATOM     71  F   UNL A   1      34.818  33.235  34.304  1.00  0.00    -0.200 F 
ATOM     72  C   UNL A   1      34.212  34.225  32.260  1.00  0.00     0.200 A 
ATOM     73  F   UNL A   1      33.645  35.147  30.169  1.00  0.00    -0.200 F 
ATOM     74  F   UNL A   1      33.020  34.582  32.759  1.00  0.00    -0.200 F 
ENDBRANCH  50  64
BRANCH  51  75
ATOM     75  C   UNL A   1      44.676  28.989  27.947  1.00  0.00     0.064 A 
ATOM     76  C   UNL A   1      45.547  27.925  28.257  1.00  0.00     0.173 A 
ATOM     77  C   UNL A   1      43.937  28.895  26.763  1.00  0.00     0.173 A 
ATOM     78  F   UNL A   1      46.278  27.963  29.384  1.00  0.00    -0.203 F 
ATOM     79  C   UNL A   1      45.576  26.764  27.490  1.00  0.00     0.198 A 
ATOM     80  C   UNL A   1      43.987  27.738  25.983  1.00  0.00     0.198 A 
ATOM     81  F   UNL A   1      43.072  29.860  26.423  1.00  0.00    -0.203 F 
ATOM     82  F   UNL A   1      46.315  25.719  27.888  1.00  0.00    -0.200 F 
ATOM     83  C   UNL A   1      44.775  26.661  26.368  1.00  0.00     0.200 A 
ATOM     84  F   UNL A   1      43.187  27.625  24.915  1.00  0.00    -0.200 F 
ATOM     85  F   UNL A   1      44.721  25.510  25.683  1.00  0.00    -0.200 F 
ENDBRANCH  51  75
BRANCH  63  86
ATOM     86  C   UNL A   1      42.618  35.847  29.118  1.00  0.00     0.064 A 
ATOM     87  C   UNL A   1      41.954  36.300  27.966  1.00  0.00     0.173 A 
ATOM     88  C   UNL A   1      43.469  36.772  29.754  1.00  0.00     0.173 A 
ATOM     89  F   UNL A   1      41.155  35.476  27.270  1.00  0.00    -0.203 F 
ATOM     90  C   UNL A   1      42.107  37.606  27.500  1.00  0.00     0.198 A 
ATOM     91  C   UNL A   1      43.657  38.062  29.259  1.00  0.00     0.198 A 
ATOM     92  F   UNL A   1      44.116  36.458  30.886  1.00  0.00    -0.203 F 
ATOM     93  F   UNL A   1      41.418  38.013  26.425  1.00  0.00    -0.200 F 
ATOM     94  C   UNL A   1      42.968  38.481  28.137  1.00  0.00     0.200 A 
ATOM     95  F   UNL A   1      44.505  38.895  29.878  1.00  0.00    -0.200 F 
ATOM     96  F   UNL A   1      43.131  39.729  27.675  1.00  0.00    -0.200 F 
ENDBRANCH  63  86
ENDBRANCH  37  38
ENDBRANCH  29  32
ENDBRANCH  27  28
ENDBRANCH  26  27
ENDBRANCH   1  26
TORSDOF 14
ENDMDL
