MODEL 1
REMARK VINA RESULT:     -12.6      0.000      0.000
REMARK SMILES Cc1cc(C(=O)NCCCCNC(=O)c2ccc(-c3c4nc(c(-c5c(F)c(F)c(F)c(F)c5F)c5ccc([nH]5)c(-c5c(F)c(F)c(F)c(F)c5F)c5nc(c(-c6c(F)c(F)c(F)c(F)c6F)c6ccc3[nH]6)C=C5)C=C4)cc2)c([N+](=O)[O-])cc1[N+](=O)[O-]
REMARK SMILES IDX 10 1 9 2 8 3 7 4 5 5 6 6 4 8 1 9 2 10 3 11 83 12 82 13 78 14
REMARK SMILES IDX 84 15 85 16 86 17 79 18 80 19 81 20 11 21 12 22 13 23 14 25
REMARK SMILES IDX 15 26 16 27 77 28 17 29 76 30 18 31 19 32 20 33 70 34 21 35
REMARK SMILES IDX 75 36 69 37 71 38 22 39 74 40 68 41 67 42 23 44 55 45 35 46
REMARK SMILES IDX 54 47 36 48 39 49 53 50 72 51 37 52 38 53 52 55 73 56 40 57
REMARK SMILES IDX 24 58 25 59 33 60 26 61 27 62 31 63 34 64 28 65 29 66 32 67
REMARK SMILES IDX 30 68 56 69 57 70 65 71 58 72 59 73 63 74 66 75 60 76 61 77
REMARK SMILES IDX 64 78 62 79 41 80 42 81 50 82 43 83 44 84 48 85 51 86 45 87
REMARK SMILES IDX 46 88 49 89 47 90
REMARK H PARENT 7 7 12 24 71 43 39 54
REMARK Flexibility Score: inf
ROOT
ATOM      1  C   UNL A   1      32.835  31.078  27.218  1.00  0.00     0.023 C 
ENDROOT
BRANCH   1   2
ATOM      2  C   UNL A   1      31.895  30.015  26.650  1.00  0.00     0.023 C 
BRANCH   2   3
ATOM      3  C   UNL A   1      32.091  29.705  25.157  1.00  0.00     0.116 C 
BRANCH   3   4
ATOM      4  N   UNL A   1      31.088  28.764  24.698  1.00  0.00    -0.352 N 
ATOM      5  C   UNL A   1      31.026  27.440  24.382  1.00  0.00     0.258 C 
ATOM      6  O   UNL A   1      29.926  27.084  23.940  1.00  0.00    -0.269 OA
ATOM      7  H   UNL A   1      30.213  29.201  24.585  1.00  0.00     0.163 HD
BRANCH   5   8
ATOM      8  C   UNL A   1      32.063  26.372  24.562  1.00  0.00     0.118 A 
ATOM      9  C   UNL A   1      31.902  23.319  26.874  1.00  0.00     0.052 C 
ATOM     10  C   UNL A   1      32.496  24.279  25.878  1.00  0.00     0.028 A 
ATOM     11  C   UNL A   1      31.737  25.440  25.584  1.00  0.00     0.031 A 
ATOM     12  C   UNL A   1      33.707  24.101  25.199  1.00  0.00     0.279 A 
ATOM     13  C   UNL A   1      34.076  25.000  24.194  1.00  0.00     0.172 A 
ATOM     14  C   UNL A   1      33.233  26.085  23.863  1.00  0.00     0.289 A 
BRANCH  12  15
ATOM     15  N   UNL A   1      34.610  22.971  25.450  1.00  0.00     0.063 N 
ATOM     16  O   UNL A   1      35.431  23.101  26.369  1.00  0.00    -0.258 OA
ATOM     17  O   UNL A   1      34.471  21.951  24.765  1.00  0.00    -0.258 OA
ENDBRANCH  12  15
BRANCH  14  18
ATOM     18  N   UNL A   1      33.576  26.688  22.610  1.00  0.00     0.063 N 
ATOM     19  O   UNL A   1      33.628  27.923  22.593  1.00  0.00    -0.258 OA
ATOM     20  O   UNL A   1      33.653  25.939  21.628  1.00  0.00    -0.258 OA
ENDBRANCH  14  18
ENDBRANCH   5   8
ENDBRANCH   3   4
ENDBRANCH   2   3
ENDBRANCH   1   2
BRANCH   1  21
ATOM     21  C   UNL A   1      34.125  30.496  27.768  1.00  0.00     0.116 C 
BRANCH  21  22
ATOM     22  N   UNL A   1      34.902  31.405  28.603  1.00  0.00    -0.352 N 
ATOM     23  C   UNL A   1      36.097  31.184  29.278  1.00  0.00     0.251 C 
ATOM     24  H   UNL A   1      34.525  32.309  28.703  1.00  0.00     0.163 HD
ATOM     25  O   UNL A   1      36.561  32.039  30.004  1.00  0.00    -0.269 OA
BRANCH  23  26
ATOM     26  C   UNL A   1      36.879  29.953  28.980  1.00  0.00     0.039 A 
ATOM     27  C   UNL A   1      37.024  29.014  30.009  1.00  0.00     0.014 A 
ATOM     28  C   UNL A   1      37.673  29.870  27.844  1.00  0.00     0.014 A 
ATOM     29  C   UNL A   1      38.156  28.204  30.031  1.00  0.00     0.010 A 
ATOM     30  C   UNL A   1      38.861  29.175  27.931  1.00  0.00     0.010 A 
ATOM     31  C   UNL A   1      39.138  28.407  29.065  1.00  0.00    -0.014 A 
BRANCH  31  32
ATOM     32  C   UNL A   1      40.531  28.006  29.244  1.00  0.00     0.031 A 
ATOM     33  C   UNL A   1      41.020  26.722  28.704  1.00  0.00     0.074 A 
ATOM     34  C   UNL A   1      41.400  28.900  29.771  1.00  0.00     0.049 A 
ATOM     35  N   UNL A   1      42.120  26.150  29.062  1.00  0.00    -0.248 NA
ATOM     36  C   UNL A   1      40.264  25.941  27.736  1.00  0.00     0.031 C 
ATOM     37  C   UNL A   1      42.858  28.854  29.720  1.00  0.00     0.029 A 
ATOM     38  N   UNL A   1      41.116  29.965  30.644  1.00  0.00    -0.354 N 
ATOM     39  C   UNL A   1      42.362  25.108  28.193  1.00  0.00     0.074 A 
ATOM     40  C   UNL A   1      41.132  24.967  27.452  1.00  0.00     0.031 C 
ATOM     41  C   UNL A   1      43.350  29.617  30.709  1.00  0.00     0.029 A 
ATOM     42  C   UNL A   1      42.225  30.048  31.517  1.00  0.00     0.049 A 
ATOM     43  H   UNL A   1      40.313  30.534  30.646  1.00  0.00     0.167 HD
ATOM     44  C   UNL A   1      43.627  24.596  28.121  1.00  0.00     0.037 A 
ATOM     45  C   UNL A   1      42.093  29.809  32.855  1.00  0.00     0.037 A 
ATOM     46  C   UNL A   1      44.470  25.151  29.185  1.00  0.00     0.049 A 
ATOM     47  C   UNL A   1      42.929  28.655  33.360  1.00  0.00     0.074 A 
ATOM     48  C   UNL A   1      45.440  26.140  29.201  1.00  0.00     0.029 A 
ATOM     49  N   UNL A   1      44.153  24.891  30.516  1.00  0.00    -0.354 N 
ATOM     50  N   UNL A   1      43.449  27.742  32.586  1.00  0.00    -0.248 NA
ATOM     51  C   UNL A   1      43.208  28.414  34.773  1.00  0.00     0.031 C 
ATOM     52  C   UNL A   1      45.660  26.519  30.549  1.00  0.00     0.029 A 
ATOM     53  C   UNL A   1      44.840  25.748  31.355  1.00  0.00     0.049 A 
ATOM     54  H   UNL A   1      43.527  24.193  30.818  1.00  0.00     0.167 HD
ATOM     55  C   UNL A   1      44.078  26.797  33.353  1.00  0.00     0.074 A 
ATOM     56  C   UNL A   1      43.922  27.276  34.714  1.00  0.00     0.031 C 
ATOM     57  C   UNL A   1      44.656  25.691  32.798  1.00  0.00     0.037 A 
BRANCH  44  58
ATOM     58  C   UNL A   1      44.195  23.836  26.927  1.00  0.00     0.064 A 
ATOM     59  C   UNL A   1      43.822  22.491  26.690  1.00  0.00     0.173 A 
ATOM     60  C   UNL A   1      45.173  24.318  26.035  1.00  0.00     0.173 A 
ATOM     61  F   UNL A   1      42.818  21.913  27.362  1.00  0.00    -0.203 F 
ATOM     62  C   UNL A   1      44.464  21.678  25.748  1.00  0.00     0.198 A 
ATOM     63  C   UNL A   1      45.842  23.498  25.119  1.00  0.00     0.198 A 
ATOM     64  F   UNL A   1      45.482  25.613  25.958  1.00  0.00    -0.203 F 
ATOM     65  F   UNL A   1      44.078  20.403  25.595  1.00  0.00    -0.200 F 
ATOM     66  C   UNL A   1      45.501  22.172  24.987  1.00  0.00     0.200 A 
ATOM     67  F   UNL A   1      46.822  24.015  24.363  1.00  0.00    -0.200 F 
ATOM     68  F   UNL A   1      46.145  21.387  24.113  1.00  0.00    -0.200 F 
ENDBRANCH  44  58
BRANCH  45  69
ATOM     69  C   UNL A   1      40.764  30.196  33.392  1.00  0.00     0.064 A 
ATOM     70  C   UNL A   1      40.502  31.564  33.601  1.00  0.00     0.173 A 
ATOM     71  C   UNL A   1      39.667  29.329  33.335  1.00  0.00     0.173 A 
ATOM     72  F   UNL A   1      41.520  32.438  33.661  1.00  0.00    -0.203 F 
ATOM     73  C   UNL A   1      39.199  32.056  33.634  1.00  0.00     0.198 A 
ATOM     74  C   UNL A   1      38.363  29.825  33.380  1.00  0.00     0.198 A 
ATOM     75  F   UNL A   1      39.851  28.019  33.113  1.00  0.00    -0.203 F 
ATOM     76  F   UNL A   1      38.985  33.376  33.725  1.00  0.00    -0.200 F 
ATOM     77  C   UNL A   1      38.131  31.188  33.494  1.00  0.00     0.200 A 
ATOM     78  F   UNL A   1      37.328  28.989  33.209  1.00  0.00    -0.200 F 
ATOM     79  F   UNL A   1      36.880  31.666  33.426  1.00  0.00    -0.200 F 
ENDBRANCH  45  69
BRANCH  57  80
ATOM     80  C   UNL A   1      45.172  24.492  33.552  1.00  0.00     0.064 A 
ATOM     81  C   UNL A   1      44.420  23.328  33.784  1.00  0.00     0.173 A 
ATOM     82  C   UNL A   1      46.532  24.426  33.942  1.00  0.00     0.173 A 
ATOM     83  F   UNL A   1      43.154  23.222  33.361  1.00  0.00    -0.203 F 
ATOM     84  C   UNL A   1      44.970  22.205  34.409  1.00  0.00     0.198 A 
ATOM     85  C   UNL A   1      47.092  23.285  34.512  1.00  0.00     0.198 A 
ATOM     86  F   UNL A   1      47.363  25.463  33.756  1.00  0.00    -0.203 F 
ATOM     87  F   UNL A   1      44.201  21.132  34.642  1.00  0.00    -0.200 F 
ATOM     88  C   UNL A   1      46.307  22.178  34.760  1.00  0.00     0.200 A 
ATOM     89  F   UNL A   1      48.401  23.257  34.800  1.00  0.00    -0.200 F 
ATOM     90  F   UNL A   1      46.842  21.082  35.315  1.00  0.00    -0.200 F 
ENDBRANCH  57  80
ENDBRANCH  31  32
ENDBRANCH  23  26
ENDBRANCH  21  22
ENDBRANCH   1  21
TORSDOF 13
ENDMDL
MODEL 2
REMARK VINA RESULT:     -12.6      3.872     10.293
REMARK SMILES Cc1cc(C(=O)NCCCCNC(=O)c2ccc(-c3c4nc(c(-c5c(F)c(F)c(F)c(F)c5F)c5ccc([nH]5)c(-c5c(F)c(F)c(F)c(F)c5F)c5nc(c(-c6c(F)c(F)c(F)c(F)c6F)c6ccc3[nH]6)C=C5)C=C4)cc2)c([N+](=O)[O-])cc1[N+](=O)[O-]
REMARK SMILES IDX 10 1 9 2 8 3 7 4 5 5 6 6 4 8 1 9 2 10 3 11 83 12 82 13 78 14
REMARK SMILES IDX 84 15 85 16 86 17 79 18 80 19 81 20 11 21 12 22 13 23 14 25
REMARK SMILES IDX 15 26 16 27 77 28 17 29 76 30 18 31 19 32 20 33 70 34 21 35
REMARK SMILES IDX 75 36 69 37 71 38 22 39 74 40 68 41 67 42 23 44 55 45 35 46
REMARK SMILES IDX 54 47 36 48 39 49 53 50 72 51 37 52 38 53 52 55 73 56 40 57
REMARK SMILES IDX 24 58 25 59 33 60 26 61 27 62 31 63 34 64 28 65 29 66 32 67
REMARK SMILES IDX 30 68 56 69 57 70 65 71 58 72 59 73 63 74 66 75 60 76 61 77
REMARK SMILES IDX 64 78 62 79 41 80 42 81 50 82 43 83 44 84 48 85 51 86 45 87
REMARK SMILES IDX 46 88 49 89 47 90
REMARK H PARENT 7 7 12 24 71 43 39 54
REMARK Flexibility Score: inf
ROOT
ATOM      1  C   UNL A   1      38.707  21.074  25.627  1.00  0.00     0.023 C 
ENDROOT
BRANCH   1   2
ATOM      2  C   UNL A   1      37.327  20.965  24.978  1.00  0.00     0.023 C 
BRANCH   2   3
ATOM      3  C   UNL A   1      36.198  21.694  25.723  1.00  0.00     0.116 C 
BRANCH   3   4
ATOM      4  N   UNL A   1      34.909  21.341  25.161  1.00  0.00    -0.352 N 
ATOM      5  C   UNL A   1      33.705  21.947  24.959  1.00  0.00     0.258 C 
ATOM      6  O   UNL A   1      32.839  21.191  24.499  1.00  0.00    -0.269 OA
ATOM      7  H   UNL A   1      34.901  20.412  24.838  1.00  0.00     0.163 HD
BRANCH   5   8
ATOM      8  C   UNL A   1      33.323  23.385  25.144  1.00  0.00     0.118 A 
ATOM      9  C   UNL A   1      33.644  26.239  22.606  1.00  0.00     0.052 C 
ATOM     10  C   UNL A   1      33.334  25.577  23.921  1.00  0.00     0.028 A 
ATOM     11  C   UNL A   1      33.679  24.207  24.040  1.00  0.00     0.031 A 
ATOM     12  C   UNL A   1      32.706  26.190  25.012  1.00  0.00     0.279 A 
ATOM     13  C   UNL A   1      32.348  25.423  26.125  1.00  0.00     0.172 A 
ATOM     14  C   UNL A   1      32.618  24.037  26.153  1.00  0.00     0.289 A 
BRANCH  12  15
ATOM     15  N   UNL A   1      32.346  27.613  25.036  1.00  0.00     0.063 N 
ATOM     16  O   UNL A   1      33.213  28.406  25.430  1.00  0.00    -0.258 OA
ATOM     17  O   UNL A   1      31.226  27.938  24.626  1.00  0.00    -0.258 OA
ENDBRANCH  12  15
BRANCH  14  18
ATOM     18  N   UNL A   1      31.892  23.353  27.182  1.00  0.00     0.063 N 
ATOM     19  O   UNL A   1      30.682  23.596  27.251  1.00  0.00    -0.258 OA
ATOM     20  O   UNL A   1      32.553  22.694  27.993  1.00  0.00    -0.258 OA
ENDBRANCH  14  18
ENDBRANCH   5   8
ENDBRANCH   3   4
ENDBRANCH   2   3
ENDBRANCH   1   2
BRANCH   1  21
ATOM     21  C   UNL A   1      39.043  22.487  26.072  1.00  0.00     0.116 C 
BRANCH  21  22
ATOM     22  N   UNL A   1      40.450  22.716  26.376  1.00  0.00    -0.352 N 
ATOM     23  C   UNL A   1      41.122  23.911  26.607  1.00  0.00     0.251 C 
ATOM     24  H   UNL A   1      41.007  21.906  26.424  1.00  0.00     0.163 HD
ATOM     25  O   UNL A   1      42.327  23.920  26.762  1.00  0.00    -0.269 OA
BRANCH  23  26
ATOM     26  C   UNL A   1      40.333  25.155  26.821  1.00  0.00     0.039 A 
ATOM     27  C   UNL A   1      40.732  26.302  26.122  1.00  0.00     0.014 A 
ATOM     28  C   UNL A   1      39.436  25.260  27.875  1.00  0.00     0.014 A 
ATOM     29  C   UNL A   1      40.479  27.554  26.674  1.00  0.00     0.010 A 
ATOM     30  C   UNL A   1      39.304  26.483  28.498  1.00  0.00     0.010 A 
ATOM     31  C   UNL A   1      39.898  27.618  27.938  1.00  0.00    -0.014 A 
BRANCH  31  32
ATOM     32  C   UNL A   1      40.024  28.775  28.819  1.00  0.00     0.031 A 
ATOM     33  C   UNL A   1      38.973  29.812  28.855  1.00  0.00     0.074 A 
ATOM     34  C   UNL A   1      41.039  28.802  29.713  1.00  0.00     0.049 A 
ATOM     35  N   UNL A   1      39.127  30.993  29.353  1.00  0.00    -0.248 NA
ATOM     36  C   UNL A   1      37.655  29.610  28.271  1.00  0.00     0.031 C 
ATOM     37  C   UNL A   1      41.159  29.654  30.894  1.00  0.00     0.029 A 
ATOM     38  N   UNL A   1      42.288  28.164  29.618  1.00  0.00    -0.354 N 
ATOM     39  C   UNL A   1      37.887  31.590  29.424  1.00  0.00     0.074 A 
ATOM     40  C   UNL A   1      37.028  30.726  28.652  1.00  0.00     0.031 C 
ATOM     41  C   UNL A   1      42.452  29.726  31.247  1.00  0.00     0.029 A 
ATOM     42  C   UNL A   1      43.215  29.049  30.215  1.00  0.00     0.049 A 
ATOM     43  H   UNL A   1      42.478  27.284  29.220  1.00  0.00     0.167 HD
ATOM     44  C   UNL A   1      37.726  32.668  30.248  1.00  0.00     0.037 A 
ATOM     45  C   UNL A   1      44.215  29.627  29.486  1.00  0.00     0.037 A 
ATOM     46  C   UNL A   1      39.022  33.121  30.765  1.00  0.00     0.049 A 
ATOM     47  C   UNL A   1      44.163  31.137  29.456  1.00  0.00     0.074 A 
ATOM     48  C   UNL A   1      39.664  32.953  31.982  1.00  0.00     0.029 A 
ATOM     49  N   UNL A   1      39.982  33.605  29.879  1.00  0.00    -0.354 N 
ATOM     50  N   UNL A   1      43.106  31.833  29.771  1.00  0.00    -0.248 NA
ATOM     51  C   UNL A   1      45.279  31.977  29.029  1.00  0.00     0.031 C 
ATOM     52  C   UNL A   1      41.032  33.279  31.806  1.00  0.00     0.029 A 
ATOM     53  C   UNL A   1      41.221  33.665  30.490  1.00  0.00     0.049 A 
ATOM     54  H   UNL A   1      39.803  33.868  28.947  1.00  0.00     0.167 HD
ATOM     55  C   UNL A   1      43.358  33.164  29.566  1.00  0.00     0.074 A 
ATOM     56  C   UNL A   1      44.740  33.206  29.125  1.00  0.00     0.031 C 
ATOM     57  C   UNL A   1      42.396  34.115  29.759  1.00  0.00     0.037 A 
BRANCH  44  58
ATOM     58  C   UNL A   1      36.395  33.131  30.833  1.00  0.00     0.064 A 
ATOM     59  C   UNL A   1      35.534  33.965  30.082  1.00  0.00     0.173 A 
ATOM     60  C   UNL A   1      35.942  32.881  32.143  1.00  0.00     0.173 A 
ATOM     61  F   UNL A   1      35.746  34.203  28.781  1.00  0.00    -0.203 F 
ATOM     62  C   UNL A   1      34.411  34.594  30.634  1.00  0.00     0.198 A 
ATOM     63  C   UNL A   1      34.842  33.537  32.709  1.00  0.00     0.198 A 
ATOM     64  F   UNL A   1      36.496  31.947  32.917  1.00  0.00    -0.203 F 
ATOM     65  F   UNL A   1      33.654  35.395  29.871  1.00  0.00    -0.200 F 
ATOM     66  C   UNL A   1      34.086  34.408  31.960  1.00  0.00     0.200 A 
ATOM     67  F   UNL A   1      34.525  33.307  33.991  1.00  0.00    -0.200 F 
ATOM     68  F   UNL A   1      33.036  35.037  32.503  1.00  0.00    -0.200 F 
ENDBRANCH  44  58
BRANCH  45  69
ATOM     69  C   UNL A   1      44.700  28.769  28.374  1.00  0.00     0.064 A 
ATOM     70  C   UNL A   1      45.517  27.667  28.690  1.00  0.00     0.173 A 
ATOM     71  C   UNL A   1      44.086  28.780  27.116  1.00  0.00     0.173 A 
ATOM     72  F   UNL A   1      46.127  27.607  29.885  1.00  0.00    -0.203 F 
ATOM     73  C   UNL A   1      45.623  26.573  27.834  1.00  0.00     0.198 A 
ATOM     74  C   UNL A   1      44.203  27.686  26.256  1.00  0.00     0.198 A 
ATOM     75  F   UNL A   1      43.275  29.789  26.767  1.00  0.00    -0.203 F 
ATOM     76  F   UNL A   1      46.321  25.493  28.211  1.00  0.00    -0.200 F 
ATOM     77  C   UNL A   1      44.941  26.572  26.629  1.00  0.00     0.200 A 
ATOM     78  F   UNL A   1      43.514  27.669  25.106  1.00  0.00    -0.200 F 
ATOM     79  F   UNL A   1      44.958  25.483  25.847  1.00  0.00    -0.200 F 
ENDBRANCH  45  69
BRANCH  57  80
ATOM     80  C   UNL A   1      42.493  35.564  29.353  1.00  0.00     0.064 A 
ATOM     81  C   UNL A   1      43.279  36.516  30.024  1.00  0.00     0.173 A 
ATOM     82  C   UNL A   1      41.892  36.008  28.150  1.00  0.00     0.173 A 
ATOM     83  F   UNL A   1      43.989  36.189  31.111  1.00  0.00    -0.203 F 
ATOM     84  C   UNL A   1      43.409  37.827  29.557  1.00  0.00     0.198 A 
ATOM     85  C   UNL A   1      42.070  37.299  27.657  1.00  0.00     0.198 A 
ATOM     86  F   UNL A   1      41.134  35.190  27.404  1.00  0.00    -0.203 F 
ATOM     87  F   UNL A   1      44.141  38.708  30.253  1.00  0.00    -0.200 F 
ATOM     88  C   UNL A   1      42.818  38.214  28.370  1.00  0.00     0.200 A 
ATOM     89  F   UNL A   1      41.532  37.644  26.479  1.00  0.00    -0.200 F 
ATOM     90  F   UNL A   1      42.985  39.459  27.902  1.00  0.00    -0.200 F 
ENDBRANCH  57  80
ENDBRANCH  31  32
ENDBRANCH  23  26
ENDBRANCH  21  22
ENDBRANCH   1  21
TORSDOF 13
ENDMDL
MODEL 3
REMARK VINA RESULT:     -12.5      1.062      1.913
REMARK SMILES Cc1cc(C(=O)NCCCCNC(=O)c2ccc(-c3c4nc(c(-c5c(F)c(F)c(F)c(F)c5F)c5ccc([nH]5)c(-c5c(F)c(F)c(F)c(F)c5F)c5nc(c(-c6c(F)c(F)c(F)c(F)c6F)c6ccc3[nH]6)C=C5)C=C4)cc2)c([N+](=O)[O-])cc1[N+](=O)[O-]
REMARK SMILES IDX 10 1 9 2 8 3 7 4 5 5 6 6 4 8 1 9 2 10 3 11 83 12 82 13 78 14
REMARK SMILES IDX 84 15 85 16 86 17 79 18 80 19 81 20 11 21 12 22 13 23 14 25
REMARK SMILES IDX 15 26 16 27 77 28 17 29 76 30 18 31 19 32 20 33 70 34 21 35
REMARK SMILES IDX 75 36 69 37 71 38 22 39 74 40 68 41 67 42 23 44 55 45 35 46
REMARK SMILES IDX 54 47 36 48 39 49 53 50 72 51 37 52 38 53 52 55 73 56 40 57
REMARK SMILES IDX 24 58 25 59 33 60 26 61 27 62 31 63 34 64 28 65 29 66 32 67
REMARK SMILES IDX 30 68 56 69 57 70 65 71 58 72 59 73 63 74 66 75 60 76 61 77
REMARK SMILES IDX 64 78 62 79 41 80 42 81 50 82 43 83 44 84 48 85 51 86 45 87
REMARK SMILES IDX 46 88 49 89 47 90
REMARK H PARENT 7 7 12 24 71 43 39 54
REMARK Flexibility Score: inf
ROOT
ATOM      1  C   UNL A   1      33.624  30.451  27.655  1.00  0.00     0.023 C 
ENDROOT
BRANCH   1   2
ATOM      2  C   UNL A   1      33.882  29.102  26.982  1.00  0.00     0.023 C 
BRANCH   2   3
ATOM      3  C   UNL A   1      32.652  28.461  26.319  1.00  0.00     0.116 C 
BRANCH   3   4
ATOM      4  N   UNL A   1      32.955  28.076  24.955  1.00  0.00    -0.352 N 
ATOM      5  C   UNL A   1      33.334  26.947  24.293  1.00  0.00     0.258 C 
ATOM      6  O   UNL A   1      33.563  27.128  23.090  1.00  0.00    -0.269 OA
ATOM      7  H   UNL A   1      32.859  28.837  24.339  1.00  0.00     0.163 HD
BRANCH   5   8
ATOM      8  C   UNL A   1      33.437  25.539  24.800  1.00  0.00     0.118 A 
ATOM      9  C   UNL A   1      36.600  23.670  25.891  1.00  0.00     0.052 C 
ATOM     10  C   UNL A   1      35.140  23.872  25.585  1.00  0.00     0.028 A 
ATOM     11  C   UNL A   1      34.778  25.116  25.011  1.00  0.00     0.031 A 
ATOM     12  C   UNL A   1      34.118  22.953  25.853  1.00  0.00     0.279 A 
ATOM     13  C   UNL A   1      32.785  23.321  25.649  1.00  0.00     0.172 A 
ATOM     14  C   UNL A   1      32.467  24.613  25.174  1.00  0.00     0.289 A 
BRANCH  12  15
ATOM     15  N   UNL A   1      34.366  21.612  26.397  1.00  0.00     0.063 N 
ATOM     16  O   UNL A   1      34.584  20.705  25.581  1.00  0.00    -0.258 OA
ATOM     17  O   UNL A   1      34.384  21.476  27.625  1.00  0.00    -0.258 OA
ENDBRANCH  12  15
BRANCH  14  18
ATOM     18  N   UNL A   1      31.084  24.942  25.352  1.00  0.00     0.063 N 
ATOM     19  O   UNL A   1      30.705  25.102  26.517  1.00  0.00    -0.258 OA
ATOM     20  O   UNL A   1      30.363  24.900  24.347  1.00  0.00    -0.258 OA
ENDBRANCH  14  18
ENDBRANCH   5   8
ENDBRANCH   3   4
ENDBRANCH   2   3
ENDBRANCH   1   2
BRANCH   1  21
ATOM     21  C   UNL A   1      34.815  31.390  27.575  1.00  0.00     0.116 C 
BRANCH  21  22
ATOM     22  N   UNL A   1      35.303  31.873  28.862  1.00  0.00    -0.352 N 
ATOM     23  C   UNL A   1      36.110  31.236  29.798  1.00  0.00     0.251 C 
ATOM     24  H   UNL A   1      35.020  32.784  29.103  1.00  0.00     0.163 HD
ATOM     25  O   UNL A   1      36.348  31.764  30.865  1.00  0.00    -0.269 OA
BRANCH  23  26
ATOM     26  C   UNL A   1      36.805  29.977  29.417  1.00  0.00     0.039 A 
ATOM     27  C   UNL A   1      37.029  29.031  30.425  1.00  0.00     0.014 A 
ATOM     28  C   UNL A   1      37.462  29.864  28.198  1.00  0.00     0.014 A 
ATOM     29  C   UNL A   1      38.123  28.177  30.322  1.00  0.00     0.010 A 
ATOM     30  C   UNL A   1      38.624  29.123  28.153  1.00  0.00     0.010 A 
ATOM     31  C   UNL A   1      38.997  28.343  29.251  1.00  0.00    -0.014 A 
BRANCH  31  32
ATOM     32  C   UNL A   1      40.384  27.888  29.273  1.00  0.00     0.031 A 
ATOM     33  C   UNL A   1      40.746  26.550  28.763  1.00  0.00     0.074 A 
ATOM     34  C   UNL A   1      41.351  28.770  29.619  1.00  0.00     0.049 A 
ATOM     35  N   UNL A   1      41.861  25.949  29.013  1.00  0.00    -0.248 NA
ATOM     36  C   UNL A   1      39.837  25.747  27.959  1.00  0.00     0.031 C 
ATOM     37  C   UNL A   1      42.786  28.651  29.381  1.00  0.00     0.029 A 
ATOM     38  N   UNL A   1      41.228  29.900  30.446  1.00  0.00    -0.354 N 
ATOM     39  C   UNL A   1      41.943  24.845  28.192  1.00  0.00     0.074 A 
ATOM     40  C   UNL A   1      40.621  24.716  27.631  1.00  0.00     0.031 C 
ATOM     41  C   UNL A   1      43.436  29.450  30.242  1.00  0.00     0.029 A 
ATOM     42  C   UNL A   1      42.446  29.985  31.159  1.00  0.00     0.049 A 
ATOM     43  H   UNL A   1      40.456  30.507  30.515  1.00  0.00     0.167 HD
ATOM     44  C   UNL A   1      43.166  24.269  27.991  1.00  0.00     0.037 A 
ATOM     45  C   UNL A   1      42.486  29.837  32.516  1.00  0.00     0.037 A 
ATOM     46  C   UNL A   1      44.165  24.849  28.895  1.00  0.00     0.049 A 
ATOM     47  C   UNL A   1      43.336  28.678  32.985  1.00  0.00     0.074 A 
ATOM     48  C   UNL A   1      45.167  25.789  28.715  1.00  0.00     0.029 A 
ATOM     49  N   UNL A   1      44.019  24.688  30.270  1.00  0.00    -0.354 N 
ATOM     50  N   UNL A   1      43.711  27.694  32.215  1.00  0.00    -0.248 NA
ATOM     51  C   UNL A   1      43.792  28.513  34.362  1.00  0.00     0.031 C 
ATOM     52  C   UNL A   1      45.580  26.241  29.994  1.00  0.00     0.029 A 
ATOM     53  C   UNL A   1      44.846  25.562  30.952  1.00  0.00     0.049 A 
ATOM     54  H   UNL A   1      43.412  24.042  30.699  1.00  0.00     0.167 HD
ATOM     55  C   UNL A   1      44.400  26.771  32.955  1.00  0.00     0.074 A 
ATOM     56  C   UNL A   1      44.446  27.340  34.289  1.00  0.00     0.031 C 
ATOM     57  C   UNL A   1      44.855  25.605  32.407  1.00  0.00     0.037 A 
BRANCH  44  58
ATOM     58  C   UNL A   1      43.539  23.409  26.787  1.00  0.00     0.064 A 
ATOM     59  C   UNL A   1      43.112  22.061  26.709  1.00  0.00     0.173 A 
ATOM     60  C   UNL A   1      44.383  23.797  25.729  1.00  0.00     0.173 A 
ATOM     61  F   UNL A   1      42.207  21.562  27.562  1.00  0.00    -0.203 F 
ATOM     62  C   UNL A   1      43.594  21.164  25.749  1.00  0.00     0.198 A 
ATOM     63  C   UNL A   1      44.896  22.894  24.790  1.00  0.00     0.198 A 
ATOM     64  F   UNL A   1      44.700  25.074  25.511  1.00  0.00    -0.203 F 
ATOM     65  F   UNL A   1      43.167  19.894  25.750  1.00  0.00    -0.200 F 
ATOM     66  C   UNL A   1      44.515  21.573  24.810  1.00  0.00     0.200 A 
ATOM     67  F   UNL A   1      45.762  23.328  23.863  1.00  0.00    -0.200 F 
ATOM     68  F   UNL A   1      45.010  20.709  23.913  1.00  0.00    -0.200 F 
ENDBRANCH  44  58
BRANCH  45  69
ATOM     69  C   UNL A   1      41.257  30.321  33.195  1.00  0.00     0.064 A 
ATOM     70  C   UNL A   1      41.096  31.708  33.371  1.00  0.00     0.173 A 
ATOM     71  C   UNL A   1      40.118  29.516  33.313  1.00  0.00     0.173 A 
ATOM     72  F   UNL A   1      42.157  32.524  33.266  1.00  0.00    -0.203 F 
ATOM     73  C   UNL A   1      39.835  32.276  33.543  1.00  0.00     0.198 A 
ATOM     74  C   UNL A   1      38.857  30.088  33.495  1.00  0.00     0.198 A 
ATOM     75  F   UNL A   1      40.203  28.191  33.129  1.00  0.00    -0.203 F 
ATOM     76  F   UNL A   1      39.703  33.609  33.599  1.00  0.00    -0.200 F 
ATOM     77  C   UNL A   1      38.713  31.466  33.575  1.00  0.00     0.200 A 
ATOM     78  F   UNL A   1      37.766  29.308  33.491  1.00  0.00    -0.200 F 
ATOM     79  F   UNL A   1      37.490  32.012  33.640  1.00  0.00    -0.200 F 
ENDBRANCH  45  69
BRANCH  57  80
ATOM     80  C   UNL A   1      45.419  24.432  33.167  1.00  0.00     0.064 A 
ATOM     81  C   UNL A   1      46.728  24.382  33.675  1.00  0.00     0.173 A 
ATOM     82  C   UNL A   1      44.578  23.357  33.545  1.00  0.00     0.173 A 
ATOM     83  F   UNL A   1      47.587  25.392  33.483  1.00  0.00    -0.203 F 
ATOM     84  C   UNL A   1      47.178  23.312  34.453  1.00  0.00     0.198 A 
ATOM     85  C   UNL A   1      45.013  22.321  34.369  1.00  0.00     0.198 A 
ATOM     86  F   UNL A   1      43.299  23.297  33.145  1.00  0.00    -0.203 F 
ATOM     87  F   UNL A   1      48.448  23.292  34.882  1.00  0.00    -0.200 F 
ATOM     88  C   UNL A   1      46.319  22.290  34.811  1.00  0.00     0.200 A 
ATOM     89  F   UNL A   1      44.153  21.364  34.748  1.00  0.00    -0.200 F 
ATOM     90  F   UNL A   1      46.742  21.290  35.597  1.00  0.00    -0.200 F 
ENDBRANCH  57  80
ENDBRANCH  31  32
ENDBRANCH  23  26
ENDBRANCH  21  22
ENDBRANCH   1  21
TORSDOF 13
ENDMDL
