MODEL 1
REMARK VINA RESULT:     -13.2      0.000      0.000
REMARK SMILES O=C(CCn1c(SCc2ccccn2)nc2ccccc2c1=O)NCCCCNC(=O)c1ccc(-c2c3nc(c(-c4c(F)c(F)c(F)c(F)c4F)c4ccc([nH]4)c(-c4c(F)c(F)c(F)c(F)c4F)c4nc(c(-c5c(F)c(F)c(F)c(F)c5F)c5ccc2[nH]5)C=C4)C=C3)cc1
REMARK SMILES IDX 25 1 24 2 1 3 2 4 3 6 4 7 5 8 6 9 22 10 15 11 21 12 23 13
REMARK SMILES IDX 16 14 20 15 17 16 19 17 18 18 7 19 8 20 9 21 10 22 14 23
REMARK SMILES IDX 11 24 13 25 12 26 26 27 27 28 28 29 29 30 30 31 31 33 32 34
REMARK SMILES IDX 33 35 94 36 34 37 93 38 35 39 36 40 37 41 87 42 38 43 92 44
REMARK SMILES IDX 86 45 88 46 39 47 91 48 85 49 84 50 40 52 72 53 52 54 71 55
REMARK SMILES IDX 53 56 56 57 70 58 89 59 54 60 55 61 69 63 90 64 57 65 41 66
REMARK SMILES IDX 42 67 50 68 43 69 44 70 48 71 51 72 45 73 46 74 49 75 47 76
REMARK SMILES IDX 73 77 74 78 82 79 75 80 76 81 80 82 83 83 77 84 78 85 81 86
REMARK SMILES IDX 79 87 58 88 59 89 67 90 60 91 61 92 65 93 68 94 62 95 63 96
REMARK SMILES IDX 66 97 64 98
REMARK H PARENT 24 5 29 32 88 51 56 62
REMARK Flexibility Score: inf
ROOT
ATOM      1  C   UNL A   1      34.691  23.103  23.471  1.00  0.00     0.116 C 
ENDROOT
BRANCH   1   2
ATOM      2  N   UNL A   1      33.977  24.351  23.276  1.00  0.00    -0.356 N 
ATOM      3  O   UNL A   1      33.422  23.861  21.161  1.00  0.00    -0.275 OA
ATOM      4  C   UNL A   1      33.169  24.483  22.185  1.00  0.00     0.221 C 
ATOM      5  H   UNL A   1      34.073  25.089  23.920  1.00  0.00     0.163 HD
BRANCH   4   6
ATOM      6  C   UNL A   1      31.927  25.341  22.353  1.00  0.00     0.122 C 
BRANCH   6   7
ATOM      7  C   UNL A   1      31.077  25.230  23.610  1.00  0.00     0.138 C 
BRANCH   7   8
ATOM      8  N   UNL A   1      31.109  26.431  24.389  1.00  0.00    -0.287 N 
ATOM      9  C   UNL A   1      30.336  27.544  24.088  1.00  0.00     0.171 A 
ATOM     10  C   UNL A   1      31.991  26.419  25.458  1.00  0.00     0.262 A 
ATOM     11  N   UNL A   1      30.686  28.727  24.527  1.00  0.00    -0.224 NA
ATOM     12  C   UNL A   1      32.483  27.718  25.884  1.00  0.00     0.066 A 
ATOM     13  O   UNL A   1      32.398  25.407  26.023  1.00  0.00    -0.269 OA
ATOM     14  C   UNL A   1      31.854  28.838  25.346  1.00  0.00     0.079 A 
ATOM     15  C   UNL A   1      33.589  27.779  26.753  1.00  0.00     0.016 A 
ATOM     16  C   UNL A   1      32.371  30.075  25.750  1.00  0.00     0.029 A 
ATOM     17  C   UNL A   1      34.088  29.013  27.131  1.00  0.00     0.001 A 
ATOM     18  C   UNL A   1      33.464  30.160  26.644  1.00  0.00     0.002 A 
BRANCH   9  19
ATOM     19  S   UNL A   1      28.682  27.265  23.504  1.00  0.00    -0.081 SA
BRANCH  19  20
ATOM     20  C   UNL A   1      27.468  28.574  23.126  1.00  0.00     0.134 C 
BRANCH  20  21
ATOM     21  C   UNL A   1      27.726  30.001  22.611  1.00  0.00     0.051 A 
ATOM     22  C   UNL A   1      27.643  31.089  23.503  1.00  0.00     0.025 A 
ATOM     23  N   UNL A   1      28.026  30.217  21.303  1.00  0.00    -0.260 NA
ATOM     24  C   UNL A   1      28.115  32.350  23.122  1.00  0.00     0.003 A 
ATOM     25  C   UNL A   1      28.407  31.477  20.937  1.00  0.00     0.111 A 
ATOM     26  C   UNL A   1      28.534  32.545  21.815  1.00  0.00     0.020 A 
ENDBRANCH  20  21
ENDBRANCH  19  20
ENDBRANCH   9  19
ENDBRANCH   7   8
ENDBRANCH   6   7
ENDBRANCH   4   6
ENDBRANCH   1   2
BRANCH   1  27
ATOM     27  C   UNL A   1      36.192  23.172  23.799  1.00  0.00     0.023 C 
BRANCH  27  28
ATOM     28  C   UNL A   1      36.885  21.836  24.037  1.00  0.00     0.023 C 
BRANCH  28  29
ATOM     29  C   UNL A   1      37.326  21.618  25.472  1.00  0.00     0.116 C 
BRANCH  29  30
ATOM     30  N   UNL A   1      38.397  20.636  25.594  1.00  0.00    -0.352 N 
ATOM     31  C   UNL A   1      39.644  20.783  26.166  1.00  0.00     0.251 C 
ATOM     32  H   UNL A   1      38.203  19.747  25.215  1.00  0.00     0.163 HD
ATOM     33  O   UNL A   1      40.469  19.903  26.122  1.00  0.00    -0.269 OA
BRANCH  31  34
ATOM     34  C   UNL A   1      39.948  22.083  26.799  1.00  0.00     0.039 A 
ATOM     35  C   UNL A   1      39.291  23.231  26.367  1.00  0.00     0.014 A 
ATOM     36  C   UNL A   1      40.973  22.159  27.743  1.00  0.00     0.014 A 
ATOM     37  C   UNL A   1      39.792  24.470  26.735  1.00  0.00     0.010 A 
ATOM     38  C   UNL A   1      41.415  23.412  28.176  1.00  0.00     0.010 A 
ATOM     39  C   UNL A   1      40.879  24.586  27.619  1.00  0.00    -0.014 A 
BRANCH  39  40
ATOM     40  C   UNL A   1      41.464  25.930  27.896  1.00  0.00     0.031 A 
ATOM     41  C   UNL A   1      42.828  26.308  27.372  1.00  0.00     0.074 A 
ATOM     42  C   UNL A   1      40.734  26.856  28.548  1.00  0.00     0.049 A 
ATOM     43  N   UNL A   1      43.504  27.419  27.545  1.00  0.00    -0.248 NA
ATOM     44  C   UNL A   1      43.530  25.312  26.548  1.00  0.00     0.031 C 
ATOM     45  C   UNL A   1      39.382  26.650  29.069  1.00  0.00     0.029 A 
ATOM     46  N   UNL A   1      41.010  28.166  28.855  1.00  0.00    -0.354 N 
ATOM     47  C   UNL A   1      44.715  27.241  26.887  1.00  0.00     0.074 A 
ATOM     48  C   UNL A   1      44.696  25.904  26.334  1.00  0.00     0.031 C 
ATOM     49  C   UNL A   1      38.916  27.807  29.554  1.00  0.00     0.029 A 
ATOM     50  C   UNL A   1      39.972  28.812  29.480  1.00  0.00     0.049 A 
ATOM     51  H   UNL A   1      41.867  28.601  28.644  1.00  0.00     0.167 HD
ATOM     52  C   UNL A   1      45.744  28.114  26.742  1.00  0.00     0.037 A 
ATOM     53  C   UNL A   1      39.881  30.062  29.971  1.00  0.00     0.037 A 
ATOM     54  C   UNL A   1      45.753  29.458  27.263  1.00  0.00     0.049 A 
ATOM     55  C   UNL A   1      41.062  30.982  29.875  1.00  0.00     0.074 A 
ATOM     56  C   UNL A   1      46.748  30.415  27.162  1.00  0.00     0.029 A 
ATOM     57  N   UNL A   1      44.715  30.039  27.977  1.00  0.00    -0.354 N 
ATOM     58  N   UNL A   1      42.214  30.785  29.287  1.00  0.00    -0.248 NA
ATOM     59  C   UNL A   1      40.935  32.290  30.533  1.00  0.00     0.031 C 
ATOM     60  C   UNL A   1      46.336  31.555  27.858  1.00  0.00     0.029 A 
ATOM     61  C   UNL A   1      45.058  31.331  28.345  1.00  0.00     0.049 A 
ATOM     62  H   UNL A   1      43.860  29.599  28.190  1.00  0.00     0.167 HD
ATOM     63  C   UNL A   1      42.950  31.946  29.492  1.00  0.00     0.074 A 
ATOM     64  C   UNL A   1      42.101  32.850  30.242  1.00  0.00     0.031 C 
ATOM     65  C   UNL A   1      44.214  32.227  29.096  1.00  0.00     0.037 A 
BRANCH  52  66
ATOM     66  C   UNL A   1      46.967  27.637  26.006  1.00  0.00     0.064 A 
ATOM     67  C   UNL A   1      47.073  27.725  24.610  1.00  0.00     0.173 A 
ATOM     68  C   UNL A   1      48.067  27.125  26.714  1.00  0.00     0.173 A 
ATOM     69  F   UNL A   1      46.049  28.199  23.884  1.00  0.00    -0.203 F 
ATOM     70  C   UNL A   1      48.218  27.288  23.948  1.00  0.00     0.198 A 
ATOM     71  C   UNL A   1      49.223  26.721  26.051  1.00  0.00     0.198 A 
ATOM     72  F   UNL A   1      48.026  27.029  28.051  1.00  0.00    -0.203 F 
ATOM     73  F   UNL A   1      48.275  27.333  22.610  1.00  0.00    -0.200 F 
ATOM     74  C   UNL A   1      49.296  26.793  24.670  1.00  0.00     0.200 A 
ATOM     75  F   UNL A   1      50.269  26.261  26.753  1.00  0.00    -0.200 F 
ATOM     76  F   UNL A   1      50.400  26.381  24.032  1.00  0.00    -0.200 F 
ENDBRANCH  52  66
BRANCH  53  77
ATOM     77  C   UNL A   1      38.609  30.498  30.605  1.00  0.00     0.064 A 
ATOM     78  C   UNL A   1      38.472  30.506  31.999  1.00  0.00     0.173 A 
ATOM     79  C   UNL A   1      37.537  30.980  29.838  1.00  0.00     0.173 A 
ATOM     80  F   UNL A   1      39.463  30.037  32.772  1.00  0.00    -0.203 F 
ATOM     81  C   UNL A   1      37.313  30.989  32.603  1.00  0.00     0.198 A 
ATOM     82  C   UNL A   1      36.393  31.492  30.444  1.00  0.00     0.198 A 
ATOM     83  F   UNL A   1      37.623  30.997  28.500  1.00  0.00    -0.203 F 
ATOM     84  F   UNL A   1      37.199  30.971  33.938  1.00  0.00    -0.200 F 
ATOM     85  C   UNL A   1      36.281  31.495  31.826  1.00  0.00     0.200 A 
ATOM     86  F   UNL A   1      35.410  32.001  29.690  1.00  0.00    -0.200 F 
ATOM     87  F   UNL A   1      35.181  31.989  32.409  1.00  0.00    -0.200 F 
ENDBRANCH  53  77
BRANCH  65  88
ATOM     88  C   UNL A   1      44.770  33.577  29.452  1.00  0.00     0.064 A 
ATOM     89  C   UNL A   1      45.530  33.774  30.614  1.00  0.00     0.173 A 
ATOM     90  C   UNL A   1      44.596  34.670  28.589  1.00  0.00     0.173 A 
ATOM     91  F   UNL A   1      45.712  32.766  31.481  1.00  0.00    -0.203 F 
ATOM     92  C   UNL A   1      46.084  35.018  30.905  1.00  0.00     0.198 A 
ATOM     93  C   UNL A   1      45.177  35.904  28.867  1.00  0.00     0.198 A 
ATOM     94  F   UNL A   1      43.881  34.535  27.461  1.00  0.00    -0.203 F 
ATOM     95  F   UNL A   1      46.777  35.192  32.040  1.00  0.00    -0.200 F 
ATOM     96  C   UNL A   1      45.916  36.078  30.027  1.00  0.00     0.200 A 
ATOM     97  F   UNL A   1      45.026  36.923  28.010  1.00  0.00    -0.200 F 
ATOM     98  F   UNL A   1      46.466  37.270  30.301  1.00  0.00    -0.200 F 
ENDBRANCH  65  88
ENDBRANCH  39  40
ENDBRANCH  31  34
ENDBRANCH  29  30
ENDBRANCH  28  29
ENDBRANCH  27  28
ENDBRANCH   1  27
TORSDOF 16
ENDMDL
MODEL 2
REMARK VINA RESULT:     -13.1      4.237      7.759
REMARK SMILES O=C(CCn1c(SCc2ccccn2)nc2ccccc2c1=O)NCCCCNC(=O)c1ccc(-c2c3nc(c(-c4c(F)c(F)c(F)c(F)c4F)c4ccc([nH]4)c(-c4c(F)c(F)c(F)c(F)c4F)c4nc(c(-c5c(F)c(F)c(F)c(F)c5F)c5ccc2[nH]5)C=C4)C=C3)cc1
REMARK SMILES IDX 25 1 24 2 1 3 2 4 3 6 4 7 5 8 6 9 22 10 15 11 21 12 23 13
REMARK SMILES IDX 16 14 20 15 17 16 19 17 18 18 7 19 8 20 9 21 10 22 14 23
REMARK SMILES IDX 11 24 13 25 12 26 26 27 27 28 28 29 29 30 30 31 31 33 32 34
REMARK SMILES IDX 33 35 94 36 34 37 93 38 35 39 36 40 37 41 87 42 38 43 92 44
REMARK SMILES IDX 86 45 88 46 39 47 91 48 85 49 84 50 40 52 72 53 52 54 71 55
REMARK SMILES IDX 53 56 56 57 70 58 89 59 54 60 55 61 69 63 90 64 57 65 41 66
REMARK SMILES IDX 42 67 50 68 43 69 44 70 48 71 51 72 45 73 46 74 49 75 47 76
REMARK SMILES IDX 73 77 74 78 82 79 75 80 76 81 80 82 83 83 77 84 78 85 81 86
REMARK SMILES IDX 79 87 58 88 59 89 67 90 60 91 61 92 65 93 68 94 62 95 63 96
REMARK SMILES IDX 66 97 64 98
REMARK H PARENT 24 5 29 32 88 51 56 62
REMARK Flexibility Score: inf
ROOT
ATOM      1  C   UNL A   1      31.144  26.599  26.573  1.00  0.00     0.116 C 
ENDROOT
BRANCH   1   2
ATOM      2  N   UNL A   1      31.778  25.311  26.780  1.00  0.00    -0.356 N 
ATOM      3  O   UNL A   1      29.829  24.207  26.840  1.00  0.00    -0.275 OA
ATOM      4  C   UNL A   1      31.034  24.177  26.625  1.00  0.00     0.221 C 
ATOM      5  H   UNL A   1      32.729  25.255  27.028  1.00  0.00     0.163 HD
BRANCH   4   6
ATOM      6  C   UNL A   1      31.755  22.952  26.091  1.00  0.00     0.122 C 
BRANCH   6   7
ATOM      7  C   UNL A   1      31.803  22.676  24.595  1.00  0.00     0.138 C 
BRANCH   7   8
ATOM      8  N   UNL A   1      32.308  23.796  23.859  1.00  0.00    -0.287 N 
ATOM      9  C   UNL A   1      33.666  24.049  23.713  1.00  0.00     0.171 A 
ATOM     10  C   UNL A   1      31.345  24.631  23.318  1.00  0.00     0.262 A 
ATOM     11  N   UNL A   1      34.082  25.257  23.424  1.00  0.00    -0.224 NA
ATOM     12  C   UNL A   1      31.754  26.008  23.100  1.00  0.00     0.066 A 
ATOM     13  O   UNL A   1      30.192  24.299  23.056  1.00  0.00    -0.269 OA
ATOM     14  C   UNL A   1      33.112  26.291  23.230  1.00  0.00     0.079 A 
ATOM     15  C   UNL A   1      30.772  26.981  22.836  1.00  0.00     0.016 A 
ATOM     16  C   UNL A   1      33.472  27.632  23.048  1.00  0.00     0.029 A 
ATOM     17  C   UNL A   1      31.150  28.301  22.667  1.00  0.00     0.001 A 
ATOM     18  C   UNL A   1      32.504  28.620  22.754  1.00  0.00     0.002 A 
BRANCH   9  19
ATOM     19  S   UNL A   1      34.745  22.657  23.484  1.00  0.00    -0.081 SA
BRANCH  19  20
ATOM     20  C   UNL A   1      35.771  21.900  24.790  1.00  0.00     0.134 C 
BRANCH  20  21
ATOM     21  C   UNL A   1      37.097  22.408  25.382  1.00  0.00     0.051 A 
ATOM     22  C   UNL A   1      37.212  23.756  25.778  1.00  0.00     0.025 A 
ATOM     23  N   UNL A   1      38.156  21.568  25.520  1.00  0.00    -0.260 NA
ATOM     24  C   UNL A   1      38.307  24.175  26.542  1.00  0.00     0.003 A 
ATOM     25  C   UNL A   1      39.248  22.025  26.202  1.00  0.00     0.111 A 
ATOM     26  C   UNL A   1      39.339  23.282  26.785  1.00  0.00     0.020 A 
ENDBRANCH  20  21
ENDBRANCH  19  20
ENDBRANCH   9  19
ENDBRANCH   7   8
ENDBRANCH   6   7
ENDBRANCH   4   6
ENDBRANCH   1   2
BRANCH   1  27
ATOM     27  C   UNL A   1      31.818  27.843  27.175  1.00  0.00     0.023 C 
BRANCH  27  28
ATOM     28  C   UNL A   1      31.781  29.102  26.317  1.00  0.00     0.023 C 
BRANCH  28  29
ATOM     29  C   UNL A   1      33.067  29.906  26.350  1.00  0.00     0.116 C 
BRANCH  29  30
ATOM     30  N   UNL A   1      32.864  31.283  26.786  1.00  0.00    -0.352 N 
ATOM     31  C   UNL A   1      33.690  32.077  27.557  1.00  0.00     0.251 C 
ATOM     32  H   UNL A   1      32.023  31.703  26.491  1.00  0.00     0.163 HD
ATOM     33  O   UNL A   1      33.355  33.179  27.915  1.00  0.00    -0.269 OA
BRANCH  31  34
ATOM     34  C   UNL A   1      34.988  31.502  27.967  1.00  0.00     0.039 A 
ATOM     35  C   UNL A   1      35.062  30.166  28.347  1.00  0.00     0.014 A 
ATOM     36  C   UNL A   1      36.099  32.339  28.075  1.00  0.00     0.014 A 
ATOM     37  C   UNL A   1      36.191  29.721  29.017  1.00  0.00     0.010 A 
ATOM     38  C   UNL A   1      37.266  31.855  28.674  1.00  0.00     0.010 A 
ATOM     39  C   UNL A   1      37.300  30.561  29.220  1.00  0.00    -0.014 A 
BRANCH  39  40
ATOM     40  C   UNL A   1      38.445  30.083  30.049  1.00  0.00     0.031 A 
ATOM     41  C   UNL A   1      39.516  29.197  29.460  1.00  0.00     0.074 A 
ATOM     42  C   UNL A   1      38.578  30.516  31.319  1.00  0.00     0.049 A 
ATOM     43  N   UNL A   1      40.562  28.661  30.044  1.00  0.00    -0.248 NA
ATOM     44  C   UNL A   1      39.401  28.862  28.033  1.00  0.00     0.031 C 
ATOM     45  C   UNL A   1      37.649  31.413  32.005  1.00  0.00     0.029 A 
ATOM     46  N   UNL A   1      39.564  30.288  32.247  1.00  0.00    -0.354 N 
ATOM     47  C   UNL A   1      41.202  27.905  29.070  1.00  0.00     0.074 A 
ATOM     48  C   UNL A   1      40.413  28.025  27.863  1.00  0.00     0.031 C 
ATOM     49  C   UNL A   1      38.146  31.725  33.208  1.00  0.00     0.029 A 
ATOM     50  C   UNL A   1      39.374  30.966  33.425  1.00  0.00     0.049 A 
ATOM     51  H   UNL A   1      40.334  29.697  32.083  1.00  0.00     0.167 HD
ATOM     52  C   UNL A   1      42.350  27.187  29.164  1.00  0.00     0.037 A 
ATOM     53  C   UNL A   1      40.083  30.961  34.569  1.00  0.00     0.037 A 
ATOM     54  C   UNL A   1      43.157  27.092  30.355  1.00  0.00     0.049 A 
ATOM     55  C   UNL A   1      41.301  30.093  34.680  1.00  0.00     0.074 A 
ATOM     56  C   UNL A   1      44.337  26.393  30.543  1.00  0.00     0.029 A 
ATOM     57  N   UNL A   1      42.872  27.720  31.559  1.00  0.00    -0.354 N 
ATOM     58  N   UNL A   1      41.871  29.352  33.764  1.00  0.00    -0.248 NA
ATOM     59  C   UNL A   1      41.962  30.046  35.992  1.00  0.00     0.031 C 
ATOM     60  C   UNL A   1      44.737  26.554  31.873  1.00  0.00     0.029 A 
ATOM     61  C   UNL A   1      43.839  27.402  32.500  1.00  0.00     0.049 A 
ATOM     62  H   UNL A   1      42.098  28.307  31.720  1.00  0.00     0.167 HD
ATOM     63  C   UNL A   1      42.963  28.756  34.381  1.00  0.00     0.074 A 
ATOM     64  C   UNL A   1      42.987  29.241  35.746  1.00  0.00     0.031 C 
ATOM     65  C   UNL A   1      43.858  27.882  33.860  1.00  0.00     0.037 A 
BRANCH  52  66
ATOM     66  C   UNL A   1      42.798  26.422  27.949  1.00  0.00     0.064 A 
ATOM     67  C   UNL A   1      43.584  27.013  26.948  1.00  0.00     0.173 A 
ATOM     68  C   UNL A   1      42.472  25.063  27.806  1.00  0.00     0.173 A 
ATOM     69  F   UNL A   1      43.916  28.310  27.030  1.00  0.00    -0.203 F 
ATOM     70  C   UNL A   1      43.997  26.284  25.835  1.00  0.00     0.198 A 
ATOM     71  C   UNL A   1      42.917  24.328  26.709  1.00  0.00     0.198 A 
ATOM     72  F   UNL A   1      41.734  24.442  28.737  1.00  0.00    -0.203 F 
ATOM     73  F   UNL A   1      44.701  26.885  24.867  1.00  0.00    -0.200 F 
ATOM     74  C   UNL A   1      43.670  24.940  25.720  1.00  0.00     0.200 A 
ATOM     75  F   UNL A   1      42.615  23.026  26.610  1.00  0.00    -0.200 F 
ATOM     76  F   UNL A   1      44.076  24.239  24.653  1.00  0.00    -0.200 F 
ENDBRANCH  52  66
BRANCH  53  77
ATOM     77  C   UNL A   1      39.634  31.813  35.702  1.00  0.00     0.064 A 
ATOM     78  C   UNL A   1      40.178  33.089  35.895  1.00  0.00     0.173 A 
ATOM     79  C   UNL A   1      38.609  31.399  36.567  1.00  0.00     0.173 A 
ATOM     80  F   UNL A   1      41.173  33.520  35.106  1.00  0.00    -0.203 F 
ATOM     81  C   UNL A   1      39.706  33.924  36.906  1.00  0.00     0.198 A 
ATOM     82  C   UNL A   1      38.117  32.246  37.555  1.00  0.00     0.198 A 
ATOM     83  F   UNL A   1      38.054  30.187  36.418  1.00  0.00    -0.203 F 
ATOM     84  F   UNL A   1      40.253  35.135  37.081  1.00  0.00    -0.200 F 
ATOM     85  C   UNL A   1      38.666  33.508  37.724  1.00  0.00     0.200 A 
ATOM     86  F   UNL A   1      37.097  31.849  38.327  1.00  0.00    -0.200 F 
ATOM     87  F   UNL A   1      38.191  34.324  38.675  1.00  0.00    -0.200 F 
ENDBRANCH  53  77
BRANCH  65  88
ATOM     88  C   UNL A   1      44.957  27.392  34.759  1.00  0.00     0.064 A 
ATOM     89  C   UNL A   1      44.828  26.207  35.497  1.00  0.00     0.173 A 
ATOM     90  C   UNL A   1      46.178  28.081  34.834  1.00  0.00     0.173 A 
ATOM     91  F   UNL A   1      43.676  25.519  35.473  1.00  0.00    -0.203 F 
ATOM     92  C   UNL A   1      45.875  25.736  36.285  1.00  0.00     0.198 A 
ATOM     93  C   UNL A   1      47.233  27.591  35.598  1.00  0.00     0.198 A 
ATOM     94  F   UNL A   1      46.356  29.219  34.144  1.00  0.00    -0.203 F 
ATOM     95  F   UNL A   1      45.715  24.619  37.010  1.00  0.00    -0.200 F 
ATOM     96  C   UNL A   1      47.079  26.422  36.327  1.00  0.00     0.200 A 
ATOM     97  F   UNL A   1      48.401  28.249  35.626  1.00  0.00    -0.200 F 
ATOM     98  F   UNL A   1      48.091  25.957  37.074  1.00  0.00    -0.200 F 
ENDBRANCH  65  88
ENDBRANCH  39  40
ENDBRANCH  31  34
ENDBRANCH  29  30
ENDBRANCH  28  29
ENDBRANCH  27  28
ENDBRANCH   1  27
TORSDOF 16
ENDMDL
MODEL 3
REMARK VINA RESULT:     -13.1      0.735      7.223
REMARK SMILES O=C(CCn1c(SCc2ccccn2)nc2ccccc2c1=O)NCCCCNC(=O)c1ccc(-c2c3nc(c(-c4c(F)c(F)c(F)c(F)c4F)c4ccc([nH]4)c(-c4c(F)c(F)c(F)c(F)c4F)c4nc(c(-c5c(F)c(F)c(F)c(F)c5F)c5ccc2[nH]5)C=C4)C=C3)cc1
REMARK SMILES IDX 25 1 24 2 1 3 2 4 3 6 4 7 5 8 6 9 22 10 15 11 21 12 23 13
REMARK SMILES IDX 16 14 20 15 17 16 19 17 18 18 7 19 8 20 9 21 10 22 14 23
REMARK SMILES IDX 11 24 13 25 12 26 26 27 27 28 28 29 29 30 30 31 31 33 32 34
REMARK SMILES IDX 33 35 94 36 34 37 93 38 35 39 36 40 37 41 87 42 38 43 92 44
REMARK SMILES IDX 86 45 88 46 39 47 91 48 85 49 84 50 40 52 72 53 52 54 71 55
REMARK SMILES IDX 53 56 56 57 70 58 89 59 54 60 55 61 69 63 90 64 57 65 41 66
REMARK SMILES IDX 42 67 50 68 43 69 44 70 48 71 51 72 45 73 46 74 49 75 47 76
REMARK SMILES IDX 73 77 74 78 82 79 75 80 76 81 80 82 83 83 77 84 78 85 81 86
REMARK SMILES IDX 79 87 58 88 59 89 67 90 60 91 61 92 65 93 68 94 62 95 63 96
REMARK SMILES IDX 66 97 64 98
REMARK H PARENT 24 5 29 32 88 51 56 62
REMARK Flexibility Score: inf
ROOT
ATOM      1  C   UNL A   1      33.400  21.834  23.927  1.00  0.00     0.116 C 
ENDROOT
BRANCH   1   2
ATOM      2  N   UNL A   1      33.152  23.263  23.966  1.00  0.00    -0.356 N 
ATOM      3  O   UNL A   1      33.429  23.508  21.755  1.00  0.00    -0.275 OA
ATOM      4  C   UNL A   1      32.930  23.924  22.793  1.00  0.00     0.221 C 
ATOM      5  H   UNL A   1      33.146  23.747  24.823  1.00  0.00     0.163 HD
BRANCH   4   6
ATOM      6  C   UNL A   1      31.976  25.105  22.844  1.00  0.00     0.122 C 
BRANCH   6   7
ATOM      7  C   UNL A   1      32.501  26.527  22.711  1.00  0.00     0.138 C 
BRANCH   7   8
ATOM      8  N   UNL A   1      32.236  27.309  23.881  1.00  0.00    -0.287 N 
ATOM      9  C   UNL A   1      31.091  28.081  24.027  1.00  0.00     0.171 A 
ATOM     10  C   UNL A   1      33.217  27.264  24.857  1.00  0.00     0.262 A 
ATOM     11  N   UNL A   1      31.075  29.081  24.871  1.00  0.00    -0.224 NA
ATOM     12  C   UNL A   1      33.291  28.422  25.732  1.00  0.00     0.066 A 
ATOM     13  O   UNL A   1      34.028  26.352  24.999  1.00  0.00    -0.269 OA
ATOM     14  C   UNL A   1      32.242  29.336  25.658  1.00  0.00     0.079 A 
ATOM     15  C   UNL A   1      34.426  28.593  26.547  1.00  0.00     0.016 A 
ATOM     16  C   UNL A   1      32.357  30.458  26.488  1.00  0.00     0.029 A 
ATOM     17  C   UNL A   1      34.522  29.714  27.352  1.00  0.00     0.001 A 
ATOM     18  C   UNL A   1      33.476  30.635  27.336  1.00  0.00     0.002 A 
BRANCH   9  19
ATOM     19  S   UNL A   1      29.566  27.420  23.400  1.00  0.00    -0.081 SA
BRANCH  19  20
ATOM     20  C   UNL A   1      28.078  28.403  23.012  1.00  0.00     0.134 C 
BRANCH  20  21
ATOM     21  C   UNL A   1      27.990  29.866  22.546  1.00  0.00     0.051 A 
ATOM     22  C   UNL A   1      27.865  30.895  23.502  1.00  0.00     0.025 A 
ATOM     23  N   UNL A   1      28.027  30.171  21.222  1.00  0.00    -0.260 NA
ATOM     24  C   UNL A   1      28.036  32.232  23.124  1.00  0.00     0.003 A 
ATOM     25  C   UNL A   1      28.113  31.489  20.874  1.00  0.00     0.111 A 
ATOM     26  C   UNL A   1      28.192  32.536  21.781  1.00  0.00     0.020 A 
ENDBRANCH  20  21
ENDBRANCH  19  20
ENDBRANCH   9  19
ENDBRANCH   7   8
ENDBRANCH   6   7
ENDBRANCH   4   6
ENDBRANCH   1   2
BRANCH   1  27
ATOM     27  C   UNL A   1      34.606  21.287  24.708  1.00  0.00     0.023 C 
BRANCH  27  28
ATOM     28  C   UNL A   1      35.972  21.808  24.277  1.00  0.00     0.023 C 
BRANCH  28  29
ATOM     29  C   UNL A   1      36.926  22.061  25.428  1.00  0.00     0.116 C 
BRANCH  29  30
ATOM     30  N   UNL A   1      37.947  21.027  25.557  1.00  0.00    -0.352 N 
ATOM     31  C   UNL A   1      39.216  21.127  26.091  1.00  0.00     0.251 C 
ATOM     32  H   UNL A   1      37.697  20.137  25.215  1.00  0.00     0.163 HD
ATOM     33  O   UNL A   1      39.992  20.204  26.056  1.00  0.00    -0.269 OA
BRANCH  31  34
ATOM     34  C   UNL A   1      39.604  22.431  26.669  1.00  0.00     0.039 A 
ATOM     35  C   UNL A   1      39.032  23.600  26.180  1.00  0.00     0.014 A 
ATOM     36  C   UNL A   1      40.625  22.477  27.619  1.00  0.00     0.014 A 
ATOM     37  C   UNL A   1      39.616  24.817  26.499  1.00  0.00     0.010 A 
ATOM     38  C   UNL A   1      41.151  23.715  28.001  1.00  0.00     0.010 A 
ATOM     39  C   UNL A   1      40.701  24.897  27.388  1.00  0.00    -0.014 A 
BRANCH  39  40
ATOM     40  C   UNL A   1      41.377  26.208  27.612  1.00  0.00     0.031 A 
ATOM     41  C   UNL A   1      40.718  27.295  28.426  1.00  0.00     0.074 A 
ATOM     42  C   UNL A   1      42.631  26.400  27.156  1.00  0.00     0.049 A 
ATOM     43  N   UNL A   1      41.145  28.507  28.691  1.00  0.00    -0.248 NA
ATOM     44  C   UNL A   1      39.407  26.989  29.018  1.00  0.00     0.031 C 
ATOM     45  C   UNL A   1      43.411  25.423  26.398  1.00  0.00     0.029 A 
ATOM     46  N   UNL A   1      43.483  27.469  27.294  1.00  0.00    -0.354 N 
ATOM     47  C   UNL A   1      40.147  29.112  29.445  1.00  0.00     0.074 A 
ATOM     48  C   UNL A   1      39.077  28.146  29.572  1.00  0.00     0.031 C 
ATOM     49  C   UNL A   1      44.648  25.898  26.209  1.00  0.00     0.029 A 
ATOM     50  C   UNL A   1      44.719  27.258  26.735  1.00  0.00     0.049 A 
ATOM     51  H   UNL A   1      43.233  28.303  27.751  1.00  0.00     0.167 HD
ATOM     52  C   UNL A   1      40.126  30.352  29.995  1.00  0.00     0.037 A 
ATOM     53  C   UNL A   1      45.786  28.071  26.625  1.00  0.00     0.037 A 
ATOM     54  C   UNL A   1      41.204  31.304  29.900  1.00  0.00     0.049 A 
ATOM     55  C   UNL A   1      45.710  29.468  27.165  1.00  0.00     0.074 A 
ATOM     56  C   UNL A   1      41.274  32.583  30.428  1.00  0.00     0.029 A 
ATOM     57  N   UNL A   1      42.403  31.083  29.238  1.00  0.00    -0.354 N 
ATOM     58  N   UNL A   1      44.744  30.040  27.839  1.00  0.00    -0.248 NA
ATOM     59  C   UNL A   1      46.866  30.339  26.910  1.00  0.00     0.031 C 
ATOM     60  C   UNL A   1      42.491  33.152  30.042  1.00  0.00     0.029 A 
ATOM     61  C   UNL A   1      43.206  32.210  29.322  1.00  0.00     0.049 A 
ATOM     62  H   UNL A   1      42.647  30.247  28.778  1.00  0.00     0.167 HD
ATOM     63  C   UNL A   1      45.175  31.335  28.099  1.00  0.00     0.074 A 
ATOM     64  C   UNL A   1      46.501  31.455  27.527  1.00  0.00     0.031 C 
ATOM     65  C   UNL A   1      44.524  32.329  28.748  1.00  0.00     0.037 A 
BRANCH  52  66
ATOM     66  C   UNL A   1      38.884  30.768  30.737  1.00  0.00     0.064 A 
ATOM     67  C   UNL A   1      38.783  30.659  32.132  1.00  0.00     0.173 A 
ATOM     68  C   UNL A   1      37.796  31.323  30.043  1.00  0.00     0.173 A 
ATOM     69  F   UNL A   1      39.789  30.128  32.842  1.00  0.00    -0.203 F 
ATOM     70  C   UNL A   1      37.628  31.059  32.800  1.00  0.00     0.198 A 
ATOM     71  C   UNL A   1      36.658  31.754  30.720  1.00  0.00     0.198 A 
ATOM     72  F   UNL A   1      37.843  31.462  28.711  1.00  0.00    -0.203 F 
ATOM     73  F   UNL A   1      37.534  30.896  34.127  1.00  0.00    -0.200 F 
ATOM     74  C   UNL A   1      36.569  31.614  32.095  1.00  0.00     0.200 A 
ATOM     75  F   UNL A   1      35.644  32.306  30.037  1.00  0.00    -0.200 F 
ATOM     76  F   UNL A   1      35.463  32.005  32.741  1.00  0.00    -0.200 F 
ENDBRANCH  52  66
BRANCH  53  77
ATOM     77  C   UNL A   1      47.016  27.565  25.960  1.00  0.00     0.064 A 
ATOM     78  C   UNL A   1      47.183  27.692  24.576  1.00  0.00     0.173 A 
ATOM     79  C   UNL A   1      48.071  27.010  26.700  1.00  0.00     0.173 A 
ATOM     80  F   UNL A   1      46.194  28.197  23.825  1.00  0.00    -0.203 F 
ATOM     81  C   UNL A   1      48.365  27.292  23.956  1.00  0.00     0.198 A 
ATOM     82  C   UNL A   1      49.264  26.641  26.085  1.00  0.00     0.198 A 
ATOM     83  F   UNL A   1      47.959  26.872  28.029  1.00  0.00    -0.203 F 
ATOM     84  F   UNL A   1      48.496  27.409  22.628  1.00  0.00    -0.200 F 
ATOM     85  C   UNL A   1      49.410  26.782  24.713  1.00  0.00     0.200 A 
ATOM     86  F   UNL A   1      50.278  26.171  26.823  1.00  0.00    -0.200 F 
ATOM     87  F   UNL A   1      50.559  26.429  24.122  1.00  0.00    -0.200 F 
ENDBRANCH  53  77
BRANCH  65  88
ATOM     88  C   UNL A   1      45.233  33.646  28.893  1.00  0.00     0.064 A 
ATOM     89  C   UNL A   1      46.105  33.894  29.963  1.00  0.00     0.173 A 
ATOM     90  C   UNL A   1      45.088  34.646  27.919  1.00  0.00     0.173 A 
ATOM     91  F   UNL A   1      46.266  32.978  30.929  1.00  0.00    -0.203 F 
ATOM     92  C   UNL A   1      46.797  35.099  30.057  1.00  0.00     0.198 A 
ATOM     93  C   UNL A   1      45.805  35.836  28.001  1.00  0.00     0.198 A 
ATOM     94  F   UNL A   1      44.269  34.458  26.873  1.00  0.00    -0.203 F 
ATOM     95  F   UNL A   1      47.599  35.328  31.108  1.00  0.00    -0.200 F 
ATOM     96  C   UNL A   1      46.655  36.064  29.072  1.00  0.00     0.200 A 
ATOM     97  F   UNL A   1      45.677  36.761  27.039  1.00  0.00    -0.200 F 
ATOM     98  F   UNL A   1      47.336  37.216  29.157  1.00  0.00    -0.200 F 
ENDBRANCH  65  88
ENDBRANCH  39  40
ENDBRANCH  31  34
ENDBRANCH  29  30
ENDBRANCH  28  29
ENDBRANCH  27  28
ENDBRANCH   1  27
TORSDOF 16
ENDMDL
