MODEL 1
REMARK VINA RESULT:     -11.6      0.000      0.000
REMARK SMILES CC(C)N(CC1CC1)C(=O)NC1(CC(=O)NCCCCNC(=O)c2ccc(-c3c4nc(c(-c5c(F)c(F)c(F)c(F)c5F)c5ccc([nH]5)c(-c5c(F)c(F)c(F)c(F)c5F)c5nc(c(-c6c(F)c(F)c(F)c(F)c6F)c6ccc3[nH]6)C=C5)C=C4)cc2)CCC1
REMARK SMILES IDX 17 1 16 2 14 3 15 4 13 6 12 7 87 8 89 9 88 10 11 11 9 12
REMARK SMILES IDX 10 13 4 15 2 16 1 17 3 18 5 19 6 20 7 21 8 22 18 23 19 24
REMARK SMILES IDX 20 25 21 26 22 27 23 29 24 30 25 31 86 32 26 33 85 34 27 35
REMARK SMILES IDX 28 36 29 37 79 38 30 39 84 40 78 41 80 42 31 43 83 44 77 45
REMARK SMILES IDX 76 46 32 48 64 49 44 50 63 51 45 52 48 53 62 54 81 55 46 56
REMARK SMILES IDX 47 57 61 59 82 60 49 61 33 62 34 63 42 64 35 65 36 66 40 67
REMARK SMILES IDX 43 68 37 69 38 70 41 71 39 72 65 73 66 74 74 75 67 76 68 77
REMARK SMILES IDX 72 78 75 79 69 80 70 81 73 82 71 83 50 84 51 85 59 86 52 87
REMARK SMILES IDX 53 88 57 89 60 90 54 91 55 92 58 93 56 94
REMARK H PARENT 16 5 11 14 21 28 80 47 48 58
REMARK Flexibility Score: inf
ROOT
ATOM      1  C   UNL A   1      33.281  29.617  26.708  1.00  0.00     0.116 C 
ENDROOT
BRANCH   1   2
ATOM      2  N   UNL A   1      33.645  29.712  25.314  1.00  0.00    -0.356 N 
ATOM      3  C   UNL A   1      33.114  29.080  24.231  1.00  0.00     0.222 C 
ATOM      4  O   UNL A   1      33.628  29.309  23.135  1.00  0.00    -0.275 OA
ATOM      5  H   UNL A   1      34.389  30.326  25.117  1.00  0.00     0.163 HD
BRANCH   3   6
ATOM      6  C   UNL A   1      31.903  28.172  24.373  1.00  0.00     0.128 C 
BRANCH   6   7
ATOM      7  C   UNL A   1      31.188  27.775  23.076  1.00  0.00     0.051 C 
ATOM      8  C   UNL A   1      30.206  28.734  22.281  1.00  0.00     0.029 C 
ATOM      9  C   UNL A   1      29.837  27.019  23.421  1.00  0.00     0.029 C 
ATOM     10  C   UNL A   1      29.091  28.343  23.248  1.00  0.00     0.005 C 
BRANCH   7  11
ATOM     11  N   UNL A   1      32.005  26.951  22.169  1.00  0.00    -0.332 N 
ATOM     12  C   UNL A   1      32.714  25.812  22.126  1.00  0.00     0.318 C 
ATOM     13  O   UNL A   1      33.216  25.641  21.004  1.00  0.00    -0.249 OA
ATOM     14  H   UNL A   1      32.045  27.387  21.288  1.00  0.00     0.165 HD
BRANCH  12  15
ATOM     15  N   UNL A   1      32.902  24.908  23.134  1.00  0.00    -0.322 N 
BRANCH  15  16
ATOM     16  C   UNL A   1      31.907  23.799  23.205  1.00  0.00     0.080 C 
ATOM     17  C   UNL A   1      32.405  22.501  22.553  1.00  0.00     0.031 C 
ATOM     18  C   UNL A   1      31.356  23.568  24.613  1.00  0.00     0.031 C 
ENDBRANCH  15  16
BRANCH  15  19
ATOM     19  C   UNL A   1      33.766  24.984  24.317  1.00  0.00     0.125 C 
BRANCH  19  20
ATOM     20  C   UNL A   1      35.094  24.299  24.211  1.00  0.00     0.009 C 
ATOM     21  C   UNL A   1      35.786  23.875  25.498  1.00  0.00     0.006 C 
ATOM     22  C   UNL A   1      35.266  22.835  24.566  1.00  0.00     0.006 C 
ENDBRANCH  19  20
ENDBRANCH  15  19
ENDBRANCH  12  15
ENDBRANCH   7  11
ENDBRANCH   6   7
ENDBRANCH   3   6
ENDBRANCH   1   2
BRANCH   1  23
ATOM     23  C   UNL A   1      31.967  30.346  26.984  1.00  0.00     0.023 C 
BRANCH  23  24
ATOM     24  C   UNL A   1      31.949  31.826  26.653  1.00  0.00     0.023 C 
BRANCH  24  25
ATOM     25  C   UNL A   1      32.930  32.668  27.441  1.00  0.00     0.116 C 
BRANCH  25  26
ATOM     26  N   UNL A   1      32.479  34.026  27.718  1.00  0.00    -0.352 N 
ATOM     27  C   UNL A   1      33.015  34.920  28.619  1.00  0.00     0.251 C 
ATOM     28  H   UNL A   1      31.701  34.341  27.203  1.00  0.00     0.163 HD
ATOM     29  O   UNL A   1      32.531  36.024  28.794  1.00  0.00    -0.269 OA
BRANCH  27  30
ATOM     30  C   UNL A   1      34.172  34.462  29.411  1.00  0.00     0.039 A 
ATOM     31  C   UNL A   1      33.939  33.722  30.570  1.00  0.00     0.014 A 
ATOM     32  C   UNL A   1      35.460  34.614  28.895  1.00  0.00     0.014 A 
ATOM     33  C   UNL A   1      35.003  33.055  31.172  1.00  0.00     0.010 A 
ATOM     34  C   UNL A   1      36.493  33.863  29.431  1.00  0.00     0.010 A 
ATOM     35  C   UNL A   1      36.277  33.082  30.578  1.00  0.00    -0.014 A 
BRANCH  35  36
ATOM     36  C   UNL A   1      37.413  32.326  31.152  1.00  0.00     0.031 A 
ATOM     37  C   UNL A   1      37.898  32.670  32.531  1.00  0.00     0.074 A 
ATOM     38  C   UNL A   1      38.049  31.398  30.412  1.00  0.00     0.049 A 
ATOM     39  N   UNL A   1      38.930  32.206  33.187  1.00  0.00    -0.248 NA
ATOM     40  C   UNL A   1      37.147  33.711  33.253  1.00  0.00     0.031 C 
ATOM     41  C   UNL A   1      37.714  31.031  29.034  1.00  0.00     0.029 A 
ATOM     42  N   UNL A   1      39.123  30.599  30.713  1.00  0.00    -0.354 N 
ATOM     43  C   UNL A   1      38.965  32.918  34.377  1.00  0.00     0.074 A 
ATOM     44  C   UNL A   1      37.896  33.889  34.329  1.00  0.00     0.031 C 
ATOM     45  C   UNL A   1      38.544  30.058  28.622  1.00  0.00     0.029 A 
ATOM     46  C   UNL A   1      39.489  29.755  29.693  1.00  0.00     0.049 A 
ATOM     47  H   UNL A   1      39.589  30.629  31.580  1.00  0.00     0.167 HD
ATOM     48  C   UNL A   1      39.794  32.752  35.433  1.00  0.00     0.037 A 
ATOM     49  C   UNL A   1      40.473  28.839  29.636  1.00  0.00     0.037 A 
ATOM     50  C   UNL A   1      40.816  31.744  35.498  1.00  0.00     0.049 A 
ATOM     51  C   UNL A   1      41.351  28.641  30.844  1.00  0.00     0.074 A 
ATOM     52  C   UNL A   1      41.661  31.438  36.548  1.00  0.00     0.029 A 
ATOM     53  N   UNL A   1      41.121  30.870  34.464  1.00  0.00    -0.354 N 
ATOM     54  N   UNL A   1      41.329  29.269  31.994  1.00  0.00    -0.248 NA
ATOM     55  C   UNL A   1      42.383  27.599  30.748  1.00  0.00     0.031 C 
ATOM     56  C   UNL A   1      42.498  30.393  36.140  1.00  0.00     0.029 A 
ATOM     57  C   UNL A   1      42.149  30.026  34.850  1.00  0.00     0.049 A 
ATOM     58  H   UNL A   1      40.673  30.853  33.588  1.00  0.00     0.167 HD
ATOM     59  C   UNL A   1      42.322  28.684  32.767  1.00  0.00     0.074 A 
ATOM     60  C   UNL A   1      42.919  27.640  31.959  1.00  0.00     0.031 C 
ATOM     61  C   UNL A   1      42.711  28.985  34.030  1.00  0.00     0.037 A 
BRANCH  48  62
ATOM     62  C   UNL A   1      39.606  33.664  36.608  1.00  0.00     0.064 A 
ATOM     63  C   UNL A   1      38.815  33.293  37.706  1.00  0.00     0.173 A 
ATOM     64  C   UNL A   1      40.232  34.918  36.643  1.00  0.00     0.173 A 
ATOM     65  F   UNL A   1      38.179  32.111  37.711  1.00  0.00    -0.203 F 
ATOM     66  C   UNL A   1      38.633  34.156  38.783  1.00  0.00     0.198 A 
ATOM     67  C   UNL A   1      40.072  35.767  37.736  1.00  0.00     0.198 A 
ATOM     68  F   UNL A   1      40.998  35.322  35.619  1.00  0.00    -0.203 F 
ATOM     69  F   UNL A   1      37.827  33.802  39.794  1.00  0.00    -0.200 F 
ATOM     70  C   UNL A   1      39.266  35.389  38.800  1.00  0.00     0.200 A 
ATOM     71  F   UNL A   1      40.690  36.955  37.756  1.00  0.00    -0.200 F 
ATOM     72  F   UNL A   1      39.092  36.218  39.839  1.00  0.00    -0.200 F 
ENDBRANCH  48  62
BRANCH  49  73
ATOM     73  C   UNL A   1      40.656  28.011  28.418  1.00  0.00     0.064 A 
ATOM     74  C   UNL A   1      41.436  28.471  27.347  1.00  0.00     0.173 A 
ATOM     75  C   UNL A   1      40.052  26.751  28.290  1.00  0.00     0.173 A 
ATOM     76  F   UNL A   1      42.018  29.677  27.416  1.00  0.00    -0.203 F 
ATOM     77  C   UNL A   1      41.586  27.715  26.187  1.00  0.00     0.198 A 
ATOM     78  C   UNL A   1      40.223  25.985  27.138  1.00  0.00     0.198 A 
ATOM     79  F   UNL A   1      39.301  26.262  29.287  1.00  0.00    -0.203 F 
ATOM     80  F   UNL A   1      42.301  28.199  25.162  1.00  0.00    -0.200 F 
ATOM     81  C   UNL A   1      40.984  26.471  26.084  1.00  0.00     0.200 A 
ATOM     82  F   UNL A   1      39.649  24.777  27.048  1.00  0.00    -0.200 F 
ATOM     83  F   UNL A   1      41.128  25.744  24.969  1.00  0.00    -0.200 F 
ENDBRANCH  49  73
BRANCH  61  84
ATOM     84  C   UNL A   1      43.806  28.155  34.626  1.00  0.00     0.064 A 
ATOM     85  C   UNL A   1      45.148  28.557  34.559  1.00  0.00     0.173 A 
ATOM     86  C   UNL A   1      43.503  26.974  35.318  1.00  0.00     0.173 A 
ATOM     87  F   UNL A   1      45.486  29.673  33.896  1.00  0.00    -0.203 F 
ATOM     88  C   UNL A   1      46.150  27.793  35.149  1.00  0.00     0.198 A 
ATOM     89  C   UNL A   1      44.505  26.226  35.929  1.00  0.00     0.198 A 
ATOM     90  F   UNL A   1      42.232  26.554  35.415  1.00  0.00    -0.203 F 
ATOM     91  F   UNL A   1      47.430  28.174  35.040  1.00  0.00    -0.200 F 
ATOM     92  C   UNL A   1      45.828  26.634  35.838  1.00  0.00     0.200 A 
ATOM     93  F   UNL A   1      44.191  25.113  36.606  1.00  0.00    -0.200 F 
ATOM     94  F   UNL A   1      46.794  25.904  36.413  1.00  0.00    -0.200 F 
ENDBRANCH  61  84
ENDBRANCH  35  36
ENDBRANCH  27  30
ENDBRANCH  25  26
ENDBRANCH  24  25
ENDBRANCH  23  24
ENDBRANCH   1  23
TORSDOF 17
ENDMDL
MODEL 2
REMARK VINA RESULT:     -11.5      5.493     10.983
REMARK SMILES CC(C)N(CC1CC1)C(=O)NC1(CC(=O)NCCCCNC(=O)c2ccc(-c3c4nc(c(-c5c(F)c(F)c(F)c(F)c5F)c5ccc([nH]5)c(-c5c(F)c(F)c(F)c(F)c5F)c5nc(c(-c6c(F)c(F)c(F)c(F)c6F)c6ccc3[nH]6)C=C5)C=C4)cc2)CCC1
REMARK SMILES IDX 17 1 16 2 14 3 15 4 13 6 12 7 87 8 89 9 88 10 11 11 9 12
REMARK SMILES IDX 10 13 4 15 2 16 1 17 3 18 5 19 6 20 7 21 8 22 18 23 19 24
REMARK SMILES IDX 20 25 21 26 22 27 23 29 24 30 25 31 86 32 26 33 85 34 27 35
REMARK SMILES IDX 28 36 29 37 79 38 30 39 84 40 78 41 80 42 31 43 83 44 77 45
REMARK SMILES IDX 76 46 32 48 64 49 44 50 63 51 45 52 48 53 62 54 81 55 46 56
REMARK SMILES IDX 47 57 61 59 82 60 49 61 33 62 34 63 42 64 35 65 36 66 40 67
REMARK SMILES IDX 43 68 37 69 38 70 41 71 39 72 65 73 66 74 74 75 67 76 68 77
REMARK SMILES IDX 72 78 75 79 69 80 70 81 73 82 71 83 50 84 51 85 59 86 52 87
REMARK SMILES IDX 53 88 57 89 60 90 54 91 55 92 58 93 56 94
REMARK H PARENT 16 5 11 14 21 28 80 47 48 58
REMARK Flexibility Score: inf
ROOT
ATOM      1  C   UNL A   1      37.038  22.618  25.412  1.00  0.00     0.116 C 
ENDROOT
BRANCH   1   2
ATOM      2  N   UNL A   1      36.188  22.179  26.494  1.00  0.00    -0.356 N 
ATOM      3  C   UNL A   1      34.845  21.953  26.508  1.00  0.00     0.222 C 
ATOM      4  O   UNL A   1      34.342  21.608  27.579  1.00  0.00    -0.275 OA
ATOM      5  H   UNL A   1      36.648  22.019  27.349  1.00  0.00     0.163 HD
BRANCH   3   6
ATOM      6  C   UNL A   1      34.019  22.072  25.237  1.00  0.00     0.128 C 
BRANCH   6   7
ATOM      7  C   UNL A   1      32.646  21.389  25.245  1.00  0.00     0.051 C 
ATOM      8  C   UNL A   1      32.444  19.816  25.204  1.00  0.00     0.029 C 
ATOM      9  C   UNL A   1      32.091  21.291  23.763  1.00  0.00     0.029 C 
ATOM     10  C   UNL A   1      32.632  19.863  23.690  1.00  0.00     0.005 C 
BRANCH   7  11
ATOM     11  N   UNL A   1      31.653  22.049  26.110  1.00  0.00    -0.332 N 
ATOM     12  C   UNL A   1      31.074  23.238  26.338  1.00  0.00     0.318 C 
ATOM     13  O   UNL A   1      30.258  23.165  27.270  1.00  0.00    -0.249 OA
ATOM     14  H   UNL A   1      31.287  21.387  26.740  1.00  0.00     0.165 HD
BRANCH  12  15
ATOM     15  N   UNL A   1      31.294  24.414  25.676  1.00  0.00    -0.322 N 
BRANCH  15  16
ATOM     16  C   UNL A   1      32.104  25.429  26.409  1.00  0.00     0.080 C 
ATOM     17  C   UNL A   1      33.565  25.486  25.942  1.00  0.00     0.031 C 
ATOM     18  C   UNL A   1      31.451  26.812  26.447  1.00  0.00     0.031 C 
ENDBRANCH  15  16
BRANCH  15  19
ATOM     19  C   UNL A   1      30.653  24.949  24.470  1.00  0.00     0.125 C 
BRANCH  19  20
ATOM     20  C   UNL A   1      31.229  24.501  23.162  1.00  0.00     0.009 C 
ATOM     21  C   UNL A   1      31.619  25.567  22.148  1.00  0.00     0.006 C 
ATOM     22  C   UNL A   1      32.681  24.751  22.803  1.00  0.00     0.006 C 
ENDBRANCH  19  20
ENDBRANCH  15  19
ENDBRANCH  12  15
ENDBRANCH   7  11
ENDBRANCH   6   7
ENDBRANCH   3   6
ENDBRANCH   1   2
BRANCH   1  23
ATOM     23  C   UNL A   1      37.473  21.440  24.542  1.00  0.00     0.023 C 
BRANCH  23  24
ATOM     24  C   UNL A   1      38.015  20.233  25.284  1.00  0.00     0.023 C 
BRANCH  24  25
ATOM     25  C   UNL A   1      39.371  20.436  25.928  1.00  0.00     0.116 C 
BRANCH  25  26
ATOM     26  N   UNL A   1      40.249  19.274  25.873  1.00  0.00    -0.352 N 
ATOM     27  C   UNL A   1      41.611  19.242  26.082  1.00  0.00     0.251 C 
ATOM     28  H   UNL A   1      39.820  18.413  25.664  1.00  0.00     0.163 HD
ATOM     29  O   UNL A   1      42.252  18.211  25.977  1.00  0.00    -0.269 OA
BRANCH  27  30
ATOM     30  C   UNL A   1      42.273  20.524  26.384  1.00  0.00     0.039 A 
ATOM     31  C   UNL A   1      42.679  21.334  25.323  1.00  0.00     0.014 A 
ATOM     32  C   UNL A   1      42.314  20.982  27.702  1.00  0.00     0.014 A 
ATOM     33  C   UNL A   1      43.051  22.651  25.582  1.00  0.00     0.010 A 
ATOM     34  C   UNL A   1      42.579  22.321  27.942  1.00  0.00     0.010 A 
ATOM     35  C   UNL A   1      42.955  23.166  26.886  1.00  0.00    -0.014 A 
BRANCH  35  36
ATOM     36  C   UNL A   1      43.273  24.582  27.183  1.00  0.00     0.031 A 
ATOM     37  C   UNL A   1      44.661  25.090  26.918  1.00  0.00     0.074 A 
ATOM     38  C   UNL A   1      42.349  25.375  27.757  1.00  0.00     0.049 A 
ATOM     39  N   UNL A   1      45.182  26.258  27.191  1.00  0.00    -0.248 NA
ATOM     40  C   UNL A   1      45.605  24.141  26.305  1.00  0.00     0.031 C 
ATOM     41  C   UNL A   1      40.991  24.971  28.128  1.00  0.00     0.029 A 
ATOM     42  N   UNL A   1      42.417  26.691  28.141  1.00  0.00    -0.354 N 
ATOM     43  C   UNL A   1      46.514  26.169  26.810  1.00  0.00     0.074 A 
ATOM     44  C   UNL A   1      46.741  24.818  26.351  1.00  0.00     0.031 C 
ATOM     45  C   UNL A   1      40.345  26.025  28.655  1.00  0.00     0.029 A 
ATOM     46  C   UNL A   1      41.252  27.168  28.689  1.00  0.00     0.049 A 
ATOM     47  H   UNL A   1      43.226  27.241  28.033  1.00  0.00     0.167 HD
ATOM     48  C   UNL A   1      47.456  27.140  26.810  1.00  0.00     0.037 A 
ATOM     49  C   UNL A   1      40.953  28.393  29.160  1.00  0.00     0.037 A 
ATOM     50  C   UNL A   1      47.207  28.497  27.212  1.00  0.00     0.049 A 
ATOM     51  C   UNL A   1      42.005  29.469  29.104  1.00  0.00     0.074 A 
ATOM     52  C   UNL A   1      48.067  29.578  27.180  1.00  0.00     0.029 A 
ATOM     53  N   UNL A   1      45.997  28.957  27.712  1.00  0.00    -0.354 N 
ATOM     54  N   UNL A   1      43.242  29.395  28.673  1.00  0.00    -0.248 NA
ATOM     55  C   UNL A   1      41.617  30.801  29.590  1.00  0.00     0.031 C 
ATOM     56  C   UNL A   1      47.385  30.690  27.686  1.00  0.00     0.029 A 
ATOM     57  C   UNL A   1      46.089  30.308  27.999  1.00  0.00     0.049 A 
ATOM     58  H   UNL A   1      45.193  28.404  27.842  1.00  0.00     0.167 HD
ATOM     59  C   UNL A   1      43.770  30.670  28.811  1.00  0.00     0.074 A 
ATOM     60  C   UNL A   1      42.716  31.503  29.352  1.00  0.00     0.031 C 
ATOM     61  C   UNL A   1      45.017  31.114  28.521  1.00  0.00     0.037 A 
BRANCH  48  62
ATOM     62  C   UNL A   1      48.829  26.769  26.337  1.00  0.00     0.064 A 
ATOM     63  C   UNL A   1      49.775  26.200  27.205  1.00  0.00     0.173 A 
ATOM     64  C   UNL A   1      49.202  26.973  25.001  1.00  0.00     0.173 A 
ATOM     65  F   UNL A   1      49.472  26.003  28.497  1.00  0.00    -0.203 F 
ATOM     66  C   UNL A   1      51.053  25.877  26.759  1.00  0.00     0.198 A 
ATOM     67  C   UNL A   1      50.472  26.621  24.551  1.00  0.00     0.198 A 
ATOM     68  F   UNL A   1      48.337  27.515  24.132  1.00  0.00    -0.203 F 
ATOM     69  F   UNL A   1      51.956  25.387  27.619  1.00  0.00    -0.200 F 
ATOM     70  C   UNL A   1      51.399  26.082  25.432  1.00  0.00     0.200 A 
ATOM     71  F   UNL A   1      50.804  26.811  23.268  1.00  0.00    -0.200 F 
ATOM     72  F   UNL A   1      52.629  25.768  25.004  1.00  0.00    -0.200 F 
ENDBRANCH  48  62
BRANCH  49  73
ATOM     73  C   UNL A   1      39.594  28.684  29.682  1.00  0.00     0.064 A 
ATOM     74  C   UNL A   1      38.594  29.189  28.839  1.00  0.00     0.173 A 
ATOM     75  C   UNL A   1      39.266  28.474  31.030  1.00  0.00     0.173 A 
ATOM     76  F   UNL A   1      38.865  29.422  27.547  1.00  0.00    -0.203 F 
ATOM     77  C   UNL A   1      37.325  29.494  29.327  1.00  0.00     0.198 A 
ATOM     78  C   UNL A   1      37.989  28.758  31.512  1.00  0.00     0.198 A 
ATOM     79  F   UNL A   1      40.184  27.988  31.877  1.00  0.00    -0.203 F 
ATOM     80  F   UNL A   1      36.403  30.018  28.508  1.00  0.00    -0.200 F 
ATOM     81  C   UNL A   1      37.022  29.276  30.662  1.00  0.00     0.200 A 
ATOM     82  F   UNL A   1      37.696  28.533  32.800  1.00  0.00    -0.200 F 
ATOM     83  F   UNL A   1      35.803  29.570  31.132  1.00  0.00    -0.200 F 
ENDBRANCH  49  73
BRANCH  61  84
ATOM     84  C   UNL A   1      45.298  32.568  28.749  1.00  0.00     0.064 A 
ATOM     85  C   UNL A   1      45.866  33.024  29.947  1.00  0.00     0.173 A 
ATOM     86  C   UNL A   1      45.045  33.506  27.737  1.00  0.00     0.173 A 
ATOM     87  F   UNL A   1      46.114  32.166  30.947  1.00  0.00    -0.203 F 
ATOM     88  C   UNL A   1      46.154  34.374  30.130  1.00  0.00     0.198 A 
ATOM     89  C   UNL A   1      45.357  34.850  27.915  1.00  0.00     0.198 A 
ATOM     90  F   UNL A   1      44.508  33.114  26.572  1.00  0.00    -0.203 F 
ATOM     91  F   UNL A   1      46.661  34.795  31.297  1.00  0.00    -0.200 F 
ATOM     92  C   UNL A   1      45.906  35.283  29.113  1.00  0.00     0.200 A 
ATOM     93  F   UNL A   1      45.129  35.726  26.926  1.00  0.00    -0.200 F 
ATOM     94  F   UNL A   1      46.192  36.580  29.288  1.00  0.00    -0.200 F 
ENDBRANCH  61  84
ENDBRANCH  35  36
ENDBRANCH  27  30
ENDBRANCH  25  26
ENDBRANCH  24  25
ENDBRANCH  23  24
ENDBRANCH   1  23
TORSDOF 17
ENDMDL
MODEL 3
REMARK VINA RESULT:     -11.4      5.584      9.894
REMARK SMILES CC(C)N(CC1CC1)C(=O)NC1(CC(=O)NCCCCNC(=O)c2ccc(-c3c4nc(c(-c5c(F)c(F)c(F)c(F)c5F)c5ccc([nH]5)c(-c5c(F)c(F)c(F)c(F)c5F)c5nc(c(-c6c(F)c(F)c(F)c(F)c6F)c6ccc3[nH]6)C=C5)C=C4)cc2)CCC1
REMARK SMILES IDX 17 1 16 2 14 3 15 4 13 6 12 7 87 8 89 9 88 10 11 11 9 12
REMARK SMILES IDX 10 13 4 15 2 16 1 17 3 18 5 19 6 20 7 21 8 22 18 23 19 24
REMARK SMILES IDX 20 25 21 26 22 27 23 29 24 30 25 31 86 32 26 33 85 34 27 35
REMARK SMILES IDX 28 36 29 37 79 38 30 39 84 40 78 41 80 42 31 43 83 44 77 45
REMARK SMILES IDX 76 46 32 48 64 49 44 50 63 51 45 52 48 53 62 54 81 55 46 56
REMARK SMILES IDX 47 57 61 59 82 60 49 61 33 62 34 63 42 64 35 65 36 66 40 67
REMARK SMILES IDX 43 68 37 69 38 70 41 71 39 72 65 73 66 74 74 75 67 76 68 77
REMARK SMILES IDX 72 78 75 79 69 80 70 81 73 82 71 83 50 84 51 85 59 86 52 87
REMARK SMILES IDX 53 88 57 89 60 90 54 91 55 92 58 93 56 94
REMARK H PARENT 16 5 11 14 21 28 80 47 48 58
REMARK Flexibility Score: inf
ROOT
ATOM      1  C   UNL A   1      37.054  23.181  25.397  1.00  0.00     0.116 C 
ENDROOT
BRANCH   1   2
ATOM      2  N   UNL A   1      36.209  22.849  26.520  1.00  0.00    -0.356 N 
ATOM      3  C   UNL A   1      34.860  22.669  26.570  1.00  0.00     0.222 C 
ATOM      4  O   UNL A   1      34.364  22.419  27.670  1.00  0.00    -0.275 OA
ATOM      5  H   UNL A   1      36.678  22.735  27.378  1.00  0.00     0.163 HD
BRANCH   3   6
ATOM      6  C   UNL A   1      34.017  22.726  25.305  1.00  0.00     0.128 C 
BRANCH   6   7
ATOM      7  C   UNL A   1      32.686  21.963  25.334  1.00  0.00     0.051 C 
ATOM      8  C   UNL A   1      32.577  20.382  25.375  1.00  0.00     0.029 C 
ATOM      9  C   UNL A   1      32.159  21.755  23.853  1.00  0.00     0.029 C 
ATOM     10  C   UNL A   1      32.784  20.360  23.862  1.00  0.00     0.005 C 
BRANCH   7  11
ATOM     11  N   UNL A   1      31.644  22.608  26.152  1.00  0.00    -0.332 N 
ATOM     12  C   UNL A   1      31.058  23.795  26.374  1.00  0.00     0.318 C 
ATOM     13  O   UNL A   1      30.184  23.704  27.249  1.00  0.00    -0.249 OA
ATOM     14  H   UNL A   1      31.234  21.933  26.738  1.00  0.00     0.165 HD
BRANCH  12  15
ATOM     15  N   UNL A   1      31.328  24.987  25.760  1.00  0.00    -0.322 N 
BRANCH  15  16
ATOM     16  C   UNL A   1      30.730  25.168  24.406  1.00  0.00     0.080 C 
ATOM     17  C   UNL A   1      29.490  26.073  24.411  1.00  0.00     0.031 C 
ATOM     18  C   UNL A   1      31.750  25.586  23.344  1.00  0.00     0.031 C 
ENDBRANCH  15  16
BRANCH  15  19
ATOM     19  C   UNL A   1      32.319  26.015  26.095  1.00  0.00     0.125 C 
BRANCH  19  20
ATOM     20  C   UNL A   1      31.806  27.208  26.842  1.00  0.00     0.009 C 
ATOM     21  C   UNL A   1      32.804  28.281  27.251  1.00  0.00     0.006 C 
ATOM     22  C   UNL A   1      31.778  28.588  26.215  1.00  0.00     0.006 C 
ENDBRANCH  19  20
ENDBRANCH  15  19
ENDBRANCH  12  15
ENDBRANCH   7  11
ENDBRANCH   6   7
ENDBRANCH   3   6
ENDBRANCH   1   2
BRANCH   1  23
ATOM     23  C   UNL A   1      37.396  21.937  24.579  1.00  0.00     0.023 C 
BRANCH  23  24
ATOM     24  C   UNL A   1      37.873  20.735  25.371  1.00  0.00     0.023 C 
BRANCH  24  25
ATOM     25  C   UNL A   1      39.290  20.839  25.897  1.00  0.00     0.116 C 
BRANCH  25  26
ATOM     26  N   UNL A   1      40.030  19.584  25.901  1.00  0.00    -0.352 N 
ATOM     27  C   UNL A   1      41.378  19.407  26.126  1.00  0.00     0.251 C 
ATOM     28  H   UNL A   1      39.507  18.769  25.722  1.00  0.00     0.163 HD
ATOM     29  O   UNL A   1      41.899  18.306  26.070  1.00  0.00    -0.269 OA
BRANCH  27  30
ATOM     30  C   UNL A   1      42.180  20.617  26.382  1.00  0.00     0.039 A 
ATOM     31  C   UNL A   1      42.642  21.357  25.293  1.00  0.00     0.014 A 
ATOM     32  C   UNL A   1      42.303  21.095  27.687  1.00  0.00     0.014 A 
ATOM     33  C   UNL A   1      43.157  22.632  25.512  1.00  0.00     0.010 A 
ATOM     34  C   UNL A   1      42.714  22.403  27.890  1.00  0.00     0.010 A 
ATOM     35  C   UNL A   1      43.150  23.181  26.805  1.00  0.00    -0.014 A 
BRANCH  35  36
ATOM     36  C   UNL A   1      43.624  24.561  27.061  1.00  0.00     0.031 A 
ATOM     37  C   UNL A   1      42.653  25.585  27.573  1.00  0.00     0.074 A 
ATOM     38  C   UNL A   1      44.891  24.905  26.761  1.00  0.00     0.049 A 
ATOM     39  N   UNL A   1      42.827  26.865  27.773  1.00  0.00    -0.248 NA
ATOM     40  C   UNL A   1      41.286  25.115  27.854  1.00  0.00     0.031 C 
ATOM     41  C   UNL A   1      45.903  24.013  26.190  1.00  0.00     0.029 A 
ATOM     42  N   UNL A   1      45.542  26.106  26.884  1.00  0.00    -0.354 N 
ATOM     43  C   UNL A   1      41.590  27.351  28.172  1.00  0.00     0.074 A 
ATOM     44  C   UNL A   1      40.659  26.248  28.123  1.00  0.00     0.031 C 
ATOM     45  C   UNL A   1      47.055  24.690  26.044  1.00  0.00     0.029 A 
ATOM     46  C   UNL A   1      46.854  26.068  26.480  1.00  0.00     0.049 A 
ATOM     47  H   UNL A   1      45.110  26.919  27.231  1.00  0.00     0.167 HD
ATOM     48  C   UNL A   1      41.269  28.601  28.579  1.00  0.00     0.037 A 
ATOM     49  C   UNL A   1      47.786  27.039  26.468  1.00  0.00     0.037 A 
ATOM     50  C   UNL A   1      42.214  29.678  28.682  1.00  0.00     0.049 A 
ATOM     51  C   UNL A   1      47.414  28.409  26.972  1.00  0.00     0.074 A 
ATOM     52  C   UNL A   1      42.012  30.961  29.154  1.00  0.00     0.029 A 
ATOM     53  N   UNL A   1      43.549  29.587  28.314  1.00  0.00    -0.354 N 
ATOM     54  N   UNL A   1      46.259  28.840  27.418  1.00  0.00    -0.248 NA
ATOM     55  C   UNL A   1      48.478  29.423  26.980  1.00  0.00     0.031 C 
ATOM     56  C   UNL A   1      43.221  31.657  29.047  1.00  0.00     0.029 A 
ATOM     57  C   UNL A   1      44.183  30.796  28.542  1.00  0.00     0.049 A 
ATOM     58  H   UNL A   1      43.979  28.782  27.945  1.00  0.00     0.167 HD
ATOM     59  C   UNL A   1      46.461  30.163  27.783  1.00  0.00     0.074 A 
ATOM     60  C   UNL A   1      47.855  30.461  27.520  1.00  0.00     0.031 C 
ATOM     61  C   UNL A   1      45.575  31.056  28.286  1.00  0.00     0.037 A 
BRANCH  48  62
ATOM     62  C   UNL A   1      39.842  28.854  28.965  1.00  0.00     0.064 A 
ATOM     63  C   UNL A   1      38.894  29.289  28.025  1.00  0.00     0.173 A 
ATOM     64  C   UNL A   1      39.413  28.651  30.284  1.00  0.00     0.173 A 
ATOM     65  F   UNL A   1      39.261  29.518  26.754  1.00  0.00    -0.203 F 
ATOM     66  C   UNL A   1      37.577  29.540  28.398  1.00  0.00     0.198 A 
ATOM     67  C   UNL A   1      38.088  28.874  30.648  1.00  0.00     0.198 A 
ATOM     68  F   UNL A   1      40.279  28.237  31.221  1.00  0.00    -0.203 F 
ATOM     69  F   UNL A   1      36.705  30.009  27.495  1.00  0.00    -0.200 F 
ATOM     70  C   UNL A   1      37.173  29.327  29.707  1.00  0.00     0.200 A 
ATOM     71  F   UNL A   1      37.695  28.659  31.910  1.00  0.00    -0.200 F 
ATOM     72  F   UNL A   1      35.904  29.565  30.065  1.00  0.00    -0.200 F 
ENDBRANCH  48  62
BRANCH  49  73
ATOM     73  C   UNL A   1      49.167  26.746  26.009  1.00  0.00     0.064 A 
ATOM     74  C   UNL A   1      49.554  27.006  24.686  1.00  0.00     0.173 A 
ATOM     75  C   UNL A   1      50.126  26.195  26.871  1.00  0.00     0.173 A 
ATOM     76  F   UNL A   1      48.667  27.516  23.819  1.00  0.00    -0.203 F 
ATOM     77  C   UNL A   1      50.838  26.705  24.237  1.00  0.00     0.198 A 
ATOM     78  C   UNL A   1      51.417  25.916  26.428  1.00  0.00     0.198 A 
ATOM     79  F   UNL A   1      49.810  25.933  28.148  1.00  0.00    -0.203 F 
ATOM     80  F   UNL A   1      51.166  26.922  22.956  1.00  0.00    -0.200 F 
ATOM     81  C   UNL A   1      51.770  26.164  25.109  1.00  0.00     0.200 A 
ATOM     82  F   UNL A   1      52.320  25.405  27.277  1.00  0.00    -0.200 F 
ATOM     83  F   UNL A   1      53.005  25.873  24.677  1.00  0.00    -0.200 F 
ENDBRANCH  49  73
BRANCH  61  84
ATOM     84  C   UNL A   1      46.092  32.423  28.617  1.00  0.00     0.064 A 
ATOM     85  C   UNL A   1      46.062  33.464  27.678  1.00  0.00     0.173 A 
ATOM     86  C   UNL A   1      46.571  32.707  29.904  1.00  0.00     0.173 A 
ATOM     87  F   UNL A   1      45.624  33.236  26.431  1.00  0.00    -0.203 F 
ATOM     88  C   UNL A   1      46.513  34.738  28.012  1.00  0.00     0.198 A 
ATOM     89  C   UNL A   1      46.997  33.988  30.242  1.00  0.00     0.198 A 
ATOM     90  F   UNL A   1      46.611  31.745  30.838  1.00  0.00    -0.203 F 
ATOM     91  F   UNL A   1      46.512  35.709  27.088  1.00  0.00    -0.200 F 
ATOM     92  C   UNL A   1      46.972  35.000  29.293  1.00  0.00     0.200 A 
ATOM     93  F   UNL A   1      47.428  34.243  31.485  1.00  0.00    -0.200 F 
ATOM     94  F   UNL A   1      47.397  36.229  29.615  1.00  0.00    -0.200 F 
ENDBRANCH  61  84
ENDBRANCH  35  36
ENDBRANCH  27  30
ENDBRANCH  25  26
ENDBRANCH  24  25
ENDBRANCH  23  24
ENDBRANCH   1  23
TORSDOF 17
ENDMDL
