MODEL 1
REMARK VINA RESULT:     -12.8      0.000      0.000
REMARK SMILES CO[C@@H]1C[C@@H](C(=O)NCCCCNC(=O)c2ccc(-c3c4nc(c(-c5c(F)c(F)c(F)c(F)c5F)c5ccc([nH]5)c(-c5c(F)c(F)c(F)c(F)c5F)c5nc(c(-c6c(F)c(F)c(F)c(F)c6F)c6ccc3[nH]6)C=C5)C=C4)cc2)N(C(=O)c2nc(C(C)C)n[nH]2)C1
REMARK SMILES IDX 10 1 9 2 8 3 6 4 7 5 5 7 3 8 4 9 90 10 79 11 2 12 1 13 80 14
REMARK SMILES IDX 81 15 82 16 83 17 89 18 84 19 88 20 85 22 86 23 87 24 11 25
REMARK SMILES IDX 12 26 13 27 14 28 15 30 16 31 17 32 78 33 18 34 77 35 19 36
REMARK SMILES IDX 20 37 21 38 71 39 22 40 76 41 70 42 72 43 23 44 75 45 69 46
REMARK SMILES IDX 68 47 24 49 56 50 36 51 55 52 37 53 40 54 54 55 73 56 38 57
REMARK SMILES IDX 39 58 53 60 74 61 41 62 25 63 26 64 34 65 27 66 28 67 32 68
REMARK SMILES IDX 35 69 29 70 30 71 33 72 31 73 57 74 58 75 66 76 59 77 60 78
REMARK SMILES IDX 64 79 67 80 61 81 62 82 65 83 63 84 42 85 43 86 51 87 44 88
REMARK SMILES IDX 45 89 49 90 52 91 46 92 47 93 50 94 48 95
REMARK H PARENT 8 6 89 21 13 29 72 48 40 59
REMARK Flexibility Score: inf
ROOT
ATOM      1  C   UNL A   1      31.731  30.780  26.155  1.00  0.00     0.023 C 
ENDROOT
BRANCH   1   2
ATOM      2  C   UNL A   1      32.997  30.056  26.607  1.00  0.00     0.116 C 
BRANCH   2   3
ATOM      3  N   UNL A   1      33.824  29.571  25.507  1.00  0.00    -0.354 N 
ATOM      4  C   UNL A   1      33.666  28.487  24.688  1.00  0.00     0.242 C 
ATOM      5  O   UNL A   1      34.349  28.446  23.665  1.00  0.00    -0.273 OA
ATOM      6  H   UNL A   1      34.626  30.113  25.324  1.00  0.00     0.163 HD
BRANCH   4   7
ATOM      7  C   UNL A   1      32.623  27.418  24.987  1.00  0.00     0.177 C 
ATOM      8  C   UNL A   1      32.627  25.175  25.911  1.00  0.00     0.139 C 
ATOM      9  C   UNL A   1      33.317  26.519  26.019  1.00  0.00     0.069 C 
ATOM     10  C   UNL A   1      32.085  25.141  24.471  1.00  0.00     0.153 C 
ATOM     11  N   UNL A   1      32.160  26.507  23.935  1.00  0.00    -0.321 N 
BRANCH   8  12
ATOM     12  O   UNL A   1      31.580  25.057  26.873  1.00  0.00    -0.380 OA
ATOM     13  C   UNL A   1      30.500  24.238  26.422  1.00  0.00     0.195 C 
ENDBRANCH   8  12
BRANCH  11  14
ATOM     14  C   UNL A   1      31.443  26.783  22.748  1.00  0.00     0.291 C 
ATOM     15  O   UNL A   1      31.472  25.933  21.853  1.00  0.00    -0.265 OA
BRANCH  14  16
ATOM     16  C   UNL A   1      30.764  28.064  22.530  1.00  0.00     0.214 A 
ATOM     17  N   UNL A   1      29.465  28.287  22.716  1.00  0.00    -0.207 NA
ATOM     18  N   UNL A   1      31.255  29.163  21.896  1.00  0.00    -0.255 N 
ATOM     19  C   UNL A   1      29.253  29.541  22.187  1.00  0.00     0.153 A 
ATOM     20  N   UNL A   1      30.345  30.107  21.672  1.00  0.00    -0.158 NA
ATOM     21  H   UNL A   1      32.198  29.251  21.626  1.00  0.00     0.192 HD
BRANCH  19  22
ATOM     22  C   UNL A   1      27.944  30.255  22.151  1.00  0.00     0.053 C 
ATOM     23  C   UNL A   1      27.628  30.947  23.475  1.00  0.00     0.016 C 
ATOM     24  C   UNL A   1      27.861  31.220  20.975  1.00  0.00     0.016 C 
ENDBRANCH  19  22
ENDBRANCH  14  16
ENDBRANCH  11  14
ENDBRANCH   4   7
ENDBRANCH   2   3
ENDBRANCH   1   2
BRANCH   1  25
ATOM     25  C   UNL A   1      31.446  32.093  26.879  1.00  0.00     0.023 C 
BRANCH  25  26
ATOM     26  C   UNL A   1      32.689  32.824  27.352  1.00  0.00     0.116 C 
BRANCH  26  27
ATOM     27  N   UNL A   1      32.432  34.226  27.622  1.00  0.00    -0.352 N 
ATOM     28  C   UNL A   1      33.003  35.026  28.582  1.00  0.00     0.251 C 
ATOM     29  H   UNL A   1      31.764  34.661  27.045  1.00  0.00     0.163 HD
ATOM     30  O   UNL A   1      32.558  36.140  28.814  1.00  0.00    -0.269 OA
BRANCH  28  31
ATOM     31  C   UNL A   1      34.150  34.498  29.345  1.00  0.00     0.039 A 
ATOM     32  C   UNL A   1      33.915  33.849  30.557  1.00  0.00     0.014 A 
ATOM     33  C   UNL A   1      35.445  34.604  28.829  1.00  0.00     0.014 A 
ATOM     34  C   UNL A   1      34.983  33.262  31.233  1.00  0.00     0.010 A 
ATOM     35  C   UNL A   1      36.487  33.934  29.452  1.00  0.00     0.010 A 
ATOM     36  C   UNL A   1      36.270  33.275  30.671  1.00  0.00    -0.014 A 
BRANCH  36  37
ATOM     37  C   UNL A   1      37.415  32.634  31.358  1.00  0.00     0.031 A 
ATOM     38  C   UNL A   1      38.116  31.474  30.709  1.00  0.00     0.074 A 
ATOM     39  C   UNL A   1      37.773  33.048  32.587  1.00  0.00     0.049 A 
ATOM     40  N   UNL A   1      39.090  30.731  31.169  1.00  0.00    -0.248 NA
ATOM     41  C   UNL A   1      37.630  31.068  29.380  1.00  0.00     0.031 C 
ATOM     42  C   UNL A   1      37.121  34.118  33.343  1.00  0.00     0.029 A 
ATOM     43  N   UNL A   1      38.766  32.607  33.424  1.00  0.00    -0.354 N 
ATOM     44  C   UNL A   1      39.316  29.766  30.197  1.00  0.00     0.074 A 
ATOM     45  C   UNL A   1      38.334  29.972  29.156  1.00  0.00     0.031 C 
ATOM     46  C   UNL A   1      37.743  34.264  34.524  1.00  0.00     0.029 A 
ATOM     47  C   UNL A   1      38.812  33.275  34.623  1.00  0.00     0.049 A 
ATOM     48  H   UNL A   1      39.387  31.881  33.188  1.00  0.00     0.167 HD
ATOM     49  C   UNL A   1      40.277  28.813  30.161  1.00  0.00     0.037 A 
ATOM     50  C   UNL A   1      39.622  33.101  35.684  1.00  0.00     0.037 A 
ATOM     51  C   UNL A   1      41.266  28.635  31.190  1.00  0.00     0.049 A 
ATOM     52  C   UNL A   1      40.694  32.048  35.617  1.00  0.00     0.074 A 
ATOM     53  C   UNL A   1      42.330  27.753  31.223  1.00  0.00     0.029 A 
ATOM     54  N   UNL A   1      41.307  29.357  32.376  1.00  0.00    -0.354 N 
ATOM     55  N   UNL A   1      40.957  31.196  34.655  1.00  0.00    -0.248 NA
ATOM     56  C   UNL A   1      41.589  31.938  36.776  1.00  0.00     0.031 C 
ATOM     57  C   UNL A   1      42.982  27.901  32.452  1.00  0.00     0.029 A 
ATOM     58  C   UNL A   1      42.362  28.919  33.160  1.00  0.00     0.049 A 
ATOM     59  H   UNL A   1      40.678  30.074  32.623  1.00  0.00     0.167 HD
ATOM     60  C   UNL A   1      42.059  30.465  35.081  1.00  0.00     0.074 A 
ATOM     61  C   UNL A   1      42.425  30.988  36.382  1.00  0.00     0.031 C 
ATOM     62  C   UNL A   1      42.707  29.452  34.454  1.00  0.00     0.037 A 
BRANCH  49  63
ATOM     63  C   UNL A   1      40.295  27.895  28.972  1.00  0.00     0.064 A 
ATOM     64  C   UNL A   1      41.021  28.203  27.810  1.00  0.00     0.173 A 
ATOM     65  C   UNL A   1      39.580  26.688  28.993  1.00  0.00     0.173 A 
ATOM     66  F   UNL A   1      41.712  29.350  27.730  1.00  0.00    -0.203 F 
ATOM     67  C   UNL A   1      40.992  27.362  26.700  1.00  0.00     0.198 A 
ATOM     68  C   UNL A   1      39.584  25.831  27.896  1.00  0.00     0.198 A 
ATOM     69  F   UNL A   1      38.873  26.339  30.079  1.00  0.00    -0.203 F 
ATOM     70  F   UNL A   1      41.636  27.713  25.579  1.00  0.00    -0.200 F 
ATOM     71  C   UNL A   1      40.279  26.174  26.747  1.00  0.00     0.200 A 
ATOM     72  F   UNL A   1      38.905  24.677  27.947  1.00  0.00    -0.200 F 
ATOM     73  F   UNL A   1      40.252  25.365  25.678  1.00  0.00    -0.200 F 
ENDBRANCH  49  63
BRANCH  50  74
ATOM     74  C   UNL A   1      39.457  33.962  36.884  1.00  0.00     0.064 A 
ATOM     75  C   UNL A   1      38.713  33.528  37.989  1.00  0.00     0.173 A 
ATOM     76  C   UNL A   1      40.058  35.227  36.958  1.00  0.00     0.173 A 
ATOM     77  F   UNL A   1      38.105  32.333  37.959  1.00  0.00    -0.203 F 
ATOM     78  C   UNL A   1      38.563  34.333  39.116  1.00  0.00     0.198 A 
ATOM     79  C   UNL A   1      39.932  36.019  38.097  1.00  0.00     0.198 A 
ATOM     80  F   UNL A   1      40.789  35.685  35.930  1.00  0.00    -0.203 F 
ATOM     81  F   UNL A   1      37.813  33.910  40.144  1.00  0.00    -0.200 F 
ATOM     82  C   UNL A   1      39.178  35.575  39.173  1.00  0.00     0.200 A 
ATOM     83  F   UNL A   1      40.543  37.210  38.154  1.00  0.00    -0.200 F 
ATOM     84  F   UNL A   1      39.042  36.344  40.261  1.00  0.00    -0.200 F 
ENDBRANCH  50  74
BRANCH  62  85
ATOM     85  C   UNL A   1      43.896  28.861  35.155  1.00  0.00     0.064 A 
ATOM     86  C   UNL A   1      43.771  27.764  36.020  1.00  0.00     0.173 A 
ATOM     87  C   UNL A   1      45.182  29.371  34.922  1.00  0.00     0.173 A 
ATOM     88  F   UNL A   1      42.561  27.250  36.286  1.00  0.00    -0.203 F 
ATOM     89  C   UNL A   1      44.886  27.217  36.647  1.00  0.00     0.198 A 
ATOM     90  C   UNL A   1      46.299  28.800  35.523  1.00  0.00     0.198 A 
ATOM     91  F   UNL A   1      45.357  30.414  34.096  1.00  0.00    -0.203 F 
ATOM     92  F   UNL A   1      44.738  26.200  37.507  1.00  0.00    -0.200 F 
ATOM     93  C   UNL A   1      46.150  27.728  36.391  1.00  0.00     0.200 A 
ATOM     94  F   UNL A   1      47.521  29.285  35.263  1.00  0.00    -0.200 F 
ATOM     95  F   UNL A   1      47.225  27.193  36.987  1.00  0.00    -0.200 F 
ENDBRANCH  62  85
ENDBRANCH  36  37
ENDBRANCH  28  31
ENDBRANCH  26  27
ENDBRANCH  25  26
ENDBRANCH   1  25
TORSDOF 15
ENDMDL
MODEL 2
REMARK VINA RESULT:     -12.7      0.099      1.586
REMARK SMILES CO[C@@H]1C[C@@H](C(=O)NCCCCNC(=O)c2ccc(-c3c4nc(c(-c5c(F)c(F)c(F)c(F)c5F)c5ccc([nH]5)c(-c5c(F)c(F)c(F)c(F)c5F)c5nc(c(-c6c(F)c(F)c(F)c(F)c6F)c6ccc3[nH]6)C=C5)C=C4)cc2)N(C(=O)c2nc(C(C)C)n[nH]2)C1
REMARK SMILES IDX 10 1 9 2 8 3 6 4 7 5 5 7 3 8 4 9 90 10 79 11 2 12 1 13 80 14
REMARK SMILES IDX 81 15 82 16 83 17 89 18 84 19 88 20 85 22 86 23 87 24 11 25
REMARK SMILES IDX 12 26 13 27 14 28 15 30 16 31 17 32 78 33 18 34 77 35 19 36
REMARK SMILES IDX 20 37 21 38 71 39 22 40 76 41 70 42 72 43 23 44 75 45 69 46
REMARK SMILES IDX 68 47 24 49 56 50 36 51 55 52 37 53 40 54 54 55 73 56 38 57
REMARK SMILES IDX 39 58 53 60 74 61 41 62 25 63 26 64 34 65 27 66 28 67 32 68
REMARK SMILES IDX 35 69 29 70 30 71 33 72 31 73 57 74 58 75 66 76 59 77 60 78
REMARK SMILES IDX 64 79 67 80 61 81 62 82 65 83 63 84 42 85 43 86 51 87 44 88
REMARK SMILES IDX 45 89 49 90 52 91 46 92 47 93 50 94 48 95
REMARK H PARENT 8 6 89 21 13 29 72 48 40 59
REMARK Flexibility Score: inf
ROOT
ATOM      1  C   UNL A   1      31.718  30.817  26.129  1.00  0.00     0.023 C 
ENDROOT
BRANCH   1   2
ATOM      2  C   UNL A   1      32.937  30.039  26.617  1.00  0.00     0.116 C 
BRANCH   2   3
ATOM      3  N   UNL A   1      33.792  29.546  25.542  1.00  0.00    -0.354 N 
ATOM      4  C   UNL A   1      33.660  28.449  24.735  1.00  0.00     0.242 C 
ATOM      5  O   UNL A   1      34.365  28.400  23.728  1.00  0.00    -0.273 OA
ATOM      6  H   UNL A   1      34.593  30.091  25.368  1.00  0.00     0.163 HD
BRANCH   4   7
ATOM      7  C   UNL A   1      32.620  27.375  25.026  1.00  0.00     0.177 C 
ATOM      8  C   UNL A   1      32.631  25.122  25.927  1.00  0.00     0.139 C 
ATOM      9  C   UNL A   1      33.319  26.467  26.046  1.00  0.00     0.069 C 
ATOM     10  C   UNL A   1      32.084  25.102  24.489  1.00  0.00     0.153 C 
ATOM     11  N   UNL A   1      32.155  26.474  23.967  1.00  0.00    -0.321 N 
BRANCH   8  12
ATOM     12  O   UNL A   1      31.587  24.993  26.892  1.00  0.00    -0.380 OA
ATOM     13  C   UNL A   1      30.445  24.301  26.385  1.00  0.00     0.195 C 
ENDBRANCH   8  12
BRANCH  11  14
ATOM     14  C   UNL A   1      31.433  26.761  22.786  1.00  0.00     0.291 C 
ATOM     15  O   UNL A   1      31.458  25.920  21.882  1.00  0.00    -0.265 OA
BRANCH  14  16
ATOM     16  C   UNL A   1      30.753  28.045  22.582  1.00  0.00     0.214 A 
ATOM     17  N   UNL A   1      29.441  28.242  22.673  1.00  0.00    -0.207 NA
ATOM     18  N   UNL A   1      31.276  29.182  22.050  1.00  0.00    -0.255 N 
ATOM     19  C   UNL A   1      29.252  29.521  22.196  1.00  0.00     0.153 A 
ATOM     20  N   UNL A   1      30.373  30.127  21.803  1.00  0.00    -0.158 NA
ATOM     21  H   UNL A   1      32.237  29.296  21.863  1.00  0.00     0.192 HD
BRANCH  19  22
ATOM     22  C   UNL A   1      27.939  30.221  22.092  1.00  0.00     0.053 C 
ATOM     23  C   UNL A   1      27.590  30.984  23.367  1.00  0.00     0.016 C 
ATOM     24  C   UNL A   1      27.875  31.116  20.862  1.00  0.00     0.016 C 
ENDBRANCH  19  22
ENDBRANCH  14  16
ENDBRANCH  11  14
ENDBRANCH   4   7
ENDBRANCH   2   3
ENDBRANCH   1   2
BRANCH   1  25
ATOM     25  C   UNL A   1      31.431  32.108  26.892  1.00  0.00     0.023 C 
BRANCH  25  26
ATOM     26  C   UNL A   1      32.673  32.836  27.371  1.00  0.00     0.116 C 
BRANCH  26  27
ATOM     27  N   UNL A   1      32.413  34.235  27.659  1.00  0.00    -0.352 N 
ATOM     28  C   UNL A   1      32.989  35.026  28.622  1.00  0.00     0.251 C 
ATOM     29  H   UNL A   1      31.738  34.673  27.091  1.00  0.00     0.163 HD
ATOM     30  O   UNL A   1      32.542  36.136  28.870  1.00  0.00    -0.269 OA
BRANCH  28  31
ATOM     31  C   UNL A   1      34.145  34.495  29.369  1.00  0.00     0.039 A 
ATOM     32  C   UNL A   1      33.924  33.843  30.582  1.00  0.00     0.014 A 
ATOM     33  C   UNL A   1      35.433  34.599  28.838  1.00  0.00     0.014 A 
ATOM     34  C   UNL A   1      34.999  33.253  31.244  1.00  0.00     0.010 A 
ATOM     35  C   UNL A   1      36.482  33.926  29.446  1.00  0.00     0.010 A 
ATOM     36  C   UNL A   1      36.279  33.265  30.667  1.00  0.00    -0.014 A 
BRANCH  36  37
ATOM     37  C   UNL A   1      37.431  32.620  31.338  1.00  0.00     0.031 A 
ATOM     38  C   UNL A   1      38.130  31.468  30.671  1.00  0.00     0.074 A 
ATOM     39  C   UNL A   1      37.798  33.023  32.568  1.00  0.00     0.049 A 
ATOM     40  N   UNL A   1      39.110  30.724  31.116  1.00  0.00    -0.248 NA
ATOM     41  C   UNL A   1      37.634  31.075  29.342  1.00  0.00     0.031 C 
ATOM     42  C   UNL A   1      37.149  34.083  33.340  1.00  0.00     0.029 A 
ATOM     43  N   UNL A   1      38.799  32.576  33.392  1.00  0.00    -0.354 N 
ATOM     44  C   UNL A   1      39.330  29.769  30.132  1.00  0.00     0.074 A 
ATOM     45  C   UNL A   1      38.339  29.982  29.102  1.00  0.00     0.031 C 
ATOM     46  C   UNL A   1      37.780  34.219  34.517  1.00  0.00     0.029 A 
ATOM     47  C   UNL A   1      38.853  33.233  34.597  1.00  0.00     0.049 A 
ATOM     48  H   UNL A   1      39.420  31.854  33.143  1.00  0.00     0.167 HD
ATOM     49  C   UNL A   1      40.293  28.819  30.079  1.00  0.00     0.037 A 
ATOM     50  C   UNL A   1      39.672  33.050  35.650  1.00  0.00     0.037 A 
ATOM     51  C   UNL A   1      41.291  28.634  31.098  1.00  0.00     0.049 A 
ATOM     52  C   UNL A   1      40.746  32.001  35.564  1.00  0.00     0.074 A 
ATOM     53  C   UNL A   1      42.358  27.754  31.113  1.00  0.00     0.029 A 
ATOM     54  N   UNL A   1      41.340  29.344  32.291  1.00  0.00    -0.354 N 
ATOM     55  N   UNL A   1      41.004  31.159  34.591  1.00  0.00    -0.248 NA
ATOM     56  C   UNL A   1      41.651  31.882  36.714  1.00  0.00     0.031 C 
ATOM     57  C   UNL A   1      43.020  27.892  32.338  1.00  0.00     0.029 A 
ATOM     58  C   UNL A   1      42.403  28.901  33.062  1.00  0.00     0.049 A 
ATOM     59  H   UNL A   1      40.712  30.056  32.550  1.00  0.00     0.167 HD
ATOM     60  C   UNL A   1      42.111  30.428  35.001  1.00  0.00     0.074 A 
ATOM     61  C   UNL A   1      42.486  30.939  36.304  1.00  0.00     0.031 C 
ATOM     62  C   UNL A   1      42.757  29.423  34.358  1.00  0.00     0.037 A 
BRANCH  49  63
ATOM     63  C   UNL A   1      40.305  27.913  28.881  1.00  0.00     0.064 A 
ATOM     64  C   UNL A   1      39.615  26.690  28.871  1.00  0.00     0.173 A 
ATOM     65  C   UNL A   1      41.014  28.271  27.724  1.00  0.00     0.173 A 
ATOM     66  F   UNL A   1      38.932  26.291  29.955  1.00  0.00    -0.203 F 
ATOM     67  C   UNL A   1      39.672  25.841  27.768  1.00  0.00     0.198 A 
ATOM     68  C   UNL A   1      41.038  27.437  26.610  1.00  0.00     0.198 A 
ATOM     69  F   UNL A   1      41.688  29.430  27.675  1.00  0.00    -0.203 F 
ATOM     70  F   UNL A   1      39.062  24.648  27.812  1.00  0.00    -0.200 F 
ATOM     71  C   UNL A   1      40.378  26.219  26.637  1.00  0.00     0.200 A 
ATOM     72  F   UNL A   1      41.710  27.808  25.511  1.00  0.00    -0.200 F 
ATOM     73  F   UNL A   1      40.432  25.400  25.576  1.00  0.00    -0.200 F 
ENDBRANCH  49  63
BRANCH  50  74
ATOM     74  C   UNL A   1      39.515  33.899  36.859  1.00  0.00     0.064 A 
ATOM     75  C   UNL A   1      40.104  35.168  36.934  1.00  0.00     0.173 A 
ATOM     76  C   UNL A   1      38.755  33.468  37.956  1.00  0.00     0.173 A 
ATOM     77  F   UNL A   1      40.856  35.618  35.917  1.00  0.00    -0.203 F 
ATOM     78  C   UNL A   1      39.954  35.966  38.066  1.00  0.00     0.198 A 
ATOM     79  C   UNL A   1      38.580  34.278  39.075  1.00  0.00     0.198 A 
ATOM     80  F   UNL A   1      38.162  32.265  37.931  1.00  0.00    -0.203 F 
ATOM     81  F   UNL A   1      40.561  37.160  38.126  1.00  0.00    -0.200 F 
ATOM     82  C   UNL A   1      39.186  35.525  39.133  1.00  0.00     0.200 A 
ATOM     83  F   UNL A   1      37.822  33.855  40.096  1.00  0.00    -0.200 F 
ATOM     84  F   UNL A   1      39.032  36.297  40.216  1.00  0.00    -0.200 F 
ENDBRANCH  50  74
BRANCH  62  85
ATOM     85  C   UNL A   1      43.953  28.828  35.043  1.00  0.00     0.064 A 
ATOM     86  C   UNL A   1      43.841  27.711  35.885  1.00  0.00     0.173 A 
ATOM     87  C   UNL A   1      45.234  29.355  34.819  1.00  0.00     0.173 A 
ATOM     88  F   UNL A   1      42.636  27.179  36.142  1.00  0.00    -0.203 F 
ATOM     89  C   UNL A   1      44.963  27.161  36.497  1.00  0.00     0.198 A 
ATOM     90  C   UNL A   1      46.358  28.782  35.405  1.00  0.00     0.198 A 
ATOM     91  F   UNL A   1      45.397  30.418  34.016  1.00  0.00    -0.203 F 
ATOM     92  F   UNL A   1      44.826  26.124  37.335  1.00  0.00    -0.200 F 
ATOM     93  C   UNL A   1      46.221  27.690  36.250  1.00  0.00     0.200 A 
ATOM     94  F   UNL A   1      47.574  29.285  35.153  1.00  0.00    -0.200 F 
ATOM     95  F   UNL A   1      47.302  27.153  36.832  1.00  0.00    -0.200 F 
ENDBRANCH  62  85
ENDBRANCH  36  37
ENDBRANCH  28  31
ENDBRANCH  26  27
ENDBRANCH  25  26
ENDBRANCH   1  25
TORSDOF 15
ENDMDL
MODEL 3
REMARK VINA RESULT:     -12.7      6.097     11.471
REMARK SMILES CO[C@@H]1C[C@@H](C(=O)NCCCCNC(=O)c2ccc(-c3c4nc(c(-c5c(F)c(F)c(F)c(F)c5F)c5ccc([nH]5)c(-c5c(F)c(F)c(F)c(F)c5F)c5nc(c(-c6c(F)c(F)c(F)c(F)c6F)c6ccc3[nH]6)C=C5)C=C4)cc2)N(C(=O)c2nc(C(C)C)n[nH]2)C1
REMARK SMILES IDX 10 1 9 2 8 3 6 4 7 5 5 7 3 8 4 9 90 10 79 11 2 12 1 13 80 14
REMARK SMILES IDX 81 15 82 16 83 17 89 18 84 19 88 20 85 22 86 23 87 24 11 25
REMARK SMILES IDX 12 26 13 27 14 28 15 30 16 31 17 32 78 33 18 34 77 35 19 36
REMARK SMILES IDX 20 37 21 38 71 39 22 40 76 41 70 42 72 43 23 44 75 45 69 46
REMARK SMILES IDX 68 47 24 49 56 50 36 51 55 52 37 53 40 54 54 55 73 56 38 57
REMARK SMILES IDX 39 58 53 60 74 61 41 62 25 63 26 64 34 65 27 66 28 67 32 68
REMARK SMILES IDX 35 69 29 70 30 71 33 72 31 73 57 74 58 75 66 76 59 77 60 78
REMARK SMILES IDX 64 79 67 80 61 81 62 82 65 83 63 84 42 85 43 86 51 87 44 88
REMARK SMILES IDX 45 89 49 90 52 91 46 92 47 93 50 94 48 95
REMARK H PARENT 8 6 89 21 13 29 72 48 40 59
REMARK Flexibility Score: inf
ROOT
ATOM      1  C   UNL A   1      36.933  20.621  25.009  1.00  0.00     0.023 C 
ENDROOT
BRANCH   1   2
ATOM      2  C   UNL A   1      37.173  22.071  25.419  1.00  0.00     0.116 C 
BRANCH   2   3
ATOM      3  N   UNL A   1      36.310  22.528  26.504  1.00  0.00    -0.354 N 
ATOM      4  C   UNL A   1      35.015  22.966  26.484  1.00  0.00     0.242 C 
ATOM      5  O   UNL A   1      34.424  23.036  27.561  1.00  0.00    -0.273 OA
ATOM      6  H   UNL A   1      36.728  22.519  27.395  1.00  0.00     0.163 HD
BRANCH   4   7
ATOM      7  C   UNL A   1      34.305  23.271  25.171  1.00  0.00     0.177 C 
ATOM      8  C   UNL A   1      33.628  25.265  23.966  1.00  0.00     0.139 C 
ATOM      9  C   UNL A   1      34.713  24.719  24.871  1.00  0.00     0.069 C 
ATOM     10  C   UNL A   1      32.388  24.420  24.309  1.00  0.00     0.153 C 
ATOM     11  N   UNL A   1      32.841  23.260  25.089  1.00  0.00    -0.321 N 
BRANCH   8  12
ATOM     12  O   UNL A   1      33.992  25.135  22.592  1.00  0.00    -0.380 OA
ATOM     13  C   UNL A   1      32.988  25.626  21.702  1.00  0.00     0.195 C 
ENDBRANCH   8  12
BRANCH  11  14
ATOM     14  C   UNL A   1      31.932  22.190  25.257  1.00  0.00     0.291 C 
ATOM     15  O   UNL A   1      30.800  22.463  25.668  1.00  0.00    -0.265 OA
BRANCH  14  16
ATOM     16  C   UNL A   1      32.327  20.794  25.049  1.00  0.00     0.214 A 
ATOM     17  N   UNL A   1      32.314  20.157  23.881  1.00  0.00    -0.207 NA
ATOM     18  N   UNL A   1      32.546  19.846  26.000  1.00  0.00    -0.255 N 
ATOM     19  C   UNL A   1      32.549  18.839  24.206  1.00  0.00     0.153 A 
ATOM     20  N   UNL A   1      32.696  18.618  25.513  1.00  0.00    -0.158 NA
ATOM     21  H   UNL A   1      32.588  20.051  26.963  1.00  0.00     0.192 HD
BRANCH  19  22
ATOM     22  C   UNL A   1      32.632  17.710  23.235  1.00  0.00     0.053 C 
ATOM     23  C   UNL A   1      32.277  18.143  21.815  1.00  0.00     0.016 C 
ATOM     24  C   UNL A   1      33.987  17.016  23.292  1.00  0.00     0.016 C 
ENDBRANCH  19  22
ENDBRANCH  14  16
ENDBRANCH  11  14
ENDBRANCH   4   7
ENDBRANCH   2   3
ENDBRANCH   1   2
BRANCH   1  25
ATOM     25  C   UNL A   1      38.198  19.788  24.815  1.00  0.00     0.023 C 
BRANCH  25  26
ATOM     26  C   UNL A   1      39.329  20.149  25.758  1.00  0.00     0.116 C 
BRANCH  26  27
ATOM     27  N   UNL A   1      40.283  19.065  25.912  1.00  0.00    -0.352 N 
ATOM     28  C   UNL A   1      41.639  19.148  26.118  1.00  0.00     0.251 C 
ATOM     29  H   UNL A   1      39.912  18.155  25.864  1.00  0.00     0.163 HD
ATOM     30  O   UNL A   1      42.344  18.153  26.046  1.00  0.00    -0.269 OA
BRANCH  28  31
ATOM     31  C   UNL A   1      42.227  20.471  26.401  1.00  0.00     0.039 A 
ATOM     32  C   UNL A   1      42.659  21.261  25.336  1.00  0.00     0.014 A 
ATOM     33  C   UNL A   1      42.299  20.941  27.715  1.00  0.00     0.014 A 
ATOM     34  C   UNL A   1      43.124  22.550  25.589  1.00  0.00     0.010 A 
ATOM     35  C   UNL A   1      42.666  22.257  27.954  1.00  0.00     0.010 A 
ATOM     36  C   UNL A   1      43.103  23.067  26.895  1.00  0.00    -0.014 A 
BRANCH  36  37
ATOM     37  C   UNL A   1      43.566  24.443  27.184  1.00  0.00     0.031 A 
ATOM     38  C   UNL A   1      42.594  25.458  27.716  1.00  0.00     0.074 A 
ATOM     39  C   UNL A   1      44.834  24.795  26.901  1.00  0.00     0.049 A 
ATOM     40  N   UNL A   1      42.777  26.729  27.969  1.00  0.00    -0.248 NA
ATOM     41  C   UNL A   1      41.219  24.991  27.959  1.00  0.00     0.031 C 
ATOM     42  C   UNL A   1      45.846  23.913  26.319  1.00  0.00     0.029 A 
ATOM     43  N   UNL A   1      45.484  25.993  27.054  1.00  0.00    -0.354 N 
ATOM     44  C   UNL A   1      41.541  27.210  28.380  1.00  0.00     0.074 A 
ATOM     45  C   UNL A   1      40.602  26.117  28.275  1.00  0.00     0.031 C 
ATOM     46  C   UNL A   1      46.995  24.594  26.180  1.00  0.00     0.029 A 
ATOM     47  C   UNL A   1      46.790  25.967  26.631  1.00  0.00     0.049 A 
ATOM     48  H   UNL A   1      45.056  26.794  27.432  1.00  0.00     0.167 HD
ATOM     49  C   UNL A   1      41.226  28.446  28.834  1.00  0.00     0.037 A 
ATOM     50  C   UNL A   1      47.713  26.947  26.602  1.00  0.00     0.037 A 
ATOM     51  C   UNL A   1      42.176  29.519  28.959  1.00  0.00     0.049 A 
ATOM     52  C   UNL A   1      47.347  28.308  27.126  1.00  0.00     0.074 A 
ATOM     53  C   UNL A   1      41.984  30.787  29.476  1.00  0.00     0.029 A 
ATOM     54  N   UNL A   1      43.503  29.447  28.556  1.00  0.00    -0.354 N 
ATOM     55  N   UNL A   1      46.198  28.732  27.597  1.00  0.00    -0.248 NA
ATOM     56  C   UNL A   1      48.406  29.324  27.129  1.00  0.00     0.031 C 
ATOM     57  C   UNL A   1      43.179  31.501  29.335  1.00  0.00     0.029 A 
ATOM     58  C   UNL A   1      44.133  30.659  28.787  1.00  0.00     0.049 A 
ATOM     59  H   UNL A   1      43.931  28.652  28.164  1.00  0.00     0.167 HD
ATOM     60  C   UNL A   1      46.401  30.054  27.970  1.00  0.00     0.074 A 
ATOM     61  C   UNL A   1      47.790  30.356  27.688  1.00  0.00     0.031 C 
ATOM     62  C   UNL A   1      45.518  30.938  28.496  1.00  0.00     0.037 A 
BRANCH  49  63
ATOM     63  C   UNL A   1      39.796  28.696  29.222  1.00  0.00     0.064 A 
ATOM     64  C   UNL A   1      38.855  29.193  28.305  1.00  0.00     0.173 A 
ATOM     65  C   UNL A   1      39.357  28.433  30.529  1.00  0.00     0.173 A 
ATOM     66  F   UNL A   1      39.224  29.474  27.046  1.00  0.00    -0.203 F 
ATOM     67  C   UNL A   1      37.545  29.460  28.693  1.00  0.00     0.198 A 
ATOM     68  C   UNL A   1      38.037  28.666  30.903  1.00  0.00     0.198 A 
ATOM     69  F   UNL A   1      40.210  27.953  31.446  1.00  0.00    -0.203 F 
ATOM     70  F   UNL A   1      36.686  30.000  27.817  1.00  0.00    -0.200 F 
ATOM     71  C   UNL A   1      37.136  29.190  29.989  1.00  0.00     0.200 A 
ATOM     72  F   UNL A   1      37.638  28.393  32.153  1.00  0.00    -0.200 F 
ATOM     73  F   UNL A   1      35.873  29.448  30.361  1.00  0.00    -0.200 F 
ENDBRANCH  49  63
BRANCH  50  74
ATOM     74  C   UNL A   1      49.074  26.660  26.078  1.00  0.00     0.064 A 
ATOM     75  C   UNL A   1      49.430  27.000  24.766  1.00  0.00     0.173 A 
ATOM     76  C   UNL A   1      50.052  26.060  26.884  1.00  0.00     0.173 A 
ATOM     77  F   UNL A   1      48.524  27.559  23.949  1.00  0.00    -0.203 F 
ATOM     78  C   UNL A   1      50.707  26.735  24.275  1.00  0.00     0.198 A 
ATOM     79  C   UNL A   1      51.337  25.823  26.403  1.00  0.00     0.198 A 
ATOM     80  F   UNL A   1      49.764  25.724  28.151  1.00  0.00    -0.203 F 
ATOM     81  F   UNL A   1      51.009  27.034  23.004  1.00  0.00    -0.200 F 
ATOM     82  C   UNL A   1      51.662  26.153  25.096  1.00  0.00     0.200 A 
ATOM     83  F   UNL A   1      52.261  25.278  27.205  1.00  0.00    -0.200 F 
ATOM     84  F   UNL A   1      52.893  25.909  24.627  1.00  0.00    -0.200 F 
ENDBRANCH  50  74
BRANCH  62  85
ATOM     85  C   UNL A   1      46.034  32.309  28.827  1.00  0.00     0.064 A 
ATOM     86  C   UNL A   1      46.604  32.601  30.075  1.00  0.00     0.173 A 
ATOM     87  C   UNL A   1      45.997  33.331  27.866  1.00  0.00     0.173 A 
ATOM     88  F   UNL A   1      46.650  31.661  31.032  1.00  0.00    -0.203 F 
ATOM     89  C   UNL A   1      47.095  33.872  30.357  1.00  0.00     0.198 A 
ATOM     90  C   UNL A   1      46.519  34.591  28.139  1.00  0.00     0.198 A 
ATOM     91  F   UNL A   1      45.469  33.101  26.654  1.00  0.00    -0.203 F 
ATOM     92  F   UNL A   1      47.592  34.142  31.572  1.00  0.00    -0.200 F 
ATOM     93  C   UNL A   1      47.061  34.863  29.387  1.00  0.00     0.200 A 
ATOM     94  F   UNL A   1      46.500  35.543  27.196  1.00  0.00    -0.200 F 
ATOM     95  F   UNL A   1      47.543  36.084  29.657  1.00  0.00    -0.200 F 
ENDBRANCH  62  85
ENDBRANCH  36  37
ENDBRANCH  28  31
ENDBRANCH  26  27
ENDBRANCH  25  26
ENDBRANCH   1  25
TORSDOF 15
ENDMDL
