MODEL 1
REMARK VINA RESULT:     -13.3      0.000      0.000
REMARK SMILES N#Cc1cccc(C(=O)N2CCC(CC(=O)NCCCCNC(=O)c3ccc(-c4c5nc(c(-c6c(F)c(F)c(F)c(F)c6F)c6ccc([nH]6)c(-c6c(F)c(F)c(F)c(F)c6F)c6nc(c(-c7c(F)c(F)c(F)c(F)c7F)c7ccc4[nH]7)C=C6)C=C5)cc3)CC2)c1
REMARK SMILES IDX 19 1 18 2 17 3 15 4 16 5 14 7 13 8 8 9 9 10 10 11 11 12
REMARK SMILES IDX 89 13 12 14 88 15 7 16 3 17 4 18 90 19 5 20 6 21 2 22 1 23
REMARK SMILES IDX 20 24 21 25 22 26 23 27 24 29 25 30 26 31 87 32 27 33 86 34
REMARK SMILES IDX 28 35 29 36 30 37 80 38 31 39 85 40 79 41 81 42 32 43 84 44
REMARK SMILES IDX 78 45 77 46 33 48 65 49 45 50 64 51 46 52 49 53 63 54 82 55
REMARK SMILES IDX 47 56 48 57 62 59 83 60 50 61 34 62 35 63 43 64 36 65 37 66
REMARK SMILES IDX 41 67 44 68 38 69 39 70 42 71 40 72 66 73 67 74 75 75 68 76
REMARK SMILES IDX 69 77 73 78 76 79 70 80 71 81 74 82 72 83 51 84 52 85 60 86
REMARK SMILES IDX 53 87 54 88 58 89 61 90 55 91 56 92 59 93 57 94
REMARK H PARENT 17 6 22 28 81 47 49 58
REMARK Flexibility Score: inf
ROOT
ATOM      1  C   UNL A   1      31.942  30.497  26.701  1.00  0.00     0.023 C 
ENDROOT
BRANCH   1   2
ATOM      2  C   UNL A   1      32.033  29.998  25.247  1.00  0.00     0.116 C 
BRANCH   2   3
ATOM      3  N   UNL A   1      30.764  30.117  24.544  1.00  0.00    -0.356 N 
ATOM      4  C   UNL A   1      30.259  29.451  23.463  1.00  0.00     0.220 C 
ATOM      5  O   UNL A   1      29.140  29.783  23.065  1.00  0.00    -0.275 OA
ATOM      6  H   UNL A   1      30.160  30.800  24.915  1.00  0.00     0.163 HD
BRANCH   4   7
ATOM      7  C   UNL A   1      31.032  28.333  22.755  1.00  0.00     0.103 C 
BRANCH   7   8
ATOM      8  C   UNL A   1      31.584  27.221  23.683  1.00  0.00     0.002 C 
ATOM      9  C   UNL A   1      33.597  23.710  22.975  1.00  0.00     0.253 C 
ATOM     10  O   UNL A   1      33.582  23.740  21.751  1.00  0.00    -0.269 OA
ATOM     11  N   UNL A   1      32.978  24.660  23.763  1.00  0.00    -0.339 N 
ATOM     12  C   UNL A   1      31.548  24.638  23.873  1.00  0.00     0.120 C 
ATOM     13  C   UNL A   1      33.657  25.839  24.276  1.00  0.00     0.120 C 
ATOM     14  C   UNL A   1      30.978  25.893  23.277  1.00  0.00     0.026 C 
ATOM     15  C   UNL A   1      33.121  27.132  23.646  1.00  0.00     0.026 C 
BRANCH   9  16
ATOM     16  C   UNL A   1      34.134  22.535  23.724  1.00  0.00     0.041 A 
ATOM     17  C   UNL A   1      33.802  20.347  24.725  1.00  0.00     0.053 A 
ATOM     18  C   UNL A   1      35.164  20.282  25.028  1.00  0.00     0.019 A 
ATOM     19  C   UNL A   1      33.293  21.471  24.076  1.00  0.00     0.033 A 
ATOM     20  C   UNL A   1      36.010  21.338  24.676  1.00  0.00     0.002 A 
ATOM     21  C   UNL A   1      35.498  22.463  24.024  1.00  0.00     0.014 A 
BRANCH  17  22
ATOM     22  C   UNL A   1      32.916  19.272  25.052  1.00  0.00     0.099 C 
ATOM     23  N   UNL A   1      32.228  18.372  25.318  1.00  0.00    -0.192 NA
ENDBRANCH  17  22
ENDBRANCH   9  16
ENDBRANCH   7   8
ENDBRANCH   4   7
ENDBRANCH   2   3
ENDBRANCH   1   2
BRANCH   1  24
ATOM     24  C   UNL A   1      31.618  31.964  26.878  1.00  0.00     0.023 C 
BRANCH  24  25
ATOM     25  C   UNL A   1      32.788  32.762  27.389  1.00  0.00     0.116 C 
BRANCH  25  26
ATOM     26  N   UNL A   1      32.450  34.154  27.668  1.00  0.00    -0.352 N 
ATOM     27  C   UNL A   1      32.992  34.978  28.623  1.00  0.00     0.251 C 
ATOM     28  H   UNL A   1      31.746  34.549  27.103  1.00  0.00     0.163 HD
ATOM     29  O   UNL A   1      32.513  36.079  28.864  1.00  0.00    -0.269 OA
BRANCH  27  30
ATOM     30  C   UNL A   1      34.150  34.475  29.381  1.00  0.00     0.039 A 
ATOM     31  C   UNL A   1      33.933  33.721  30.533  1.00  0.00     0.014 A 
ATOM     32  C   UNL A   1      35.435  34.640  28.860  1.00  0.00     0.014 A 
ATOM     33  C   UNL A   1      35.013  33.073  31.125  1.00  0.00     0.010 A 
ATOM     34  C   UNL A   1      36.471  33.872  29.359  1.00  0.00     0.010 A 
ATOM     35  C   UNL A   1      36.280  33.106  30.515  1.00  0.00    -0.014 A 
BRANCH  35  36
ATOM     36  C   UNL A   1      37.433  32.380  31.096  1.00  0.00     0.031 A 
ATOM     37  C   UNL A   1      37.921  32.748  32.471  1.00  0.00     0.074 A 
ATOM     38  C   UNL A   1      38.061  31.433  30.375  1.00  0.00     0.049 A 
ATOM     39  N   UNL A   1      38.928  32.260  33.149  1.00  0.00    -0.248 NA
ATOM     40  C   UNL A   1      37.205  33.832  33.166  1.00  0.00     0.031 C 
ATOM     41  C   UNL A   1      37.713  31.035  29.010  1.00  0.00     0.029 A 
ATOM     42  N   UNL A   1      39.125  30.628  30.693  1.00  0.00    -0.354 N 
ATOM     43  C   UNL A   1      38.965  32.981  34.334  1.00  0.00     0.074 A 
ATOM     44  C   UNL A   1      37.942  33.995  34.251  1.00  0.00     0.031 C 
ATOM     45  C   UNL A   1      38.515  30.030  28.626  1.00  0.00     0.029 A 
ATOM     46  C   UNL A   1      39.467  29.748  29.696  1.00  0.00     0.049 A 
ATOM     47  H   UNL A   1      39.598  30.676  31.555  1.00  0.00     0.167 HD
ATOM     48  C   UNL A   1      39.757  32.788  35.413  1.00  0.00     0.037 A 
ATOM     49  C   UNL A   1      40.444  28.823  29.651  1.00  0.00     0.037 A 
ATOM     50  C   UNL A   1      40.763  31.764  35.492  1.00  0.00     0.049 A 
ATOM     51  C   UNL A   1      41.333  28.651  30.855  1.00  0.00     0.074 A 
ATOM     52  C   UNL A   1      41.592  31.451  36.553  1.00  0.00     0.029 A 
ATOM     53  N   UNL A   1      41.084  30.894  34.460  1.00  0.00    -0.354 N 
ATOM     54  N   UNL A   1      41.312  29.287  32.001  1.00  0.00    -0.248 NA
ATOM     55  C   UNL A   1      42.377  27.621  30.761  1.00  0.00     0.031 C 
ATOM     56  C   UNL A   1      42.464  30.441  36.140  1.00  0.00     0.029 A 
ATOM     57  C   UNL A   1      42.121  30.062  34.851  1.00  0.00     0.049 A 
ATOM     58  H   UNL A   1      40.640  30.869  33.582  1.00  0.00     0.167 HD
ATOM     59  C   UNL A   1      42.308  28.710  32.778  1.00  0.00     0.074 A 
ATOM     60  C   UNL A   1      42.904  27.662  31.975  1.00  0.00     0.031 C 
ATOM     61  C   UNL A   1      42.693  29.016  34.042  1.00  0.00     0.037 A 
BRANCH  48  62
ATOM     62  C   UNL A   1      39.567  33.704  36.589  1.00  0.00     0.064 A 
ATOM     63  C   UNL A   1      38.775  33.343  37.691  1.00  0.00     0.173 A 
ATOM     64  C   UNL A   1      40.205  34.953  36.626  1.00  0.00     0.173 A 
ATOM     65  F   UNL A   1      38.128  32.167  37.702  1.00  0.00    -0.203 F 
ATOM     66  C   UNL A   1      38.602  34.209  38.766  1.00  0.00     0.198 A 
ATOM     67  C   UNL A   1      40.063  35.800  37.722  1.00  0.00     0.198 A 
ATOM     68  F   UNL A   1      40.974  35.351  35.601  1.00  0.00    -0.203 F 
ATOM     69  F   UNL A   1      37.791  33.866  39.777  1.00  0.00    -0.200 F 
ATOM     70  C   UNL A   1      39.254  35.432  38.786  1.00  0.00     0.200 A 
ATOM     71  F   UNL A   1      40.708  36.975  37.746  1.00  0.00    -0.200 F 
ATOM     72  F   UNL A   1      39.097  36.260  39.827  1.00  0.00    -0.200 F 
ENDBRANCH  48  62
BRANCH  49  73
ATOM     73  C   UNL A   1      40.621  27.977  28.440  1.00  0.00     0.064 A 
ATOM     74  C   UNL A   1      41.394  28.416  27.355  1.00  0.00     0.173 A 
ATOM     75  C   UNL A   1      40.008  26.721  28.334  1.00  0.00     0.173 A 
ATOM     76  F   UNL A   1      41.991  29.616  27.401  1.00  0.00    -0.203 F 
ATOM     77  C   UNL A   1      41.515  27.649  26.198  1.00  0.00     0.198 A 
ATOM     78  C   UNL A   1      40.161  25.937  27.192  1.00  0.00     0.198 A 
ATOM     79  F   UNL A   1      39.266  26.246  29.345  1.00  0.00    -0.203 F 
ATOM     80  F   UNL A   1      42.207  28.122  25.154  1.00  0.00    -0.200 F 
ATOM     81  C   UNL A   1      40.903  26.407  26.119  1.00  0.00     0.200 A 
ATOM     82  F   UNL A   1      39.584  24.729  27.129  1.00  0.00    -0.200 F 
ATOM     83  F   UNL A   1      41.020  25.669  25.008  1.00  0.00    -0.200 F 
ENDBRANCH  49  73
BRANCH  61  84
ATOM     84  C   UNL A   1      43.768  28.167  34.662  1.00  0.00     0.064 A 
ATOM     85  C   UNL A   1      45.115  28.559  34.674  1.00  0.00     0.173 A 
ATOM     86  C   UNL A   1      43.433  26.957  35.289  1.00  0.00     0.173 A 
ATOM     87  F   UNL A   1      45.492  29.702  34.080  1.00  0.00    -0.203 F 
ATOM     88  C   UNL A   1      46.089  27.751  35.252  1.00  0.00     0.198 A 
ATOM     89  C   UNL A   1      44.403  26.174  35.905  1.00  0.00     0.198 A 
ATOM     90  F   UNL A   1      42.158  26.539  35.318  1.00  0.00    -0.203 F 
ATOM     91  F   UNL A   1      47.379  28.113  35.192  1.00  0.00    -0.200 F 
ATOM     92  C   UNL A   1      45.732  26.565  35.875  1.00  0.00     0.200 A 
ATOM     93  F   UNL A   1      44.051  25.039  36.527  1.00  0.00    -0.200 F 
ATOM     94  F   UNL A   1      46.672  25.793  36.440  1.00  0.00    -0.200 F 
ENDBRANCH  61  84
ENDBRANCH  35  36
ENDBRANCH  27  30
ENDBRANCH  25  26
ENDBRANCH  24  25
ENDBRANCH   1  24
TORSDOF 14
ENDMDL
MODEL 2
REMARK VINA RESULT:     -13.2      4.593      7.863
REMARK SMILES N#Cc1cccc(C(=O)N2CCC(CC(=O)NCCCCNC(=O)c3ccc(-c4c5nc(c(-c6c(F)c(F)c(F)c(F)c6F)c6ccc([nH]6)c(-c6c(F)c(F)c(F)c(F)c6F)c6nc(c(-c7c(F)c(F)c(F)c(F)c7F)c7ccc4[nH]7)C=C6)C=C5)cc3)CC2)c1
REMARK SMILES IDX 19 1 18 2 17 3 15 4 16 5 14 7 13 8 8 9 9 10 10 11 11 12
REMARK SMILES IDX 89 13 12 14 88 15 7 16 3 17 4 18 90 19 5 20 6 21 2 22 1 23
REMARK SMILES IDX 20 24 21 25 22 26 23 27 24 29 25 30 26 31 87 32 27 33 86 34
REMARK SMILES IDX 28 35 29 36 30 37 80 38 31 39 85 40 79 41 81 42 32 43 84 44
REMARK SMILES IDX 78 45 77 46 33 48 65 49 45 50 64 51 46 52 49 53 63 54 82 55
REMARK SMILES IDX 47 56 48 57 62 59 83 60 50 61 34 62 35 63 43 64 36 65 37 66
REMARK SMILES IDX 41 67 44 68 38 69 39 70 42 71 40 72 66 73 67 74 75 75 68 76
REMARK SMILES IDX 69 77 73 78 76 79 70 80 71 81 74 82 72 83 51 84 52 85 60 86
REMARK SMILES IDX 53 87 54 88 58 89 61 90 55 91 56 92 59 93 57 94
REMARK H PARENT 17 6 22 28 81 47 49 58
REMARK Flexibility Score: inf
ROOT
ATOM      1  C   UNL A   1      33.952  35.081  29.165  1.00  0.00     0.023 C 
ENDROOT
BRANCH   1   2
ATOM      2  C   UNL A   1      33.068  35.346  30.396  1.00  0.00     0.116 C 
BRANCH   2   3
ATOM      3  N   UNL A   1      33.433  36.578  31.081  1.00  0.00    -0.356 N 
ATOM      4  C   UNL A   1      34.002  36.802  32.303  1.00  0.00     0.220 C 
ATOM      5  O   UNL A   1      34.182  37.976  32.637  1.00  0.00    -0.275 OA
ATOM      6  H   UNL A   1      33.234  37.396  30.572  1.00  0.00     0.163 HD
BRANCH   4   7
ATOM      7  C   UNL A   1      34.410  35.659  33.240  1.00  0.00     0.103 C 
BRANCH   7   8
ATOM      8  C   UNL A   1      35.189  34.500  32.568  1.00  0.00     0.002 C 
ATOM      9  C   UNL A   1      37.477  31.423  34.043  1.00  0.00     0.253 C 
ATOM     10  O   UNL A   1      37.438  31.725  35.229  1.00  0.00    -0.269 OA
ATOM     11  N   UNL A   1      36.899  32.187  33.048  1.00  0.00    -0.339 N 
ATOM     12  C   UNL A   1      37.538  33.413  32.661  1.00  0.00     0.120 C 
ATOM     13  C   UNL A   1      35.551  31.965  32.552  1.00  0.00     0.120 C 
ATOM     14  C   UNL A   1      36.642  34.572  32.991  1.00  0.00     0.026 C 
ATOM     15  C   UNL A   1      34.605  33.119  32.917  1.00  0.00     0.026 C 
BRANCH   9  16
ATOM     16  C   UNL A   1      38.317  30.292  33.549  1.00  0.00     0.041 A 
ATOM     17  C   UNL A   1      40.470  29.178  33.399  1.00  0.00     0.053 A 
ATOM     18  C   UNL A   1      39.870  28.115  32.722  1.00  0.00     0.019 A 
ATOM     19  C   UNL A   1      39.693  30.261  33.809  1.00  0.00     0.033 A 
ATOM     20  C   UNL A   1      38.496  28.136  32.462  1.00  0.00     0.002 A 
ATOM     21  C   UNL A   1      37.719  29.222  32.876  1.00  0.00     0.014 A 
BRANCH  17  22
ATOM     22  C   UNL A   1      41.869  29.173  33.699  1.00  0.00     0.099 C 
ATOM     23  N   UNL A   1      43.015  29.166  33.902  1.00  0.00    -0.192 NA
ENDBRANCH  17  22
ENDBRANCH   9  16
ENDBRANCH   7   8
ENDBRANCH   4   7
ENDBRANCH   2   3
ENDBRANCH   1   2
BRANCH   1  24
ATOM     24  C   UNL A   1      34.955  33.957  29.298  1.00  0.00     0.023 C 
BRANCH  24  25
ATOM     25  C   UNL A   1      35.083  33.137  28.042  1.00  0.00     0.116 C 
BRANCH  25  26
ATOM     26  N   UNL A   1      34.032  32.134  27.908  1.00  0.00    -0.352 N 
ATOM     27  C   UNL A   1      34.171  30.768  27.871  1.00  0.00     0.251 C 
ATOM     28  H   UNL A   1      33.113  32.478  27.832  1.00  0.00     0.163 HD
ATOM     29  O   UNL A   1      33.229  30.037  27.594  1.00  0.00    -0.269 OA
BRANCH  27  30
ATOM     30  C   UNL A   1      35.508  30.210  28.135  1.00  0.00     0.039 A 
ATOM     31  C   UNL A   1      36.411  30.079  27.082  1.00  0.00     0.014 A 
ATOM     32  C   UNL A   1      35.897  29.955  29.452  1.00  0.00     0.014 A 
ATOM     33  C   UNL A   1      37.734  29.753  27.367  1.00  0.00     0.010 A 
ATOM     34  C   UNL A   1      37.238  29.787  29.741  1.00  0.00     0.010 A 
ATOM     35  C   UNL A   1      38.166  29.652  28.701  1.00  0.00    -0.014 A 
BRANCH  35  36
ATOM     36  C   UNL A   1      39.580  29.360  29.032  1.00  0.00     0.031 A 
ATOM     37  C   UNL A   1      40.385  30.377  29.795  1.00  0.00     0.074 A 
ATOM     38  C   UNL A   1      40.145  28.213  28.611  1.00  0.00     0.049 A 
ATOM     39  N   UNL A   1      41.641  30.333  30.159  1.00  0.00    -0.248 NA
ATOM     40  C   UNL A   1      39.700  31.627  30.170  1.00  0.00     0.031 C 
ATOM     41  C   UNL A   1      39.478  27.182  27.814  1.00  0.00     0.029 A 
ATOM     42  N   UNL A   1      41.410  27.720  28.799  1.00  0.00    -0.354 N 
ATOM     43  C   UNL A   1      41.889  31.543  30.792  1.00  0.00     0.074 A 
ATOM     44  C   UNL A   1      40.687  32.336  30.689  1.00  0.00     0.031 C 
ATOM     45  C   UNL A   1      40.324  26.158  27.623  1.00  0.00     0.029 A 
ATOM     46  C   UNL A   1      41.608  26.483  28.237  1.00  0.00     0.049 A 
ATOM     47  H   UNL A   1      42.111  28.207  29.289  1.00  0.00     0.167 HD
ATOM     48  C   UNL A   1      43.008  31.942  31.439  1.00  0.00     0.037 A 
ATOM     49  C   UNL A   1      42.705  25.704  28.216  1.00  0.00     0.037 A 
ATOM     50  C   UNL A   1      44.195  31.139  31.549  1.00  0.00     0.049 A 
ATOM     51  C   UNL A   1      43.949  26.186  28.916  1.00  0.00     0.074 A 
ATOM     52  C   UNL A   1      45.370  31.425  32.218  1.00  0.00     0.029 A 
ATOM     53  N   UNL A   1      44.359  29.891  30.964  1.00  0.00    -0.354 N 
ATOM     54  N   UNL A   1      44.151  27.300  29.578  1.00  0.00    -0.248 NA
ATOM     55  C   UNL A   1      45.116  25.294  28.875  1.00  0.00     0.031 C 
ATOM     56  C   UNL A   1      46.273  30.386  31.978  1.00  0.00     0.029 A 
ATOM     57  C   UNL A   1      45.630  29.409  31.232  1.00  0.00     0.049 A 
ATOM     58  H   UNL A   1      43.676  29.419  30.438  1.00  0.00     0.167 HD
ATOM     59  C   UNL A   1      45.449  27.226  30.065  1.00  0.00     0.074 A 
ATOM     60  C   UNL A   1      45.981  25.950  29.633  1.00  0.00     0.031 C 
ATOM     61  C   UNL A   1      46.138  28.131  30.805  1.00  0.00     0.037 A 
BRANCH  48  62
ATOM     62  C   UNL A   1      42.999  33.306  32.069  1.00  0.00     0.064 A 
ATOM     63  C   UNL A   1      43.371  34.456  31.354  1.00  0.00     0.173 A 
ATOM     64  C   UNL A   1      42.589  33.470  33.400  1.00  0.00     0.173 A 
ATOM     65  F   UNL A   1      43.787  34.356  30.082  1.00  0.00    -0.203 F 
ATOM     66  C   UNL A   1      43.366  35.710  31.957  1.00  0.00     0.198 A 
ATOM     67  C   UNL A   1      42.547  34.731  33.989  1.00  0.00     0.198 A 
ATOM     68  F   UNL A   1      42.223  32.407  34.132  1.00  0.00    -0.203 F 
ATOM     69  F   UNL A   1      43.786  36.783  31.272  1.00  0.00    -0.200 F 
ATOM     70  C   UNL A   1      42.945  35.848  33.270  1.00  0.00     0.200 A 
ATOM     71  F   UNL A   1      42.123  34.865  35.253  1.00  0.00    -0.200 F 
ATOM     72  F   UNL A   1      42.929  37.058  33.847  1.00  0.00    -0.200 F 
ENDBRANCH  48  62
BRANCH  49  73
ATOM     73  C   UNL A   1      42.675  24.383  27.532  1.00  0.00     0.064 A 
ATOM     74  C   UNL A   1      43.035  24.256  26.183  1.00  0.00     0.173 A 
ATOM     75  C   UNL A   1      42.268  23.223  28.206  1.00  0.00     0.173 A 
ATOM     76  F   UNL A   1      43.419  25.338  25.488  1.00  0.00    -0.203 F 
ATOM     77  C   UNL A   1      42.954  23.030  25.526  1.00  0.00     0.198 A 
ATOM     78  C   UNL A   1      42.223  21.989  27.559  1.00  0.00     0.198 A 
ATOM     79  F   UNL A   1      41.921  23.283  29.501  1.00  0.00    -0.203 F 
ATOM     80  F   UNL A   1      43.244  22.953  24.220  1.00  0.00    -0.200 F 
ATOM     81  C   UNL A   1      42.553  21.896  26.215  1.00  0.00     0.200 A 
ATOM     82  F   UNL A   1      41.855  20.894  28.235  1.00  0.00    -0.200 F 
ATOM     83  F   UNL A   1      42.475  20.718  25.584  1.00  0.00    -0.200 F 
ENDBRANCH  49  73
BRANCH  61  84
ATOM     84  C   UNL A   1      47.522  27.747  31.251  1.00  0.00     0.064 A 
ATOM     85  C   UNL A   1      47.756  27.064  32.454  1.00  0.00     0.173 A 
ATOM     86  C   UNL A   1      48.628  28.037  30.437  1.00  0.00     0.173 A 
ATOM     87  F   UNL A   1      46.735  26.770  33.274  1.00  0.00    -0.203 F 
ATOM     88  C   UNL A   1      49.048  26.724  32.843  1.00  0.00     0.198 A 
ATOM     89  C   UNL A   1      49.913  27.656  30.809  1.00  0.00     0.198 A 
ATOM     90  F   UNL A   1      48.461  28.678  29.270  1.00  0.00    -0.203 F 
ATOM     91  F   UNL A   1      49.255  26.132  34.028  1.00  0.00    -0.200 F 
ATOM     92  C   UNL A   1      50.124  27.012  32.017  1.00  0.00     0.200 A 
ATOM     93  F   UNL A   1      50.948  27.915  29.997  1.00  0.00    -0.200 F 
ATOM     94  F   UNL A   1      51.367  26.676  32.390  1.00  0.00    -0.200 F 
ENDBRANCH  61  84
ENDBRANCH  35  36
ENDBRANCH  27  30
ENDBRANCH  25  26
ENDBRANCH  24  25
ENDBRANCH   1  24
TORSDOF 14
ENDMDL
MODEL 3
REMARK VINA RESULT:     -13.1      0.628      7.396
REMARK SMILES N#Cc1cccc(C(=O)N2CCC(CC(=O)NCCCCNC(=O)c3ccc(-c4c5nc(c(-c6c(F)c(F)c(F)c(F)c6F)c6ccc([nH]6)c(-c6c(F)c(F)c(F)c(F)c6F)c6nc(c(-c7c(F)c(F)c(F)c(F)c7F)c7ccc4[nH]7)C=C6)C=C5)cc3)CC2)c1
REMARK SMILES IDX 19 1 18 2 17 3 15 4 16 5 14 7 13 8 8 9 9 10 10 11 11 12
REMARK SMILES IDX 89 13 12 14 88 15 7 16 3 17 4 18 90 19 5 20 6 21 2 22 1 23
REMARK SMILES IDX 20 24 21 25 22 26 23 27 24 29 25 30 26 31 87 32 27 33 86 34
REMARK SMILES IDX 28 35 29 36 30 37 80 38 31 39 85 40 79 41 81 42 32 43 84 44
REMARK SMILES IDX 78 45 77 46 33 48 65 49 45 50 64 51 46 52 49 53 63 54 82 55
REMARK SMILES IDX 47 56 48 57 62 59 83 60 50 61 34 62 35 63 43 64 36 65 37 66
REMARK SMILES IDX 41 67 44 68 38 69 39 70 42 71 40 72 66 73 67 74 75 75 68 76
REMARK SMILES IDX 69 77 73 78 76 79 70 80 71 81 74 82 72 83 51 84 52 85 60 86
REMARK SMILES IDX 53 87 54 88 58 89 61 90 55 91 56 92 59 93 57 94
REMARK H PARENT 17 6 22 28 81 47 49 58
REMARK Flexibility Score: inf
ROOT
ATOM      1  C   UNL A   1      32.164  30.465  26.797  1.00  0.00     0.023 C 
ENDROOT
BRANCH   1   2
ATOM      2  C   UNL A   1      32.278  29.925  25.360  1.00  0.00     0.116 C 
BRANCH   2   3
ATOM      3  N   UNL A   1      31.018  30.017  24.636  1.00  0.00    -0.356 N 
ATOM      4  C   UNL A   1      30.550  29.347  23.541  1.00  0.00     0.220 C 
ATOM      5  O   UNL A   1      29.429  29.654  23.126  1.00  0.00    -0.275 OA
ATOM      6  H   UNL A   1      30.391  30.682  25.001  1.00  0.00     0.163 HD
BRANCH   4   7
ATOM      7  C   UNL A   1      31.363  28.254  22.839  1.00  0.00     0.103 C 
BRANCH   7   8
ATOM      8  C   UNL A   1      31.879  27.120  23.760  1.00  0.00     0.002 C 
ATOM      9  C   UNL A   1      33.677  23.500  23.024  1.00  0.00     0.253 C 
ATOM     10  O   UNL A   1      33.629  23.523  21.800  1.00  0.00    -0.269 OA
ATOM     11  N   UNL A   1      33.133  24.487  23.821  1.00  0.00    -0.339 N 
ATOM     12  C   UNL A   1      31.707  24.544  23.972  1.00  0.00     0.120 C 
ATOM     13  C   UNL A   1      33.889  25.630  24.306  1.00  0.00     0.120 C 
ATOM     14  C   UNL A   1      31.190  25.825  23.381  1.00  0.00     0.026 C 
ATOM     15  C   UNL A   1      33.407  26.947  23.681  1.00  0.00     0.026 C 
BRANCH   9  16
ATOM     16  C   UNL A   1      34.169  22.302  23.768  1.00  0.00     0.041 A 
ATOM     17  C   UNL A   1      33.782  20.083  24.676  1.00  0.00     0.053 A 
ATOM     18  C   UNL A   1      35.123  20.009  25.060  1.00  0.00     0.019 A 
ATOM     19  C   UNL A   1      33.311  21.227  24.033  1.00  0.00     0.033 A 
ATOM     20  C   UNL A   1      35.986  21.076  24.795  1.00  0.00     0.002 A 
ATOM     21  C   UNL A   1      35.513  22.221  24.148  1.00  0.00     0.014 A 
BRANCH  17  22
ATOM     22  C   UNL A   1      32.881  18.997  24.914  1.00  0.00     0.099 C 
ATOM     23  N   UNL A   1      32.130  18.123  25.071  1.00  0.00    -0.192 NA
ENDBRANCH  17  22
ENDBRANCH   9  16
ENDBRANCH   7   8
ENDBRANCH   4   7
ENDBRANCH   2   3
ENDBRANCH   1   2
BRANCH   1  24
ATOM     24  C   UNL A   1      31.793  31.925  26.929  1.00  0.00     0.023 C 
BRANCH  24  25
ATOM     25  C   UNL A   1      32.909  32.761  27.496  1.00  0.00     0.116 C 
BRANCH  25  26
ATOM     26  N   UNL A   1      32.539  34.161  27.672  1.00  0.00    -0.352 N 
ATOM     27  C   UNL A   1      33.027  35.052  28.597  1.00  0.00     0.251 C 
ATOM     28  H   UNL A   1      31.855  34.509  27.055  1.00  0.00     0.163 HD
ATOM     29  O   UNL A   1      32.522  36.157  28.748  1.00  0.00    -0.269 OA
BRANCH  27  30
ATOM     30  C   UNL A   1      34.157  34.617  29.434  1.00  0.00     0.039 A 
ATOM     31  C   UNL A   1      33.902  34.056  30.684  1.00  0.00     0.014 A 
ATOM     32  C   UNL A   1      35.451  34.642  28.907  1.00  0.00     0.014 A 
ATOM     33  C   UNL A   1      34.949  33.456  31.378  1.00  0.00     0.010 A 
ATOM     34  C   UNL A   1      36.448  33.912  29.527  1.00  0.00     0.010 A 
ATOM     35  C   UNL A   1      36.217  33.339  30.783  1.00  0.00    -0.014 A 
BRANCH  35  36
ATOM     36  C   UNL A   1      37.333  32.657  31.478  1.00  0.00     0.031 A 
ATOM     37  C   UNL A   1      38.030  31.507  30.804  1.00  0.00     0.074 A 
ATOM     38  C   UNL A   1      37.684  33.040  32.720  1.00  0.00     0.049 A 
ATOM     39  N   UNL A   1      39.007  30.757  31.248  1.00  0.00    -0.248 NA
ATOM     40  C   UNL A   1      37.546  31.123  29.467  1.00  0.00     0.031 C 
ATOM     41  C   UNL A   1      37.040  34.103  33.494  1.00  0.00     0.029 A 
ATOM     42  N   UNL A   1      38.674  32.580  33.550  1.00  0.00    -0.354 N 
ATOM     43  C   UNL A   1      39.240  29.819  30.252  1.00  0.00     0.074 A 
ATOM     44  C   UNL A   1      38.252  30.033  29.221  1.00  0.00     0.031 C 
ATOM     45  C   UNL A   1      37.681  34.246  34.664  1.00  0.00     0.029 A 
ATOM     46  C   UNL A   1      38.746  33.251  34.746  1.00  0.00     0.049 A 
ATOM     47  H   UNL A   1      39.276  31.838  33.311  1.00  0.00     0.167 HD
ATOM     48  C   UNL A   1      40.217  28.886  30.185  1.00  0.00     0.037 A 
ATOM     49  C   UNL A   1      39.576  33.076  35.791  1.00  0.00     0.037 A 
ATOM     50  C   UNL A   1      41.205  28.690  31.211  1.00  0.00     0.049 A 
ATOM     51  C   UNL A   1      40.635  32.009  35.704  1.00  0.00     0.074 A 
ATOM     52  C   UNL A   1      42.267  27.805  31.227  1.00  0.00     0.029 A 
ATOM     53  N   UNL A   1      41.245  29.388  32.410  1.00  0.00    -0.354 N 
ATOM     54  N   UNL A   1      40.896  31.176  34.725  1.00  0.00    -0.248 NA
ATOM     55  C   UNL A   1      41.523  31.866  36.865  1.00  0.00     0.031 C 
ATOM     56  C   UNL A   1      42.905  27.914  32.465  1.00  0.00     0.029 A 
ATOM     57  C   UNL A   1      42.296  28.929  33.187  1.00  0.00     0.049 A 
ATOM     58  H   UNL A   1      40.620  30.101  32.670  1.00  0.00     0.167 HD
ATOM     59  C   UNL A   1      42.000  30.439  35.134  1.00  0.00     0.074 A 
ATOM     60  C   UNL A   1      42.367  30.936  36.444  1.00  0.00     0.031 C 
ATOM     61  C   UNL A   1      42.654  29.444  34.484  1.00  0.00     0.037 A 
BRANCH  48  62
ATOM     62  C   UNL A   1      40.259  28.008  28.967  1.00  0.00     0.064 A 
ATOM     63  C   UNL A   1      40.980  28.369  27.817  1.00  0.00     0.173 A 
ATOM     64  C   UNL A   1      39.588  26.776  28.956  1.00  0.00     0.173 A 
ATOM     65  F   UNL A   1      41.627  29.543  27.765  1.00  0.00    -0.203 F 
ATOM     66  C   UNL A   1      40.999  27.548  26.694  1.00  0.00     0.198 A 
ATOM     67  C   UNL A   1      39.643  25.938  27.846  1.00  0.00     0.198 A 
ATOM     68  F   UNL A   1      38.883  26.380  30.027  1.00  0.00    -0.203 F 
ATOM     69  F   UNL A   1      41.643  27.943  25.587  1.00  0.00    -0.200 F 
ATOM     70  C   UNL A   1      40.339  26.328  26.713  1.00  0.00     0.200 A 
ATOM     71  F   UNL A   1      39.018  24.752  27.872  1.00  0.00    -0.200 F 
ATOM     72  F   UNL A   1      40.368  25.533  25.635  1.00  0.00    -0.200 F 
ENDBRANCH  48  62
BRANCH  49  73
ATOM     73  C   UNL A   1      39.457  33.941  36.996  1.00  0.00     0.064 A 
ATOM     74  C   UNL A   1      38.756  33.510  38.131  1.00  0.00     0.173 A 
ATOM     75  C   UNL A   1      40.025  35.223  37.032  1.00  0.00     0.173 A 
ATOM     76  F   UNL A   1      38.182  32.297  38.143  1.00  0.00    -0.203 F 
ATOM     77  C   UNL A   1      38.596  34.340  39.240  1.00  0.00     0.198 A 
ATOM     78  C   UNL A   1      39.898  36.037  38.155  1.00  0.00     0.198 A 
ATOM     79  F   UNL A   1      40.715  35.683  35.978  1.00  0.00    -0.203 F 
ATOM     80  F   UNL A   1      37.868  33.924  40.284  1.00  0.00    -0.200 F 
ATOM     81  C   UNL A   1      39.171  35.601  39.253  1.00  0.00     0.200 A 
ATOM     82  F   UNL A   1      40.473  37.247  38.171  1.00  0.00    -0.200 F 
ATOM     83  F   UNL A   1      39.019  36.398  40.318  1.00  0.00    -0.200 F 
ENDBRANCH  49  73
BRANCH  61  84
ATOM     84  C   UNL A   1      43.873  28.868  35.149  1.00  0.00     0.064 A 
ATOM     85  C   UNL A   1      45.158  29.388  34.933  1.00  0.00     0.173 A 
ATOM     86  C   UNL A   1      43.742  27.799  36.050  1.00  0.00     0.173 A 
ATOM     87  F   UNL A   1      45.340  30.404  34.075  1.00  0.00    -0.203 F 
ATOM     88  C   UNL A   1      46.269  28.832  35.561  1.00  0.00     0.198 A 
ATOM     89  C   UNL A   1      44.850  27.276  36.709  1.00  0.00     0.198 A 
ATOM     90  F   UNL A   1      42.535  27.271  36.304  1.00  0.00    -0.203 F 
ATOM     91  F   UNL A   1      47.494  29.302  35.287  1.00  0.00    -0.200 F 
ATOM     92  C   UNL A   1      46.113  27.784  36.455  1.00  0.00     0.200 A 
ATOM     93  F   UNL A   1      44.693  26.277  37.590  1.00  0.00    -0.200 F 
ATOM     94  F   UNL A   1      47.184  27.256  37.065  1.00  0.00    -0.200 F 
ENDBRANCH  61  84
ENDBRANCH  35  36
ENDBRANCH  27  30
ENDBRANCH  25  26
ENDBRANCH  24  25
ENDBRANCH   1  24
TORSDOF 14
ENDMDL
