MODEL 1
REMARK VINA RESULT:     -12.5      0.000      0.000
REMARK SMILES COc1ccc(C(=O)N[C@@H](C(=O)NCCCCNC(=O)c2ccc(-c3c4nc(c(-c5c(F)c(F)c(F)c(F)c5F)c5ccc([nH]5)c(-c5c(F)c(F)c(F)c(F)c5F)c5nc(c(-c6c(F)c(F)c(F)c(F)c6F)c6ccc3[nH]6)C=C5)C=C4)cc2)C(C)C)cc1O
REMARK SMILES IDX 15 1 14 2 13 3 11 4 12 5 10 7 9 8 7 9 8 10 6 12 3 13 4 14
REMARK SMILES IDX 88 15 5 16 87 17 2 18 1 19 89 20 84 22 85 23 86 24 16 25
REMARK SMILES IDX 17 26 18 27 19 28 20 30 21 31 22 32 83 33 23 34 82 35 24 36
REMARK SMILES IDX 25 37 26 38 76 39 27 40 81 41 75 42 77 43 28 44 80 45 74 46
REMARK SMILES IDX 73 47 29 49 61 50 41 51 60 52 42 53 45 54 59 55 78 56 43 57
REMARK SMILES IDX 44 58 58 60 79 61 46 62 30 63 31 64 39 65 32 66 33 67 37 68
REMARK SMILES IDX 40 69 34 70 35 71 38 72 36 73 62 74 63 75 71 76 64 77 65 78
REMARK SMILES IDX 69 79 72 80 66 81 67 82 70 83 68 84 47 85 48 86 56 87 49 88
REMARK SMILES IDX 50 89 54 90 57 91 51 92 52 93 55 94 53 95
REMARK H PARENT 13 6 9 11 89 21 18 29 77 48 45 59
REMARK Flexibility Score: inf
ROOT
ATOM      1  C   UNL A   1      31.668  30.876  26.149  1.00  0.00     0.023 C 
ENDROOT
BRANCH   1   2
ATOM      2  C   UNL A   1      32.804  30.163  26.877  1.00  0.00     0.116 C 
BRANCH   2   3
ATOM      3  N   UNL A   1      32.315  28.974  27.545  1.00  0.00    -0.354 N 
ATOM      4  C   UNL A   1      31.895  27.792  26.997  1.00  0.00     0.242 C 
ATOM      5  O   UNL A   1      31.423  26.947  27.758  1.00  0.00    -0.273 OA
ATOM      6  H   UNL A   1      32.282  29.021  28.527  1.00  0.00     0.163 HD
BRANCH   4   7
ATOM      7  C   UNL A   1      32.131  27.537  25.485  1.00  0.00     0.174 C 
BRANCH   7   8
ATOM      8  N   UNL A   1      31.349  26.381  25.025  1.00  0.00    -0.340 N 
ATOM      9  C   UNL A   1      30.375  26.210  24.069  1.00  0.00     0.252 C 
ATOM     10  O   UNL A   1      29.945  25.066  23.911  1.00  0.00    -0.269 OA
ATOM     11  H   UNL A   1      31.569  25.550  25.505  1.00  0.00     0.164 HD
BRANCH   9  12
ATOM     12  C   UNL A   1      29.741  27.326  23.300  1.00  0.00     0.043 A 
ATOM     13  C   UNL A   1      28.459  29.603  22.191  1.00  0.00     0.160 A 
ATOM     14  C   UNL A   1      27.749  28.702  22.988  1.00  0.00     0.051 A 
ATOM     15  C   UNL A   1      29.801  29.331  21.937  1.00  0.00     0.158 A 
ATOM     16  C   UNL A   1      28.386  27.587  23.553  1.00  0.00     0.018 A 
ATOM     17  C   UNL A   1      30.407  28.165  22.409  1.00  0.00     0.064 A 
BRANCH  13  18
ATOM     18  O   UNL A   1      27.735  30.684  21.777  1.00  0.00    -0.493 OA
ATOM     19  C   UNL A   1      28.043  31.953  22.340  1.00  0.00     0.278 C 
ENDBRANCH  13  18
BRANCH  15  20
ATOM     20  O   UNL A   1      30.644  30.206  21.310  1.00  0.00    -0.504 OA
ATOM     21  H   UNL A   1      30.714  30.202  20.376  1.00  0.00     0.293 HD
ENDBRANCH  15  20
ENDBRANCH   9  12
ENDBRANCH   7   8
BRANCH   7  22
ATOM     22  C   UNL A   1      33.639  27.348  25.161  1.00  0.00     0.015 C 
ATOM     23  C   UNL A   1      34.069  25.881  25.021  1.00  0.00     0.010 C 
ATOM     24  C   UNL A   1      34.004  28.094  23.871  1.00  0.00     0.010 C 
ENDBRANCH   7  22
ENDBRANCH   4   7
ENDBRANCH   2   3
ENDBRANCH   1   2
BRANCH   1  25
ATOM     25  C   UNL A   1      31.421  32.300  26.656  1.00  0.00     0.023 C 
BRANCH  25  26
ATOM     26  C   UNL A   1      32.621  32.949  27.337  1.00  0.00     0.116 C 
BRANCH  26  27
ATOM     27  N   UNL A   1      32.381  34.332  27.717  1.00  0.00    -0.352 N 
ATOM     28  C   UNL A   1      33.014  35.073  28.685  1.00  0.00     0.251 C 
ATOM     29  H   UNL A   1      31.672  34.796  27.216  1.00  0.00     0.163 HD
ATOM     30  O   UNL A   1      32.609  36.192  28.983  1.00  0.00    -0.269 OA
BRANCH  28  31
ATOM     31  C   UNL A   1      34.171  34.491  29.393  1.00  0.00     0.039 A 
ATOM     32  C   UNL A   1      33.955  33.817  30.596  1.00  0.00     0.014 A 
ATOM     33  C   UNL A   1      35.455  34.575  28.848  1.00  0.00     0.014 A 
ATOM     34  C   UNL A   1      35.020  33.168  31.222  1.00  0.00     0.010 A 
ATOM     35  C   UNL A   1      36.500  33.867  29.435  1.00  0.00     0.010 A 
ATOM     36  C   UNL A   1      36.293  33.155  30.627  1.00  0.00    -0.014 A 
BRANCH  36  37
ATOM     37  C   UNL A   1      37.416  32.395  31.232  1.00  0.00     0.031 A 
ATOM     38  C   UNL A   1      37.925  32.762  32.598  1.00  0.00     0.074 A 
ATOM     39  C   UNL A   1      38.020  31.421  30.524  1.00  0.00     0.049 A 
ATOM     40  N   UNL A   1      38.940  32.269  33.264  1.00  0.00    -0.248 NA
ATOM     41  C   UNL A   1      37.220  33.846  33.301  1.00  0.00     0.031 C 
ATOM     42  C   UNL A   1      37.654  31.009  29.167  1.00  0.00     0.029 A 
ATOM     43  N   UNL A   1      39.081  30.610  30.839  1.00  0.00    -0.354 N 
ATOM     44  C   UNL A   1      39.002  32.991  34.448  1.00  0.00     0.074 A 
ATOM     45  C   UNL A   1      37.957  33.988  34.392  1.00  0.00     0.031 C 
ATOM     46  C   UNL A   1      38.464  30.013  28.775  1.00  0.00     0.029 A 
ATOM     47  C   UNL A   1      39.432  29.742  29.833  1.00  0.00     0.049 A 
ATOM     48  H   UNL A   1      39.549  30.646  31.706  1.00  0.00     0.167 HD
ATOM     49  C   UNL A   1      39.842  32.821  35.495  1.00  0.00     0.037 A 
ATOM     50  C   UNL A   1      40.429  28.838  29.768  1.00  0.00     0.037 A 
ATOM     51  C   UNL A   1      40.859  31.804  35.561  1.00  0.00     0.049 A 
ATOM     52  C   UNL A   1      41.344  28.668  30.951  1.00  0.00     0.074 A 
ATOM     53  C   UNL A   1      41.709  31.504  36.611  1.00  0.00     0.029 A 
ATOM     54  N   UNL A   1      41.163  30.923  34.536  1.00  0.00    -0.354 N 
ATOM     55  N   UNL A   1      41.339  29.302  32.099  1.00  0.00    -0.248 NA
ATOM     56  C   UNL A   1      42.397  27.651  30.834  1.00  0.00     0.031 C 
ATOM     57  C   UNL A   1      42.563  30.476  36.203  1.00  0.00     0.029 A 
ATOM     58  C   UNL A   1      42.207  30.096  34.919  1.00  0.00     0.049 A 
ATOM     59  H   UNL A   1      40.706  30.890  33.663  1.00  0.00     0.167 HD
ATOM     60  C   UNL A   1      42.364  28.740  32.849  1.00  0.00     0.074 A 
ATOM     61  C   UNL A   1      42.958  27.702  32.034  1.00  0.00     0.031 C 
ATOM     62  C   UNL A   1      42.778  29.057  34.101  1.00  0.00     0.037 A 
BRANCH  49  63
ATOM     63  C   UNL A   1      39.700  33.749  36.667  1.00  0.00     0.064 A 
ATOM     64  C   UNL A   1      40.326  35.004  36.693  1.00  0.00     0.173 A 
ATOM     65  C   UNL A   1      38.872  33.405  37.746  1.00  0.00     0.173 A 
ATOM     66  F   UNL A   1      41.137  35.374  35.691  1.00  0.00    -0.203 F 
ATOM     67  C   UNL A   1      40.143  35.873  37.764  1.00  0.00     0.198 A 
ATOM     68  C   UNL A   1      38.667  34.290  38.803  1.00  0.00     0.198 A 
ATOM     69  F   UNL A   1      38.246  32.218  37.769  1.00  0.00    -0.203 F 
ATOM     70  F   UNL A   1      40.781  37.051  37.785  1.00  0.00    -0.200 F 
ATOM     71  C   UNL A   1      39.306  35.521  38.812  1.00  0.00     0.200 A 
ATOM     72  F   UNL A   1      37.847  33.953  39.808  1.00  0.00    -0.200 F 
ATOM     73  F   UNL A   1      39.117  36.366  39.835  1.00  0.00    -0.200 F 
ENDBRANCH  49  63
BRANCH  50  74
ATOM     74  C   UNL A   1      40.615  28.016  28.542  1.00  0.00     0.064 A 
ATOM     75  C   UNL A   1      41.386  28.482  27.469  1.00  0.00     0.173 A 
ATOM     76  C   UNL A   1      40.001  26.762  28.406  1.00  0.00     0.173 A 
ATOM     77  F   UNL A   1      41.977  29.685  27.542  1.00  0.00    -0.203 F 
ATOM     78  C   UNL A   1      41.509  27.743  26.294  1.00  0.00     0.198 A 
ATOM     79  C   UNL A   1      40.152  26.009  27.243  1.00  0.00     0.198 A 
ATOM     80  F   UNL A   1      39.257  26.266  29.405  1.00  0.00    -0.203 F 
ATOM     81  F   UNL A   1      42.202  28.242  25.261  1.00  0.00    -0.200 F 
ATOM     82  C   UNL A   1      40.896  26.506  26.183  1.00  0.00     0.200 A 
ATOM     83  F   UNL A   1      39.568  24.806  27.147  1.00  0.00    -0.200 F 
ATOM     84  F   UNL A   1      41.010  25.797  25.052  1.00  0.00    -0.200 F 
ENDBRANCH  50  74
BRANCH  62  85
ATOM     85  C   UNL A   1      43.897  28.245  34.684  1.00  0.00     0.064 A 
ATOM     86  C   UNL A   1      45.237  28.645  34.570  1.00  0.00     0.173 A 
ATOM     87  C   UNL A   1      43.621  27.072  35.403  1.00  0.00     0.173 A 
ATOM     88  F   UNL A   1      45.553  29.752  33.881  1.00  0.00    -0.203 F 
ATOM     89  C   UNL A   1      46.259  27.887  35.133  1.00  0.00     0.198 A 
ATOM     90  C   UNL A   1      44.644  26.334  35.992  1.00  0.00     0.198 A 
ATOM     91  F   UNL A   1      42.357  26.648  35.548  1.00  0.00    -0.203 F 
ATOM     92  F   UNL A   1      47.536  28.263  34.969  1.00  0.00    -0.200 F 
ATOM     93  C   UNL A   1      45.963  26.737  35.849  1.00  0.00     0.200 A 
ATOM     94  F   UNL A   1      44.353  25.232  36.697  1.00  0.00    -0.200 F 
ATOM     95  F   UNL A   1      46.949  26.014  36.396  1.00  0.00    -0.200 F 
ENDBRANCH  62  85
ENDBRANCH  36  37
ENDBRANCH  28  31
ENDBRANCH  26  27
ENDBRANCH  25  26
ENDBRANCH   1  25
TORSDOF 16
ENDMDL
MODEL 2
REMARK VINA RESULT:     -12.4      0.131      1.597
REMARK SMILES COc1ccc(C(=O)N[C@@H](C(=O)NCCCCNC(=O)c2ccc(-c3c4nc(c(-c5c(F)c(F)c(F)c(F)c5F)c5ccc([nH]5)c(-c5c(F)c(F)c(F)c(F)c5F)c5nc(c(-c6c(F)c(F)c(F)c(F)c6F)c6ccc3[nH]6)C=C5)C=C4)cc2)C(C)C)cc1O
REMARK SMILES IDX 15 1 14 2 13 3 11 4 12 5 10 7 9 8 7 9 8 10 6 12 3 13 4 14
REMARK SMILES IDX 88 15 5 16 87 17 2 18 1 19 89 20 84 22 85 23 86 24 16 25
REMARK SMILES IDX 17 26 18 27 19 28 20 30 21 31 22 32 83 33 23 34 82 35 24 36
REMARK SMILES IDX 25 37 26 38 76 39 27 40 81 41 75 42 77 43 28 44 80 45 74 46
REMARK SMILES IDX 73 47 29 49 61 50 41 51 60 52 42 53 45 54 59 55 78 56 43 57
REMARK SMILES IDX 44 58 58 60 79 61 46 62 30 63 31 64 39 65 32 66 33 67 37 68
REMARK SMILES IDX 40 69 34 70 35 71 38 72 36 73 62 74 63 75 71 76 64 77 65 78
REMARK SMILES IDX 69 79 72 80 66 81 67 82 70 83 68 84 47 85 48 86 56 87 49 88
REMARK SMILES IDX 50 89 54 90 57 91 51 92 52 93 55 94 53 95
REMARK H PARENT 13 6 9 11 89 21 18 29 77 48 45 59
REMARK Flexibility Score: inf
ROOT
ATOM      1  C   UNL A   1      31.580  30.921  26.117  1.00  0.00     0.023 C 
ENDROOT
BRANCH   1   2
ATOM      2  C   UNL A   1      32.746  30.196  26.782  1.00  0.00     0.116 C 
BRANCH   2   3
ATOM      3  N   UNL A   1      32.283  29.007  27.469  1.00  0.00    -0.354 N 
ATOM      4  C   UNL A   1      31.896  27.805  26.941  1.00  0.00     0.242 C 
ATOM      5  O   UNL A   1      31.440  26.963  27.716  1.00  0.00    -0.273 OA
ATOM      6  H   UNL A   1      32.241  29.073  28.450  1.00  0.00     0.163 HD
BRANCH   4   7
ATOM      7  C   UNL A   1      32.148  27.528  25.436  1.00  0.00     0.174 C 
BRANCH   7   8
ATOM      8  N   UNL A   1      31.353  26.378  24.980  1.00  0.00    -0.340 N 
ATOM      9  C   UNL A   1      30.362  26.220  24.040  1.00  0.00     0.252 C 
ATOM     10  O   UNL A   1      29.924  25.080  23.879  1.00  0.00    -0.269 OA
ATOM     11  H   UNL A   1      31.579  25.543  25.448  1.00  0.00     0.164 HD
BRANCH   9  12
ATOM     12  C   UNL A   1      29.718  27.346  23.293  1.00  0.00     0.043 A 
ATOM     13  C   UNL A   1      28.409  29.630  22.229  1.00  0.00     0.160 A 
ATOM     14  C   UNL A   1      27.704  28.692  22.987  1.00  0.00     0.051 A 
ATOM     15  C   UNL A   1      29.760  29.391  21.990  1.00  0.00     0.158 A 
ATOM     16  C   UNL A   1      28.354  27.574  23.530  1.00  0.00     0.018 A 
ATOM     17  C   UNL A   1      30.382  28.224  22.438  1.00  0.00     0.064 A 
BRANCH  13  18
ATOM     18  O   UNL A   1      27.671  30.708  21.834  1.00  0.00    -0.493 OA
ATOM     19  C   UNL A   1      28.045  31.992  22.320  1.00  0.00     0.278 C 
ENDBRANCH  13  18
BRANCH  15  20
ATOM     20  O   UNL A   1      30.596  30.300  21.403  1.00  0.00    -0.504 OA
ATOM     21  H   UNL A   1      30.438  30.583  20.525  1.00  0.00     0.293 HD
ENDBRANCH  15  20
ENDBRANCH   9  12
ENDBRANCH   7   8
BRANCH   7  22
ATOM     22  C   UNL A   1      33.657  27.310  25.136  1.00  0.00     0.015 C 
ATOM     23  C   UNL A   1      34.080  25.835  25.098  1.00  0.00     0.010 C 
ATOM     24  C   UNL A   1      34.033  27.965  23.801  1.00  0.00     0.010 C 
ENDBRANCH   7  22
ENDBRANCH   4   7
ENDBRANCH   2   3
ENDBRANCH   1   2
BRANCH   1  25
ATOM     25  C   UNL A   1      31.344  32.329  26.674  1.00  0.00     0.023 C 
BRANCH  25  26
ATOM     26  C   UNL A   1      32.565  32.967  27.325  1.00  0.00     0.116 C 
BRANCH  26  27
ATOM     27  N   UNL A   1      32.354  34.360  27.688  1.00  0.00    -0.352 N 
ATOM     28  C   UNL A   1      33.012  35.103  28.638  1.00  0.00     0.251 C 
ATOM     29  H   UNL A   1      31.647  34.829  27.190  1.00  0.00     0.163 HD
ATOM     30  O   UNL A   1      32.631  36.232  28.925  1.00  0.00    -0.269 OA
BRANCH  28  31
ATOM     31  C   UNL A   1      34.168  34.510  29.339  1.00  0.00     0.039 A 
ATOM     32  C   UNL A   1      33.950  33.817  30.532  1.00  0.00     0.014 A 
ATOM     33  C   UNL A   1      35.454  34.602  28.799  1.00  0.00     0.014 A 
ATOM     34  C   UNL A   1      35.013  33.159  31.150  1.00  0.00     0.010 A 
ATOM     35  C   UNL A   1      36.497  33.886  29.377  1.00  0.00     0.010 A 
ATOM     36  C   UNL A   1      36.288  33.156  30.558  1.00  0.00    -0.014 A 
BRANCH  36  37
ATOM     37  C   UNL A   1      37.410  32.387  31.154  1.00  0.00     0.031 A 
ATOM     38  C   UNL A   1      37.924  32.741  32.521  1.00  0.00     0.074 A 
ATOM     39  C   UNL A   1      38.009  31.417  30.436  1.00  0.00     0.049 A 
ATOM     40  N   UNL A   1      38.939  32.239  33.180  1.00  0.00    -0.248 NA
ATOM     41  C   UNL A   1      37.225  33.823  33.234  1.00  0.00     0.031 C 
ATOM     42  C   UNL A   1      37.637  31.016  29.077  1.00  0.00     0.029 A 
ATOM     43  N   UNL A   1      39.068  30.599  30.742  1.00  0.00    -0.354 N 
ATOM     44  C   UNL A   1      39.007  32.952  34.369  1.00  0.00     0.074 A 
ATOM     45  C   UNL A   1      37.965  33.953  34.324  1.00  0.00     0.031 C 
ATOM     46  C   UNL A   1      38.442  30.021  28.675  1.00  0.00     0.029 A 
ATOM     47  C   UNL A   1      39.412  29.738  29.728  1.00  0.00     0.049 A 
ATOM     48  H   UNL A   1      39.538  30.627  31.607  1.00  0.00     0.167 HD
ATOM     49  C   UNL A   1      39.850  32.770  35.413  1.00  0.00     0.037 A 
ATOM     50  C   UNL A   1      40.405  28.831  29.653  1.00  0.00     0.037 A 
ATOM     51  C   UNL A   1      40.863  31.750  35.468  1.00  0.00     0.049 A 
ATOM     52  C   UNL A   1      41.323  28.648  30.832  1.00  0.00     0.074 A 
ATOM     53  C   UNL A   1      41.715  31.437  36.513  1.00  0.00     0.029 A 
ATOM     54  N   UNL A   1      41.161  30.875  34.435  1.00  0.00    -0.354 N 
ATOM     55  N   UNL A   1      41.324  29.273  31.985  1.00  0.00    -0.248 NA
ATOM     56  C   UNL A   1      42.373  27.628  30.704  1.00  0.00     0.031 C 
ATOM     57  C   UNL A   1      42.564  30.410  36.094  1.00  0.00     0.029 A 
ATOM     58  C   UNL A   1      42.203  30.041  34.808  1.00  0.00     0.049 A 
ATOM     59  H   UNL A   1      40.701  30.850  33.564  1.00  0.00     0.167 HD
ATOM     60  C   UNL A   1      42.349  28.701  32.728  1.00  0.00     0.074 A 
ATOM     61  C   UNL A   1      42.937  27.668  31.903  1.00  0.00     0.031 C 
ATOM     62  C   UNL A   1      42.767  29.007  33.981  1.00  0.00     0.037 A 
BRANCH  49  63
ATOM     63  C   UNL A   1      39.714  33.689  36.593  1.00  0.00     0.064 A 
ATOM     64  C   UNL A   1      40.343  34.943  36.625  1.00  0.00     0.173 A 
ATOM     65  C   UNL A   1      38.890  33.339  37.672  1.00  0.00     0.173 A 
ATOM     66  F   UNL A   1      41.151  35.319  35.623  1.00  0.00    -0.203 F 
ATOM     67  C   UNL A   1      40.166  35.804  37.704  1.00  0.00     0.198 A 
ATOM     68  C   UNL A   1      38.691  34.216  38.736  1.00  0.00     0.198 A 
ATOM     69  F   UNL A   1      38.261  32.154  37.689  1.00  0.00    -0.203 F 
ATOM     70  F   UNL A   1      40.806  36.981  37.732  1.00  0.00    -0.200 F 
ATOM     71  C   UNL A   1      39.332  35.446  38.753  1.00  0.00     0.200 A 
ATOM     72  F   UNL A   1      37.874  33.873  39.742  1.00  0.00    -0.200 F 
ATOM     73  F   UNL A   1      39.149  36.283  39.783  1.00  0.00    -0.200 F 
ENDBRANCH  49  63
BRANCH  50  74
ATOM     74  C   UNL A   1      40.585  28.017  28.420  1.00  0.00     0.064 A 
ATOM     75  C   UNL A   1      40.009  26.745  28.304  1.00  0.00     0.173 A 
ATOM     76  C   UNL A   1      41.363  28.480  27.348  1.00  0.00     0.173 A 
ATOM     77  F   UNL A   1      39.274  26.249  29.311  1.00  0.00    -0.203 F 
ATOM     78  C   UNL A   1      40.230  25.953  27.179  1.00  0.00     0.198 A 
ATOM     79  C   UNL A   1      41.556  27.701  26.210  1.00  0.00     0.198 A 
ATOM     80  F   UNL A   1      41.933  29.692  27.405  1.00  0.00    -0.203 F 
ATOM     81  F   UNL A   1      39.716  24.716  27.122  1.00  0.00    -0.200 F 
ATOM     82  C   UNL A   1      40.999  26.433  26.131  1.00  0.00     0.200 A 
ATOM     83  F   UNL A   1      42.289  28.175  25.192  1.00  0.00    -0.200 F 
ATOM     84  F   UNL A   1      41.215  25.670  25.051  1.00  0.00    -0.200 F 
ENDBRANCH  50  74
BRANCH  62  85
ATOM     85  C   UNL A   1      43.885  28.186  34.554  1.00  0.00     0.064 A 
ATOM     86  C   UNL A   1      43.647  26.967  35.206  1.00  0.00     0.173 A 
ATOM     87  C   UNL A   1      45.217  28.606  34.412  1.00  0.00     0.173 A 
ATOM     88  F   UNL A   1      42.392  26.529  35.380  1.00  0.00    -0.203 F 
ATOM     89  C   UNL A   1      44.700  26.212  35.717  1.00  0.00     0.198 A 
ATOM     90  C   UNL A   1      46.269  27.832  34.895  1.00  0.00     0.198 A 
ATOM     91  F   UNL A   1      45.500  29.760  33.790  1.00  0.00    -0.203 F 
ATOM     92  F   UNL A   1      44.445  25.075  36.380  1.00  0.00    -0.200 F 
ATOM     93  C   UNL A   1      46.009  26.641  35.554  1.00  0.00     0.200 A 
ATOM     94  F   UNL A   1      47.534  28.241  34.723  1.00  0.00    -0.200 F 
ATOM     95  F   UNL A   1      47.020  25.908  36.040  1.00  0.00    -0.200 F 
ENDBRANCH  62  85
ENDBRANCH  36  37
ENDBRANCH  28  31
ENDBRANCH  26  27
ENDBRANCH  25  26
ENDBRANCH   1  25
TORSDOF 16
ENDMDL
MODEL 3
REMARK VINA RESULT:     -12.1      6.313     10.646
REMARK SMILES COc1ccc(C(=O)N[C@@H](C(=O)NCCCCNC(=O)c2ccc(-c3c4nc(c(-c5c(F)c(F)c(F)c(F)c5F)c5ccc([nH]5)c(-c5c(F)c(F)c(F)c(F)c5F)c5nc(c(-c6c(F)c(F)c(F)c(F)c6F)c6ccc3[nH]6)C=C5)C=C4)cc2)C(C)C)cc1O
REMARK SMILES IDX 15 1 14 2 13 3 11 4 12 5 10 7 9 8 7 9 8 10 6 12 3 13 4 14
REMARK SMILES IDX 88 15 5 16 87 17 2 18 1 19 89 20 84 22 85 23 86 24 16 25
REMARK SMILES IDX 17 26 18 27 19 28 20 30 21 31 22 32 83 33 23 34 82 35 24 36
REMARK SMILES IDX 25 37 26 38 76 39 27 40 81 41 75 42 77 43 28 44 80 45 74 46
REMARK SMILES IDX 73 47 29 49 61 50 41 51 60 52 42 53 45 54 59 55 78 56 43 57
REMARK SMILES IDX 44 58 58 60 79 61 46 62 30 63 31 64 39 65 32 66 33 67 37 68
REMARK SMILES IDX 40 69 34 70 35 71 38 72 36 73 62 74 63 75 71 76 64 77 65 78
REMARK SMILES IDX 69 79 72 80 66 81 67 82 70 83 68 84 47 85 48 86 56 87 49 88
REMARK SMILES IDX 50 89 54 90 57 91 51 92 52 93 55 94 53 95
REMARK H PARENT 13 6 9 11 89 21 18 29 77 48 45 59
REMARK Flexibility Score: inf
ROOT
ATOM      1  C   UNL A   1      36.763  20.001  25.021  1.00  0.00     0.023 C 
ENDROOT
BRANCH   1   2
ATOM      2  C   UNL A   1      36.235  21.349  25.501  1.00  0.00     0.116 C 
BRANCH   2   3
ATOM      3  N   UNL A   1      36.259  22.320  24.426  1.00  0.00    -0.354 N 
ATOM      4  C   UNL A   1      35.215  22.818  23.694  1.00  0.00     0.242 C 
ATOM      5  O   UNL A   1      35.484  23.566  22.754  1.00  0.00    -0.273 OA
ATOM      6  H   UNL A   1      37.148  22.670  24.189  1.00  0.00     0.163 HD
BRANCH   4   7
ATOM      7  C   UNL A   1      33.763  22.507  24.145  1.00  0.00     0.174 C 
BRANCH   7   8
ATOM      8  N   UNL A   1      32.951  22.056  23.006  1.00  0.00    -0.340 N 
ATOM      9  C   UNL A   1      32.330  20.871  22.691  1.00  0.00     0.252 C 
ATOM     10  O   UNL A   1      31.680  20.844  21.645  1.00  0.00    -0.269 OA
ATOM     11  H   UNL A   1      32.825  22.752  22.322  1.00  0.00     0.164 HD
BRANCH   9  12
ATOM     12  C   UNL A   1      32.481  19.603  23.472  1.00  0.00     0.043 A 
ATOM     13  C   UNL A   1      33.136  17.189  24.814  1.00  0.00     0.160 A 
ATOM     14  C   UNL A   1      33.128  17.250  23.418  1.00  0.00     0.051 A 
ATOM     15  C   UNL A   1      32.785  18.338  25.519  1.00  0.00     0.158 A 
ATOM     16  C   UNL A   1      32.824  18.448  22.754  1.00  0.00     0.018 A 
ATOM     17  C   UNL A   1      32.377  19.498  24.857  1.00  0.00     0.064 A 
BRANCH  13  18
ATOM     18  O   UNL A   1      33.530  15.986  25.325  1.00  0.00    -0.493 OA
ATOM     19  C   UNL A   1      32.523  15.048  25.685  1.00  0.00     0.278 C 
ENDBRANCH  13  18
BRANCH  15  20
ATOM     20  O   UNL A   1      32.905  18.459  26.875  1.00  0.00    -0.504 OA
ATOM     21  H   UNL A   1      33.725  18.282  27.291  1.00  0.00     0.293 HD
ENDBRANCH  15  20
ENDBRANCH   9  12
ENDBRANCH   7   8
BRANCH   7  22
ATOM     22  C   UNL A   1      33.104  23.728  24.845  1.00  0.00     0.015 C 
ATOM     23  C   UNL A   1      31.601  23.870  24.570  1.00  0.00     0.010 C 
ATOM     24  C   UNL A   1      33.324  23.655  26.361  1.00  0.00     0.010 C 
ENDBRANCH   7  22
ENDBRANCH   4   7
ENDBRANCH   2   3
ENDBRANCH   1   2
BRANCH   1  25
ATOM     25  C   UNL A   1      38.242  20.034  24.624  1.00  0.00     0.023 C 
BRANCH  25  26
ATOM     26  C   UNL A   1      39.209  20.183  25.792  1.00  0.00     0.116 C 
BRANCH  26  27
ATOM     27  N   UNL A   1      40.148  19.077  25.899  1.00  0.00    -0.352 N 
ATOM     28  C   UNL A   1      41.501  19.125  26.127  1.00  0.00     0.251 C 
ATOM     29  H   UNL A   1      39.762  18.177  25.793  1.00  0.00     0.163 HD
ATOM     30  O   UNL A   1      42.185  18.110  26.058  1.00  0.00    -0.269 OA
BRANCH  28  31
ATOM     31  C   UNL A   1      42.134  20.427  26.422  1.00  0.00     0.039 A 
ATOM     32  C   UNL A   1      42.620  21.194  25.362  1.00  0.00     0.014 A 
ATOM     33  C   UNL A   1      42.207  20.902  27.734  1.00  0.00     0.014 A 
ATOM     34  C   UNL A   1      43.121  22.472  25.612  1.00  0.00     0.010 A 
ATOM     35  C   UNL A   1      42.640  22.203  27.972  1.00  0.00     0.010 A 
ATOM     36  C   UNL A   1      43.100  23.002  26.913  1.00  0.00    -0.014 A 
BRANCH  36  37
ATOM     37  C   UNL A   1      43.546  24.393  27.184  1.00  0.00     0.031 A 
ATOM     38  C   UNL A   1      42.567  25.413  27.694  1.00  0.00     0.074 A 
ATOM     39  C   UNL A   1      44.813  24.753  26.904  1.00  0.00     0.049 A 
ATOM     40  N   UNL A   1      42.744  26.691  27.920  1.00  0.00    -0.248 NA
ATOM     41  C   UNL A   1      41.197  24.943  27.961  1.00  0.00     0.031 C 
ATOM     42  C   UNL A   1      45.843  23.868  26.353  1.00  0.00     0.029 A 
ATOM     43  N   UNL A   1      45.451  25.962  27.029  1.00  0.00    -0.354 N 
ATOM     44  C   UNL A   1      41.512  27.176  28.337  1.00  0.00     0.074 A 
ATOM     45  C   UNL A   1      40.582  26.070  28.287  1.00  0.00     0.031 C 
ATOM     46  C   UNL A   1      46.984  24.559  26.204  1.00  0.00     0.029 A 
ATOM     47  C   UNL A   1      46.759  25.943  26.611  1.00  0.00     0.049 A 
ATOM     48  H   UNL A   1      45.011  26.768  27.386  1.00  0.00     0.167 HD
ATOM     49  C   UNL A   1      41.193  28.426  28.745  1.00  0.00     0.037 A 
ATOM     50  C   UNL A   1      47.671  26.933  26.551  1.00  0.00     0.037 A 
ATOM     51  C   UNL A   1      42.130  29.516  28.826  1.00  0.00     0.049 A 
ATOM     52  C   UNL A   1      47.288  28.312  27.017  1.00  0.00     0.074 A 
ATOM     53  C   UNL A   1      41.920  30.799  29.300  1.00  0.00     0.029 A 
ATOM     54  N   UNL A   1      43.455  29.450  28.424  1.00  0.00    -0.354 N 
ATOM     55  N   UNL A   1      46.141  28.739  27.489  1.00  0.00    -0.248 NA
ATOM     56  C   UNL A   1      48.329  29.347  26.953  1.00  0.00     0.031 C 
ATOM     57  C   UNL A   1      43.102  31.525  29.136  1.00  0.00     0.029 A 
ATOM     58  C   UNL A   1      44.067  30.679  28.614  1.00  0.00     0.049 A 
ATOM     59  H   UNL A   1      43.896  28.649  28.057  1.00  0.00     0.167 HD
ATOM     60  C   UNL A   1      46.331  30.077  27.804  1.00  0.00     0.074 A 
ATOM     61  C   UNL A   1      47.709  30.389  27.488  1.00  0.00     0.031 C 
ATOM     62  C   UNL A   1      45.444  30.969  28.309  1.00  0.00     0.037 A 
BRANCH  49  63
ATOM     63  C   UNL A   1      39.771  28.693  29.146  1.00  0.00     0.064 A 
ATOM     64  C   UNL A   1      39.337  28.533  30.470  1.00  0.00     0.173 A 
ATOM     65  C   UNL A   1      38.849  29.180  28.207  1.00  0.00     0.173 A 
ATOM     66  F   UNL A   1      40.176  28.059  31.403  1.00  0.00    -0.203 F 
ATOM     67  C   UNL A   1      38.028  28.833  30.836  1.00  0.00     0.198 A 
ATOM     68  C   UNL A   1      37.549  29.508  28.583  1.00  0.00     0.198 A 
ATOM     69  F   UNL A   1      39.214  29.356  26.928  1.00  0.00    -0.203 F 
ATOM     70  F   UNL A   1      37.625  28.637  32.099  1.00  0.00    -0.200 F 
ATOM     71  C   UNL A   1      37.138  29.330  29.896  1.00  0.00     0.200 A 
ATOM     72  F   UNL A   1      36.695  30.001  27.675  1.00  0.00    -0.200 F 
ATOM     73  F   UNL A   1      35.883  29.635  30.253  1.00  0.00    -0.200 F 
ENDBRANCH  49  63
BRANCH  50  74
ATOM     74  C   UNL A   1      49.040  26.661  26.036  1.00  0.00     0.064 A 
ATOM     75  C   UNL A   1      50.044  26.167  26.880  1.00  0.00     0.173 A 
ATOM     76  C   UNL A   1      49.381  26.920  24.700  1.00  0.00     0.173 A 
ATOM     77  F   UNL A   1      49.774  25.923  28.171  1.00  0.00    -0.203 F 
ATOM     78  C   UNL A   1      51.344  25.973  26.417  1.00  0.00     0.198 A 
ATOM     79  C   UNL A   1      50.673  26.695  24.231  1.00  0.00     0.198 A 
ATOM     80  F   UNL A   1      48.457  27.388  23.849  1.00  0.00    -0.203 F 
ATOM     81  F   UNL A   1      52.298  25.558  27.263  1.00  0.00    -0.200 F 
ATOM     82  C   UNL A   1      51.657  26.233  25.093  1.00  0.00     0.200 A 
ATOM     83  F   UNL A   1      50.968  26.933  22.945  1.00  0.00    -0.200 F 
ATOM     84  F   UNL A   1      52.908  26.051  24.649  1.00  0.00    -0.200 F 
ENDBRANCH  50  74
BRANCH  62  85
ATOM     85  C   UNL A   1      45.944  32.355  28.593  1.00  0.00     0.064 A 
ATOM     86  C   UNL A   1      45.859  33.381  27.639  1.00  0.00     0.173 A 
ATOM     87  C   UNL A   1      46.478  32.671  29.852  1.00  0.00     0.173 A 
ATOM     88  F   UNL A   1      45.370  33.126  26.417  1.00  0.00    -0.203 F 
ATOM     89  C   UNL A   1      46.314  34.664  27.928  1.00  0.00     0.198 A 
ATOM     90  C   UNL A   1      46.901  33.964  30.147  1.00  0.00     0.198 A 
ATOM     91  F   UNL A   1      46.575  31.730  30.802  1.00  0.00    -0.203 F 
ATOM     92  F   UNL A   1      46.269  35.616  26.985  1.00  0.00    -0.200 F 
ATOM     93  C   UNL A   1      46.827  34.957  29.183  1.00  0.00     0.200 A 
ATOM     94  F   UNL A   1      47.382  34.248  31.366  1.00  0.00    -0.200 F 
ATOM     95  F   UNL A   1      47.256  36.196  29.461  1.00  0.00    -0.200 F 
ENDBRANCH  62  85
ENDBRANCH  36  37
ENDBRANCH  28  31
ENDBRANCH  26  27
ENDBRANCH  25  26
ENDBRANCH   1  25
TORSDOF 16
ENDMDL
