MODEL 1
REMARK VINA RESULT:     -12.3      0.000      0.000
REMARK SMILES O=C(CC1(CC(=O)NNc2ccc([N+](=O)[O-])cc2)CCCC1)NCCCCNC(=O)c1ccc(-c2c3nc(c(-c4c(F)c(F)c(F)c(F)c4F)c4ccc([nH]4)c(-c4c(F)c(F)c(F)c(F)c4F)c4nc(c(-c5c(F)c(F)c(F)c(F)c5F)c5ccc2[nH]5)C=C4)C=C3)cc1
REMARK SMILES IDX 1 1 2 2 23 3 3 5 4 6 19 7 22 8 20 9 21 10 5 11 6 12 7 13
REMARK SMILES IDX 8 14 9 16 10 18 11 19 18 20 12 21 17 22 13 23 14 24 15 25
REMARK SMILES IDX 16 26 24 27 25 28 26 29 27 30 28 31 29 32 30 34 31 35 32 36
REMARK SMILES IDX 93 37 33 38 92 39 34 40 35 41 36 42 86 43 37 44 91 45 85 46
REMARK SMILES IDX 87 47 38 48 90 49 84 50 83 51 39 53 71 54 51 55 70 56 52 57
REMARK SMILES IDX 55 58 69 59 88 60 53 61 54 62 68 64 89 65 56 66 40 67 41 68
REMARK SMILES IDX 49 69 42 70 43 71 47 72 50 73 44 74 45 75 48 76 46 77 72 78
REMARK SMILES IDX 73 79 81 80 74 81 75 82 79 83 82 84 76 85 77 86 80 87 78 88
REMARK SMILES IDX 57 89 58 90 66 91 59 92 60 93 64 94 67 95 61 96 62 97 65 98
REMARK SMILES IDX 63 99
REMARK H PARENT 23 4 8 15 9 17 28 33 87 52 55 63
REMARK Flexibility Score: inf
ROOT
ATOM      1  O   UNL A   1      33.603  27.733  26.460  1.00  0.00    -0.275 OA
ATOM      2  C   UNL A   1      32.484  27.571  25.984  1.00  0.00     0.220 C 
ATOM      3  N   UNL A   1      31.726  28.592  25.461  1.00  0.00    -0.356 N 
ATOM      4  H   UNL A   1      30.886  28.374  24.995  1.00  0.00     0.163 HD
ENDROOT
BRANCH   2   5
ATOM      5  C   UNL A   1      31.794  26.220  25.986  1.00  0.00     0.107 C 
BRANCH   5   6
ATOM      6  C   UNL A   1      32.083  25.324  24.754  1.00  0.00    -0.012 C 
ATOM      7  C   UNL A   1      31.550  25.902  23.421  1.00  0.00     0.008 C 
ATOM      8  C   UNL A   1      33.582  25.241  24.414  1.00  0.00     0.008 C 
ATOM      9  C   UNL A   1      32.342  25.185  22.325  1.00  0.00     0.001 C 
ATOM     10  C   UNL A   1      33.642  24.721  22.979  1.00  0.00     0.001 C 
BRANCH   6  11
ATOM     11  C   UNL A   1      31.446  23.918  24.980  1.00  0.00     0.109 C 
BRANCH  11  12
ATOM     12  C   UNL A   1      31.772  23.253  26.311  1.00  0.00     0.238 C 
ATOM     13  O   UNL A   1      31.162  23.554  27.340  1.00  0.00    -0.273 OA
ATOM     14  N   UNL A   1      32.756  22.297  26.363  1.00  0.00    -0.270 N 
ATOM     15  H   UNL A   1      32.927  21.846  27.222  1.00  0.00     0.191 HD
BRANCH  14  16
ATOM     16  N   UNL A   1      33.518  21.938  25.263  1.00  0.00    -0.299 N 
ATOM     17  H   UNL A   1      33.931  22.606  24.671  1.00  0.00     0.188 HD
BRANCH  16  18
ATOM     18  C   UNL A   1      33.662  20.557  25.049  1.00  0.00     0.055 A 
ATOM     19  C   UNL A   1      34.948  20.005  24.960  1.00  0.00     0.034 A 
ATOM     20  C   UNL A   1      32.558  19.749  24.752  1.00  0.00     0.034 A 
ATOM     21  C   UNL A   1      35.138  18.667  24.609  1.00  0.00     0.088 A 
ATOM     22  C   UNL A   1      32.732  18.410  24.385  1.00  0.00     0.088 A 
ATOM     23  C   UNL A   1      34.025  17.875  24.309  1.00  0.00     0.269 A 
BRANCH  23  24
ATOM     24  N   UNL A   1      34.218  16.486  23.876  1.00  0.00     0.062 N 
ATOM     25  O   UNL A   1      34.125  16.242  22.666  1.00  0.00    -0.258 OA
ATOM     26  O   UNL A   1      34.454  15.639  24.750  1.00  0.00    -0.258 OA
ENDBRANCH  23  24
ENDBRANCH  16  18
ENDBRANCH  14  16
ENDBRANCH  11  12
ENDBRANCH   6  11
ENDBRANCH   5   6
ENDBRANCH   2   5
BRANCH   3  27
ATOM     27  C   UNL A   1      32.128  29.978  25.576  1.00  0.00     0.116 C 
BRANCH  27  28
ATOM     28  C   UNL A   1      31.442  30.685  26.741  1.00  0.00     0.023 C 
BRANCH  28  29
ATOM     29  C   UNL A   1      31.425  32.215  26.658  1.00  0.00     0.023 C 
BRANCH  29  30
ATOM     30  C   UNL A   1      32.691  32.913  27.147  1.00  0.00     0.116 C 
BRANCH  30  31
ATOM     31  N   UNL A   1      32.437  34.269  27.607  1.00  0.00    -0.352 N 
ATOM     32  C   UNL A   1      33.008  34.972  28.638  1.00  0.00     0.251 C 
ATOM     33  H   UNL A   1      31.749  34.758  27.102  1.00  0.00     0.163 HD
ATOM     34  O   UNL A   1      32.523  36.050  28.985  1.00  0.00    -0.269 OA
BRANCH  32  35
ATOM     35  C   UNL A   1      34.189  34.443  29.357  1.00  0.00     0.039 A 
ATOM     36  C   UNL A   1      33.995  33.775  30.570  1.00  0.00     0.014 A 
ATOM     37  C   UNL A   1      35.483  34.622  28.862  1.00  0.00     0.014 A 
ATOM     38  C   UNL A   1      35.088  33.231  31.249  1.00  0.00     0.010 A 
ATOM     39  C   UNL A   1      36.564  34.016  29.500  1.00  0.00     0.010 A 
ATOM     40  C   UNL A   1      36.379  33.311  30.701  1.00  0.00    -0.014 A 
BRANCH  40  41
ATOM     41  C   UNL A   1      37.539  32.655  31.362  1.00  0.00     0.031 A 
ATOM     42  C   UNL A   1      38.245  31.504  30.699  1.00  0.00     0.074 A 
ATOM     43  C   UNL A   1      37.921  33.058  32.590  1.00  0.00     0.049 A 
ATOM     44  N   UNL A   1      39.227  30.763  31.150  1.00  0.00    -0.248 NA
ATOM     45  C   UNL A   1      37.768  31.117  29.363  1.00  0.00     0.031 C 
ATOM     46  C   UNL A   1      37.294  34.135  33.358  1.00  0.00     0.029 A 
ATOM     47  N   UNL A   1      38.920  32.602  33.414  1.00  0.00    -0.354 N 
ATOM     48  C   UNL A   1      39.477  29.822  30.161  1.00  0.00     0.074 A 
ATOM     49  C   UNL A   1      38.508  30.048  29.110  1.00  0.00     0.031 C 
ATOM     50  C   UNL A   1      37.935  34.271  34.530  1.00  0.00     0.029 A 
ATOM     51  C   UNL A   1      38.987  33.263  34.617  1.00  0.00     0.049 A 
ATOM     52  H   UNL A   1      39.530  31.870  33.167  1.00  0.00     0.167 HD
ATOM     53  C   UNL A   1      40.442  28.872  30.120  1.00  0.00     0.037 A 
ATOM     54  C   UNL A   1      39.798  33.071  35.676  1.00  0.00     0.037 A 
ATOM     55  C   UNL A   1      41.416  28.659  31.160  1.00  0.00     0.049 A 
ATOM     56  C   UNL A   1      40.845  31.991  35.616  1.00  0.00     0.074 A 
ATOM     57  C   UNL A   1      42.466  27.757  31.187  1.00  0.00     0.029 A 
ATOM     58  N   UNL A   1      41.458  29.355  32.359  1.00  0.00    -0.354 N 
ATOM     59  N   UNL A   1      41.117  31.153  34.645  1.00  0.00    -0.248 NA
ATOM     60  C   UNL A   1      41.703  31.836  36.798  1.00  0.00     0.031 C 
ATOM     61  C   UNL A   1      43.107  27.867  32.426  1.00  0.00     0.029 A 
ATOM     62  C   UNL A   1      42.498  28.882  33.146  1.00  0.00     0.049 A 
ATOM     63  H   UNL A   1      40.840  30.077  32.616  1.00  0.00     0.167 HD
ATOM     64  C   UNL A   1      42.194  30.395  35.085  1.00  0.00     0.074 A 
ATOM     65  C   UNL A   1      42.538  30.884  36.403  1.00  0.00     0.031 C 
ATOM     66  C   UNL A   1      42.839  29.384  34.453  1.00  0.00     0.037 A 
BRANCH  53  67
ATOM     67  C   UNL A   1      40.494  27.983  28.910  1.00  0.00     0.064 A 
ATOM     68  C   UNL A   1      41.287  28.300  27.795  1.00  0.00     0.173 A 
ATOM     69  C   UNL A   1      39.777  26.777  28.879  1.00  0.00     0.173 A 
ATOM     70  F   UNL A   1      41.984  29.446  27.767  1.00  0.00    -0.203 F 
ATOM     71  C   UNL A   1      41.333  27.462  26.684  1.00  0.00     0.198 A 
ATOM     72  C   UNL A   1      39.853  25.924  27.781  1.00  0.00     0.198 A 
ATOM     73  F   UNL A   1      39.010  26.419  29.920  1.00  0.00    -0.203 F 
ATOM     74  F   UNL A   1      42.053  27.814  25.611  1.00  0.00    -0.200 F 
ATOM     75  C   UNL A   1      40.622  26.271  26.681  1.00  0.00     0.200 A 
ATOM     76  F   UNL A   1      39.178  24.765  27.787  1.00  0.00    -0.200 F 
ATOM     77  F   UNL A   1      40.675  25.460  25.616  1.00  0.00    -0.200 F 
ENDBRANCH  53  67
BRANCH  54  78
ATOM     78  C   UNL A   1      39.662  33.932  36.881  1.00  0.00     0.064 A 
ATOM     79  C   UNL A   1      38.872  33.530  37.969  1.00  0.00     0.173 A 
ATOM     80  C   UNL A   1      40.307  35.174  36.970  1.00  0.00     0.173 A 
ATOM     81  F   UNL A   1      38.220  32.359  37.926  1.00  0.00    -0.203 F 
ATOM     82  C   UNL A   1      38.714  34.348  39.085  1.00  0.00     0.198 A 
ATOM     83  C   UNL A   1      40.173  35.977  38.100  1.00  0.00     0.198 A 
ATOM     84  F   UNL A   1      41.082  35.602  35.962  1.00  0.00    -0.203 F 
ATOM     85  F   UNL A   1      37.912  33.962  40.088  1.00  0.00    -0.200 F 
ATOM     86  C   UNL A   1      39.368  35.569  39.153  1.00  0.00     0.200 A 
ATOM     87  F   UNL A   1      40.823  37.147  38.170  1.00  0.00    -0.200 F 
ATOM     88  F   UNL A   1      39.219  36.353  40.228  1.00  0.00    -0.200 F 
ENDBRANCH  54  78
BRANCH  66  89
ATOM     89  C   UNL A   1      44.013  28.765  35.157  1.00  0.00     0.064 A 
ATOM     90  C   UNL A   1      45.317  29.253  34.992  1.00  0.00     0.173 A 
ATOM     91  C   UNL A   1      43.823  27.689  36.040  1.00  0.00     0.173 A 
ATOM     92  F   UNL A   1      45.556  30.270  34.150  1.00  0.00    -0.203 F 
ATOM     93  C   UNL A   1      46.391  28.670  35.662  1.00  0.00     0.198 A 
ATOM     94  C   UNL A   1      44.893  27.132  36.734  1.00  0.00     0.198 A 
ATOM     95  F   UNL A   1      42.595  27.187  36.240  1.00  0.00    -0.203 F 
ATOM     96  F   UNL A   1      47.635  29.121  35.448  1.00  0.00    -0.200 F 
ATOM     97  C   UNL A   1      46.176  27.616  36.538  1.00  0.00     0.200 A 
ATOM     98  F   UNL A   1      44.682  26.125  37.592  1.00  0.00    -0.200 F 
ATOM     99  F   UNL A   1      47.210  27.064  37.188  1.00  0.00    -0.200 F 
ENDBRANCH  66  89
ENDBRANCH  40  41
ENDBRANCH  32  35
ENDBRANCH  30  31
ENDBRANCH  29  30
ENDBRANCH  28  29
ENDBRANCH  27  28
ENDBRANCH   3  27
TORSDOF 17
ENDMDL
MODEL 2
REMARK VINA RESULT:     -12.3      3.629      7.471
REMARK SMILES O=C(CC1(CC(=O)NNc2ccc([N+](=O)[O-])cc2)CCCC1)NCCCCNC(=O)c1ccc(-c2c3nc(c(-c4c(F)c(F)c(F)c(F)c4F)c4ccc([nH]4)c(-c4c(F)c(F)c(F)c(F)c4F)c4nc(c(-c5c(F)c(F)c(F)c(F)c5F)c5ccc2[nH]5)C=C4)C=C3)cc1
REMARK SMILES IDX 1 1 2 2 23 3 3 5 4 6 19 7 22 8 20 9 21 10 5 11 6 12 7 13
REMARK SMILES IDX 8 14 9 16 10 18 11 19 18 20 12 21 17 22 13 23 14 24 15 25
REMARK SMILES IDX 16 26 24 27 25 28 26 29 27 30 28 31 29 32 30 34 31 35 32 36
REMARK SMILES IDX 93 37 33 38 92 39 34 40 35 41 36 42 86 43 37 44 91 45 85 46
REMARK SMILES IDX 87 47 38 48 90 49 84 50 83 51 39 53 71 54 51 55 70 56 52 57
REMARK SMILES IDX 55 58 69 59 88 60 53 61 54 62 68 64 89 65 56 66 40 67 41 68
REMARK SMILES IDX 49 69 42 70 43 71 47 72 50 73 44 74 45 75 48 76 46 77 72 78
REMARK SMILES IDX 73 79 81 80 74 81 75 82 79 83 82 84 76 85 77 86 80 87 78 88
REMARK SMILES IDX 57 89 58 90 66 91 59 92 60 93 64 94 67 95 61 96 62 97 65 98
REMARK SMILES IDX 63 99
REMARK H PARENT 23 4 8 15 9 17 28 33 87 52 55 63
REMARK Flexibility Score: inf
ROOT
ATOM      1  O   UNL A   1      33.893  26.837  26.146  1.00  0.00    -0.275 OA
ATOM      2  C   UNL A   1      33.651  26.139  25.166  1.00  0.00     0.220 C 
ATOM      3  N   UNL A   1      33.440  24.782  25.234  1.00  0.00    -0.356 N 
ATOM      4  H   UNL A   1      33.141  24.304  24.426  1.00  0.00     0.163 HD
ENDROOT
BRANCH   2   5
ATOM      5  C   UNL A   1      33.627  26.705  23.758  1.00  0.00     0.107 C 
BRANCH   5   6
ATOM      6  C   UNL A   1      32.241  27.194  23.263  1.00  0.00    -0.012 C 
ATOM      7  C   UNL A   1      31.257  27.546  24.405  1.00  0.00     0.008 C 
ATOM      8  C   UNL A   1      32.306  28.558  22.554  1.00  0.00     0.008 C 
ATOM      9  C   UNL A   1      30.201  28.449  23.763  1.00  0.00     0.001 C 
ATOM     10  C   UNL A   1      30.869  29.074  22.540  1.00  0.00     0.001 C 
BRANCH   6  11
ATOM     11  C   UNL A   1      31.596  26.089  22.370  1.00  0.00     0.109 C 
BRANCH  11  12
ATOM     12  C   UNL A   1      32.575  25.180  21.637  1.00  0.00     0.238 C 
ATOM     13  O   UNL A   1      33.346  25.629  20.785  1.00  0.00    -0.273 OA
ATOM     14  N   UNL A   1      32.604  23.841  21.937  1.00  0.00    -0.270 N 
ATOM     15  H   UNL A   1      33.270  23.273  21.485  1.00  0.00     0.191 HD
BRANCH  14  16
ATOM     16  N   UNL A   1      31.739  23.252  22.845  1.00  0.00    -0.299 N 
ATOM     17  H   UNL A   1      31.050  23.767  23.321  1.00  0.00     0.188 HD
BRANCH  16  18
ATOM     18  C   UNL A   1      31.912  21.872  23.040  1.00  0.00     0.055 A 
ATOM     19  C   UNL A   1      32.339  21.403  24.291  1.00  0.00     0.034 A 
ATOM     20  C   UNL A   1      31.835  20.971  21.971  1.00  0.00     0.034 A 
ATOM     21  C   UNL A   1      32.658  20.057  24.488  1.00  0.00     0.088 A 
ATOM     22  C   UNL A   1      32.165  19.623  22.149  1.00  0.00     0.088 A 
ATOM     23  C   UNL A   1      32.582  19.172  23.408  1.00  0.00     0.269 A 
BRANCH  23  24
ATOM     24  N   UNL A   1      32.977  17.770  23.589  1.00  0.00     0.062 N 
ATOM     25  O   UNL A   1      33.515  17.196  22.633  1.00  0.00    -0.258 OA
ATOM     26  O   UNL A   1      32.739  17.243  24.685  1.00  0.00    -0.258 OA
ENDBRANCH  23  24
ENDBRANCH  16  18
ENDBRANCH  14  16
ENDBRANCH  11  12
ENDBRANCH   6  11
ENDBRANCH   5   6
ENDBRANCH   2   5
BRANCH   3  27
ATOM     27  C   UNL A   1      33.643  24.037  26.457  1.00  0.00     0.116 C 
BRANCH  27  28
ATOM     28  C   UNL A   1      34.967  23.278  26.459  1.00  0.00     0.023 C 
BRANCH  28  29
ATOM     29  C   UNL A   1      35.677  23.197  25.104  1.00  0.00     0.023 C 
BRANCH  29  30
ATOM     30  C   UNL A   1      37.088  23.776  25.066  1.00  0.00     0.116 C 
BRANCH  30  31
ATOM     31  N   UNL A   1      38.097  22.811  25.475  1.00  0.00    -0.352 N 
ATOM     32  C   UNL A   1      39.259  22.995  26.181  1.00  0.00     0.251 C 
ATOM     33  H   UNL A   1      37.919  21.883  25.201  1.00  0.00     0.163 HD
ATOM     34  O   UNL A   1      40.074  22.076  26.266  1.00  0.00    -0.269 OA
BRANCH  32  35
ATOM     35  C   UNL A   1      39.558  24.293  26.826  1.00  0.00     0.039 A 
ATOM     36  C   UNL A   1      39.120  24.511  28.136  1.00  0.00     0.014 A 
ATOM     37  C   UNL A   1      40.239  25.305  26.144  1.00  0.00     0.014 A 
ATOM     38  C   UNL A   1      39.423  25.712  28.782  1.00  0.00     0.010 A 
ATOM     39  C   UNL A   1      40.606  26.471  26.814  1.00  0.00     0.010 A 
ATOM     40  C   UNL A   1      40.203  26.688  28.141  1.00  0.00    -0.014 A 
BRANCH  40  41
ATOM     41  C   UNL A   1      40.616  27.931  28.848  1.00  0.00     0.031 A 
ATOM     42  C   UNL A   1      42.013  28.075  29.386  1.00  0.00     0.074 A 
ATOM     43  C   UNL A   1      39.712  28.908  29.059  1.00  0.00     0.049 A 
ATOM     44  N   UNL A   1      42.535  29.050  30.088  1.00  0.00    -0.248 NA
ATOM     45  C   UNL A   1      42.941  26.965  29.122  1.00  0.00     0.031 C 
ATOM     46  C   UNL A   1      38.315  28.874  28.624  1.00  0.00     0.029 A 
ATOM     47  N   UNL A   1      39.830  30.116  29.702  1.00  0.00    -0.354 N 
ATOM     48  C   UNL A   1      43.843  28.669  30.355  1.00  0.00     0.074 A 
ATOM     49  C   UNL A   1      44.019  27.348  29.790  1.00  0.00     0.031 C 
ATOM     50  C   UNL A   1      37.711  30.015  28.994  1.00  0.00     0.029 A 
ATOM     51  C   UNL A   1      38.663  30.841  29.730  1.00  0.00     0.049 A 
ATOM     52  H   UNL A   1      40.670  30.431  30.106  1.00  0.00     0.167 HD
ATOM     53  C   UNL A   1      44.815  29.364  30.992  1.00  0.00     0.037 A 
ATOM     54  C   UNL A   1      38.388  32.032  30.296  1.00  0.00     0.037 A 
ATOM     55  C   UNL A   1      44.642  30.685  31.540  1.00  0.00     0.049 A 
ATOM     56  C   UNL A   1      39.479  32.773  31.021  1.00  0.00     0.074 A 
ATOM     57  C   UNL A   1      45.582  31.493  32.156  1.00  0.00     0.029 A 
ATOM     58  N   UNL A   1      43.448  31.392  31.540  1.00  0.00    -0.354 N 
ATOM     59  N   UNL A   1      40.731  32.432  31.206  1.00  0.00    -0.248 NA
ATOM     60  C   UNL A   1      39.119  34.071  31.609  1.00  0.00     0.031 C 
ATOM     61  C   UNL A   1      44.943  32.663  32.581  1.00  0.00     0.029 A 
ATOM     62  C   UNL A   1      43.620  32.614  32.173  1.00  0.00     0.049 A 
ATOM     63  H   UNL A   1      42.602  31.072  31.151  1.00  0.00     0.167 HD
ATOM     64  C   UNL A   1      41.315  33.482  31.902  1.00  0.00     0.074 A 
ATOM     65  C   UNL A   1      40.285  34.481  32.091  1.00  0.00     0.031 C 
ATOM     66  C   UNL A   1      42.590  33.607  32.346  1.00  0.00     0.037 A 
BRANCH  53  67
ATOM     67  C   UNL A   1      46.160  28.710  31.136  1.00  0.00     0.064 A 
ATOM     68  C   UNL A   1      47.164  28.868  30.167  1.00  0.00     0.173 A 
ATOM     69  C   UNL A   1      46.465  27.949  32.275  1.00  0.00     0.173 A 
ATOM     70  F   UNL A   1      46.923  29.577  29.054  1.00  0.00    -0.203 F 
ATOM     71  C   UNL A   1      48.410  28.264  30.319  1.00  0.00     0.198 A 
ATOM     72  C   UNL A   1      47.723  27.376  32.440  1.00  0.00     0.198 A 
ATOM     73  F   UNL A   1      45.546  27.771  33.236  1.00  0.00    -0.203 F 
ATOM     74  F   UNL A   1      49.333  28.386  29.356  1.00  0.00    -0.200 F 
ATOM     75  C   UNL A   1      48.691  27.525  31.458  1.00  0.00     0.200 A 
ATOM     76  F   UNL A   1      47.999  26.675  33.549  1.00  0.00    -0.200 F 
ATOM     77  F   UNL A   1      49.892  26.952  31.607  1.00  0.00    -0.200 F 
ENDBRANCH  53  67
BRANCH  54  78
ATOM     78  C   UNL A   1      37.021  32.608  30.187  1.00  0.00     0.064 A 
ATOM     79  C   UNL A   1      36.647  33.373  29.072  1.00  0.00     0.173 A 
ATOM     80  C   UNL A   1      36.064  32.417  31.195  1.00  0.00     0.173 A 
ATOM     81  F   UNL A   1      37.531  33.600  28.089  1.00  0.00    -0.203 F 
ATOM     82  C   UNL A   1      35.379  33.944  28.982  1.00  0.00     0.198 A 
ATOM     83  C   UNL A   1      34.786  32.962  31.089  1.00  0.00     0.198 A 
ATOM     84  F   UNL A   1      36.366  31.686  32.278  1.00  0.00    -0.203 F 
ATOM     85  F   UNL A   1      35.067  34.713  27.929  1.00  0.00    -0.200 F 
ATOM     86  C   UNL A   1      34.448  33.734  29.988  1.00  0.00     0.200 A 
ATOM     87  F   UNL A   1      33.883  32.741  32.054  1.00  0.00    -0.200 F 
ATOM     88  F   UNL A   1      33.228  34.280  29.899  1.00  0.00    -0.200 F 
ENDBRANCH  54  78
BRANCH  66  89
ATOM     89  C   UNL A   1      42.959  34.887  33.040  1.00  0.00     0.064 A 
ATOM     90  C   UNL A   1      43.395  36.015  32.331  1.00  0.00     0.173 A 
ATOM     91  C   UNL A   1      42.840  34.996  34.435  1.00  0.00     0.173 A 
ATOM     92  F   UNL A   1      43.540  35.961  30.998  1.00  0.00    -0.203 F 
ATOM     93  C   UNL A   1      43.723  37.196  32.994  1.00  0.00     0.198 A 
ATOM     94  C   UNL A   1      43.136  36.188  35.091  1.00  0.00     0.198 A 
ATOM     95  F   UNL A   1      42.421  33.948  35.162  1.00  0.00    -0.203 F 
ATOM     96  F   UNL A   1      44.187  38.244  32.299  1.00  0.00    -0.200 F 
ATOM     97  C   UNL A   1      43.585  37.283  34.371  1.00  0.00     0.200 A 
ATOM     98  F   UNL A   1      42.986  36.275  36.419  1.00  0.00    -0.200 F 
ATOM     99  F   UNL A   1      43.894  38.423  35.005  1.00  0.00    -0.200 F 
ENDBRANCH  66  89
ENDBRANCH  40  41
ENDBRANCH  32  35
ENDBRANCH  30  31
ENDBRANCH  29  30
ENDBRANCH  28  29
ENDBRANCH  27  28
ENDBRANCH   3  27
TORSDOF 17
ENDMDL
MODEL 3
REMARK VINA RESULT:     -12.3      5.639     10.749
REMARK SMILES O=C(CC1(CC(=O)NNc2ccc([N+](=O)[O-])cc2)CCCC1)NCCCCNC(=O)c1ccc(-c2c3nc(c(-c4c(F)c(F)c(F)c(F)c4F)c4ccc([nH]4)c(-c4c(F)c(F)c(F)c(F)c4F)c4nc(c(-c5c(F)c(F)c(F)c(F)c5F)c5ccc2[nH]5)C=C4)C=C3)cc1
REMARK SMILES IDX 1 1 2 2 23 3 3 5 4 6 19 7 22 8 20 9 21 10 5 11 6 12 7 13
REMARK SMILES IDX 8 14 9 16 10 18 11 19 18 20 12 21 17 22 13 23 14 24 15 25
REMARK SMILES IDX 16 26 24 27 25 28 26 29 27 30 28 31 29 32 30 34 31 35 32 36
REMARK SMILES IDX 93 37 33 38 92 39 34 40 35 41 36 42 86 43 37 44 91 45 85 46
REMARK SMILES IDX 87 47 38 48 90 49 84 50 83 51 39 53 71 54 51 55 70 56 52 57
REMARK SMILES IDX 55 58 69 59 88 60 53 61 54 62 68 64 89 65 56 66 40 67 41 68
REMARK SMILES IDX 49 69 42 70 43 71 47 72 50 73 44 74 45 75 48 76 46 77 72 78
REMARK SMILES IDX 73 79 81 80 74 81 75 82 79 83 82 84 76 85 77 86 80 87 78 88
REMARK SMILES IDX 57 89 58 90 66 91 59 92 60 93 64 94 67 95 61 96 62 97 65 98
REMARK SMILES IDX 63 99
REMARK H PARENT 23 4 8 15 9 17 28 33 87 52 55 63
REMARK Flexibility Score: inf
ROOT
ATOM      1  O   UNL A   1      35.362  23.605  24.142  1.00  0.00    -0.275 OA
ATOM      2  C   UNL A   1      35.153  23.282  25.307  1.00  0.00     0.220 C 
ATOM      3  N   UNL A   1      36.037  22.550  26.063  1.00  0.00    -0.356 N 
ATOM      4  H   UNL A   1      35.855  22.423  27.023  1.00  0.00     0.163 HD
ENDROOT
BRANCH   2   5
ATOM      5  C   UNL A   1      33.850  23.609  26.013  1.00  0.00     0.107 C 
BRANCH   5   6
ATOM      6  C   UNL A   1      33.153  24.914  25.549  1.00  0.00    -0.012 C 
ATOM      7  C   UNL A   1      31.947  25.326  26.429  1.00  0.00     0.008 C 
ATOM      8  C   UNL A   1      34.036  26.162  25.730  1.00  0.00     0.008 C 
ATOM      9  C   UNL A   1      31.733  26.815  26.149  1.00  0.00     0.001 C 
ATOM     10  C   UNL A   1      33.077  27.349  25.658  1.00  0.00     0.001 C 
BRANCH   6  11
ATOM     11  C   UNL A   1      32.663  24.741  24.078  1.00  0.00     0.109 C 
BRANCH  11  12
ATOM     12  C   UNL A   1      31.387  23.927  23.902  1.00  0.00     0.238 C 
ATOM     13  O   UNL A   1      30.278  24.436  24.076  1.00  0.00    -0.273 OA
ATOM     14  N   UNL A   1      31.476  22.608  23.532  1.00  0.00    -0.270 N 
ATOM     15  H   UNL A   1      30.642  22.105  23.382  1.00  0.00     0.191 HD
BRANCH  14  16
ATOM     16  N   UNL A   1      32.684  21.951  23.364  1.00  0.00    -0.299 N 
ATOM     17  H   UNL A   1      33.490  22.412  23.040  1.00  0.00     0.188 HD
BRANCH  16  18
ATOM     18  C   UNL A   1      32.682  20.583  23.685  1.00  0.00     0.055 A 
ATOM     19  C   UNL A   1      33.205  20.165  24.916  1.00  0.00     0.034 A 
ATOM     20  C   UNL A   1      32.330  19.615  22.737  1.00  0.00     0.034 A 
ATOM     21  C   UNL A   1      33.352  18.809  25.217  1.00  0.00     0.088 A 
ATOM     22  C   UNL A   1      32.483  18.253  23.017  1.00  0.00     0.088 A 
ATOM     23  C   UNL A   1      33.001  17.855  24.257  1.00  0.00     0.269 A 
BRANCH  23  24
ATOM     24  N   UNL A   1      33.212  16.430  24.539  1.00  0.00     0.062 N 
ATOM     25  O   UNL A   1      34.054  15.828  23.859  1.00  0.00    -0.258 OA
ATOM     26  O   UNL A   1      32.528  15.914  25.433  1.00  0.00    -0.258 OA
ENDBRANCH  23  24
ENDBRANCH  16  18
ENDBRANCH  14  16
ENDBRANCH  11  12
ENDBRANCH   6  11
ENDBRANCH   5   6
ENDBRANCH   2   5
BRANCH   3  27
ATOM     27  C   UNL A   1      37.228  21.961  25.489  1.00  0.00     0.116 C 
BRANCH  27  28
ATOM     28  C   UNL A   1      36.959  20.590  24.877  1.00  0.00     0.023 C 
BRANCH  28  29
ATOM     29  C   UNL A   1      38.102  19.578  25.011  1.00  0.00     0.023 C 
BRANCH  29  30
ATOM     30  C   UNL A   1      39.270  20.020  25.888  1.00  0.00     0.116 C 
BRANCH  30  31
ATOM     31  N   UNL A   1      40.343  19.039  25.922  1.00  0.00    -0.352 N 
ATOM     32  C   UNL A   1      41.699  19.218  26.027  1.00  0.00     0.251 C 
ATOM     33  H   UNL A   1      40.052  18.101  25.859  1.00  0.00     0.163 HD
ATOM     34  O   UNL A   1      42.457  18.263  25.851  1.00  0.00    -0.269 OA
BRANCH  32  35
ATOM     35  C   UNL A   1      42.268  20.551  26.327  1.00  0.00     0.039 A 
ATOM     36  C   UNL A   1      42.707  21.350  25.267  1.00  0.00     0.014 A 
ATOM     37  C   UNL A   1      42.399  21.008  27.641  1.00  0.00     0.014 A 
ATOM     38  C   UNL A   1      43.212  22.629  25.519  1.00  0.00     0.010 A 
ATOM     39  C   UNL A   1      42.832  22.310  27.886  1.00  0.00     0.010 A 
ATOM     40  C   UNL A   1      43.242  23.136  26.828  1.00  0.00    -0.014 A 
BRANCH  40  41
ATOM     41  C   UNL A   1      43.687  24.529  27.104  1.00  0.00     0.031 A 
ATOM     42  C   UNL A   1      42.710  25.557  27.606  1.00  0.00     0.074 A 
ATOM     43  C   UNL A   1      44.960  24.885  26.845  1.00  0.00     0.049 A 
ATOM     44  N   UNL A   1      42.894  26.833  27.835  1.00  0.00    -0.248 NA
ATOM     45  C   UNL A   1      41.336  25.095  27.859  1.00  0.00     0.031 C 
ATOM     46  C   UNL A   1      45.996  23.995  26.318  1.00  0.00     0.029 A 
ATOM     47  N   UNL A   1      45.600  26.094  26.978  1.00  0.00    -0.354 N 
ATOM     48  C   UNL A   1      41.664  27.326  28.250  1.00  0.00     0.074 A 
ATOM     49  C   UNL A   1      40.726  26.225  28.186  1.00  0.00     0.031 C 
ATOM     50  C   UNL A   1      47.144  24.680  26.194  1.00  0.00     0.029 A 
ATOM     51  C   UNL A   1      46.916  26.067  26.586  1.00  0.00     0.049 A 
ATOM     52  H   UNL A   1      45.155  26.903  27.321  1.00  0.00     0.167 HD
ATOM     53  C   UNL A   1      41.349  28.575  28.668  1.00  0.00     0.037 A 
ATOM     54  C   UNL A   1      47.834  27.052  26.538  1.00  0.00     0.037 A 
ATOM     55  C   UNL A   1      42.287  29.666  28.747  1.00  0.00     0.049 A 
ATOM     56  C   UNL A   1      47.451  28.438  26.984  1.00  0.00     0.074 A 
ATOM     57  C   UNL A   1      42.076  30.954  29.208  1.00  0.00     0.029 A 
ATOM     58  N   UNL A   1      43.615  29.598  28.350  1.00  0.00    -0.354 N 
ATOM     59  N   UNL A   1      46.302  28.874  27.440  1.00  0.00    -0.248 NA
ATOM     60  C   UNL A   1      48.498  29.467  26.916  1.00  0.00     0.031 C 
ATOM     61  C   UNL A   1      43.259  31.681  29.037  1.00  0.00     0.029 A 
ATOM     62  C   UNL A   1      44.227  30.829  28.529  1.00  0.00     0.049 A 
ATOM     63  H   UNL A   1      44.057  28.794  27.992  1.00  0.00     0.167 HD
ATOM     64  C   UNL A   1      46.495  30.216  27.742  1.00  0.00     0.074 A 
ATOM     65  C   UNL A   1      47.877  30.518  27.434  1.00  0.00     0.031 C 
ATOM     66  C   UNL A   1      45.607  31.116  28.229  1.00  0.00     0.037 A 
BRANCH  53  67
ATOM     67  C   UNL A   1      39.926  28.837  29.075  1.00  0.00     0.064 A 
ATOM     68  C   UNL A   1      38.960  29.258  28.148  1.00  0.00     0.173 A 
ATOM     69  C   UNL A   1      39.512  28.624  30.399  1.00  0.00     0.173 A 
ATOM     70  F   UNL A   1      39.303  29.487  26.872  1.00  0.00    -0.203 F 
ATOM     71  C   UNL A   1      37.642  29.488  28.538  1.00  0.00     0.198 A 
ATOM     72  C   UNL A   1      38.187  28.820  30.778  1.00  0.00     0.198 A 
ATOM     73  F   UNL A   1      40.392  28.214  31.326  1.00  0.00    -0.203 F 
ATOM     74  F   UNL A   1      36.752  29.941  27.646  1.00  0.00    -0.200 F 
ATOM     75  C   UNL A   1      37.255  29.260  29.850  1.00  0.00     0.200 A 
ATOM     76  F   UNL A   1      37.811  28.585  32.043  1.00  0.00    -0.200 F 
ATOM     77  F   UNL A   1      35.986  29.472  30.221  1.00  0.00    -0.200 F 
ENDBRANCH  53  67
BRANCH  54  78
ATOM     78  C   UNL A   1      49.212  26.760  26.061  1.00  0.00     0.064 A 
ATOM     79  C   UNL A   1      50.190  26.269  26.939  1.00  0.00     0.173 A 
ATOM     80  C   UNL A   1      49.585  26.975  24.726  1.00  0.00     0.173 A 
ATOM     81  F   UNL A   1      49.889  26.064  28.229  1.00  0.00    -0.203 F 
ATOM     82  C   UNL A   1      51.492  26.028  26.505  1.00  0.00     0.198 A 
ATOM     83  C   UNL A   1      50.879  26.703  24.286  1.00  0.00     0.198 A 
ATOM     84  F   UNL A   1      48.686  27.434  23.843  1.00  0.00    -0.203 F 
ATOM     85  F   UNL A   1      52.419  25.608  27.377  1.00  0.00    -0.200 F 
ATOM     86  C   UNL A   1      51.834  26.240  25.178  1.00  0.00     0.200 A 
ATOM     87  F   UNL A   1      51.201  26.891  22.999  1.00  0.00    -0.200 F 
ATOM     88  F   UNL A   1      53.085  26.004  24.760  1.00  0.00    -0.200 F 
ENDBRANCH  54  78
BRANCH  66  89
ATOM     89  C   UNL A   1      46.110  32.506  28.504  1.00  0.00     0.064 A 
ATOM     90  C   UNL A   1      46.726  32.844  29.718  1.00  0.00     0.173 A 
ATOM     91  C   UNL A   1      46.005  33.504  27.522  1.00  0.00     0.173 A 
ATOM     92  F   UNL A   1      46.839  31.931  30.695  1.00  0.00    -0.203 F 
ATOM     93  C   UNL A   1      47.194  34.135  29.949  1.00  0.00     0.198 A 
ATOM     94  C   UNL A   1      46.505  34.784  27.743  1.00  0.00     0.198 A 
ATOM     95  F   UNL A   1      45.430  33.233  26.340  1.00  0.00    -0.203 F 
ATOM     96  F   UNL A   1      47.732  34.447  31.136  1.00  0.00    -0.200 F 
ATOM     97  C   UNL A   1      47.090  35.101  28.959  1.00  0.00     0.200 A 
ATOM     98  F   UNL A   1      46.419  35.712  26.780  1.00  0.00    -0.200 F 
ATOM     99  F   UNL A   1      47.549  36.341  29.181  1.00  0.00    -0.200 F 
ENDBRANCH  66  89
ENDBRANCH  40  41
ENDBRANCH  32  35
ENDBRANCH  30  31
ENDBRANCH  29  30
ENDBRANCH  28  29
ENDBRANCH  27  28
ENDBRANCH   3  27
TORSDOF 17
ENDMDL
