MODEL 1
REMARK VINA RESULT:     -12.0      0.000      0.000
REMARK SMILES O=C(COc1cccc(C(=O)NCCCCNC(=O)c2ccc(-c3c4nc(c(-c5c(F)c(F)c(F)c(F)c5F)c5ccc([nH]5)c(-c5c(F)c(F)c(F)c(F)c5F)c5nc(c(-c6c(F)c(F)c(F)c(F)c6F)c6ccc3[nH]6)C=C5)C=C4)cc2)c1)NCCc1cccs1
REMARK SMILES IDX 10 1 11 2 12 3 9 5 5 6 6 7 83 8 7 9 8 10 4 11 3 12 2 13 1 14
REMARK SMILES IDX 84 15 85 17 86 18 87 19 88 20 91 21 89 22 90 23 13 24 14 25
REMARK SMILES IDX 15 26 16 27 17 28 18 29 19 31 20 32 21 33 82 34 22 35 81 36
REMARK SMILES IDX 23 37 24 38 25 39 75 40 26 41 80 42 74 43 76 44 27 45 79 46
REMARK SMILES IDX 73 47 72 48 28 50 60 51 40 52 59 53 41 54 44 55 58 56 77 57
REMARK SMILES IDX 42 58 43 59 57 61 78 62 45 63 29 64 30 65 38 66 31 67 32 68
REMARK SMILES IDX 36 69 39 70 33 71 34 72 37 73 35 74 61 75 62 76 70 77 63 78
REMARK SMILES IDX 64 79 68 80 71 81 65 82 66 83 69 84 67 85 46 86 47 87 55 88
REMARK SMILES IDX 48 89 49 90 53 91 56 92 50 93 51 94 54 95 52 96
REMARK H PARENT 12 4 84 16 17 30 76 49 44 60
REMARK Flexibility Score: inf
ROOT
ATOM      1  C   UNL A   1      33.065  28.924  24.013  1.00  0.00     0.251 C 
ATOM      2  O   UNL A   1      33.642  29.189  22.955  1.00  0.00    -0.269 OA
ATOM      3  N   UNL A   1      33.456  29.652  25.102  1.00  0.00    -0.352 N 
ATOM      4  H   UNL A   1      34.101  30.353  24.850  1.00  0.00     0.163 HD
ENDROOT
BRANCH   1   5
ATOM      5  C   UNL A   1      32.044  27.839  24.008  1.00  0.00     0.043 A 
ATOM      6  C   UNL A   1      31.294  25.529  24.141  1.00  0.00     0.120 A 
ATOM      7  C   UNL A   1      29.981  25.939  23.906  1.00  0.00     0.046 A 
ATOM      8  C   UNL A   1      32.309  26.488  24.240  1.00  0.00     0.060 A 
ATOM      9  C   UNL A   1      29.681  27.292  23.769  1.00  0.00     0.005 A 
ATOM     10  C   UNL A   1      30.711  28.232  23.800  1.00  0.00     0.014 A 
BRANCH   6  11
ATOM     11  O   UNL A   1      31.478  24.171  24.172  1.00  0.00    -0.484 OA
BRANCH  11  12
ATOM     12  C   UNL A   1      30.744  23.425  25.136  1.00  0.00     0.329 C 
BRANCH  12  13
ATOM     13  C   UNL A   1      31.477  23.082  26.433  1.00  0.00     0.257 C 
ATOM     14  O   UNL A   1      31.297  23.727  27.465  1.00  0.00    -0.271 OA
ATOM     15  N   UNL A   1      32.390  22.051  26.338  1.00  0.00    -0.353 N 
ATOM     16  H   UNL A   1      32.368  21.453  25.556  1.00  0.00     0.163 HD
BRANCH  15  17
ATOM     17  C   UNL A   1      33.379  21.838  27.373  1.00  0.00     0.121 C 
BRANCH  17  18
ATOM     18  C   UNL A   1      34.575  22.782  27.362  1.00  0.00     0.068 C 
BRANCH  18  19
ATOM     19  C   UNL A   1      35.508  22.689  26.182  1.00  0.00     0.006 A 
ATOM     20  C   UNL A   1      36.095  23.762  25.537  1.00  0.00     0.015 A 
ATOM     21  S   UNL A   1      35.937  21.211  25.429  1.00  0.00    -0.149 S 
ATOM     22  C   UNL A   1      36.896  23.367  24.429  1.00  0.00     0.012 A 
ATOM     23  C   UNL A   1      36.894  22.002  24.258  1.00  0.00     0.065 A 
ENDBRANCH  18  19
ENDBRANCH  17  18
ENDBRANCH  15  17
ENDBRANCH  12  13
ENDBRANCH  11  12
ENDBRANCH   6  11
ENDBRANCH   1   5
BRANCH   3  24
ATOM     24  C   UNL A   1      33.182  29.678  26.533  1.00  0.00     0.116 C 
BRANCH  24  25
ATOM     25  C   UNL A   1      31.823  30.319  26.808  1.00  0.00     0.023 C 
BRANCH  25  26
ATOM     26  C   UNL A   1      31.745  31.852  26.840  1.00  0.00     0.023 C 
BRANCH  26  27
ATOM     27  C   UNL A   1      32.894  32.609  27.504  1.00  0.00     0.116 C 
BRANCH  27  28
ATOM     28  N   UNL A   1      32.630  34.043  27.594  1.00  0.00    -0.352 N 
ATOM     29  C   UNL A   1      33.024  34.911  28.593  1.00  0.00     0.251 C 
ATOM     30  H   UNL A   1      32.111  34.437  26.856  1.00  0.00     0.163 HD
ATOM     31  O   UNL A   1      32.472  35.984  28.768  1.00  0.00    -0.269 OA
BRANCH  29  32
ATOM     32  C   UNL A   1      34.170  34.504  29.432  1.00  0.00     0.039 A 
ATOM     33  C   UNL A   1      33.975  33.967  30.705  1.00  0.00     0.014 A 
ATOM     34  C   UNL A   1      35.453  34.618  28.892  1.00  0.00     0.014 A 
ATOM     35  C   UNL A   1      35.073  33.458  31.404  1.00  0.00     0.010 A 
ATOM     36  C   UNL A   1      36.524  34.032  29.546  1.00  0.00     0.010 A 
ATOM     37  C   UNL A   1      36.347  33.448  30.808  1.00  0.00    -0.014 A 
BRANCH  37  38
ATOM     38  C   UNL A   1      37.530  32.837  31.460  1.00  0.00     0.031 A 
ATOM     39  C   UNL A   1      38.221  31.679  30.797  1.00  0.00     0.074 A 
ATOM     40  C   UNL A   1      37.885  33.227  32.699  1.00  0.00     0.049 A 
ATOM     41  N   UNL A   1      39.146  30.882  31.267  1.00  0.00    -0.248 NA
ATOM     42  C   UNL A   1      37.772  31.339  29.436  1.00  0.00     0.031 C 
ATOM     43  C   UNL A   1      37.243  34.293  33.470  1.00  0.00     0.029 A 
ATOM     44  N   UNL A   1      38.859  32.750  33.539  1.00  0.00    -0.354 N 
ATOM     45  C   UNL A   1      39.362  29.933  30.278  1.00  0.00     0.074 A 
ATOM     46  C   UNL A   1      38.434  30.216  29.206  1.00  0.00     0.031 C 
ATOM     47  C   UNL A   1      37.851  34.401  34.662  1.00  0.00     0.029 A 
ATOM     48  C   UNL A   1      38.896  33.387  34.755  1.00  0.00     0.049 A 
ATOM     49  H   UNL A   1      39.472  32.020  33.295  1.00  0.00     0.167 HD
ATOM     50  C   UNL A   1      40.272  28.931  30.256  1.00  0.00     0.037 A 
ATOM     51  C   UNL A   1      39.682  33.168  35.827  1.00  0.00     0.037 A 
ATOM     52  C   UNL A   1      41.221  28.687  31.308  1.00  0.00     0.049 A 
ATOM     53  C   UNL A   1      40.709  32.070  35.765  1.00  0.00     0.074 A 
ATOM     54  C   UNL A   1      42.239  27.751  31.356  1.00  0.00     0.029 A 
ATOM     55  N   UNL A   1      41.268  29.393  32.502  1.00  0.00    -0.354 N 
ATOM     56  N   UNL A   1      40.955  31.221  34.796  1.00  0.00    -0.248 NA
ATOM     57  C   UNL A   1      41.571  31.903  36.942  1.00  0.00     0.031 C 
ATOM     58  C   UNL A   1      42.880  27.867  32.594  1.00  0.00     0.029 A 
ATOM     59  C   UNL A   1      42.290  28.905  33.299  1.00  0.00     0.049 A 
ATOM     60  H   UNL A   1      40.666  30.131  32.747  1.00  0.00     0.167 HD
ATOM     61  C   UNL A   1      42.014  30.439  35.234  1.00  0.00     0.074 A 
ATOM     62  C   UNL A   1      42.373  30.923  36.552  1.00  0.00     0.031 C 
ATOM     63  C   UNL A   1      42.635  29.411  34.604  1.00  0.00     0.037 A 
BRANCH  50  64
ATOM     64  C   UNL A   1      40.290  28.038  29.049  1.00  0.00     0.064 A 
ATOM     65  C   UNL A   1      41.039  28.360  27.906  1.00  0.00     0.173 A 
ATOM     66  C   UNL A   1      39.562  26.839  29.037  1.00  0.00     0.173 A 
ATOM     67  F   UNL A   1      41.743  29.501  27.859  1.00  0.00    -0.203 F 
ATOM     68  C   UNL A   1      41.028  27.534  26.785  1.00  0.00     0.198 A 
ATOM     69  C   UNL A   1      39.580  25.999  27.925  1.00  0.00     0.198 A 
ATOM     70  F   UNL A   1      38.831  26.480  30.104  1.00  0.00    -0.203 F 
ATOM     71  F   UNL A   1      41.705  27.894  25.685  1.00  0.00    -0.200 F 
ATOM     72  C   UNL A   1      40.304  26.353  26.797  1.00  0.00     0.200 A 
ATOM     73  F   UNL A   1      38.889  24.851  27.944  1.00  0.00    -0.200 F 
ATOM     74  F   UNL A   1      40.298  25.558  25.719  1.00  0.00    -0.200 F 
ENDBRANCH  50  64
BRANCH  51  75
ATOM     75  C   UNL A   1      39.556  34.033  37.028  1.00  0.00     0.064 A 
ATOM     76  C   UNL A   1      38.802  33.614  38.133  1.00  0.00     0.173 A 
ATOM     77  C   UNL A   1      40.190  35.281  37.106  1.00  0.00     0.173 A 
ATOM     78  F   UNL A   1      38.164  32.435  38.098  1.00  0.00    -0.203 F 
ATOM     79  C   UNL A   1      38.673  34.417  39.264  1.00  0.00     0.198 A 
ATOM     80  C   UNL A   1      40.082  36.073  38.248  1.00  0.00     0.198 A 
ATOM     81  F   UNL A   1      40.930  35.725  36.078  1.00  0.00    -0.203 F 
ATOM     82  F   UNL A   1      37.915  34.008  40.290  1.00  0.00    -0.200 F 
ATOM     83  C   UNL A   1      39.317  35.644  39.323  1.00  0.00     0.200 A 
ATOM     84  F   UNL A   1      40.717  37.251  38.307  1.00  0.00    -0.200 F 
ATOM     85  F   UNL A   1      39.199  36.413  40.413  1.00  0.00    -0.200 F 
ENDBRANCH  51  75
BRANCH  63  86
ATOM     86  C   UNL A   1      43.786  28.767  35.315  1.00  0.00     0.064 A 
ATOM     87  C   UNL A   1      45.104  29.211  35.133  1.00  0.00     0.173 A 
ATOM     88  C   UNL A   1      43.562  27.724  36.227  1.00  0.00     0.173 A 
ATOM     89  F   UNL A   1      45.369  30.196  34.261  1.00  0.00    -0.203 F 
ATOM     90  C   UNL A   1      46.159  28.619  35.822  1.00  0.00     0.198 A 
ATOM     91  C   UNL A   1      44.615  27.153  36.935  1.00  0.00     0.198 A 
ATOM     92  F   UNL A   1      42.318  27.269  36.441  1.00  0.00    -0.203 F 
ATOM     93  F   UNL A   1      47.414  29.029  35.601  1.00  0.00    -0.200 F 
ATOM     94  C   UNL A   1      45.912  27.598  36.727  1.00  0.00     0.200 A 
ATOM     95  F   UNL A   1      44.375  26.175  37.818  1.00  0.00    -0.200 F 
ATOM     96  F   UNL A   1      46.927  27.034  37.396  1.00  0.00    -0.200 F 
ENDBRANCH  63  86
ENDBRANCH  37  38
ENDBRANCH  29  32
ENDBRANCH  27  28
ENDBRANCH  26  27
ENDBRANCH  25  26
ENDBRANCH  24  25
ENDBRANCH   3  24
TORSDOF 17
ENDMDL
MODEL 2
REMARK VINA RESULT:     -11.4      5.259     10.032
REMARK SMILES O=C(COc1cccc(C(=O)NCCCCNC(=O)c2ccc(-c3c4nc(c(-c5c(F)c(F)c(F)c(F)c5F)c5ccc([nH]5)c(-c5c(F)c(F)c(F)c(F)c5F)c5nc(c(-c6c(F)c(F)c(F)c(F)c6F)c6ccc3[nH]6)C=C5)C=C4)cc2)c1)NCCc1cccs1
REMARK SMILES IDX 10 1 11 2 12 3 9 5 5 6 6 7 83 8 7 9 8 10 4 11 3 12 2 13 1 14
REMARK SMILES IDX 84 15 85 17 86 18 87 19 88 20 91 21 89 22 90 23 13 24 14 25
REMARK SMILES IDX 15 26 16 27 17 28 18 29 19 31 20 32 21 33 82 34 22 35 81 36
REMARK SMILES IDX 23 37 24 38 25 39 75 40 26 41 80 42 74 43 76 44 27 45 79 46
REMARK SMILES IDX 73 47 72 48 28 50 60 51 40 52 59 53 41 54 44 55 58 56 77 57
REMARK SMILES IDX 42 58 43 59 57 61 78 62 45 63 29 64 30 65 38 66 31 67 32 68
REMARK SMILES IDX 36 69 39 70 33 71 34 72 37 73 35 74 61 75 62 76 70 77 63 78
REMARK SMILES IDX 64 79 68 80 71 81 65 82 66 83 69 84 67 85 46 86 47 87 55 88
REMARK SMILES IDX 48 89 49 90 53 91 56 92 50 93 51 94 54 95 52 96
REMARK H PARENT 12 4 84 16 17 30 76 49 44 60
REMARK Flexibility Score: inf
ROOT
ATOM      1  C   UNL A   1      44.196  20.507  24.492  1.00  0.00     0.251 C 
ATOM      2  O   UNL A   1      44.604  20.425  23.330  1.00  0.00    -0.269 OA
ATOM      3  N   UNL A   1      43.718  19.348  25.036  1.00  0.00    -0.352 N 
ATOM      4  H   UNL A   1      43.852  18.585  24.427  1.00  0.00     0.163 HD
ENDROOT
BRANCH   1   5
ATOM      5  C   UNL A   1      44.232  21.838  25.161  1.00  0.00     0.043 A 
ATOM      6  C   UNL A   1      43.739  24.211  25.356  1.00  0.00     0.120 A 
ATOM      7  C   UNL A   1      44.465  24.267  26.546  1.00  0.00     0.046 A 
ATOM      8  C   UNL A   1      43.586  22.986  24.698  1.00  0.00     0.060 A 
ATOM      9  C   UNL A   1      45.036  23.113  27.076  1.00  0.00     0.005 A 
ATOM     10  C   UNL A   1      44.935  21.911  26.376  1.00  0.00     0.014 A 
BRANCH   6  11
ATOM     11  O   UNL A   1      43.300  25.424  24.891  1.00  0.00    -0.484 OA
BRANCH  11  12
ATOM     12  C   UNL A   1      44.098  26.569  25.168  1.00  0.00     0.329 C 
BRANCH  12  13
ATOM     13  C   UNL A   1      43.348  27.883  25.391  1.00  0.00     0.257 C 
ATOM     14  O   UNL A   1      42.399  28.212  24.681  1.00  0.00    -0.271 OA
ATOM     15  N   UNL A   1      43.856  28.686  26.392  1.00  0.00    -0.353 N 
ATOM     16  H   UNL A   1      44.489  28.309  27.044  1.00  0.00     0.163 HD
BRANCH  15  17
ATOM     17  C   UNL A   1      43.469  30.077  26.495  1.00  0.00     0.121 C 
BRANCH  17  18
ATOM     18  C   UNL A   1      44.044  30.847  27.677  1.00  0.00     0.068 C 
BRANCH  18  19
ATOM     19  C   UNL A   1      44.144  32.343  27.536  1.00  0.00     0.006 A 
ATOM     20  C   UNL A   1      44.017  33.257  28.566  1.00  0.00     0.015 A 
ATOM     21  S   UNL A   1      44.383  33.138  26.037  1.00  0.00    -0.149 S 
ATOM     22  C   UNL A   1      44.118  34.605  28.121  1.00  0.00     0.012 A 
ATOM     23  C   UNL A   1      44.316  34.682  26.762  1.00  0.00     0.065 A 
ENDBRANCH  18  19
ENDBRANCH  17  18
ENDBRANCH  15  17
ENDBRANCH  12  13
ENDBRANCH  11  12
ENDBRANCH   6  11
ENDBRANCH   1   5
BRANCH   3  24
ATOM     24  C   UNL A   1      43.065  18.928  26.271  1.00  0.00     0.116 C 
BRANCH  24  25
ATOM     25  C   UNL A   1      41.682  19.565  26.389  1.00  0.00     0.023 C 
BRANCH  25  26
ATOM     26  C   UNL A   1      41.442  20.554  27.538  1.00  0.00     0.023 C 
BRANCH  26  27
ATOM     27  C   UNL A   1      41.080  21.993  27.174  1.00  0.00     0.116 C 
BRANCH  27  28
ATOM     28  N   UNL A   1      39.988  22.059  26.206  1.00  0.00    -0.352 N 
ATOM     29  C   UNL A   1      38.969  22.989  26.147  1.00  0.00     0.251 C 
ATOM     30  H   UNL A   1      39.978  21.359  25.514  1.00  0.00     0.163 HD
ATOM     31  O   UNL A   1      37.930  22.768  25.547  1.00  0.00    -0.269 OA
BRANCH  29  32
ATOM     32  C   UNL A   1      39.196  24.286  26.817  1.00  0.00     0.039 A 
ATOM     33  C   UNL A   1      38.776  24.501  28.131  1.00  0.00     0.014 A 
ATOM     34  C   UNL A   1      39.893  25.274  26.117  1.00  0.00     0.014 A 
ATOM     35  C   UNL A   1      39.141  25.686  28.775  1.00  0.00     0.010 A 
ATOM     36  C   UNL A   1      40.329  26.405  26.785  1.00  0.00     0.010 A 
ATOM     37  C   UNL A   1      39.958  26.624  28.120  1.00  0.00    -0.014 A 
BRANCH  37  38
ATOM     38  C   UNL A   1      40.455  27.854  28.783  1.00  0.00     0.031 A 
ATOM     39  C   UNL A   1      41.870  27.899  29.286  1.00  0.00     0.074 A 
ATOM     40  C   UNL A   1      39.599  28.857  29.056  1.00  0.00     0.049 A 
ATOM     41  N   UNL A   1      42.453  28.787  30.050  1.00  0.00    -0.248 NA
ATOM     42  C   UNL A   1      42.733  26.762  28.921  1.00  0.00     0.031 C 
ATOM     43  C   UNL A   1      38.185  28.893  28.680  1.00  0.00     0.029 A 
ATOM     44  N   UNL A   1      39.790  30.030  29.742  1.00  0.00    -0.354 N 
ATOM     45  C   UNL A   1      43.732  28.300  30.282  1.00  0.00     0.074 A 
ATOM     46  C   UNL A   1      43.823  27.013  29.629  1.00  0.00     0.031 C 
ATOM     47  C   UNL A   1      37.641  30.038  29.123  1.00  0.00     0.029 A 
ATOM     48  C   UNL A   1      38.655  30.796  29.848  1.00  0.00     0.049 A 
ATOM     49  H   UNL A   1      40.658  30.297  30.122  1.00  0.00     0.167 HD
ATOM     50  C   UNL A   1      44.747  28.886  30.959  1.00  0.00     0.037 A 
ATOM     51  C   UNL A   1      38.457  31.973  30.471  1.00  0.00     0.037 A 
ATOM     52  C   UNL A   1      44.660  30.186  31.567  1.00  0.00     0.049 A 
ATOM     53  C   UNL A   1      39.610  32.621  31.188  1.00  0.00     0.074 A 
ATOM     54  C   UNL A   1      45.649  30.910  32.208  1.00  0.00     0.029 A 
ATOM     55  N   UNL A   1      43.508  30.960  31.603  1.00  0.00    -0.354 N 
ATOM     56  N   UNL A   1      40.837  32.186  31.343  1.00  0.00    -0.248 NA
ATOM     57  C   UNL A   1      39.353  33.926  31.811  1.00  0.00     0.031 C 
ATOM     58  C   UNL A   1      45.087  32.108  32.662  1.00  0.00     0.029 A 
ATOM     59  C   UNL A   1      43.759  32.149  32.266  1.00  0.00     0.049 A 
ATOM     60  H   UNL A   1      42.642  30.703  31.214  1.00  0.00     0.167 HD
ATOM     61  C   UNL A   1      41.504  33.172  32.056  1.00  0.00     0.074 A 
ATOM     62  C   UNL A   1      40.548  34.235  32.292  1.00  0.00     0.031 C 
ATOM     63  C   UNL A   1      42.793  33.197  32.479  1.00  0.00     0.037 A 
BRANCH  50  64
ATOM     64  C   UNL A   1      46.040  28.128  31.061  1.00  0.00     0.064 A 
ATOM     65  C   UNL A   1      46.252  27.166  32.061  1.00  0.00     0.173 A 
ATOM     66  C   UNL A   1      47.074  28.354  30.141  1.00  0.00     0.173 A 
ATOM     67  F   UNL A   1      45.300  26.921  32.974  1.00  0.00    -0.203 F 
ATOM     68  C   UNL A   1      47.463  26.488  32.158  1.00  0.00     0.198 A 
ATOM     69  C   UNL A   1      48.274  27.649  30.222  1.00  0.00     0.198 A 
ATOM     70  F   UNL A   1      46.925  29.260  29.162  1.00  0.00    -0.203 F 
ATOM     71  F   UNL A   1      47.662  25.617  33.158  1.00  0.00    -0.200 F 
ATOM     72  C   UNL A   1      48.470  26.725  31.237  1.00  0.00     0.200 A 
ATOM     73  F   UNL A   1      49.241  27.871  29.323  1.00  0.00    -0.200 F 
ATOM     74  F   UNL A   1      49.634  26.068  31.330  1.00  0.00    -0.200 F 
ENDBRANCH  50  64
BRANCH  51  75
ATOM     75  C   UNL A   1      37.128  32.632  30.406  1.00  0.00     0.064 A 
ATOM     76  C   UNL A   1      36.186  32.440  31.427  1.00  0.00     0.173 A 
ATOM     77  C   UNL A   1      36.773  33.470  29.340  1.00  0.00     0.173 A 
ATOM     78  F   UNL A   1      36.473  31.634  32.459  1.00  0.00    -0.203 F 
ATOM     79  C   UNL A   1      34.934  33.049  31.376  1.00  0.00     0.198 A 
ATOM     80  C   UNL A   1      35.529  34.100  29.303  1.00  0.00     0.198 A 
ATOM     81  F   UNL A   1      37.641  33.692  28.342  1.00  0.00    -0.203 F 
ATOM     82  F   UNL A   1      34.040  32.818  32.347  1.00  0.00    -0.200 F 
ATOM     83  C   UNL A   1      34.608  33.883  30.317  1.00  0.00     0.200 A 
ATOM     84  F   UNL A   1      35.224  34.916  28.285  1.00  0.00    -0.200 F 
ATOM     85  F   UNL A   1      33.407  34.474  30.272  1.00  0.00    -0.200 F 
ENDBRANCH  51  75
BRANCH  63  86
ATOM     86  C   UNL A   1      43.251  34.425  33.207  1.00  0.00     0.064 A 
ATOM     87  C   UNL A   1      43.720  35.554  32.520  1.00  0.00     0.173 A 
ATOM     88  C   UNL A   1      43.174  34.489  34.606  1.00  0.00     0.173 A 
ATOM     89  F   UNL A   1      43.825  35.535  31.182  1.00  0.00    -0.203 F 
ATOM     90  C   UNL A   1      44.116  36.696  33.210  1.00  0.00     0.198 A 
ATOM     91  C   UNL A   1      43.544  35.642  35.292  1.00  0.00     0.198 A 
ATOM     92  F   UNL A   1      42.725  33.437  35.307  1.00  0.00    -0.203 F 
ATOM     93  F   UNL A   1      44.602  37.748  32.538  1.00  0.00    -0.200 F 
ATOM     94  C   UNL A   1      44.021  36.742  34.593  1.00  0.00     0.200 A 
ATOM     95  F   UNL A   1      43.440  35.689  36.626  1.00  0.00    -0.200 F 
ATOM     96  F   UNL A   1      44.394  37.844  35.256  1.00  0.00    -0.200 F 
ENDBRANCH  63  86
ENDBRANCH  37  38
ENDBRANCH  29  32
ENDBRANCH  27  28
ENDBRANCH  26  27
ENDBRANCH  25  26
ENDBRANCH  24  25
ENDBRANCH   3  24
TORSDOF 17
ENDMDL
MODEL 3
REMARK VINA RESULT:     -11.3      1.649      2.304
REMARK SMILES O=C(COc1cccc(C(=O)NCCCCNC(=O)c2ccc(-c3c4nc(c(-c5c(F)c(F)c(F)c(F)c5F)c5ccc([nH]5)c(-c5c(F)c(F)c(F)c(F)c5F)c5nc(c(-c6c(F)c(F)c(F)c(F)c6F)c6ccc3[nH]6)C=C5)C=C4)cc2)c1)NCCc1cccs1
REMARK SMILES IDX 10 1 11 2 12 3 9 5 5 6 6 7 83 8 7 9 8 10 4 11 3 12 2 13 1 14
REMARK SMILES IDX 84 15 85 17 86 18 87 19 88 20 91 21 89 22 90 23 13 24 14 25
REMARK SMILES IDX 15 26 16 27 17 28 18 29 19 31 20 32 21 33 82 34 22 35 81 36
REMARK SMILES IDX 23 37 24 38 25 39 75 40 26 41 80 42 74 43 76 44 27 45 79 46
REMARK SMILES IDX 73 47 72 48 28 50 60 51 40 52 59 53 41 54 44 55 58 56 77 57
REMARK SMILES IDX 42 58 43 59 57 61 78 62 45 63 29 64 30 65 38 66 31 67 32 68
REMARK SMILES IDX 36 69 39 70 33 71 34 72 37 73 35 74 61 75 62 76 70 77 63 78
REMARK SMILES IDX 64 79 68 80 71 81 65 82 66 83 69 84 67 85 46 86 47 87 55 88
REMARK SMILES IDX 48 89 49 90 53 91 56 92 50 93 51 94 54 95 52 96
REMARK H PARENT 12 4 84 16 17 30 76 49 44 60
REMARK Flexibility Score: inf
ROOT
ATOM      1  C   UNL A   1      30.527  29.020  23.705  1.00  0.00     0.251 C 
ATOM      2  O   UNL A   1      29.676  29.546  22.982  1.00  0.00    -0.269 OA
ATOM      3  N   UNL A   1      31.241  29.874  24.499  1.00  0.00    -0.352 N 
ATOM      4  H   UNL A   1      30.901  30.795  24.428  1.00  0.00     0.163 HD
ENDROOT
BRANCH   1   5
ATOM      5  C   UNL A   1      30.710  27.544  23.622  1.00  0.00     0.043 A 
ATOM      6  C   UNL A   1      31.986  25.508  23.244  1.00  0.00     0.120 A 
ATOM      7  C   UNL A   1      30.837  24.745  23.455  1.00  0.00     0.046 A 
ATOM      8  C   UNL A   1      31.925  26.900  23.378  1.00  0.00     0.060 A 
ATOM      9  C   UNL A   1      29.637  25.363  23.794  1.00  0.00     0.005 A 
ATOM     10  C   UNL A   1      29.572  26.755  23.858  1.00  0.00     0.014 A 
BRANCH   6  11
ATOM     11  O   UNL A   1      33.083  24.797  22.831  1.00  0.00    -0.484 OA
BRANCH  11  12
ATOM     12  C   UNL A   1      33.960  24.291  23.830  1.00  0.00     0.329 C 
BRANCH  12  13
ATOM     13  C   UNL A   1      34.084  22.770  23.921  1.00  0.00     0.257 C 
ATOM     14  O   UNL A   1      35.178  22.209  23.875  1.00  0.00    -0.271 OA
ATOM     15  N   UNL A   1      32.888  22.085  23.988  1.00  0.00    -0.353 N 
ATOM     16  H   UNL A   1      32.060  22.574  24.204  1.00  0.00     0.163 HD
BRANCH  15  17
ATOM     17  C   UNL A   1      32.834  20.659  23.746  1.00  0.00     0.121 C 
BRANCH  17  18
ATOM     18  C   UNL A   1      32.457  19.792  24.941  1.00  0.00     0.068 C 
BRANCH  18  19
ATOM     19  C   UNL A   1      32.781  18.324  24.849  1.00  0.00     0.006 A 
ATOM     20  C   UNL A   1      32.614  17.400  25.864  1.00  0.00     0.015 A 
ATOM     21  S   UNL A   1      33.468  17.591  23.460  1.00  0.00    -0.149 S 
ATOM     22  C   UNL A   1      33.047  16.094  25.497  1.00  0.00     0.012 A 
ATOM     23  C   UNL A   1      33.536  16.060  24.212  1.00  0.00     0.065 A 
ENDBRANCH  18  19
ENDBRANCH  17  18
ENDBRANCH  15  17
ENDBRANCH  12  13
ENDBRANCH  11  12
ENDBRANCH   6  11
ENDBRANCH   1   5
BRANCH   3  24
ATOM     24  C   UNL A   1      32.367  29.796  25.422  1.00  0.00     0.116 C 
BRANCH  24  25
ATOM     25  C   UNL A   1      31.983  30.368  26.785  1.00  0.00     0.023 C 
BRANCH  25  26
ATOM     26  C   UNL A   1      31.841  31.891  26.911  1.00  0.00     0.023 C 
BRANCH  26  27
ATOM     27  C   UNL A   1      33.027  32.673  27.471  1.00  0.00     0.116 C 
BRANCH  27  28
ATOM     28  N   UNL A   1      32.725  34.093  27.635  1.00  0.00    -0.352 N 
ATOM     29  C   UNL A   1      33.090  34.916  28.681  1.00  0.00     0.251 C 
ATOM     30  H   UNL A   1      32.201  34.512  26.915  1.00  0.00     0.163 HD
ATOM     31  O   UNL A   1      32.508  35.964  28.908  1.00  0.00    -0.269 OA
BRANCH  29  32
ATOM     32  C   UNL A   1      34.241  34.496  29.507  1.00  0.00     0.039 A 
ATOM     33  C   UNL A   1      34.053  33.812  30.709  1.00  0.00     0.014 A 
ATOM     34  C   UNL A   1      35.526  34.751  29.021  1.00  0.00     0.014 A 
ATOM     35  C   UNL A   1      35.166  33.303  31.382  1.00  0.00     0.010 A 
ATOM     36  C   UNL A   1      36.618  34.168  29.641  1.00  0.00     0.010 A 
ATOM     37  C   UNL A   1      36.451  33.440  30.828  1.00  0.00    -0.014 A 
BRANCH  37  38
ATOM     38  C   UNL A   1      37.658  32.839  31.446  1.00  0.00     0.031 A 
ATOM     39  C   UNL A   1      38.316  31.661  30.785  1.00  0.00     0.074 A 
ATOM     40  C   UNL A   1      38.065  33.260  32.658  1.00  0.00     0.049 A 
ATOM     41  N   UNL A   1      39.256  30.872  31.239  1.00  0.00    -0.248 NA
ATOM     42  C   UNL A   1      37.809  31.288  29.454  1.00  0.00     0.031 C 
ATOM     43  C   UNL A   1      37.460  34.349  33.428  1.00  0.00     0.029 A 
ATOM     44  N   UNL A   1      39.071  32.799  33.471  1.00  0.00    -0.354 N 
ATOM     45  C   UNL A   1      39.427  29.896  30.267  1.00  0.00     0.074 A 
ATOM     46  C   UNL A   1      38.457  30.156  29.226  1.00  0.00     0.031 C 
ATOM     47  C   UNL A   1      38.117  34.484  34.590  1.00  0.00     0.029 A 
ATOM     48  C   UNL A   1      39.161  33.468  34.667  1.00  0.00     0.049 A 
ATOM     49  H   UNL A   1      39.670  32.060  33.220  1.00  0.00     0.167 HD
ATOM     50  C   UNL A   1      40.331  28.889  30.233  1.00  0.00     0.037 A 
ATOM     51  C   UNL A   1      39.989  33.272  35.710  1.00  0.00     0.037 A 
ATOM     52  C   UNL A   1      41.321  28.667  31.252  1.00  0.00     0.049 A 
ATOM     53  C   UNL A   1      41.008  32.168  35.636  1.00  0.00     0.074 A 
ATOM     54  C   UNL A   1      42.336  27.727  31.283  1.00  0.00     0.029 A 
ATOM     55  N   UNL A   1      41.421  29.403  32.424  1.00  0.00    -0.354 N 
ATOM     56  N   UNL A   1      41.210  31.292  34.680  1.00  0.00    -0.248 NA
ATOM     57  C   UNL A   1      41.917  32.027  36.781  1.00  0.00     0.031 C 
ATOM     58  C   UNL A   1      43.028  27.872  32.489  1.00  0.00     0.029 A 
ATOM     59  C   UNL A   1      42.472  28.930  33.191  1.00  0.00     0.049 A 
ATOM     60  H   UNL A   1      40.832  30.151  32.674  1.00  0.00     0.167 HD
ATOM     61  C   UNL A   1      42.283  30.516  35.095  1.00  0.00     0.074 A 
ATOM     62  C   UNL A   1      42.698  31.033  36.383  1.00  0.00     0.031 C 
ATOM     63  C   UNL A   1      42.873  29.469  34.467  1.00  0.00     0.037 A 
BRANCH  50  64
ATOM     64  C   UNL A   1      40.295  27.964  29.050  1.00  0.00     0.064 A 
ATOM     65  C   UNL A   1      39.542  26.780  29.064  1.00  0.00     0.173 A 
ATOM     66  C   UNL A   1      41.008  28.272  27.882  1.00  0.00     0.173 A 
ATOM     67  F   UNL A   1      38.851  26.432  30.161  1.00  0.00    -0.203 F 
ATOM     68  C   UNL A   1      39.535  25.921  27.969  1.00  0.00     0.198 A 
ATOM     69  C   UNL A   1      40.972  27.425  26.776  1.00  0.00     0.198 A 
ATOM     70  F   UNL A   1      41.741  29.394  27.812  1.00  0.00    -0.203 F 
ATOM     71  F   UNL A   1      38.856  24.766  28.030  1.00  0.00    -0.200 F 
ATOM     72  C   UNL A   1      40.245  26.246  26.825  1.00  0.00     0.200 A 
ATOM     73  F   UNL A   1      41.649  27.748  25.666  1.00  0.00    -0.200 F 
ATOM     74  F   UNL A   1      40.234  25.420  25.770  1.00  0.00    -0.200 F 
ENDBRANCH  50  64
BRANCH  51  75
ATOM     75  C   UNL A   1      39.917  34.169  36.892  1.00  0.00     0.064 A 
ATOM     76  C   UNL A   1      39.082  33.857  37.975  1.00  0.00     0.173 A 
ATOM     77  C   UNL A   1      40.681  35.341  36.975  1.00  0.00     0.173 A 
ATOM     78  F   UNL A   1      38.319  32.755  37.934  1.00  0.00    -0.203 F 
ATOM     79  C   UNL A   1      39.002  34.691  39.088  1.00  0.00     0.198 A 
ATOM     80  C   UNL A   1      40.620  36.162  38.100  1.00  0.00     0.198 A 
ATOM     81  F   UNL A   1      41.502  35.681  35.970  1.00  0.00    -0.203 F 
ATOM     82  F   UNL A   1      38.167  34.388  40.090  1.00  0.00    -0.200 F 
ATOM     83  C   UNL A   1      39.776  35.841  39.152  1.00  0.00     0.200 A 
ATOM     84  F   UNL A   1      41.380  37.264  38.165  1.00  0.00    -0.200 F 
ATOM     85  F   UNL A   1      39.704  36.639  40.225  1.00  0.00    -0.200 F 
ENDBRANCH  51  75
BRANCH  63  86
ATOM     86  C   UNL A   1      44.050  28.837  35.147  1.00  0.00     0.064 A 
ATOM     87  C   UNL A   1      45.355  29.309  34.946  1.00  0.00     0.173 A 
ATOM     88  C   UNL A   1      43.862  27.778  36.048  1.00  0.00     0.173 A 
ATOM     89  F   UNL A   1      45.585  30.310  34.082  1.00  0.00    -0.203 F 
ATOM     90  C   UNL A   1      46.433  28.728  35.605  1.00  0.00     0.198 A 
ATOM     91  C   UNL A   1      44.940  27.218  36.728  1.00  0.00     0.198 A 
ATOM     92  F   UNL A   1      42.631  27.296  36.279  1.00  0.00    -0.203 F 
ATOM     93  F   UNL A   1      47.677  29.165  35.367  1.00  0.00    -0.200 F 
ATOM     94  C   UNL A   1      46.224  27.689  36.501  1.00  0.00     0.200 A 
ATOM     95  F   UNL A   1      44.735  26.223  37.601  1.00  0.00    -0.200 F 
ATOM     96  F   UNL A   1      47.262  27.136  37.143  1.00  0.00    -0.200 F 
ENDBRANCH  63  86
ENDBRANCH  37  38
ENDBRANCH  29  32
ENDBRANCH  27  28
ENDBRANCH  26  27
ENDBRANCH  25  26
ENDBRANCH  24  25
ENDBRANCH   3  24
TORSDOF 17
ENDMDL
