MODEL 1
REMARK VINA RESULT:     -13.2      0.000      0.000
REMARK SMILES O=C(NCCCCNC(=O)[C@H]1[C@@H](C(=O)NNC(=O)c2ccccc2Cl)[C@H]2C=C[C@@H]1C2)c1ccc(-c2c3nc(c(-c4c(F)c(F)c(F)c(F)c4F)c4ccc([nH]4)c(-c4c(F)c(F)c(F)c(F)c4F)c4nc(c(-c5c(F)c(F)c(F)c(F)c5F)c5ccc2[nH]5)C=C4)C=C3)cc1
REMARK SMILES IDX 6 1 5 2 4 3 3 4 1 5 2 6 31 8 32 9 93 10 33 11 92 12 34 13
REMARK SMILES IDX 35 14 36 15 86 16 37 17 91 18 85 19 87 20 38 21 90 22 84 23
REMARK SMILES IDX 83 24 39 26 71 27 51 28 70 29 52 30 55 31 69 32 88 33 53 34
REMARK SMILES IDX 54 35 68 37 89 38 56 39 40 40 41 41 49 42 42 43 43 44 47 45
REMARK SMILES IDX 50 46 44 47 45 48 48 49 46 50 72 51 73 52 81 53 74 54 75 55
REMARK SMILES IDX 79 56 82 57 76 58 77 59 80 60 78 61 57 62 58 63 66 64 59 65
REMARK SMILES IDX 60 66 64 67 67 68 61 69 62 70 65 71 63 72 7 73 8 74 9 75
REMARK SMILES IDX 10 77 11 78 12 79 29 80 26 81 28 82 30 83 27 84 13 85 14 86
REMARK SMILES IDX 15 87 16 89 17 90 18 92 19 93 20 94 24 95 21 96 23 97 25 98
REMARK SMILES IDX 22 99
REMARK H PARENT 3 7 87 25 55 36 8 76 15 88 16 91
REMARK Flexibility Score: inf
ROOT
ATOM      1  C   UNL A   1      31.701  30.699  26.193  1.00  0.00     0.023 C 
ENDROOT
BRANCH   1   2
ATOM      2  C   UNL A   1      31.423  32.038  26.836  1.00  0.00     0.023 C 
BRANCH   2   3
ATOM      3  C   UNL A   1      32.697  32.757  27.220  1.00  0.00     0.116 C 
BRANCH   3   4
ATOM      4  N   UNL A   1      32.460  34.149  27.612  1.00  0.00    -0.352 N 
ATOM      5  O   UNL A   1      32.539  36.011  28.897  1.00  0.00    -0.269 OA
ATOM      6  C   UNL A   1      33.012  34.910  28.617  1.00  0.00     0.251 C 
ATOM      7  H   UNL A   1      31.792  34.619  27.063  1.00  0.00     0.163 HD
BRANCH   6   8
ATOM      8  C   UNL A   1      34.156  34.388  29.390  1.00  0.00     0.039 A 
ATOM      9  C   UNL A   1      35.443  34.598  28.919  1.00  0.00     0.014 A 
ATOM     10  C   UNL A   1      33.960  33.656  30.566  1.00  0.00     0.014 A 
ATOM     11  C   UNL A   1      36.478  33.834  29.413  1.00  0.00     0.010 A 
ATOM     12  C   UNL A   1      35.059  33.068  31.207  1.00  0.00     0.010 A 
ATOM     13  C   UNL A   1      36.325  33.118  30.609  1.00  0.00    -0.014 A 
BRANCH  13  14
ATOM     14  C   UNL A   1      37.558  32.551  31.213  1.00  0.00     0.031 A 
ATOM     15  C   UNL A   1      37.989  32.891  32.610  1.00  0.00     0.074 A 
ATOM     16  C   UNL A   1      38.217  31.612  30.501  1.00  0.00     0.049 A 
ATOM     17  N   UNL A   1      38.999  32.412  33.291  1.00  0.00    -0.248 NA
ATOM     18  C   UNL A   1      37.208  33.903  33.335  1.00  0.00     0.031 C 
ATOM     19  C   UNL A   1      37.887  31.223  29.122  1.00  0.00     0.029 A 
ATOM     20  N   UNL A   1      39.231  30.757  30.842  1.00  0.00    -0.354 N 
ATOM     21  C   UNL A   1      39.000  33.087  34.503  1.00  0.00     0.074 A 
ATOM     22  C   UNL A   1      37.893  34.017  34.467  1.00  0.00     0.031 C 
ATOM     23  C   UNL A   1      38.578  30.128  28.792  1.00  0.00     0.029 A 
ATOM     24  C   UNL A   1      39.500  29.818  29.874  1.00  0.00     0.049 A 
ATOM     25  H   UNL A   1      39.719  30.810  31.696  1.00  0.00     0.167 HD
ATOM     26  C   UNL A   1      39.856  32.938  35.542  1.00  0.00     0.037 A 
ATOM     27  C   UNL A   1      40.411  28.830  29.841  1.00  0.00     0.037 A 
ATOM     28  C   UNL A   1      40.938  31.986  35.565  1.00  0.00     0.049 A 
ATOM     29  C   UNL A   1      41.325  28.679  31.017  1.00  0.00     0.074 A 
ATOM     30  C   UNL A   1      41.876  31.764  36.559  1.00  0.00     0.029 A 
ATOM     31  N   UNL A   1      41.219  31.084  34.546  1.00  0.00    -0.354 N 
ATOM     32  N   UNL A   1      41.336  29.356  32.141  1.00  0.00    -0.248 NA
ATOM     33  C   UNL A   1      42.366  27.654  30.914  1.00  0.00     0.031 C 
ATOM     34  C   UNL A   1      42.742  30.753  36.128  1.00  0.00     0.029 A 
ATOM     35  C   UNL A   1      42.319  30.311  34.885  1.00  0.00     0.049 A 
ATOM     36  H   UNL A   1      40.712  31.007  33.706  1.00  0.00     0.167 HD
ATOM     37  C   UNL A   1      42.398  28.851  32.872  1.00  0.00     0.074 A 
ATOM     38  C   UNL A   1      42.970  27.775  32.088  1.00  0.00     0.031 C 
ATOM     39  C   UNL A   1      42.874  29.258  34.074  1.00  0.00     0.037 A 
BRANCH  26  40
ATOM     40  C   UNL A   1      39.681  33.838  36.731  1.00  0.00     0.064 A 
ATOM     41  C   UNL A   1      40.264  35.113  36.788  1.00  0.00     0.173 A 
ATOM     42  C   UNL A   1      38.866  33.443  37.805  1.00  0.00     0.173 A 
ATOM     43  F   UNL A   1      41.064  35.532  35.797  1.00  0.00    -0.203 F 
ATOM     44  C   UNL A   1      40.047  35.953  37.878  1.00  0.00     0.198 A 
ATOM     45  C   UNL A   1      38.632  34.295  38.882  1.00  0.00     0.198 A 
ATOM     46  F   UNL A   1      38.283  32.235  37.802  1.00  0.00    -0.203 F 
ATOM     47  F   UNL A   1      40.642  37.153  37.925  1.00  0.00    -0.200 F 
ATOM     48  C   UNL A   1      39.225  35.547  38.919  1.00  0.00     0.200 A 
ATOM     49  F   UNL A   1      37.829  33.905  39.882  1.00  0.00    -0.200 F 
ATOM     50  F   UNL A   1      39.008  36.363  39.962  1.00  0.00    -0.200 F 
ENDBRANCH  26  40
BRANCH  27  51
ATOM     51  C   UNL A   1      40.529  27.965  28.637  1.00  0.00     0.064 A 
ATOM     52  C   UNL A   1      39.876  26.728  28.560  1.00  0.00     0.173 A 
ATOM     53  C   UNL A   1      41.282  28.373  27.524  1.00  0.00     0.173 A 
ATOM     54  F   UNL A   1      39.159  26.282  29.603  1.00  0.00    -0.203 F 
ATOM     55  C   UNL A   1      39.983  25.928  27.423  1.00  0.00     0.198 A 
ATOM     56  C   UNL A   1      41.353  27.593  26.374  1.00  0.00     0.198 A 
ATOM     57  F   UNL A   1      41.922  29.553  27.541  1.00  0.00    -0.203 F 
ATOM     58  F   UNL A   1      39.385  24.730  27.392  1.00  0.00    -0.200 F 
ATOM     59  C   UNL A   1      40.712  26.367  26.327  1.00  0.00     0.200 A 
ATOM     60  F   UNL A   1      42.036  28.036  25.309  1.00  0.00    -0.200 F 
ATOM     61  F   UNL A   1      40.798  25.606  25.228  1.00  0.00    -0.200 F 
ENDBRANCH  27  51
BRANCH  39  62
ATOM     62  C   UNL A   1      44.073  28.523  34.592  1.00  0.00     0.064 A 
ATOM     63  C   UNL A   1      45.374  28.964  34.310  1.00  0.00     0.173 A 
ATOM     64  C   UNL A   1      43.920  27.362  35.361  1.00  0.00     0.173 A 
ATOM     65  F   UNL A   1      45.568  30.059  33.559  1.00  0.00    -0.203 F 
ATOM     66  C   UNL A   1      46.482  28.245  34.748  1.00  0.00     0.198 A 
ATOM     67  C   UNL A   1      45.029  26.662  35.822  1.00  0.00     0.198 A 
ATOM     68  F   UNL A   1      42.694  26.903  35.657  1.00  0.00    -0.203 F 
ATOM     69  F   UNL A   1      47.715  28.648  34.413  1.00  0.00    -0.200 F 
ATOM     70  C   UNL A   1      46.308  27.097  35.506  1.00  0.00     0.200 A 
ATOM     71  F   UNL A   1      44.861  25.555  36.560  1.00  0.00    -0.200 F 
ATOM     72  F   UNL A   1      47.374  26.399  35.921  1.00  0.00    -0.200 F 
ENDBRANCH  39  62
ENDBRANCH  13  14
ENDBRANCH   6   8
ENDBRANCH   3   4
ENDBRANCH   2   3
ENDBRANCH   1   2
BRANCH   1  73
ATOM     73  C   UNL A   1      32.511  29.762  27.077  1.00  0.00     0.116 C 
BRANCH  73  74
ATOM     74  N   UNL A   1      31.888  28.459  27.197  1.00  0.00    -0.356 N 
ATOM     75  C   UNL A   1      31.419  27.570  26.294  1.00  0.00     0.224 C 
ATOM     76  H   UNL A   1      31.784  28.160  28.129  1.00  0.00     0.163 HD
ATOM     77  O   UNL A   1      30.896  26.554  26.773  1.00  0.00    -0.275 OA
BRANCH  75  78
ATOM     78  C   UNL A   1      31.526  27.675  24.777  1.00  0.00     0.098 C 
ATOM     79  C   UNL A   1      32.294  26.659  23.897  1.00  0.00     0.100 C 
ATOM     80  C   UNL A   1      30.167  27.821  24.032  1.00  0.00     0.025 C 
ATOM     81  C   UNL A   1      31.201  26.190  22.887  1.00  0.00     0.025 C 
ATOM     82  C   UNL A   1      29.339  26.580  24.206  1.00  0.00    -0.027 C 
ATOM     83  C   UNL A   1      30.588  27.567  22.571  1.00  0.00     0.017 C 
ATOM     84  C   UNL A   1      29.961  25.601  23.530  1.00  0.00    -0.027 C 
BRANCH  79  85
ATOM     85  C   UNL A   1      33.215  25.629  24.512  1.00  0.00     0.242 C 
ATOM     86  O   UNL A   1      34.391  25.867  24.777  1.00  0.00    -0.273 OA
ATOM     87  N   UNL A   1      32.572  24.448  24.873  1.00  0.00    -0.267 N 
ATOM     88  H   UNL A   1      31.614  24.324  24.682  1.00  0.00     0.191 HD
BRANCH  87  89
ATOM     89  N   UNL A   1      33.306  23.438  25.514  1.00  0.00    -0.263 N 
ATOM     90  C   UNL A   1      33.654  22.315  24.795  1.00  0.00     0.271 C 
ATOM     91  H   UNL A   1      33.567  23.529  26.459  1.00  0.00     0.191 HD
ATOM     92  O   UNL A   1      32.854  21.782  24.027  1.00  0.00    -0.267 OA
BRANCH  90  93
ATOM     93  C   UNL A   1      35.091  21.883  24.810  1.00  0.00     0.060 A 
ATOM     94  C   UNL A   1      36.026  22.936  24.925  1.00  0.00     0.015 A 
ATOM     95  C   UNL A   1      35.568  20.567  24.866  1.00  0.00     0.053 A 
ATOM     96  C   UNL A   1      37.389  22.689  25.116  1.00  0.00     0.001 A 
ATOM     97  C   UNL A   1      36.941  20.323  25.065  1.00  0.00     0.021 A 
ATOM     98  Cl  UNL A   1      34.563  19.174  24.688  1.00  0.00    -0.083 Cl
ATOM     99  C   UNL A   1      37.846  21.379  25.196  1.00  0.00     0.002 A 
ENDBRANCH  90  93
ENDBRANCH  87  89
ENDBRANCH  79  85
ENDBRANCH  75  78
ENDBRANCH  73  74
ENDBRANCH   1  73
TORSDOF 14
ENDMDL
MODEL 2
REMARK VINA RESULT:     -13.2      2.268      4.439
REMARK SMILES O=C(NCCCCNC(=O)[C@H]1[C@@H](C(=O)NNC(=O)c2ccccc2Cl)[C@H]2C=C[C@@H]1C2)c1ccc(-c2c3nc(c(-c4c(F)c(F)c(F)c(F)c4F)c4ccc([nH]4)c(-c4c(F)c(F)c(F)c(F)c4F)c4nc(c(-c5c(F)c(F)c(F)c(F)c5F)c5ccc2[nH]5)C=C4)C=C3)cc1
REMARK SMILES IDX 6 1 5 2 4 3 3 4 1 5 2 6 31 8 32 9 93 10 33 11 92 12 34 13
REMARK SMILES IDX 35 14 36 15 86 16 37 17 91 18 85 19 87 20 38 21 90 22 84 23
REMARK SMILES IDX 83 24 39 26 71 27 51 28 70 29 52 30 55 31 69 32 88 33 53 34
REMARK SMILES IDX 54 35 68 37 89 38 56 39 40 40 41 41 49 42 42 43 43 44 47 45
REMARK SMILES IDX 50 46 44 47 45 48 48 49 46 50 72 51 73 52 81 53 74 54 75 55
REMARK SMILES IDX 79 56 82 57 76 58 77 59 80 60 78 61 57 62 58 63 66 64 59 65
REMARK SMILES IDX 60 66 64 67 67 68 61 69 62 70 65 71 63 72 7 73 8 74 9 75
REMARK SMILES IDX 10 77 11 78 12 79 29 80 26 81 28 82 30 83 27 84 13 85 14 86
REMARK SMILES IDX 15 87 16 89 17 90 18 92 19 93 20 94 24 95 21 96 23 97 25 98
REMARK SMILES IDX 22 99
REMARK H PARENT 3 7 87 25 55 36 8 76 15 88 16 91
REMARK Flexibility Score: inf
ROOT
ATOM      1  C   UNL A   1      31.797  30.539  26.689  1.00  0.00     0.023 C 
ENDROOT
BRANCH   1   2
ATOM      2  C   UNL A   1      31.563  32.027  26.815  1.00  0.00     0.023 C 
BRANCH   2   3
ATOM      3  C   UNL A   1      32.819  32.764  27.224  1.00  0.00     0.116 C 
BRANCH   3   4
ATOM      4  N   UNL A   1      32.550  34.141  27.644  1.00  0.00    -0.352 N 
ATOM      5  O   UNL A   1      32.577  35.975  28.972  1.00  0.00    -0.269 OA
ATOM      6  C   UNL A   1      33.075  34.890  28.673  1.00  0.00     0.251 C 
ATOM      7  H   UNL A   1      31.879  34.611  27.098  1.00  0.00     0.163 HD
BRANCH   6   8
ATOM      8  C   UNL A   1      34.220  34.373  29.447  1.00  0.00     0.039 A 
ATOM      9  C   UNL A   1      35.507  34.596  28.984  1.00  0.00     0.014 A 
ATOM     10  C   UNL A   1      34.025  33.632  30.618  1.00  0.00     0.014 A 
ATOM     11  C   UNL A   1      36.547  33.839  29.478  1.00  0.00     0.010 A 
ATOM     12  C   UNL A   1      35.126  33.049  31.260  1.00  0.00     0.010 A 
ATOM     13  C   UNL A   1      36.394  33.114  30.669  1.00  0.00    -0.014 A 
BRANCH  13  14
ATOM     14  C   UNL A   1      37.630  32.554  31.275  1.00  0.00     0.031 A 
ATOM     15  C   UNL A   1      38.047  32.882  32.678  1.00  0.00     0.074 A 
ATOM     16  C   UNL A   1      38.303  31.630  30.557  1.00  0.00     0.049 A 
ATOM     17  N   UNL A   1      39.058  32.406  33.361  1.00  0.00    -0.248 NA
ATOM     18  C   UNL A   1      37.250  33.877  33.410  1.00  0.00     0.031 C 
ATOM     19  C   UNL A   1      37.987  31.253  29.171  1.00  0.00     0.029 A 
ATOM     20  N   UNL A   1      39.324  30.782  30.895  1.00  0.00    -0.354 N 
ATOM     21  C   UNL A   1      39.043  33.068  34.581  1.00  0.00     0.074 A 
ATOM     22  C   UNL A   1      37.925  33.987  34.547  1.00  0.00     0.031 C 
ATOM     23  C   UNL A   1      38.692  30.169  28.834  1.00  0.00     0.029 A 
ATOM     24  C   UNL A   1      39.610  29.858  29.918  1.00  0.00     0.049 A 
ATOM     25  H   UNL A   1      39.806  30.831  31.753  1.00  0.00     0.167 HD
ATOM     26  C   UNL A   1      39.893  32.917  35.624  1.00  0.00     0.037 A 
ATOM     27  C   UNL A   1      40.533  28.880  29.881  1.00  0.00     0.037 A 
ATOM     28  C   UNL A   1      40.986  31.976  35.643  1.00  0.00     0.049 A 
ATOM     29  C   UNL A   1      41.440  28.726  31.062  1.00  0.00     0.074 A 
ATOM     30  C   UNL A   1      41.919  31.753  36.642  1.00  0.00     0.029 A 
ATOM     31  N   UNL A   1      41.283  31.089  34.617  1.00  0.00    -0.354 N 
ATOM     32  N   UNL A   1      41.436  29.390  32.193  1.00  0.00    -0.248 NA
ATOM     33  C   UNL A   1      42.493  27.713  30.955  1.00  0.00     0.031 C 
ATOM     34  C   UNL A   1      42.800  30.757  36.206  1.00  0.00     0.029 A 
ATOM     35  C   UNL A   1      42.390  30.324  34.955  1.00  0.00     0.049 A 
ATOM     36  H   UNL A   1      40.783  31.016  33.772  1.00  0.00     0.167 HD
ATOM     37  C   UNL A   1      42.498  28.889  32.926  1.00  0.00     0.074 A 
ATOM     38  C   UNL A   1      43.088  27.828  32.133  1.00  0.00     0.031 C 
ATOM     39  C   UNL A   1      42.961  29.287  34.136  1.00  0.00     0.037 A 
BRANCH  26  40
ATOM     40  C   UNL A   1      39.700  33.801  36.822  1.00  0.00     0.064 A 
ATOM     41  C   UNL A   1      40.255  35.088  36.890  1.00  0.00     0.173 A 
ATOM     42  C   UNL A   1      38.896  33.378  37.893  1.00  0.00     0.173 A 
ATOM     43  F   UNL A   1      41.044  35.535  35.902  1.00  0.00    -0.203 F 
ATOM     44  C   UNL A   1      40.021  35.912  37.988  1.00  0.00     0.198 A 
ATOM     45  C   UNL A   1      38.645  34.214  38.979  1.00  0.00     0.198 A 
ATOM     46  F   UNL A   1      38.340  32.157  37.879  1.00  0.00    -0.203 F 
ATOM     47  F   UNL A   1      40.589  37.125  38.046  1.00  0.00    -0.200 F 
ATOM     48  C   UNL A   1      39.210  35.479  39.027  1.00  0.00     0.200 A 
ATOM     49  F   UNL A   1      37.853  33.797  39.976  1.00  0.00    -0.200 F 
ATOM     50  F   UNL A   1      38.977  36.279  40.077  1.00  0.00    -0.200 F 
ENDBRANCH  26  40
BRANCH  27  51
ATOM     51  C   UNL A   1      40.668  28.030  28.669  1.00  0.00     0.064 A 
ATOM     52  C   UNL A   1      39.987  26.812  28.550  1.00  0.00     0.173 A 
ATOM     53  C   UNL A   1      41.469  28.435  27.587  1.00  0.00     0.173 A 
ATOM     54  F   UNL A   1      39.224  26.370  29.562  1.00  0.00    -0.203 F 
ATOM     55  C   UNL A   1      40.111  26.026  27.405  1.00  0.00     0.198 A 
ATOM     56  C   UNL A   1      41.558  27.670  26.428  1.00  0.00     0.198 A 
ATOM     57  F   UNL A   1      42.138  29.596  27.643  1.00  0.00    -0.203 F 
ATOM     58  F   UNL A   1      39.483  24.845  27.335  1.00  0.00    -0.200 F 
ATOM     59  C   UNL A   1      40.887  26.462  26.340  1.00  0.00     0.200 A 
ATOM     60  F   UNL A   1      42.287  28.110  25.393  1.00  0.00    -0.200 F 
ATOM     61  F   UNL A   1      40.990  25.715  25.233  1.00  0.00    -0.200 F 
ENDBRANCH  27  51
BRANCH  39  62
ATOM     62  C   UNL A   1      44.165  28.559  34.654  1.00  0.00     0.064 A 
ATOM     63  C   UNL A   1      44.037  27.391  35.419  1.00  0.00     0.173 A 
ATOM     64  C   UNL A   1      45.455  29.044  34.396  1.00  0.00     0.173 A 
ATOM     65  F   UNL A   1      42.821  26.904  35.708  1.00  0.00    -0.203 F 
ATOM     66  C   UNL A   1      45.158  26.754  35.941  1.00  0.00     0.198 A 
ATOM     67  C   UNL A   1      46.574  28.389  34.896  1.00  0.00     0.198 A 
ATOM     68  F   UNL A   1      45.626  30.157  33.667  1.00  0.00    -0.203 F 
ATOM     69  F   UNL A   1      45.010  25.677  36.724  1.00  0.00    -0.200 F 
ATOM     70  C   UNL A   1      46.425  27.252  35.677  1.00  0.00     0.200 A 
ATOM     71  F   UNL A   1      47.800  28.865  34.635  1.00  0.00    -0.200 F 
ATOM     72  F   UNL A   1      47.504  26.643  36.188  1.00  0.00    -0.200 F 
ENDBRANCH  39  62
ENDBRANCH  13  14
ENDBRANCH   6   8
ENDBRANCH   3   4
ENDBRANCH   2   3
ENDBRANCH   1   2
BRANCH   1  73
ATOM     73  C   UNL A   1      33.269  30.155  26.705  1.00  0.00     0.116 C 
BRANCH  73  74
ATOM     74  N   UNL A   1      33.693  29.587  25.441  1.00  0.00    -0.356 N 
ATOM     75  C   UNL A   1      33.589  28.355  24.897  1.00  0.00     0.224 C 
ATOM     76  H   UNL A   1      34.154  30.233  24.858  1.00  0.00     0.163 HD
ATOM     77  O   UNL A   1      34.123  28.217  23.788  1.00  0.00    -0.275 OA
BRANCH  75  78
ATOM     78  C   UNL A   1      32.840  27.163  25.486  1.00  0.00     0.098 C 
ATOM     79  C   UNL A   1      31.774  26.351  24.713  1.00  0.00     0.100 C 
ATOM     80  C   UNL A   1      33.748  26.055  26.095  1.00  0.00     0.025 C 
ATOM     81  C   UNL A   1      32.330  24.895  24.797  1.00  0.00     0.025 C 
ATOM     82  C   UNL A   1      34.575  25.409  25.021  1.00  0.00    -0.027 C 
ATOM     83  C   UNL A   1      32.742  24.901  26.280  1.00  0.00     0.017 C 
ATOM     84  C   UNL A   1      33.728  24.723  24.238  1.00  0.00    -0.027 C 
BRANCH  79  85
ATOM     85  C   UNL A   1      31.211  26.847  23.400  1.00  0.00     0.242 C 
ATOM     86  O   UNL A   1      31.008  26.103  22.443  1.00  0.00    -0.273 OA
ATOM     87  N   UNL A   1      30.819  28.183  23.429  1.00  0.00    -0.267 N 
ATOM     88  H   UNL A   1      30.959  28.726  24.238  1.00  0.00     0.191 HD
BRANCH  87  89
ATOM     89  N   UNL A   1      30.219  28.745  22.290  1.00  0.00    -0.263 N 
ATOM     90  C   UNL A   1      28.931  29.225  22.389  1.00  0.00     0.271 C 
ATOM     91  H   UNL A   1      30.709  28.796  21.438  1.00  0.00     0.191 HD
ATOM     92  O   UNL A   1      28.070  28.604  23.012  1.00  0.00    -0.267 OA
BRANCH  90  93
ATOM     93  C   UNL A   1      28.656  30.618  21.904  1.00  0.00     0.060 A 
ATOM     94  C   UNL A   1      28.163  30.700  20.583  1.00  0.00     0.015 A 
ATOM     95  C   UNL A   1      28.702  31.793  22.666  1.00  0.00     0.053 A 
ATOM     96  C   UNL A   1      27.706  31.906  20.044  1.00  0.00     0.001 A 
ATOM     97  C   UNL A   1      28.235  33.005  22.120  1.00  0.00     0.021 A 
ATOM     98  Cl  UNL A   1      29.326  31.870  24.274  1.00  0.00    -0.083 Cl
ATOM     99  C   UNL A   1      27.733  33.060  20.818  1.00  0.00     0.002 A 
ENDBRANCH  90  93
ENDBRANCH  87  89
ENDBRANCH  79  85
ENDBRANCH  75  78
ENDBRANCH  73  74
ENDBRANCH   1  73
TORSDOF 14
ENDMDL
MODEL 3
REMARK VINA RESULT:     -13.2      2.232      4.431
REMARK SMILES O=C(NCCCCNC(=O)[C@H]1[C@@H](C(=O)NNC(=O)c2ccccc2Cl)[C@H]2C=C[C@@H]1C2)c1ccc(-c2c3nc(c(-c4c(F)c(F)c(F)c(F)c4F)c4ccc([nH]4)c(-c4c(F)c(F)c(F)c(F)c4F)c4nc(c(-c5c(F)c(F)c(F)c(F)c5F)c5ccc2[nH]5)C=C4)C=C3)cc1
REMARK SMILES IDX 6 1 5 2 4 3 3 4 1 5 2 6 31 8 32 9 93 10 33 11 92 12 34 13
REMARK SMILES IDX 35 14 36 15 86 16 37 17 91 18 85 19 87 20 38 21 90 22 84 23
REMARK SMILES IDX 83 24 39 26 71 27 51 28 70 29 52 30 55 31 69 32 88 33 53 34
REMARK SMILES IDX 54 35 68 37 89 38 56 39 40 40 41 41 49 42 42 43 43 44 47 45
REMARK SMILES IDX 50 46 44 47 45 48 48 49 46 50 72 51 73 52 81 53 74 54 75 55
REMARK SMILES IDX 79 56 82 57 76 58 77 59 80 60 78 61 57 62 58 63 66 64 59 65
REMARK SMILES IDX 60 66 64 67 67 68 61 69 62 70 65 71 63 72 7 73 8 74 9 75
REMARK SMILES IDX 10 77 11 78 12 79 29 80 26 81 28 82 30 83 27 84 13 85 14 86
REMARK SMILES IDX 15 87 16 89 17 90 18 92 19 93 20 94 24 95 21 96 23 97 25 98
REMARK SMILES IDX 22 99
REMARK H PARENT 3 7 87 25 55 36 8 76 15 88 16 91
REMARK Flexibility Score: inf
ROOT
ATOM      1  C   UNL A   1      33.676  26.911  26.135  1.00  0.00     0.023 C 
ENDROOT
BRANCH   1   2
ATOM      2  C   UNL A   1      32.703  28.060  25.996  1.00  0.00     0.023 C 
BRANCH   2   3
ATOM      3  C   UNL A   1      33.370  29.302  25.448  1.00  0.00     0.116 C 
BRANCH   3   4
ATOM      4  N   UNL A   1      32.779  30.535  25.976  1.00  0.00    -0.352 N 
ATOM      5  O   UNL A   1      32.444  32.257  27.406  1.00  0.00    -0.269 OA
ATOM      6  C   UNL A   1      33.185  31.366  26.995  1.00  0.00     0.251 C 
ATOM      7  H   UNL A   1      31.951  30.816  25.525  1.00  0.00     0.163 HD
BRANCH   6   8
ATOM      8  C   UNL A   1      34.505  31.164  27.626  1.00  0.00     0.039 A 
ATOM      9  C   UNL A   1      34.853  29.901  28.079  1.00  0.00     0.014 A 
ATOM     10  C   UNL A   1      35.390  32.232  27.806  1.00  0.00     0.014 A 
ATOM     11  C   UNL A   1      35.896  29.763  28.969  1.00  0.00     0.010 A 
ATOM     12  C   UNL A   1      36.580  32.033  28.520  1.00  0.00     0.010 A 
ATOM     13  C   UNL A   1      36.821  30.802  29.144  1.00  0.00    -0.014 A 
BRANCH  13  14
ATOM     14  C   UNL A   1      38.058  30.477  29.902  1.00  0.00     0.031 A 
ATOM     15  C   UNL A   1      38.235  30.866  31.340  1.00  0.00     0.074 A 
ATOM     16  C   UNL A   1      38.972  29.700  29.283  1.00  0.00     0.049 A 
ATOM     17  N   UNL A   1      39.227  30.582  32.145  1.00  0.00    -0.248 NA
ATOM     18  C   UNL A   1      37.185  31.690  31.956  1.00  0.00     0.031 C 
ATOM     19  C   UNL A   1      38.901  29.282  27.875  1.00  0.00     0.029 A 
ATOM     20  N   UNL A   1      40.085  29.055  29.753  1.00  0.00    -0.354 N 
ATOM     21  C   UNL A   1      38.943  31.219  33.345  1.00  0.00     0.074 A 
ATOM     22  C   UNL A   1      37.687  31.914  33.165  1.00  0.00     0.031 C 
ATOM     23  C   UNL A   1      39.830  28.351  27.641  1.00  0.00     0.029 A 
ATOM     24  C   UNL A   1      40.653  28.207  28.831  1.00  0.00     0.049 A 
ATOM     25  H   UNL A   1      40.442  29.185  30.662  1.00  0.00     0.167 HD
ATOM     26  C   UNL A   1      39.675  31.221  34.484  1.00  0.00     0.037 A 
ATOM     27  C   UNL A   1      41.739  27.418  28.919  1.00  0.00     0.037 A 
ATOM     28  C   UNL A   1      40.913  30.500  34.648  1.00  0.00     0.049 A 
ATOM     29  C   UNL A   1      42.510  27.427  30.202  1.00  0.00     0.074 A 
ATOM     30  C   UNL A   1      41.745  30.447  35.754  1.00  0.00     0.029 A 
ATOM     31  N   UNL A   1      41.492  29.692  33.677  1.00  0.00    -0.354 N 
ATOM     32  N   UNL A   1      42.247  28.070  31.314  1.00  0.00    -0.248 NA
ATOM     33  C   UNL A   1      43.739  26.629  30.236  1.00  0.00     0.031 C 
ATOM     34  C   UNL A   1      42.841  29.636  35.441  1.00  0.00     0.029 A 
ATOM     35  C   UNL A   1      42.672  29.144  34.156  1.00  0.00     0.049 A 
ATOM     36  H   UNL A   1      41.119  29.534  32.780  1.00  0.00     0.167 HD
ATOM     37  C   UNL A   1      43.288  27.770  32.177  1.00  0.00     0.074 A 
ATOM     38  C   UNL A   1      44.155  26.843  31.475  1.00  0.00     0.031 C 
ATOM     39  C   UNL A   1      43.521  28.237  33.427  1.00  0.00     0.037 A 
BRANCH  26  40
ATOM     40  C   UNL A   1      39.179  32.045  35.637  1.00  0.00     0.064 A 
ATOM     41  C   UNL A   1      38.368  31.499  36.643  1.00  0.00     0.173 A 
ATOM     42  C   UNL A   1      39.570  33.387  35.769  1.00  0.00     0.173 A 
ATOM     43  F   UNL A   1      37.952  30.227  36.557  1.00  0.00    -0.203 F 
ATOM     44  C   UNL A   1      37.960  32.267  37.732  1.00  0.00     0.198 A 
ATOM     45  C   UNL A   1      39.180  34.146  36.871  1.00  0.00     0.198 A 
ATOM     46  F   UNL A   1      40.346  33.960  34.836  1.00  0.00    -0.203 F 
ATOM     47  F   UNL A   1      37.159  31.732  38.664  1.00  0.00    -0.200 F 
ATOM     48  C   UNL A   1      38.373  33.586  37.849  1.00  0.00     0.200 A 
ATOM     49  F   UNL A   1      39.589  35.417  36.987  1.00  0.00    -0.200 F 
ATOM     50  F   UNL A   1      37.989  34.320  38.904  1.00  0.00    -0.200 F 
ENDBRANCH  26  40
BRANCH  27  51
ATOM     51  C   UNL A   1      42.175  26.618  27.744  1.00  0.00     0.064 A 
ATOM     52  C   UNL A   1      43.130  27.105  26.842  1.00  0.00     0.173 A 
ATOM     53  C   UNL A   1      41.658  25.332  27.513  1.00  0.00     0.173 A 
ATOM     54  F   UNL A   1      43.641  28.334  27.007  1.00  0.00    -0.203 F 
ATOM     55  C   UNL A   1      43.542  26.343  25.750  1.00  0.00     0.198 A 
ATOM     56  C   UNL A   1      42.101  24.556  26.446  1.00  0.00     0.198 A 
ATOM     57  F   UNL A   1      40.746  24.814  28.349  1.00  0.00    -0.203 F 
ATOM     58  F   UNL A   1      44.423  26.849  24.878  1.00  0.00    -0.200 F 
ATOM     59  C   UNL A   1      43.035  25.065  25.559  1.00  0.00     0.200 A 
ATOM     60  F   UNL A   1      41.629  23.313  26.285  1.00  0.00    -0.200 F 
ATOM     61  F   UNL A   1      43.446  24.327  24.519  1.00  0.00    -0.200 F 
ENDBRANCH  27  51
BRANCH  39  62
ATOM     62  C   UNL A   1      44.768  27.743  34.095  1.00  0.00     0.064 A 
ATOM     63  C   UNL A   1      45.982  28.434  33.973  1.00  0.00     0.173 A 
ATOM     64  C   UNL A   1      44.751  26.562  34.849  1.00  0.00     0.173 A 
ATOM     65  F   UNL A   1      46.049  29.558  33.242  1.00  0.00    -0.203 F 
ATOM     66  C   UNL A   1      47.146  27.939  34.551  1.00  0.00     0.198 A 
ATOM     67  C   UNL A   1      45.911  26.085  35.450  1.00  0.00     0.198 A 
ATOM     68  F   UNL A   1      43.612  25.869  34.995  1.00  0.00    -0.203 F 
ATOM     69  F   UNL A   1      48.309  28.580  34.367  1.00  0.00    -0.200 F 
ATOM     70  C   UNL A   1      47.109  26.767  35.291  1.00  0.00     0.200 A 
ATOM     71  F   UNL A   1      45.873  24.955  36.171  1.00  0.00    -0.200 F 
ATOM     72  F   UNL A   1      48.232  26.284  35.840  1.00  0.00    -0.200 F 
ENDBRANCH  39  62
ENDBRANCH  13  14
ENDBRANCH   6   8
ENDBRANCH   3   4
ENDBRANCH   2   3
ENDBRANCH   1   2
BRANCH   1  73
ATOM     73  C   UNL A   1      33.155  25.605  25.554  1.00  0.00     0.116 C 
BRANCH  73  74
ATOM     74  N   UNL A   1      32.396  24.845  26.528  1.00  0.00    -0.356 N 
ATOM     75  C   UNL A   1      32.022  23.548  26.603  1.00  0.00     0.224 C 
ATOM     76  H   UNL A   1      32.090  25.384  27.291  1.00  0.00     0.163 HD
ATOM     77  O   UNL A   1      31.321  23.255  27.580  1.00  0.00    -0.275 OA
BRANCH  75  78
ATOM     78  C   UNL A   1      32.424  22.431  25.646  1.00  0.00     0.098 C 
ATOM     79  C   UNL A   1      32.383  22.562  24.105  1.00  0.00     0.100 C 
ATOM     80  C   UNL A   1      33.832  21.820  25.905  1.00  0.00     0.025 C 
ATOM     81  C   UNL A   1      33.849  22.216  23.695  1.00  0.00     0.025 C 
ATOM     82  C   UNL A   1      34.900  22.847  25.658  1.00  0.00    -0.027 C 
ATOM     83  C   UNL A   1      34.054  21.001  24.618  1.00  0.00     0.017 C 
ATOM     84  C   UNL A   1      34.905  23.092  24.339  1.00  0.00    -0.027 C 
BRANCH  79  85
ATOM     85  C   UNL A   1      31.690  23.730  23.436  1.00  0.00     0.242 C 
ATOM     86  O   UNL A   1      32.189  24.345  22.497  1.00  0.00    -0.273 OA
ATOM     87  N   UNL A   1      30.392  23.944  23.890  1.00  0.00    -0.267 N 
ATOM     88  H   UNL A   1      30.020  23.391  24.614  1.00  0.00     0.191 HD
BRANCH  87  89
ATOM     89  N   UNL A   1      29.620  24.958  23.301  1.00  0.00    -0.263 N 
ATOM     90  C   UNL A   1      29.328  26.083  24.041  1.00  0.00     0.271 C 
ATOM     91  H   UNL A   1      29.294  24.868  22.377  1.00  0.00     0.191 HD
ATOM     92  O   UNL A   1      29.010  25.995  25.227  1.00  0.00    -0.267 OA
BRANCH  90  93
ATOM     93  C   UNL A   1      29.612  27.424  23.432  1.00  0.00     0.060 A 
ATOM     94  C   UNL A   1      30.962  27.643  23.080  1.00  0.00     0.015 A 
ATOM     95  C   UNL A   1      28.667  28.390  23.058  1.00  0.00     0.053 A 
ATOM     96  C   UNL A   1      31.358  28.771  22.356  1.00  0.00     0.001 A 
ATOM     97  C   UNL A   1      29.070  29.522  22.323  1.00  0.00     0.021 A 
ATOM     98  Cl  UNL A   1      26.990  28.296  23.458  1.00  0.00    -0.083 Cl
ATOM     99  C   UNL A   1      30.408  29.709  21.968  1.00  0.00     0.002 A 
ENDBRANCH  90  93
ENDBRANCH  87  89
ENDBRANCH  79  85
ENDBRANCH  75  78
ENDBRANCH  73  74
ENDBRANCH   1  73
TORSDOF 14
ENDMDL
