MODEL 1
REMARK VINA RESULT:     -11.9      0.000      0.000
REMARK SMILES O=C(C[C@H]1CN(C(=O)c2sccc2Br)CCO1)NCCCCNC(=O)c1ccc(-c2c3nc(c(-c4c(F)c(F)c(F)c(F)c4F)c4ccc([nH]4)c(-c4c(F)c(F)c(F)c(F)c4F)c4nc(c(-c5c(F)c(F)c(F)c(F)c5F)c5ccc2[nH]5)C=C4)C=C3)cc1
REMARK SMILES IDX 20 1 19 2 18 3 1 4 2 5 3 7 4 8 5 9 17 10 6 11 16 12 15 13
REMARK SMILES IDX 7 14 8 15 9 16 10 17 13 18 11 19 12 20 14 21 21 22 22 23
REMARK SMILES IDX 23 24 24 25 25 27 26 28 27 29 88 30 28 31 87 32 29 33 30 34
REMARK SMILES IDX 31 35 81 36 32 37 86 38 80 39 82 40 33 41 85 42 79 43 78 44
REMARK SMILES IDX 34 46 66 47 46 48 65 49 47 50 50 51 64 52 83 53 48 54 49 55
REMARK SMILES IDX 63 57 84 58 51 59 35 60 36 61 44 62 37 63 38 64 42 65 45 66
REMARK SMILES IDX 39 67 40 68 43 69 41 70 67 71 68 72 76 73 69 74 70 75 74 76
REMARK SMILES IDX 77 77 71 78 72 79 75 80 73 81 52 82 53 83 61 84 54 85 55 86
REMARK SMILES IDX 59 87 62 88 56 89 57 90 60 91 58 92
REMARK H PARENT 18 6 23 26 82 45 50 56
REMARK Flexibility Score: inf
ROOT
ATOM      1  C   UNL A   1      31.723  30.678  26.148  1.00  0.00     0.023 C 
ENDROOT
BRANCH   1   2
ATOM      2  C   UNL A   1      33.170  30.215  26.291  1.00  0.00     0.116 C 
BRANCH   2   3
ATOM      3  N   UNL A   1      33.545  29.216  25.314  1.00  0.00    -0.356 N 
ATOM      4  O   UNL A   1      33.630  27.510  26.825  1.00  0.00    -0.275 OA
ATOM      5  C   UNL A   1      33.666  27.895  25.657  1.00  0.00     0.222 C 
ATOM      6  H   UNL A   1      33.717  29.490  24.384  1.00  0.00     0.163 HD
BRANCH   5   7
ATOM      7  C   UNL A   1      33.901  26.916  24.529  1.00  0.00     0.133 C 
BRANCH   7   8
ATOM      8  C   UNL A   1      33.269  27.134  23.144  1.00  0.00     0.147 C 
ATOM      9  C   UNL A   1      33.486  25.907  22.214  1.00  0.00     0.152 C 
ATOM     10  O   UNL A   1      31.883  27.530  23.160  1.00  0.00    -0.374 OA
ATOM     11  N   UNL A   1      32.573  24.827  22.594  1.00  0.00    -0.333 N 
ATOM     12  C   UNL A   1      30.979  26.460  23.500  1.00  0.00     0.182 C 
ATOM     13  C   UNL A   1      31.170  25.232  22.615  1.00  0.00     0.148 C 
BRANCH  11  14
ATOM     14  C   UNL A   1      32.935  23.548  23.003  1.00  0.00     0.265 C 
ATOM     15  O   UNL A   1      32.748  22.570  22.260  1.00  0.00    -0.268 OA
BRANCH  14  16
ATOM     16  C   UNL A   1      33.608  23.401  24.271  1.00  0.00     0.106 A 
ATOM     17  S   UNL A   1      32.671  23.627  25.696  1.00  0.00    -0.137 S 
ATOM     18  C   UNL A   1      34.937  23.216  24.584  1.00  0.00     0.041 A 
ATOM     19  C   UNL A   1      34.042  23.458  26.706  1.00  0.00     0.067 A 
ATOM     20  C   UNL A   1      35.187  23.204  25.983  1.00  0.00     0.028 A 
ATOM     21  Br  UNL A   1      36.375  23.023  23.379  1.00  0.00    -0.049 Br
ENDBRANCH  14  16
ENDBRANCH  11  14
ENDBRANCH   7   8
ENDBRANCH   5   7
ENDBRANCH   2   3
ENDBRANCH   1   2
BRANCH   1  22
ATOM     22  C   UNL A   1      31.463  32.109  26.620  1.00  0.00     0.023 C 
BRANCH  22  23
ATOM     23  C   UNL A   1      32.647  32.803  27.283  1.00  0.00     0.116 C 
BRANCH  23  24
ATOM     24  N   UNL A   1      32.372  34.188  27.634  1.00  0.00    -0.352 N 
ATOM     25  C   UNL A   1      32.973  34.978  28.578  1.00  0.00     0.251 C 
ATOM     26  H   UNL A   1      31.651  34.619  27.119  1.00  0.00     0.163 HD
ATOM     27  O   UNL A   1      32.515  36.096  28.834  1.00  0.00    -0.269 OA
BRANCH  25  28
ATOM     28  C   UNL A   1      34.152  34.487  29.320  1.00  0.00     0.039 A 
ATOM     29  C   UNL A   1      33.966  33.923  30.585  1.00  0.00     0.014 A 
ATOM     30  C   UNL A   1      35.435  34.570  28.771  1.00  0.00     0.014 A 
ATOM     31  C   UNL A   1      35.056  33.379  31.268  1.00  0.00     0.010 A 
ATOM     32  C   UNL A   1      36.506  33.962  29.419  1.00  0.00     0.010 A 
ATOM     33  C   UNL A   1      36.328  33.358  30.674  1.00  0.00    -0.014 A 
BRANCH  33  34
ATOM     34  C   UNL A   1      37.481  32.704  31.347  1.00  0.00     0.031 A 
ATOM     35  C   UNL A   1      38.196  31.559  30.685  1.00  0.00     0.074 A 
ATOM     36  C   UNL A   1      37.842  33.099  32.583  1.00  0.00     0.049 A 
ATOM     37  N   UNL A   1      39.173  30.816  31.144  1.00  0.00    -0.248 NA
ATOM     38  C   UNL A   1      37.736  31.183  29.340  1.00  0.00     0.031 C 
ATOM     39  C   UNL A   1      37.199  34.165  33.352  1.00  0.00     0.029 A 
ATOM     40  N   UNL A   1      38.833  32.640  33.417  1.00  0.00    -0.354 N 
ATOM     41  C   UNL A   1      39.435  29.882  30.150  1.00  0.00     0.074 A 
ATOM     42  C   UNL A   1      38.479  30.114  29.088  1.00  0.00     0.031 C 
ATOM     43  C   UNL A   1      37.821  34.291  34.534  1.00  0.00     0.029 A 
ATOM     44  C   UNL A   1      38.880  33.291  34.626  1.00  0.00     0.049 A 
ATOM     45  H   UNL A   1      39.451  31.914  33.172  1.00  0.00     0.167 HD
ATOM     46  C   UNL A   1      40.402  28.934  30.114  1.00  0.00     0.037 A 
ATOM     47  C   UNL A   1      39.679  33.095  35.693  1.00  0.00     0.037 A 
ATOM     48  C   UNL A   1      41.364  28.717  31.162  1.00  0.00     0.049 A 
ATOM     49  C   UNL A   1      40.736  32.026  35.632  1.00  0.00     0.074 A 
ATOM     50  C   UNL A   1      42.413  27.815  31.198  1.00  0.00     0.029 A 
ATOM     51  N   UNL A   1      41.392  29.409  32.366  1.00  0.00    -0.354 N 
ATOM     52  N   UNL A   1      41.017  31.193  34.662  1.00  0.00    -0.248 NA
ATOM     53  C   UNL A   1      41.594  31.875  36.817  1.00  0.00     0.031 C 
ATOM     54  C   UNL A   1      43.045  27.926  32.442  1.00  0.00     0.029 A 
ATOM     55  C   UNL A   1      42.426  28.937  33.159  1.00  0.00     0.049 A 
ATOM     56  H   UNL A   1      40.768  30.128  32.618  1.00  0.00     0.167 HD
ATOM     57  C   UNL A   1      42.098  30.441  35.103  1.00  0.00     0.074 A 
ATOM     58  C   UNL A   1      42.433  30.928  36.424  1.00  0.00     0.031 C 
ATOM     59  C   UNL A   1      42.753  29.437  34.469  1.00  0.00     0.037 A 
BRANCH  46  60
ATOM     60  C   UNL A   1      40.472  28.060  28.894  1.00  0.00     0.064 A 
ATOM     61  C   UNL A   1      39.767  26.849  28.816  1.00  0.00     0.173 A 
ATOM     62  C   UNL A   1      41.223  28.453  27.775  1.00  0.00     0.173 A 
ATOM     63  F   UNL A   1      39.043  26.421  29.861  1.00  0.00    -0.203 F 
ATOM     64  C   UNL A   1      39.835  26.050  27.677  1.00  0.00     0.198 A 
ATOM     65  C   UNL A   1      41.262  27.669  26.625  1.00  0.00     0.198 A 
ATOM     66  F   UNL A   1      41.912  29.604  27.793  1.00  0.00    -0.203 F 
ATOM     67  F   UNL A   1      39.195  24.874  27.646  1.00  0.00    -0.200 F 
ATOM     68  C   UNL A   1      40.576  26.465  26.581  1.00  0.00     0.200 A 
ATOM     69  F   UNL A   1      41.967  28.077  25.562  1.00  0.00    -0.200 F 
ATOM     70  F   UNL A   1      40.635  25.699  25.482  1.00  0.00    -0.200 F 
ENDBRANCH  46  60
BRANCH  47  71
ATOM     71  C   UNL A   1      39.521  33.942  36.905  1.00  0.00     0.064 A 
ATOM     72  C   UNL A   1      38.761  33.503  37.998  1.00  0.00     0.173 A 
ATOM     73  C   UNL A   1      40.116  35.209  36.991  1.00  0.00     0.173 A 
ATOM     74  F   UNL A   1      38.154  32.308  37.954  1.00  0.00    -0.203 F 
ATOM     75  C   UNL A   1      38.583  34.308  39.121  1.00  0.00     0.198 A 
ATOM     76  C   UNL A   1      39.963  36.000  38.128  1.00  0.00     0.198 A 
ATOM     77  F   UNL A   1      40.857  35.675  35.975  1.00  0.00    -0.203 F 
ATOM     78  F   UNL A   1      37.810  33.884  40.131  1.00  0.00    -0.200 F 
ATOM     79  C   UNL A   1      39.189  35.553  39.188  1.00  0.00     0.200 A 
ATOM     80  F   UNL A   1      40.563  37.196  38.194  1.00  0.00    -0.200 F 
ATOM     81  F   UNL A   1      39.021  36.325  40.269  1.00  0.00    -0.200 F 
ENDBRANCH  47  71
BRANCH  59  82
ATOM     82  C   UNL A   1      43.923  28.820  35.181  1.00  0.00     0.064 A 
ATOM     83  C   UNL A   1      45.227  29.311  35.022  1.00  0.00     0.173 A 
ATOM     84  C   UNL A   1      43.730  27.747  36.065  1.00  0.00     0.173 A 
ATOM     85  F   UNL A   1      45.468  30.326  34.177  1.00  0.00    -0.203 F 
ATOM     86  C   UNL A   1      46.298  28.734  35.701  1.00  0.00     0.198 A 
ATOM     87  C   UNL A   1      44.797  27.193  36.767  1.00  0.00     0.198 A 
ATOM     88  F   UNL A   1      42.501  27.244  36.259  1.00  0.00    -0.203 F 
ATOM     89  F   UNL A   1      47.542  29.188  35.495  1.00  0.00    -0.200 F 
ATOM     90  C   UNL A   1      46.080  27.682  36.578  1.00  0.00     0.200 A 
ATOM     91  F   UNL A   1      44.582  26.187  37.624  1.00  0.00    -0.200 F 
ATOM     92  F   UNL A   1      47.110  27.133  37.237  1.00  0.00    -0.200 F 
ENDBRANCH  59  82
ENDBRANCH  33  34
ENDBRANCH  25  28
ENDBRANCH  23  24
ENDBRANCH  22  23
ENDBRANCH   1  22
TORSDOF 14
ENDMDL
MODEL 2
REMARK VINA RESULT:     -11.8      0.726      2.106
REMARK SMILES O=C(C[C@H]1CN(C(=O)c2sccc2Br)CCO1)NCCCCNC(=O)c1ccc(-c2c3nc(c(-c4c(F)c(F)c(F)c(F)c4F)c4ccc([nH]4)c(-c4c(F)c(F)c(F)c(F)c4F)c4nc(c(-c5c(F)c(F)c(F)c(F)c5F)c5ccc2[nH]5)C=C4)C=C3)cc1
REMARK SMILES IDX 20 1 19 2 18 3 1 4 2 5 3 7 4 8 5 9 17 10 6 11 16 12 15 13
REMARK SMILES IDX 7 14 8 15 9 16 10 17 13 18 11 19 12 20 14 21 21 22 22 23
REMARK SMILES IDX 23 24 24 25 25 27 26 28 27 29 88 30 28 31 87 32 29 33 30 34
REMARK SMILES IDX 31 35 81 36 32 37 86 38 80 39 82 40 33 41 85 42 79 43 78 44
REMARK SMILES IDX 34 46 66 47 46 48 65 49 47 50 50 51 64 52 83 53 48 54 49 55
REMARK SMILES IDX 63 57 84 58 51 59 35 60 36 61 44 62 37 63 38 64 42 65 45 66
REMARK SMILES IDX 39 67 40 68 43 69 41 70 67 71 68 72 76 73 69 74 70 75 74 76
REMARK SMILES IDX 77 77 71 78 72 79 75 80 73 81 52 82 53 83 61 84 54 85 55 86
REMARK SMILES IDX 59 87 62 88 56 89 57 90 60 91 58 92
REMARK H PARENT 18 6 23 26 82 45 50 56
REMARK Flexibility Score: inf
ROOT
ATOM      1  C   UNL A   1      31.670  30.669  26.195  1.00  0.00     0.023 C 
ENDROOT
BRANCH   1   2
ATOM      2  C   UNL A   1      33.094  30.165  26.404  1.00  0.00     0.116 C 
BRANCH   2   3
ATOM      3  N   UNL A   1      33.566  29.328  25.322  1.00  0.00    -0.356 N 
ATOM      4  O   UNL A   1      33.484  27.400  26.537  1.00  0.00    -0.275 OA
ATOM      5  C   UNL A   1      33.643  27.967  25.458  1.00  0.00     0.222 C 
ATOM      6  H   UNL A   1      33.836  29.745  24.472  1.00  0.00     0.163 HD
BRANCH   5   7
ATOM      7  C   UNL A   1      33.992  27.177  24.216  1.00  0.00     0.133 C 
BRANCH   7   8
ATOM      8  C   UNL A   1      33.122  27.263  22.950  1.00  0.00     0.147 C 
ATOM      9  C   UNL A   1      33.259  25.989  22.071  1.00  0.00     0.152 C 
ATOM     10  O   UNL A   1      31.736  27.583  23.182  1.00  0.00    -0.374 OA
ATOM     11  N   UNL A   1      32.495  24.890  22.667  1.00  0.00    -0.333 N 
ATOM     12  C   UNL A   1      30.975  26.493  23.736  1.00  0.00     0.182 C 
ATOM     13  C   UNL A   1      31.093  25.218  22.906  1.00  0.00     0.148 C 
BRANCH  11  14
ATOM     14  C   UNL A   1      33.005  23.664  23.083  1.00  0.00     0.265 C 
ATOM     15  O   UNL A   1      32.712  22.619  22.477  1.00  0.00    -0.268 OA
BRANCH  14  16
ATOM     16  C   UNL A   1      33.944  23.650  24.178  1.00  0.00     0.106 A 
ATOM     17  S   UNL A   1      35.592  23.324  23.804  1.00  0.00    -0.137 S 
ATOM     18  C   UNL A   1      33.761  23.743  25.540  1.00  0.00     0.041 A 
ATOM     19  C   UNL A   1      36.037  23.328  25.456  1.00  0.00     0.067 A 
ATOM     20  C   UNL A   1      34.967  23.602  26.279  1.00  0.00     0.028 A 
ATOM     21  Br  UNL A   1      32.131  23.992  26.456  1.00  0.00    -0.049 Br
ENDBRANCH  14  16
ENDBRANCH  11  14
ENDBRANCH   7   8
ENDBRANCH   5   7
ENDBRANCH   2   3
ENDBRANCH   1   2
BRANCH   1  22
ATOM     22  C   UNL A   1      31.439  32.121  26.613  1.00  0.00     0.023 C 
BRANCH  22  23
ATOM     23  C   UNL A   1      32.637  32.814  27.253  1.00  0.00     0.116 C 
BRANCH  23  24
ATOM     24  N   UNL A   1      32.367  34.196  27.621  1.00  0.00    -0.352 N 
ATOM     25  C   UNL A   1      32.963  34.968  28.582  1.00  0.00     0.251 C 
ATOM     26  H   UNL A   1      31.654  34.639  27.104  1.00  0.00     0.163 HD
ATOM     27  O   UNL A   1      32.509  36.085  28.850  1.00  0.00    -0.269 OA
BRANCH  25  28
ATOM     28  C   UNL A   1      34.130  34.459  29.330  1.00  0.00     0.039 A 
ATOM     29  C   UNL A   1      33.925  33.854  30.573  1.00  0.00     0.014 A 
ATOM     30  C   UNL A   1      35.423  34.565  28.807  1.00  0.00     0.014 A 
ATOM     31  C   UNL A   1      35.005  33.293  31.258  1.00  0.00     0.010 A 
ATOM     32  C   UNL A   1      36.485  33.942  29.455  1.00  0.00     0.010 A 
ATOM     33  C   UNL A   1      36.288  33.297  30.687  1.00  0.00    -0.014 A 
BRANCH  33  34
ATOM     34  C   UNL A   1      37.432  32.627  31.359  1.00  0.00     0.031 A 
ATOM     35  C   UNL A   1      38.128  31.469  30.699  1.00  0.00     0.074 A 
ATOM     36  C   UNL A   1      37.801  33.020  32.594  1.00  0.00     0.049 A 
ATOM     37  N   UNL A   1      39.094  30.713  31.158  1.00  0.00    -0.248 NA
ATOM     38  C   UNL A   1      37.660  31.097  29.356  1.00  0.00     0.031 C 
ATOM     39  C   UNL A   1      37.175  34.097  33.361  1.00  0.00     0.029 A 
ATOM     40  N   UNL A   1      38.786  32.548  33.428  1.00  0.00    -0.354 N 
ATOM     41  C   UNL A   1      39.340  29.773  30.166  1.00  0.00     0.074 A 
ATOM     42  C   UNL A   1      38.385  30.016  29.106  1.00  0.00     0.031 C 
ATOM     43  C   UNL A   1      37.801  34.217  34.543  1.00  0.00     0.029 A 
ATOM     44  C   UNL A   1      38.845  33.201  34.635  1.00  0.00     0.049 A 
ATOM     45  H   UNL A   1      39.392  31.811  33.183  1.00  0.00     0.167 HD
ATOM     46  C   UNL A   1      40.292  28.810  30.131  1.00  0.00     0.037 A 
ATOM     47  C   UNL A   1      39.643  32.995  35.701  1.00  0.00     0.037 A 
ATOM     48  C   UNL A   1      41.253  28.580  31.179  1.00  0.00     0.049 A 
ATOM     49  C   UNL A   1      40.683  31.910  35.642  1.00  0.00     0.074 A 
ATOM     50  C   UNL A   1      42.288  27.662  31.215  1.00  0.00     0.029 A 
ATOM     51  N   UNL A   1      41.293  29.275  32.380  1.00  0.00    -0.354 N 
ATOM     52  N   UNL A   1      40.949  31.070  34.672  1.00  0.00    -0.248 NA
ATOM     53  C   UNL A   1      41.541  31.749  36.825  1.00  0.00     0.031 C 
ATOM     54  C   UNL A   1      42.923  27.767  32.457  1.00  0.00     0.029 A 
ATOM     55  C   UNL A   1      42.321  28.789  33.173  1.00  0.00     0.049 A 
ATOM     56  H   UNL A   1      40.681  30.004  32.632  1.00  0.00     0.167 HD
ATOM     57  C   UNL A   1      42.020  30.303  35.113  1.00  0.00     0.074 A 
ATOM     58  C   UNL A   1      42.364  30.788  36.433  1.00  0.00     0.031 C 
ATOM     59  C   UNL A   1      42.658  29.287  34.482  1.00  0.00     0.037 A 
BRANCH  46  60
ATOM     60  C   UNL A   1      40.347  27.932  28.914  1.00  0.00     0.064 A 
ATOM     61  C   UNL A   1      41.117  28.277  27.792  1.00  0.00     0.173 A 
ATOM     62  C   UNL A   1      39.652  26.713  28.880  1.00  0.00     0.173 A 
ATOM     63  F   UNL A   1      41.793  29.435  27.767  1.00  0.00    -0.203 F 
ATOM     64  C   UNL A   1      41.165  27.450  26.672  1.00  0.00     0.198 A 
ATOM     65  C   UNL A   1      39.729  25.873  27.772  1.00  0.00     0.198 A 
ATOM     66  F   UNL A   1      38.905  26.331  29.927  1.00  0.00    -0.203 F 
ATOM     67  F   UNL A   1      41.865  27.826  25.594  1.00  0.00    -0.200 F 
ATOM     68  C   UNL A   1      40.477  26.246  26.666  1.00  0.00     0.200 A 
ATOM     69  F   UNL A   1      39.075  24.704  27.774  1.00  0.00    -0.200 F 
ATOM     70  F   UNL A   1      40.530  25.448  25.591  1.00  0.00    -0.200 F 
ENDBRANCH  46  60
BRANCH  47  71
ATOM     71  C   UNL A   1      39.499  33.847  36.911  1.00  0.00     0.064 A 
ATOM     72  C   UNL A   1      40.163  35.078  37.010  1.00  0.00     0.173 A 
ATOM     73  C   UNL A   1      38.705  33.446  37.995  1.00  0.00     0.173 A 
ATOM     74  F   UNL A   1      40.952  35.495  36.009  1.00  0.00    -0.203 F 
ATOM     75  C   UNL A   1      40.057  35.864  38.156  1.00  0.00     0.198 A 
ATOM     76  C   UNL A   1      38.574  34.248  39.127  1.00  0.00     0.198 A 
ATOM     77  F   UNL A   1      38.044  32.280  37.949  1.00  0.00    -0.203 F 
ATOM     78  F   UNL A   1      40.742  37.012  38.244  1.00  0.00    -0.200 F 
ATOM     79  C   UNL A   1      39.257  35.451  39.210  1.00  0.00     0.200 A 
ATOM     80  F   UNL A   1      37.789  33.851  40.138  1.00  0.00    -0.200 F 
ATOM     81  F   UNL A   1      39.152  36.208  40.311  1.00  0.00    -0.200 F 
ENDBRANCH  47  71
BRANCH  59  82
ATOM     82  C   UNL A   1      43.820  28.654  35.193  1.00  0.00     0.064 A 
ATOM     83  C   UNL A   1      43.657  27.540  36.028  1.00  0.00     0.173 A 
ATOM     84  C   UNL A   1      45.121  29.149  35.006  1.00  0.00     0.173 A 
ATOM     85  F   UNL A   1      42.433  27.037  36.252  1.00  0.00    -0.203 F 
ATOM     86  C   UNL A   1      44.749  26.958  36.668  1.00  0.00     0.198 A 
ATOM     87  C   UNL A   1      46.213  28.547  35.622  1.00  0.00     0.198 A 
ATOM     88  F   UNL A   1      45.332  30.210  34.212  1.00  0.00    -0.203 F 
ATOM     89  F   UNL A   1      44.562  25.924  37.500  1.00  0.00    -0.200 F 
ATOM     90  C   UNL A   1      46.026  27.458  36.459  1.00  0.00     0.200 A 
ATOM     91  F   UNL A   1      47.447  29.022  35.407  1.00  0.00    -0.200 F 
ATOM     92  F   UNL A   1      47.076  26.892  37.070  1.00  0.00    -0.200 F 
ENDBRANCH  59  82
ENDBRANCH  33  34
ENDBRANCH  25  28
ENDBRANCH  23  24
ENDBRANCH  22  23
ENDBRANCH   1  22
TORSDOF 14
ENDMDL
MODEL 3
REMARK VINA RESULT:     -11.8      1.127      2.081
REMARK SMILES O=C(C[C@H]1CN(C(=O)c2sccc2Br)CCO1)NCCCCNC(=O)c1ccc(-c2c3nc(c(-c4c(F)c(F)c(F)c(F)c4F)c4ccc([nH]4)c(-c4c(F)c(F)c(F)c(F)c4F)c4nc(c(-c5c(F)c(F)c(F)c(F)c5F)c5ccc2[nH]5)C=C4)C=C3)cc1
REMARK SMILES IDX 20 1 19 2 18 3 1 4 2 5 3 7 4 8 5 9 17 10 6 11 16 12 15 13
REMARK SMILES IDX 7 14 8 15 9 16 10 17 13 18 11 19 12 20 14 21 21 22 22 23
REMARK SMILES IDX 23 24 24 25 25 27 26 28 27 29 88 30 28 31 87 32 29 33 30 34
REMARK SMILES IDX 31 35 81 36 32 37 86 38 80 39 82 40 33 41 85 42 79 43 78 44
REMARK SMILES IDX 34 46 66 47 46 48 65 49 47 50 50 51 64 52 83 53 48 54 49 55
REMARK SMILES IDX 63 57 84 58 51 59 35 60 36 61 44 62 37 63 38 64 42 65 45 66
REMARK SMILES IDX 39 67 40 68 43 69 41 70 67 71 68 72 76 73 69 74 70 75 74 76
REMARK SMILES IDX 77 77 71 78 72 79 75 80 73 81 52 82 53 83 61 84 54 85 55 86
REMARK SMILES IDX 59 87 62 88 56 89 57 90 60 91 58 92
REMARK H PARENT 18 6 23 26 82 45 50 56
REMARK Flexibility Score: inf
ROOT
ATOM      1  C   UNL A   1      31.687  30.753  26.035  1.00  0.00     0.023 C 
ENDROOT
BRANCH   1   2
ATOM      2  C   UNL A   1      32.666  29.866  26.798  1.00  0.00     0.116 C 
BRANCH   2   3
ATOM      3  N   UNL A   1      32.707  28.507  26.303  1.00  0.00    -0.356 N 
ATOM      4  O   UNL A   1      31.188  27.721  27.811  1.00  0.00    -0.275 OA
ATOM      5  C   UNL A   1      31.880  27.540  26.810  1.00  0.00     0.222 C 
ATOM      6  H   UNL A   1      33.341  28.273  25.587  1.00  0.00     0.163 HD
BRANCH   5   7
ATOM      7  C   UNL A   1      31.889  26.200  26.110  1.00  0.00     0.133 C 
BRANCH   7   8
ATOM      8  C   UNL A   1      30.578  25.506  25.705  1.00  0.00     0.147 C 
ATOM      9  C   UNL A   1      30.720  24.753  24.352  1.00  0.00     0.152 C 
ATOM     10  O   UNL A   1      30.001  24.652  26.712  1.00  0.00    -0.374 OA
ATOM     11  N   UNL A   1      31.458  23.504  24.555  1.00  0.00    -0.333 N 
ATOM     12  C   UNL A   1      30.705  23.408  26.889  1.00  0.00     0.182 C 
ATOM     13  C   UNL A   1      30.876  22.643  25.580  1.00  0.00     0.148 C 
BRANCH  11  14
ATOM     14  C   UNL A   1      32.656  23.147  23.943  1.00  0.00     0.265 C 
ATOM     15  O   UNL A   1      32.772  23.194  22.707  1.00  0.00    -0.268 OA
BRANCH  14  16
ATOM     16  C   UNL A   1      33.777  22.803  24.784  1.00  0.00     0.106 A 
ATOM     17  S   UNL A   1      34.755  24.094  25.364  1.00  0.00    -0.137 S 
ATOM     18  C   UNL A   1      34.310  21.585  25.144  1.00  0.00     0.041 A 
ATOM     19  C   UNL A   1      35.862  23.014  26.097  1.00  0.00     0.067 A 
ATOM     20  C   UNL A   1      35.485  21.699  25.935  1.00  0.00     0.028 A 
ATOM     21  Br  UNL A   1      33.667  19.876  24.670  1.00  0.00    -0.049 Br
ENDBRANCH  14  16
ENDBRANCH  11  14
ENDBRANCH   7   8
ENDBRANCH   5   7
ENDBRANCH   2   3
ENDBRANCH   1   2
BRANCH   1  22
ATOM     22  C   UNL A   1      31.403  32.103  26.694  1.00  0.00     0.023 C 
BRANCH  22  23
ATOM     23  C   UNL A   1      32.623  32.823  27.259  1.00  0.00     0.116 C 
BRANCH  23  24
ATOM     24  N   UNL A   1      32.353  34.208  27.614  1.00  0.00    -0.352 N 
ATOM     25  C   UNL A   1      32.956  34.993  28.561  1.00  0.00     0.251 C 
ATOM     26  H   UNL A   1      31.634  34.644  27.100  1.00  0.00     0.163 HD
ATOM     27  O   UNL A   1      32.503  36.112  28.820  1.00  0.00    -0.269 OA
BRANCH  25  28
ATOM     28  C   UNL A   1      34.132  34.494  29.303  1.00  0.00     0.039 A 
ATOM     29  C   UNL A   1      33.937  33.883  30.544  1.00  0.00     0.014 A 
ATOM     30  C   UNL A   1      35.421  34.617  28.776  1.00  0.00     0.014 A 
ATOM     31  C   UNL A   1      35.026  33.332  31.225  1.00  0.00     0.010 A 
ATOM     32  C   UNL A   1      36.493  34.003  29.419  1.00  0.00     0.010 A 
ATOM     33  C   UNL A   1      36.307  33.352  30.649  1.00  0.00    -0.014 A 
BRANCH  33  34
ATOM     34  C   UNL A   1      37.461  32.693  31.315  1.00  0.00     0.031 A 
ATOM     35  C   UNL A   1      38.163  31.541  30.653  1.00  0.00     0.074 A 
ATOM     36  C   UNL A   1      37.834  33.091  32.547  1.00  0.00     0.049 A 
ATOM     37  N   UNL A   1      39.138  30.793  31.107  1.00  0.00    -0.248 NA
ATOM     38  C   UNL A   1      37.690  31.163  29.312  1.00  0.00     0.031 C 
ATOM     39  C   UNL A   1      37.203  34.164  33.317  1.00  0.00     0.029 A 
ATOM     40  N   UNL A   1      38.828  32.628  33.376  1.00  0.00    -0.354 N 
ATOM     41  C   UNL A   1      39.387  29.854  30.114  1.00  0.00     0.074 A 
ATOM     42  C   UNL A   1      38.423  30.088  29.059  1.00  0.00     0.031 C 
ATOM     43  C   UNL A   1      37.835  34.290  34.494  1.00  0.00     0.029 A 
ATOM     44  C   UNL A   1      38.889  33.284  34.581  1.00  0.00     0.049 A 
ATOM     45  H   UNL A   1      39.439  31.897  33.128  1.00  0.00     0.167 HD
ATOM     46  C   UNL A   1      40.347  28.899  30.075  1.00  0.00     0.037 A 
ATOM     47  C   UNL A   1      39.695  33.086  35.643  1.00  0.00     0.037 A 
ATOM     48  C   UNL A   1      41.316  28.679  31.117  1.00  0.00     0.049 A 
ATOM     49  C   UNL A   1      40.744  32.009  35.579  1.00  0.00     0.074 A 
ATOM     50  C   UNL A   1      42.359  27.771  31.148  1.00  0.00     0.029 A 
ATOM     51  N   UNL A   1      41.357  29.376  32.317  1.00  0.00    -0.354 N 
ATOM     52  N   UNL A   1      41.012  31.171  34.609  1.00  0.00    -0.248 NA
ATOM     53  C   UNL A   1      41.610  31.858  36.757  1.00  0.00     0.031 C 
ATOM     54  C   UNL A   1      43.000  27.882  32.386  1.00  0.00     0.029 A 
ATOM     55  C   UNL A   1      42.394  28.900  33.104  1.00  0.00     0.049 A 
ATOM     56  H   UNL A   1      40.740  30.100  32.571  1.00  0.00     0.167 HD
ATOM     57  C   UNL A   1      42.091  30.413  35.044  1.00  0.00     0.074 A 
ATOM     58  C   UNL A   1      42.439  30.903  36.361  1.00  0.00     0.031 C 
ATOM     59  C   UNL A   1      42.735  29.403  34.410  1.00  0.00     0.037 A 
BRANCH  46  60
ATOM     60  C   UNL A   1      40.402  28.020  28.858  1.00  0.00     0.064 A 
ATOM     61  C   UNL A   1      41.160  28.371  27.730  1.00  0.00     0.173 A 
ATOM     62  C   UNL A   1      39.719  26.794  28.831  1.00  0.00     0.173 A 
ATOM     63  F   UNL A   1      41.824  29.536  27.699  1.00  0.00    -0.203 F 
ATOM     64  C   UNL A   1      41.209  27.543  26.611  1.00  0.00     0.198 A 
ATOM     65  C   UNL A   1      39.796  25.953  27.723  1.00  0.00     0.198 A 
ATOM     66  F   UNL A   1      38.984  26.406  29.884  1.00  0.00    -0.203 F 
ATOM     67  F   UNL A   1      41.897  27.925  25.527  1.00  0.00    -0.200 F 
ATOM     68  C   UNL A   1      40.533  26.333  26.612  1.00  0.00     0.200 A 
ATOM     69  F   UNL A   1      39.155  24.777  27.731  1.00  0.00    -0.200 F 
ATOM     70  F   UNL A   1      40.586  25.533  25.537  1.00  0.00    -0.200 F 
ENDBRANCH  46  60
BRANCH  47  71
ATOM     71  C   UNL A   1      39.551  33.939  36.853  1.00  0.00     0.064 A 
ATOM     72  C   UNL A   1      40.191  35.182  36.939  1.00  0.00     0.173 A 
ATOM     73  C   UNL A   1      38.780  33.525  37.949  1.00  0.00     0.173 A 
ATOM     74  F   UNL A   1      40.957  35.613  35.925  1.00  0.00    -0.203 F 
ATOM     75  C   UNL A   1      40.085  35.969  38.085  1.00  0.00     0.198 A 
ATOM     76  C   UNL A   1      38.649  34.326  39.081  1.00  0.00     0.198 A 
ATOM     77  F   UNL A   1      38.143  32.345  37.916  1.00  0.00    -0.203 F 
ATOM     78  F   UNL A   1      40.748  37.131  38.160  1.00  0.00    -0.200 F 
ATOM     79  C   UNL A   1      39.309  35.543  39.151  1.00  0.00     0.200 A 
ATOM     80  F   UNL A   1      37.887  33.917  40.104  1.00  0.00    -0.200 F 
ATOM     81  F   UNL A   1      39.205  36.301  40.251  1.00  0.00    -0.200 F 
ENDBRANCH  47  71
BRANCH  59  82
ATOM     82  C   UNL A   1      43.906  28.781  35.115  1.00  0.00     0.064 A 
ATOM     83  C   UNL A   1      45.208  29.281  34.968  1.00  0.00     0.173 A 
ATOM     84  C   UNL A   1      43.716  27.692  35.981  1.00  0.00     0.173 A 
ATOM     85  F   UNL A   1      45.446  30.311  34.141  1.00  0.00    -0.203 F 
ATOM     86  C   UNL A   1      46.280  28.699  35.641  1.00  0.00     0.198 A 
ATOM     87  C   UNL A   1      44.784  27.133  36.677  1.00  0.00     0.198 A 
ATOM     88  F   UNL A   1      42.489  27.179  36.163  1.00  0.00    -0.203 F 
ATOM     89  F   UNL A   1      47.522  29.163  35.446  1.00  0.00    -0.200 F 
ATOM     90  C   UNL A   1      46.065  27.632  36.500  1.00  0.00     0.200 A 
ATOM     91  F   UNL A   1      44.572  26.112  37.517  1.00  0.00    -0.200 F 
ATOM     92  F   UNL A   1      47.096  27.078  37.153  1.00  0.00    -0.200 F 
ENDBRANCH  59  82
ENDBRANCH  33  34
ENDBRANCH  25  28
ENDBRANCH  23  24
ENDBRANCH  22  23
ENDBRANCH   1  22
TORSDOF 14
ENDMDL
