MODEL 1
REMARK VINA RESULT:     -13.4      0.000      0.000
REMARK SMILES Cc1cc(N2CCCC2)nc2sc3c(=O)n(CC(=O)NCCCCNC(=O)c4ccc(-c5c6nc(c(-c7c(F)c(F)c(F)c(F)c7F)c7ccc([nH]7)c(-c7c(F)c(F)c(F)c(F)c7F)c7nc(c(-c8c(F)c(F)c(F)c(F)c8F)c8ccc5[nH]8)C=C7)C=C6)cc4)cnc3c12
REMARK SMILES IDX 22 1 21 2 20 3 18 4 19 5 17 7 16 8 1 9 2 10 3 11 94 12 4 13
REMARK SMILES IDX 11 14 93 15 10 16 12 17 13 18 92 19 14 20 91 21 15 22 5 23
REMARK SMILES IDX 6 24 9 25 7 26 8 27 23 28 24 29 25 30 26 31 27 33 28 34
REMARK SMILES IDX 29 35 90 36 30 37 89 38 31 39 32 40 33 41 83 42 34 43 88 44
REMARK SMILES IDX 82 45 84 46 35 47 87 48 81 49 80 50 36 52 68 53 48 54 67 55
REMARK SMILES IDX 49 56 52 57 66 58 85 59 50 60 51 61 65 63 86 64 53 65 37 66
REMARK SMILES IDX 38 67 46 68 39 69 40 70 44 71 47 72 41 73 42 74 45 75 43 76
REMARK SMILES IDX 69 77 70 78 78 79 71 80 72 81 76 82 79 83 73 84 74 85 77 86
REMARK SMILES IDX 75 87 54 88 55 89 63 90 56 91 57 92 61 93 64 94 58 95 59 96
REMARK SMILES IDX 62 97 60 98
REMARK H PARENT 20 6 25 32 84 51 52 62
REMARK Flexibility Score: inf
ROOT
ATOM      1  C   UNL A   1      37.157  20.536  24.705  1.00  0.00     0.023 C 
ENDROOT
BRANCH   1   2
ATOM      2  C   UNL A   1      35.895  19.991  25.375  1.00  0.00     0.116 C 
BRANCH   2   3
ATOM      3  N   UNL A   1      34.728  20.183  24.538  1.00  0.00    -0.355 N 
ATOM      4  C   UNL A   1      33.730  21.107  24.617  1.00  0.00     0.240 C 
ATOM      5  O   UNL A   1      32.850  21.072  23.752  1.00  0.00    -0.273 OA
ATOM      6  H   UNL A   1      34.642  19.544  23.794  1.00  0.00     0.163 HD
BRANCH   4   7
ATOM      7  C   UNL A   1      33.703  22.187  25.700  1.00  0.00     0.226 C 
BRANCH   7   8
ATOM      8  N   UNL A   1      33.214  23.465  25.208  1.00  0.00    -0.288 N 
ATOM      9  C   UNL A   1      33.863  28.203  22.330  1.00  0.00     0.045 C 
ATOM     10  C   UNL A   1      32.470  28.136  22.890  1.00  0.00    -0.035 A 
ATOM     11  C   UNL A   1      31.578  29.170  22.558  1.00  0.00     0.051 A 
ATOM     12  C   UNL A   1      31.961  27.111  23.719  1.00  0.00     0.041 A 
ATOM     13  C   UNL A   1      30.284  29.224  23.071  1.00  0.00     0.130 A 
ATOM     14  C   UNL A   1      30.645  27.258  24.164  1.00  0.00     0.128 A 
ATOM     15  C   UNL A   1      32.503  25.899  24.244  1.00  0.00     0.098 A 
ATOM     16  N   UNL A   1      29.810  28.286  23.905  1.00  0.00    -0.220 NA
ATOM     17  S   UNL A   1      30.114  25.942  25.124  1.00  0.00    -0.108 S 
ATOM     18  C   UNL A   1      31.609  25.165  24.973  1.00  0.00     0.121 A 
ATOM     19  N   UNL A   1      33.821  25.465  24.037  1.00  0.00    -0.236 NA
ATOM     20  C   UNL A   1      31.928  23.885  25.529  1.00  0.00     0.271 A 
ATOM     21  C   UNL A   1      34.090  24.302  24.537  1.00  0.00     0.203 A 
ATOM     22  O   UNL A   1      31.157  23.207  26.219  1.00  0.00    -0.268 OA
BRANCH  13  23
ATOM     23  N   UNL A   1      29.490  30.296  22.756  1.00  0.00    -0.357 N 
ATOM     24  C   UNL A   1      28.808  30.451  21.488  1.00  0.00     0.118 C 
ATOM     25  C   UNL A   1      28.974  31.200  23.769  1.00  0.00     0.118 C 
ATOM     26  C   UNL A   1      28.429  31.925  21.514  1.00  0.00     0.023 C 
ATOM     27  C   UNL A   1      28.089  32.175  22.980  1.00  0.00     0.023 C 
ENDBRANCH  13  23
ENDBRANCH   7   8
ENDBRANCH   4   7
ENDBRANCH   2   3
ENDBRANCH   1   2
BRANCH   1  28
ATOM     28  C   UNL A   1      37.192  22.069  24.548  1.00  0.00     0.023 C 
BRANCH  28  29
ATOM     29  C   UNL A   1      37.861  22.844  25.698  1.00  0.00     0.116 C 
BRANCH  29  30
ATOM     30  N   UNL A   1      38.696  21.964  26.494  1.00  0.00    -0.352 N 
ATOM     31  C   UNL A   1      39.916  22.159  27.076  1.00  0.00     0.251 C 
ATOM     32  H   UNL A   1      38.316  21.067  26.640  1.00  0.00     0.163 HD
ATOM     33  O   UNL A   1      40.570  21.172  27.410  1.00  0.00    -0.269 OA
BRANCH  31  34
ATOM     34  C   UNL A   1      40.467  23.500  27.357  1.00  0.00     0.039 A 
ATOM     35  C   UNL A   1      39.622  24.417  27.993  1.00  0.00     0.014 A 
ATOM     36  C   UNL A   1      41.688  23.928  26.828  1.00  0.00     0.014 A 
ATOM     37  C   UNL A   1      39.993  25.755  28.099  1.00  0.00     0.010 A 
ATOM     38  C   UNL A   1      42.058  25.274  26.935  1.00  0.00     0.010 A 
ATOM     39  C   UNL A   1      41.211  26.197  27.566  1.00  0.00    -0.014 A 
BRANCH  39  40
ATOM     40  C   UNL A   1      41.561  27.615  27.786  1.00  0.00     0.031 A 
ATOM     41  C   UNL A   1      40.413  28.582  27.721  1.00  0.00     0.074 A 
ATOM     42  C   UNL A   1      42.579  27.940  28.610  1.00  0.00     0.049 A 
ATOM     43  N   UNL A   1      39.595  28.835  28.702  1.00  0.00    -0.248 NA
ATOM     44  C   UNL A   1      39.980  29.137  26.438  1.00  0.00     0.031 C 
ATOM     45  C   UNL A   1      42.846  27.330  29.913  1.00  0.00     0.029 A 
ATOM     46  N   UNL A   1      43.489  28.972  28.520  1.00  0.00    -0.354 N 
ATOM     47  C   UNL A   1      38.530  29.549  28.175  1.00  0.00     0.074 A 
ATOM     48  C   UNL A   1      38.808  29.703  26.764  1.00  0.00     0.031 C 
ATOM     49  C   UNL A   1      43.743  28.091  30.570  1.00  0.00     0.029 A 
ATOM     50  C   UNL A   1      44.197  29.179  29.703  1.00  0.00     0.049 A 
ATOM     51  H   UNL A   1      43.624  29.509  27.706  1.00  0.00     0.167 HD
ATOM     52  C   UNL A   1      37.486  30.000  28.923  1.00  0.00     0.037 A 
ATOM     53  C   UNL A   1      44.580  30.414  30.140  1.00  0.00     0.037 A 
ATOM     54  C   UNL A   1      37.600  29.787  30.334  1.00  0.00     0.049 A 
ATOM     55  C   UNL A   1      43.268  30.938  30.683  1.00  0.00     0.074 A 
ATOM     56  C   UNL A   1      37.090  28.957  31.307  1.00  0.00     0.029 A 
ATOM     57  N   UNL A   1      38.431  30.640  31.016  1.00  0.00    -0.354 N 
ATOM     58  N   UNL A   1      42.714  30.611  31.822  1.00  0.00    -0.248 NA
ATOM     59  C   UNL A   1      42.357  31.568  29.724  1.00  0.00     0.031 C 
ATOM     60  C   UNL A   1      38.001  29.063  32.410  1.00  0.00     0.029 A 
ATOM     61  C   UNL A   1      39.023  29.928  32.021  1.00  0.00     0.049 A 
ATOM     62  H   UNL A   1      38.576  31.593  30.818  1.00  0.00     0.167 HD
ATOM     63  C   UNL A   1      41.335  30.729  31.611  1.00  0.00     0.074 A 
ATOM     64  C   UNL A   1      41.189  31.357  30.314  1.00  0.00     0.031 C 
ATOM     65  C   UNL A   1      40.398  30.141  32.411  1.00  0.00     0.037 A 
BRANCH  52  66
ATOM     66  C   UNL A   1      36.416  30.896  28.437  1.00  0.00     0.064 A 
ATOM     67  C   UNL A   1      36.617  32.279  28.571  1.00  0.00     0.173 A 
ATOM     68  C   UNL A   1      35.141  30.446  28.082  1.00  0.00     0.173 A 
ATOM     69  F   UNL A   1      37.831  32.750  28.902  1.00  0.00    -0.203 F 
ATOM     70  C   UNL A   1      35.570  33.179  28.423  1.00  0.00     0.198 A 
ATOM     71  C   UNL A   1      34.094  31.355  27.914  1.00  0.00     0.198 A 
ATOM     72  F   UNL A   1      34.897  29.135  27.948  1.00  0.00    -0.203 F 
ATOM     73  F   UNL A   1      35.783  34.485  28.627  1.00  0.00    -0.200 F 
ATOM     74  C   UNL A   1      34.304  32.716  28.106  1.00  0.00     0.200 A 
ATOM     75  F   UNL A   1      32.867  30.913  27.602  1.00  0.00    -0.200 F 
ATOM     76  F   UNL A   1      33.286  33.579  27.996  1.00  0.00    -0.200 F 
ENDBRANCH  52  66
BRANCH  53  77
ATOM     77  C   UNL A   1      45.477  31.172  29.206  1.00  0.00     0.064 A 
ATOM     78  C   UNL A   1      46.853  31.232  29.518  1.00  0.00     0.173 A 
ATOM     79  C   UNL A   1      45.092  31.806  28.016  1.00  0.00     0.173 A 
ATOM     80  F   UNL A   1      47.297  30.768  30.696  1.00  0.00    -0.203 F 
ATOM     81  C   UNL A   1      47.796  31.740  28.624  1.00  0.00     0.198 A 
ATOM     82  C   UNL A   1      46.038  32.289  27.107  1.00  0.00     0.198 A 
ATOM     83  F   UNL A   1      43.801  31.956  27.695  1.00  0.00    -0.203 F 
ATOM     84  F   UNL A   1      49.097  31.716  28.940  1.00  0.00    -0.200 F 
ATOM     85  C   UNL A   1      47.390  32.231  27.398  1.00  0.00     0.200 A 
ATOM     86  F   UNL A   1      45.634  32.780  25.926  1.00  0.00    -0.200 F 
ATOM     87  F   UNL A   1      48.295  32.645  26.501  1.00  0.00    -0.200 F 
ENDBRANCH  53  77
BRANCH  65  88
ATOM     88  C   UNL A   1      40.914  29.500  33.651  1.00  0.00     0.064 A 
ATOM     89  C   UNL A   1      41.208  28.131  33.667  1.00  0.00     0.173 A 
ATOM     90  C   UNL A   1      41.181  30.247  34.809  1.00  0.00     0.173 A 
ATOM     91  F   UNL A   1      40.987  27.378  32.578  1.00  0.00    -0.203 F 
ATOM     92  C   UNL A   1      41.767  27.536  34.793  1.00  0.00     0.198 A 
ATOM     93  C   UNL A   1      41.772  29.654  35.921  1.00  0.00     0.198 A 
ATOM     94  F   UNL A   1      40.903  31.559  34.863  1.00  0.00    -0.203 F 
ATOM     95  F   UNL A   1      42.046  26.225  34.783  1.00  0.00    -0.200 F 
ATOM     96  C   UNL A   1      42.064  28.299  35.911  1.00  0.00     0.200 A 
ATOM     97  F   UNL A   1      42.081  30.398  36.992  1.00  0.00    -0.200 F 
ATOM     98  F   UNL A   1      42.649  27.732  36.976  1.00  0.00    -0.200 F 
ENDBRANCH  65  88
ENDBRANCH  39  40
ENDBRANCH  31  34
ENDBRANCH  29  30
ENDBRANCH  28  29
ENDBRANCH   1  28
TORSDOF 13
ENDMDL
MODEL 2
REMARK VINA RESULT:     -13.1      5.288      9.722
REMARK SMILES Cc1cc(N2CCCC2)nc2sc3c(=O)n(CC(=O)NCCCCNC(=O)c4ccc(-c5c6nc(c(-c7c(F)c(F)c(F)c(F)c7F)c7ccc([nH]7)c(-c7c(F)c(F)c(F)c(F)c7F)c7nc(c(-c8c(F)c(F)c(F)c(F)c8F)c8ccc5[nH]8)C=C7)C=C6)cc4)cnc3c12
REMARK SMILES IDX 22 1 21 2 20 3 18 4 19 5 17 7 16 8 1 9 2 10 3 11 94 12 4 13
REMARK SMILES IDX 11 14 93 15 10 16 12 17 13 18 92 19 14 20 91 21 15 22 5 23
REMARK SMILES IDX 6 24 9 25 7 26 8 27 23 28 24 29 25 30 26 31 27 33 28 34
REMARK SMILES IDX 29 35 90 36 30 37 89 38 31 39 32 40 33 41 83 42 34 43 88 44
REMARK SMILES IDX 82 45 84 46 35 47 87 48 81 49 80 50 36 52 68 53 48 54 67 55
REMARK SMILES IDX 49 56 52 57 66 58 85 59 50 60 51 61 65 63 86 64 53 65 37 66
REMARK SMILES IDX 38 67 46 68 39 69 40 70 44 71 47 72 41 73 42 74 45 75 43 76
REMARK SMILES IDX 69 77 70 78 78 79 71 80 72 81 76 82 79 83 73 84 74 85 77 86
REMARK SMILES IDX 75 87 54 88 55 89 63 90 56 91 57 92 61 93 64 94 58 95 59 96
REMARK SMILES IDX 62 97 60 98
REMARK H PARENT 20 6 25 32 84 51 52 62
REMARK Flexibility Score: inf
ROOT
ATOM      1  C   UNL A   1      41.615  26.155  34.999  1.00  0.00     0.023 C 
ENDROOT
BRANCH   1   2
ATOM      2  C   UNL A   1      41.633  27.615  35.453  1.00  0.00     0.116 C 
BRANCH   2   3
ATOM      3  N   UNL A   1      42.801  28.310  34.952  1.00  0.00    -0.355 N 
ATOM      4  C   UNL A   1      43.118  29.634  34.979  1.00  0.00     0.240 C 
ATOM      5  O   UNL A   1      44.204  29.972  34.499  1.00  0.00    -0.273 OA
ATOM      6  H   UNL A   1      43.474  27.733  34.523  1.00  0.00     0.163 HD
BRANCH   4   7
ATOM      7  C   UNL A   1      42.200  30.678  35.617  1.00  0.00     0.226 C 
BRANCH   7   8
ATOM      8  N   UNL A   1      41.248  31.243  34.673  1.00  0.00    -0.288 N 
ATOM      9  C   UNL A   1      40.019  34.145  30.067  1.00  0.00     0.045 C 
ATOM     10  C   UNL A   1      38.755  33.619  30.688  1.00  0.00    -0.035 A 
ATOM     11  C   UNL A   1      37.545  33.854  30.014  1.00  0.00     0.051 A 
ATOM     12  C   UNL A   1      38.669  32.888  31.894  1.00  0.00     0.041 A 
ATOM     13  C   UNL A   1      36.317  33.452  30.535  1.00  0.00     0.130 A 
ATOM     14  C   UNL A   1      37.389  32.521  32.316  1.00  0.00     0.128 A 
ATOM     15  C   UNL A   1      39.631  32.414  32.837  1.00  0.00     0.098 A 
ATOM     16  N   UNL A   1      36.220  32.808  31.708  1.00  0.00    -0.220 NA
ATOM     17  S   UNL A   1      37.402  31.602  33.763  1.00  0.00    -0.108 S 
ATOM     18  C   UNL A   1      39.089  31.680  33.856  1.00  0.00     0.121 A 
ATOM     19  N   UNL A   1      41.011  32.650  32.749  1.00  0.00    -0.236 NA
ATOM     20  C   UNL A   1      39.884  31.056  34.869  1.00  0.00     0.271 A 
ATOM     21  C   UNL A   1      41.717  32.070  33.666  1.00  0.00     0.203 A 
ATOM     22  O   UNL A   1      39.429  30.411  35.821  1.00  0.00    -0.268 OA
BRANCH  13  23
ATOM     23  N   UNL A   1      35.171  33.772  29.855  1.00  0.00    -0.357 N 
ATOM     24  C   UNL A   1      34.472  32.859  28.975  1.00  0.00     0.118 C 
ATOM     25  C   UNL A   1      34.357  34.921  30.212  1.00  0.00     0.118 C 
ATOM     26  C   UNL A   1      33.558  33.802  28.207  1.00  0.00     0.023 C 
ATOM     27  C   UNL A   1      33.160  34.838  29.253  1.00  0.00     0.023 C 
ENDBRANCH  13  23
ENDBRANCH   7   8
ENDBRANCH   4   7
ENDBRANCH   2   3
ENDBRANCH   1   2
BRANCH   1  28
ATOM     28  C   UNL A   1      41.805  25.126  36.132  1.00  0.00     0.023 C 
BRANCH  28  29
ATOM     29  C   UNL A   1      43.017  25.359  37.050  1.00  0.00     0.116 C 
BRANCH  29  30
ATOM     30  N   UNL A   1      43.919  24.223  37.011  1.00  0.00    -0.352 N 
ATOM     31  C   UNL A   1      44.511  23.575  35.965  1.00  0.00     0.251 C 
ATOM     32  H   UNL A   1      44.144  23.853  37.896  1.00  0.00     0.163 HD
ATOM     33  O   UNL A   1      44.959  22.445  36.154  1.00  0.00    -0.269 OA
BRANCH  31  34
ATOM     34  C   UNL A   1      44.671  24.185  34.629  1.00  0.00     0.039 A 
ATOM     35  C   UNL A   1      45.272  25.448  34.572  1.00  0.00     0.014 A 
ATOM     36  C   UNL A   1      44.065  23.649  33.489  1.00  0.00     0.014 A 
ATOM     37  C   UNL A   1      45.265  26.174  33.384  1.00  0.00     0.010 A 
ATOM     38  C   UNL A   1      44.058  24.382  32.296  1.00  0.00     0.010 A 
ATOM     39  C   UNL A   1      44.654  25.651  32.237  1.00  0.00    -0.014 A 
BRANCH  39  40
ATOM     40  C   UNL A   1      44.756  26.452  31.001  1.00  0.00     0.031 A 
ATOM     41  C   UNL A   1      44.682  25.674  29.718  1.00  0.00     0.074 A 
ATOM     42  C   UNL A   1      44.277  27.713  30.970  1.00  0.00     0.049 A 
ATOM     43  N   UNL A   1      43.581  25.286  29.143  1.00  0.00    -0.248 NA
ATOM     44  C   UNL A   1      45.887  25.072  29.143  1.00  0.00     0.031 C 
ATOM     45  C   UNL A   1      43.003  28.152  31.541  1.00  0.00     0.029 A 
ATOM     46  N   UNL A   1      44.754  28.820  30.301  1.00  0.00    -0.354 N 
ATOM     47  C   UNL A   1      43.930  24.374  28.158  1.00  0.00     0.074 A 
ATOM     48  C   UNL A   1      45.371  24.266  28.203  1.00  0.00     0.031 C 
ATOM     49  C   UNL A   1      42.721  29.384  31.072  1.00  0.00     0.029 A 
ATOM     50  C   UNL A   1      43.835  29.867  30.256  1.00  0.00     0.049 A 
ATOM     51  H   UNL A   1      45.651  28.867  29.898  1.00  0.00     0.167 HD
ATOM     52  C   UNL A   1      43.025  23.773  27.339  1.00  0.00     0.037 A 
ATOM     53  C   UNL A   1      43.710  30.707  29.187  1.00  0.00     0.037 A 
ATOM     54  C   UNL A   1      41.672  24.220  27.478  1.00  0.00     0.049 A 
ATOM     55  C   UNL A   1      42.945  29.823  28.226  1.00  0.00     0.074 A 
ATOM     56  C   UNL A   1      40.483  23.791  28.025  1.00  0.00     0.029 A 
ATOM     57  N   UNL A   1      41.365  25.426  26.899  1.00  0.00    -0.354 N 
ATOM     58  N   UNL A   1      41.667  29.551  28.272  1.00  0.00    -0.248 NA
ATOM     59  C   UNL A   1      43.731  28.903  27.401  1.00  0.00     0.031 C 
ATOM     60  C   UNL A   1      39.676  24.971  28.145  1.00  0.00     0.029 A 
ATOM     61  C   UNL A   1      40.441  26.046  27.693  1.00  0.00     0.049 A 
ATOM     62  H   UNL A   1      41.741  25.782  26.062  1.00  0.00     0.167 HD
ATOM     63  C   UNL A   1      41.540  28.269  27.724  1.00  0.00     0.074 A 
ATOM     64  C   UNL A   1      42.842  27.947  27.176  1.00  0.00     0.031 C 
ATOM     65  C   UNL A   1      40.448  27.472  27.915  1.00  0.00     0.037 A 
BRANCH  52  66
ATOM     66  C   UNL A   1      43.361  22.922  26.179  1.00  0.00     0.064 A 
ATOM     67  C   UNL A   1      43.193  21.535  26.319  1.00  0.00     0.173 A 
ATOM     68  C   UNL A   1      44.051  23.392  25.057  1.00  0.00     0.173 A 
ATOM     69  F   UNL A   1      42.528  21.046  27.380  1.00  0.00    -0.203 F 
ATOM     70  C   UNL A   1      43.750  20.644  25.413  1.00  0.00     0.198 A 
ATOM     71  C   UNL A   1      44.593  22.493  24.135  1.00  0.00     0.198 A 
ATOM     72  F   UNL A   1      44.243  24.706  24.880  1.00  0.00    -0.203 F 
ATOM     73  F   UNL A   1      43.629  19.325  25.617  1.00  0.00    -0.200 F 
ATOM     74  C   UNL A   1      44.461  21.123  24.326  1.00  0.00     0.200 A 
ATOM     75  F   UNL A   1      45.278  22.951  23.077  1.00  0.00    -0.200 F 
ATOM     76  F   UNL A   1      45.028  20.264  23.468  1.00  0.00    -0.200 F 
ENDBRANCH  52  66
BRANCH  53  77
ATOM     77  C   UNL A   1      44.947  31.479  28.832  1.00  0.00     0.064 A 
ATOM     78  C   UNL A   1      44.873  32.889  28.853  1.00  0.00     0.173 A 
ATOM     79  C   UNL A   1      46.200  30.938  28.512  1.00  0.00     0.173 A 
ATOM     80  F   UNL A   1      43.689  33.498  29.022  1.00  0.00    -0.203 F 
ATOM     81  C   UNL A   1      46.006  33.694  28.731  1.00  0.00     0.198 A 
ATOM     82  C   UNL A   1      47.341  31.741  28.419  1.00  0.00     0.198 A 
ATOM     83  F   UNL A   1      46.358  29.625  28.304  1.00  0.00    -0.203 F 
ATOM     84  F   UNL A   1      45.892  35.025  28.823  1.00  0.00    -0.200 F 
ATOM     85  C   UNL A   1      47.248  33.115  28.556  1.00  0.00     0.200 A 
ATOM     86  F   UNL A   1      48.541  31.172  28.230  1.00  0.00    -0.200 F 
ATOM     87  F   UNL A   1      48.350  33.876  28.519  1.00  0.00    -0.200 F 
ENDBRANCH  53  77
BRANCH  65  88
ATOM     88  C   UNL A   1      39.291  28.112  28.601  1.00  0.00     0.064 A 
ATOM     89  C   UNL A   1      39.039  27.845  29.952  1.00  0.00     0.173 A 
ATOM     90  C   UNL A   1      38.467  29.040  27.945  1.00  0.00     0.173 A 
ATOM     91  F   UNL A   1      39.810  26.978  30.628  1.00  0.00    -0.203 F 
ATOM     92  C   UNL A   1      38.012  28.497  30.627  1.00  0.00     0.198 A 
ATOM     93  C   UNL A   1      37.463  29.714  28.633  1.00  0.00     0.198 A 
ATOM     94  F   UNL A   1      38.647  29.322  26.646  1.00  0.00    -0.203 F 
ATOM     95  F   UNL A   1      37.791  28.230  31.922  1.00  0.00    -0.200 F 
ATOM     96  C   UNL A   1      37.236  29.442  29.973  1.00  0.00     0.200 A 
ATOM     97  F   UNL A   1      36.731  30.645  28.005  1.00  0.00    -0.200 F 
ATOM     98  F   UNL A   1      36.280  30.104  30.639  1.00  0.00    -0.200 F 
ENDBRANCH  65  88
ENDBRANCH  39  40
ENDBRANCH  31  34
ENDBRANCH  29  30
ENDBRANCH  28  29
ENDBRANCH   1  28
TORSDOF 13
ENDMDL
MODEL 3
REMARK VINA RESULT:     -13.0      5.626     10.518
REMARK SMILES Cc1cc(N2CCCC2)nc2sc3c(=O)n(CC(=O)NCCCCNC(=O)c4ccc(-c5c6nc(c(-c7c(F)c(F)c(F)c(F)c7F)c7ccc([nH]7)c(-c7c(F)c(F)c(F)c(F)c7F)c7nc(c(-c8c(F)c(F)c(F)c(F)c8F)c8ccc5[nH]8)C=C7)C=C6)cc4)cnc3c12
REMARK SMILES IDX 22 1 21 2 20 3 18 4 19 5 17 7 16 8 1 9 2 10 3 11 94 12 4 13
REMARK SMILES IDX 11 14 93 15 10 16 12 17 13 18 92 19 14 20 91 21 15 22 5 23
REMARK SMILES IDX 6 24 9 25 7 26 8 27 23 28 24 29 25 30 26 31 27 33 28 34
REMARK SMILES IDX 29 35 90 36 30 37 89 38 31 39 32 40 33 41 83 42 34 43 88 44
REMARK SMILES IDX 82 45 84 46 35 47 87 48 81 49 80 50 36 52 68 53 48 54 67 55
REMARK SMILES IDX 49 56 52 57 66 58 85 59 50 60 51 61 65 63 86 64 53 65 37 66
REMARK SMILES IDX 38 67 46 68 39 69 40 70 44 71 47 72 41 73 42 74 45 75 43 76
REMARK SMILES IDX 69 77 70 78 78 79 71 80 72 81 76 82 79 83 73 84 74 85 77 86
REMARK SMILES IDX 75 87 54 88 55 89 63 90 56 91 57 92 61 93 64 94 58 95 59 96
REMARK SMILES IDX 62 97 60 98
REMARK H PARENT 20 6 25 32 84 51 52 62
REMARK Flexibility Score: inf
ROOT
ATOM      1  C   UNL A   1      46.555  33.506  27.192  1.00  0.00     0.023 C 
ENDROOT
BRANCH   1   2
ATOM      2  C   UNL A   1      45.443  32.993  28.108  1.00  0.00     0.116 C 
BRANCH   2   3
ATOM      3  N   UNL A   1      44.415  32.302  27.356  1.00  0.00    -0.355 N 
ATOM      4  C   UNL A   1      44.420  31.063  26.792  1.00  0.00     0.240 C 
ATOM      5  O   UNL A   1      43.392  30.692  26.218  1.00  0.00    -0.273 OA
ATOM      6  H   UNL A   1      43.580  32.809  27.234  1.00  0.00     0.163 HD
BRANCH   4   7
ATOM      7  C   UNL A   1      45.626  30.127  26.891  1.00  0.00     0.226 C 
BRANCH   7   8
ATOM      8  N   UNL A   1      45.248  28.723  26.923  1.00  0.00    -0.288 N 
ATOM      9  C   UNL A   1      42.712  24.366  29.318  1.00  0.00     0.045 C 
ATOM     10  C   UNL A   1      43.312  23.945  28.006  1.00  0.00    -0.035 A 
ATOM     11  C   UNL A   1      43.089  22.627  27.574  1.00  0.00     0.051 A 
ATOM     12  C   UNL A   1      44.079  24.765  27.148  1.00  0.00     0.041 A 
ATOM     13  C   UNL A   1      43.648  22.129  26.399  1.00  0.00     0.130 A 
ATOM     14  C   UNL A   1      44.578  24.167  25.988  1.00  0.00     0.128 A 
ATOM     15  C   UNL A   1      44.493  26.131  27.189  1.00  0.00     0.098 A 
ATOM     16  N   UNL A   1      44.425  22.882  25.606  1.00  0.00    -0.220 NA
ATOM     17  S   UNL A   1      45.454  25.258  24.999  1.00  0.00    -0.108 S 
ATOM     18  C   UNL A   1      45.195  26.528  26.085  1.00  0.00     0.121 A 
ATOM     19  N   UNL A   1      44.210  27.013  28.243  1.00  0.00    -0.236 NA
ATOM     20  C   UNL A   1      45.643  27.874  25.895  1.00  0.00     0.271 A 
ATOM     21  C   UNL A   1      44.612  28.229  28.050  1.00  0.00     0.203 A 
ATOM     22  O   UNL A   1      46.306  28.264  24.926  1.00  0.00    -0.268 OA
BRANCH  13  23
ATOM     23  N   UNL A   1      43.441  20.813  26.072  1.00  0.00    -0.357 N 
ATOM     24  C   UNL A   1      42.217  20.094  26.356  1.00  0.00     0.118 C 
ATOM     25  C   UNL A   1      44.276  20.116  25.109  1.00  0.00     0.118 C 
ATOM     26  C   UNL A   1      42.653  18.648  26.168  1.00  0.00     0.023 C 
ATOM     27  C   UNL A   1      43.635  18.725  25.003  1.00  0.00     0.023 C 
ENDBRANCH  13  23
ENDBRANCH   7   8
ENDBRANCH   4   7
ENDBRANCH   2   3
ENDBRANCH   1   2
BRANCH   1  28
ATOM     28  C   UNL A   1      46.429  34.990  26.793  1.00  0.00     0.023 C 
BRANCH  28  29
ATOM     29  C   UNL A   1      45.104  35.391  26.121  1.00  0.00     0.116 C 
BRANCH  29  30
ATOM     30  N   UNL A   1      44.722  36.739  26.500  1.00  0.00    -0.352 N 
ATOM     31  C   UNL A   1      43.723  37.201  27.307  1.00  0.00     0.251 C 
ATOM     32  H   UNL A   1      45.283  37.445  26.104  1.00  0.00     0.163 HD
ATOM     33  O   UNL A   1      43.389  38.381  27.208  1.00  0.00    -0.269 OA
BRANCH  31  34
ATOM     34  C   UNL A   1      43.052  36.359  28.318  1.00  0.00     0.039 A 
ATOM     35  C   UNL A   1      43.810  35.967  29.428  1.00  0.00     0.014 A 
ATOM     36  C   UNL A   1      41.796  35.787  28.095  1.00  0.00     0.014 A 
ATOM     37  C   UNL A   1      43.320  35.006  30.308  1.00  0.00     0.010 A 
ATOM     38  C   UNL A   1      41.305  34.821  28.981  1.00  0.00     0.010 A 
ATOM     39  C   UNL A   1      42.066  34.421  30.090  1.00  0.00    -0.014 A 
BRANCH  39  40
ATOM     40  C   UNL A   1      41.588  33.467  31.111  1.00  0.00     0.031 A 
ATOM     41  C   UNL A   1      40.111  33.498  31.384  1.00  0.00     0.074 A 
ATOM     42  C   UNL A   1      42.206  32.277  31.268  1.00  0.00     0.049 A 
ATOM     43  N   UNL A   1      39.208  32.887  30.673  1.00  0.00    -0.248 NA
ATOM     44  C   UNL A   1      39.553  34.444  32.352  1.00  0.00     0.031 C 
ATOM     45  C   UNL A   1      42.650  31.402  30.183  1.00  0.00     0.029 A 
ATOM     46  N   UNL A   1      42.429  31.546  32.415  1.00  0.00    -0.354 N 
ATOM     47  C   UNL A   1      37.972  33.379  31.067  1.00  0.00     0.074 A 
ATOM     48  C   UNL A   1      38.238  34.351  32.104  1.00  0.00     0.031 C 
ATOM     49  C   UNL A   1      42.949  30.193  30.699  1.00  0.00     0.029 A 
ATOM     50  C   UNL A   1      42.820  30.233  32.156  1.00  0.00     0.049 A 
ATOM     51  H   UNL A   1      42.323  31.912  33.323  1.00  0.00     0.167 HD
ATOM     52  C   UNL A   1      36.793  32.949  30.541  1.00  0.00     0.037 A 
ATOM     53  C   UNL A   1      42.450  29.174  32.934  1.00  0.00     0.037 A 
ATOM     54  C   UNL A   1      36.888  31.860  29.616  1.00  0.00     0.049 A 
ATOM     55  C   UNL A   1      41.022  28.976  32.475  1.00  0.00     0.074 A 
ATOM     56  C   UNL A   1      36.823  31.637  28.259  1.00  0.00     0.029 A 
ATOM     57  N   UNL A   1      37.079  30.613  30.158  1.00  0.00    -0.354 N 
ATOM     58  N   UNL A   1      40.638  28.404  31.363  1.00  0.00    -0.248 NA
ATOM     59  C   UNL A   1      39.996  29.799  33.119  1.00  0.00     0.031 C 
ATOM     60  C   UNL A   1      37.444  30.360  28.056  1.00  0.00     0.029 A 
ATOM     61  C   UNL A   1      37.876  29.906  29.301  1.00  0.00     0.049 A 
ATOM     62  H   UNL A   1      36.709  30.285  31.009  1.00  0.00     0.167 HD
ATOM     63  C   UNL A   1      39.430  29.027  31.024  1.00  0.00     0.074 A 
ATOM     64  C   UNL A   1      39.077  29.845  32.165  1.00  0.00     0.031 C 
ATOM     65  C   UNL A   1      38.889  28.990  29.770  1.00  0.00     0.037 A 
BRANCH  52  66
ATOM     66  C   UNL A   1      35.453  33.325  31.038  1.00  0.00     0.064 A 
ATOM     67  C   UNL A   1      34.773  34.349  30.359  1.00  0.00     0.173 A 
ATOM     68  C   UNL A   1      34.941  32.895  32.265  1.00  0.00     0.173 A 
ATOM     69  F   UNL A   1      35.230  34.784  29.172  1.00  0.00    -0.203 F 
ATOM     70  C   UNL A   1      33.661  34.969  30.913  1.00  0.00     0.198 A 
ATOM     71  C   UNL A   1      33.809  33.507  32.811  1.00  0.00     0.198 A 
ATOM     72  F   UNL A   1      35.556  31.925  32.955  1.00  0.00    -0.203 F 
ATOM     73  F   UNL A   1      33.080  35.990  30.269  1.00  0.00    -0.200 F 
ATOM     74  C   UNL A   1      33.186  34.556  32.145  1.00  0.00     0.200 A 
ATOM     75  F   UNL A   1      33.341  33.107  34.002  1.00  0.00    -0.200 F 
ATOM     76  F   UNL A   1      32.134  35.176  32.697  1.00  0.00    -0.200 F 
ENDBRANCH  52  66
BRANCH  53  77
ATOM     77  C   UNL A   1      42.877  29.257  34.371  1.00  0.00     0.064 A 
ATOM     78  C   UNL A   1      43.742  28.254  34.859  1.00  0.00     0.173 A 
ATOM     79  C   UNL A   1      42.532  30.263  35.283  1.00  0.00     0.173 A 
ATOM     80  F   UNL A   1      44.026  27.183  34.102  1.00  0.00    -0.203 F 
ATOM     81  C   UNL A   1      44.350  28.342  36.112  1.00  0.00     0.198 A 
ATOM     82  C   UNL A   1      43.162  30.369  36.528  1.00  0.00     0.198 A 
ATOM     83  F   UNL A   1      41.597  31.176  34.991  1.00  0.00    -0.203 F 
ATOM     84  F   UNL A   1      45.214  27.397  36.504  1.00  0.00    -0.200 F 
ATOM     85  C   UNL A   1      44.090  29.425  36.930  1.00  0.00     0.200 A 
ATOM     86  F   UNL A   1      42.890  31.415  37.323  1.00  0.00    -0.200 F 
ATOM     87  F   UNL A   1      44.731  29.560  38.099  1.00  0.00    -0.200 F 
ENDBRANCH  53  77
BRANCH  65  88
ATOM     88  C   UNL A   1      39.566  28.087  28.799  1.00  0.00     0.064 A 
ATOM     89  C   UNL A   1      39.332  26.707  28.839  1.00  0.00     0.173 A 
ATOM     90  C   UNL A   1      40.397  28.587  27.784  1.00  0.00     0.173 A 
ATOM     91  F   UNL A   1      38.530  26.183  29.781  1.00  0.00    -0.203 F 
ATOM     92  C   UNL A   1      39.892  25.861  27.888  1.00  0.00     0.198 A 
ATOM     93  C   UNL A   1      40.928  27.742  26.815  1.00  0.00     0.198 A 
ATOM     94  F   UNL A   1      40.675  29.898  27.705  1.00  0.00    -0.203 F 
ATOM     95  F   UNL A   1      39.650  24.544  27.942  1.00  0.00    -0.200 F 
ATOM     96  C   UNL A   1      40.675  26.380  26.868  1.00  0.00     0.200 A 
ATOM     97  F   UNL A   1      41.664  28.248  25.816  1.00  0.00    -0.200 F 
ATOM     98  F   UNL A   1      41.173  25.569  25.924  1.00  0.00    -0.200 F 
ENDBRANCH  65  88
ENDBRANCH  39  40
ENDBRANCH  31  34
ENDBRANCH  29  30
ENDBRANCH  28  29
ENDBRANCH   1  28
TORSDOF 13
ENDMDL
