MODEL 1
REMARK VINA RESULT:     -13.1      0.000      0.000
REMARK SMILES Cn1cc(S(=O)(=O)N[C@@H]2C=C[C@@H](C(=O)NCCCCNC(=O)c3ccc(-c4c5nc(c(-c6c(F)c(F)c(F)c(F)c6F)c6ccc([nH]6)c(-c6c(F)c(F)c(F)c(F)c6F)c6nc(c(-c7c(F)c(F)c(F)c(F)c7F)c7ccc4[nH]7)C=C6)C=C5)cc3)C2)cc1C(N)=O
REMARK SMILES IDX 16 1 15 2 13 3 14 4 12 6 9 7 10 8 86 9 11 10 8 11 5 13 6 14
REMARK SMILES IDX 7 15 4 16 1 17 2 18 3 19 88 20 87 21 89 22 90 23 91 24 17 27
REMARK SMILES IDX 18 28 19 29 20 30 21 31 22 33 23 34 24 35 85 36 25 37 84 38
REMARK SMILES IDX 26 39 27 40 28 41 78 42 29 43 83 44 77 45 79 46 30 47 82 48
REMARK SMILES IDX 76 49 75 50 31 52 63 53 43 54 62 55 44 56 47 57 61 58 80 59
REMARK SMILES IDX 45 60 46 61 60 63 81 64 48 65 32 66 33 67 41 68 34 69 35 70
REMARK SMILES IDX 39 71 42 72 36 73 37 74 40 75 38 76 64 77 65 78 73 79 66 80
REMARK SMILES IDX 67 81 71 82 74 83 68 84 69 85 72 86 70 87 49 88 50 89 58 90
REMARK SMILES IDX 51 91 52 92 56 93 59 94 53 95 54 96 57 97 55 98
REMARK H PARENT 15 5 8 12 90 25 90 26 20 32 79 51 47 62
REMARK Flexibility Score: inf
ROOT
ATOM      1  C   UNL A   1      32.533  29.620  25.370  1.00  0.00     0.116 C 
ENDROOT
BRANCH   1   2
ATOM      2  N   UNL A   1      31.409  30.047  24.557  1.00  0.00    -0.356 N 
ATOM      3  C   UNL A   1      30.466  29.315  23.898  1.00  0.00     0.226 C 
ATOM      4  O   UNL A   1      29.557  29.932  23.335  1.00  0.00    -0.274 OA
ATOM      5  H   UNL A   1      31.313  31.023  24.466  1.00  0.00     0.163 HD
BRANCH   3   6
ATOM      6  C   UNL A   1      30.512  27.785  23.839  1.00  0.00     0.103 C 
ATOM      7  C   UNL A   1      29.832  25.954  25.352  1.00  0.00     0.093 C 
ATOM      8  C   UNL A   1      28.818  26.235  24.290  1.00  0.00    -0.011 C 
ATOM      9  C   UNL A   1      30.829  27.120  25.187  1.00  0.00     0.042 C 
ATOM     10  C   UNL A   1      29.198  27.193  23.439  1.00  0.00    -0.016 C 
BRANCH   7  11
ATOM     11  N   UNL A   1      30.523  24.685  25.085  1.00  0.00    -0.204 NA
ATOM     12  H   UNL A   1      29.900  24.114  24.515  1.00  0.00     0.142 HD
BRANCH  11  13
ATOM     13  S   UNL A   1      30.993  23.745  26.412  1.00  0.00     0.242 S 
ATOM     14  O   UNL A   1      29.828  23.046  26.903  1.00  0.00    -0.207 OA
ATOM     15  O   UNL A   1      31.804  24.595  27.254  1.00  0.00    -0.207 OA
BRANCH  13  16
ATOM     16  C   UNL A   1      32.073  22.515  25.869  1.00  0.00     0.100 A 
ATOM     17  C   UNL A   1      35.310  20.991  25.380  1.00  0.00     0.150 C 
ATOM     18  N   UNL A   1      33.901  21.311  25.489  1.00  0.00    -0.345 N 
ATOM     19  C   UNL A   1      33.448  22.545  25.895  1.00  0.00     0.107 A 
ATOM     20  C   UNL A   1      32.830  20.457  25.272  1.00  0.00     0.107 A 
ATOM     21  C   UNL A   1      31.690  21.246  25.375  1.00  0.00     0.055 A 
BRANCH  20  22
ATOM     22  C   UNL A   1      32.918  19.034  25.006  1.00  0.00     0.265 C 
ATOM     23  N   UNL A   1      32.904  18.233  26.113  1.00  0.00    -0.364 N 
ATOM     24  O   UNL A   1      33.047  18.526  23.898  1.00  0.00    -0.268 OA
ATOM     25  H   UNL A   1      32.799  18.631  27.008  1.00  0.00     0.160 HD
ATOM     26  H   UNL A   1      32.996  17.258  26.016  1.00  0.00     0.160 HD
ENDBRANCH  20  22
ENDBRANCH  13  16
ENDBRANCH  11  13
ENDBRANCH   7  11
ENDBRANCH   3   6
ENDBRANCH   1   2
BRANCH   1  27
ATOM     27  C   UNL A   1      32.463  30.164  26.790  1.00  0.00     0.023 C 
BRANCH  27  28
ATOM     28  C   UNL A   1      32.023  31.622  26.892  1.00  0.00     0.023 C 
BRANCH  28  29
ATOM     29  C   UNL A   1      33.084  32.584  27.416  1.00  0.00     0.116 C 
BRANCH  29  30
ATOM     30  N   UNL A   1      32.578  33.929  27.660  1.00  0.00    -0.352 N 
ATOM     31  C   UNL A   1      33.022  34.872  28.557  1.00  0.00     0.251 C 
ATOM     32  H   UNL A   1      31.812  34.200  27.105  1.00  0.00     0.163 HD
ATOM     33  O   UNL A   1      32.420  35.929  28.707  1.00  0.00    -0.269 OA
BRANCH  31  34
ATOM     34  C   UNL A   1      34.212  34.574  29.376  1.00  0.00     0.039 A 
ATOM     35  C   UNL A   1      34.031  34.096  30.677  1.00  0.00     0.014 A 
ATOM     36  C   UNL A   1      35.492  34.684  28.827  1.00  0.00     0.014 A 
ATOM     37  C   UNL A   1      35.130  33.621  31.390  1.00  0.00     0.010 A 
ATOM     38  C   UNL A   1      36.577  34.152  29.515  1.00  0.00     0.010 A 
ATOM     39  C   UNL A   1      36.400  33.591  30.790  1.00  0.00    -0.014 A 
BRANCH  39  40
ATOM     40  C   UNL A   1      37.545  32.914  31.443  1.00  0.00     0.031 A 
ATOM     41  C   UNL A   1      38.210  31.744  30.782  1.00  0.00     0.074 A 
ATOM     42  C   UNL A   1      37.911  33.291  32.684  1.00  0.00     0.049 A 
ATOM     43  N   UNL A   1      39.140  30.951  31.249  1.00  0.00    -0.248 NA
ATOM     44  C   UNL A   1      37.748  31.402  29.428  1.00  0.00     0.031 C 
ATOM     45  C   UNL A   1      37.300  34.378  33.453  1.00  0.00     0.029 A 
ATOM     46  N   UNL A   1      38.870  32.787  33.527  1.00  0.00    -0.354 N 
ATOM     47  C   UNL A   1      39.362  30.008  30.257  1.00  0.00     0.074 A 
ATOM     48  C   UNL A   1      38.445  30.302  29.177  1.00  0.00     0.031 C 
ATOM     49  C   UNL A   1      37.903  34.465  34.649  1.00  0.00     0.029 A 
ATOM     50  C   UNL A   1      38.917  33.419  34.745  1.00  0.00     0.049 A 
ATOM     51  H   UNL A   1      39.467  32.044  33.281  1.00  0.00     0.167 HD
ATOM     52  C   UNL A   1      40.262  28.997  30.244  1.00  0.00     0.037 A 
ATOM     53  C   UNL A   1      39.681  33.172  35.826  1.00  0.00     0.037 A 
ATOM     54  C   UNL A   1      41.197  28.728  31.304  1.00  0.00     0.049 A 
ATOM     55  C   UNL A   1      40.674  32.046  35.782  1.00  0.00     0.074 A 
ATOM     56  C   UNL A   1      42.213  27.790  31.341  1.00  0.00     0.029 A 
ATOM     57  N   UNL A   1      41.227  29.399  32.516  1.00  0.00    -0.354 N 
ATOM     58  N   UNL A   1      40.926  31.205  34.810  1.00  0.00    -0.248 NA
ATOM     59  C   UNL A   1      41.487  31.832  36.988  1.00  0.00     0.031 C 
ATOM     60  C   UNL A   1      42.836  27.868  32.592  1.00  0.00     0.029 A 
ATOM     61  C   UNL A   1      42.227  28.877  33.321  1.00  0.00     0.049 A 
ATOM     62  H   UNL A   1      40.627  30.137  32.770  1.00  0.00     0.167 HD
ATOM     63  C   UNL A   1      41.930  30.371  35.277  1.00  0.00     0.074 A 
ATOM     64  C   UNL A   1      42.256  30.817  36.617  1.00  0.00     0.031 C 
ATOM     65  C   UNL A   1      42.529  29.327  34.655  1.00  0.00     0.037 A 
BRANCH  52  66
ATOM     66  C   UNL A   1      40.286  28.108  29.038  1.00  0.00     0.064 A 
ATOM     67  C   UNL A   1      41.023  28.446  27.894  1.00  0.00     0.173 A 
ATOM     68  C   UNL A   1      39.599  26.886  29.042  1.00  0.00     0.173 A 
ATOM     69  F   UNL A   1      41.685  29.612  27.838  1.00  0.00    -0.203 F 
ATOM     70  C   UNL A   1      41.053  27.602  26.787  1.00  0.00     0.198 A 
ATOM     71  C   UNL A   1      39.649  26.033  27.943  1.00  0.00     0.198 A 
ATOM     72  F   UNL A   1      38.881  26.515  30.114  1.00  0.00    -0.203 F 
ATOM     73  F   UNL A   1      41.731  27.963  25.689  1.00  0.00    -0.200 F 
ATOM     74  C   UNL A   1      40.371  26.395  26.815  1.00  0.00     0.200 A 
ATOM     75  F   UNL A   1      38.997  24.862  27.973  1.00  0.00    -0.200 F 
ATOM     76  F   UNL A   1      40.406  25.580  25.751  1.00  0.00    -0.200 F 
ENDBRANCH  52  66
BRANCH  53  77
ATOM     77  C   UNL A   1      39.539  34.014  37.039  1.00  0.00     0.064 A 
ATOM     78  C   UNL A   1      38.741  33.594  38.112  1.00  0.00     0.173 A 
ATOM     79  C   UNL A   1      40.198  35.246  37.155  1.00  0.00     0.173 A 
ATOM     80  F   UNL A   1      38.076  32.433  38.036  1.00  0.00    -0.203 F 
ATOM     81  C   UNL A   1      38.597  34.382  39.252  1.00  0.00     0.198 A 
ATOM     82  C   UNL A   1      40.071  36.023  38.305  1.00  0.00     0.198 A 
ATOM     83  F   UNL A   1      40.975  35.688  36.156  1.00  0.00    -0.203 F 
ATOM     84  F   UNL A   1      37.802  33.974  40.250  1.00  0.00    -0.200 F 
ATOM     85  C   UNL A   1      39.267  35.592  39.349  1.00  0.00     0.200 A 
ATOM     86  F   UNL A   1      40.727  37.187  38.400  1.00  0.00    -0.200 F 
ATOM     87  F   UNL A   1      39.133  36.348  40.448  1.00  0.00    -0.200 F 
ENDBRANCH  53  77
BRANCH  65  88
ATOM     88  C   UNL A   1      43.595  28.600  35.414  1.00  0.00     0.064 A 
ATOM     89  C   UNL A   1      43.285  27.509  36.238  1.00  0.00     0.173 A 
ATOM     90  C   UNL A   1      44.942  28.971  35.287  1.00  0.00     0.173 A 
ATOM     91  F   UNL A   1      42.009  27.130  36.404  1.00  0.00    -0.203 F 
ATOM     92  C   UNL A   1      44.286  26.824  36.922  1.00  0.00     0.198 A 
ATOM     93  C   UNL A   1      45.941  28.271  35.955  1.00  0.00     0.198 A 
ATOM     94  F   UNL A   1      45.286  30.007  34.508  1.00  0.00    -0.203 F 
ATOM     95  F   UNL A   1      43.965  25.807  37.733  1.00  0.00    -0.200 F 
ATOM     96  C   UNL A   1      45.613  27.202  36.774  1.00  0.00     0.200 A 
ATOM     97  F   UNL A   1      47.224  28.631  35.806  1.00  0.00    -0.200 F 
ATOM     98  F   UNL A   1      46.576  26.538  37.430  1.00  0.00    -0.200 F 
ENDBRANCH  65  88
ENDBRANCH  39  40
ENDBRANCH  31  34
ENDBRANCH  29  30
ENDBRANCH  28  29
ENDBRANCH  27  28
ENDBRANCH   1  27
TORSDOF 15
ENDMDL
MODEL 2
REMARK VINA RESULT:     -13.1      1.415      1.923
REMARK SMILES Cn1cc(S(=O)(=O)N[C@@H]2C=C[C@@H](C(=O)NCCCCNC(=O)c3ccc(-c4c5nc(c(-c6c(F)c(F)c(F)c(F)c6F)c6ccc([nH]6)c(-c6c(F)c(F)c(F)c(F)c6F)c6nc(c(-c7c(F)c(F)c(F)c(F)c7F)c7ccc4[nH]7)C=C6)C=C5)cc3)C2)cc1C(N)=O
REMARK SMILES IDX 16 1 15 2 13 3 14 4 12 6 9 7 10 8 86 9 11 10 8 11 5 13 6 14
REMARK SMILES IDX 7 15 4 16 1 17 2 18 3 19 88 20 87 21 89 22 90 23 91 24 17 27
REMARK SMILES IDX 18 28 19 29 20 30 21 31 22 33 23 34 24 35 85 36 25 37 84 38
REMARK SMILES IDX 26 39 27 40 28 41 78 42 29 43 83 44 77 45 79 46 30 47 82 48
REMARK SMILES IDX 76 49 75 50 31 52 63 53 43 54 62 55 44 56 47 57 61 58 80 59
REMARK SMILES IDX 45 60 46 61 60 63 81 64 48 65 32 66 33 67 41 68 34 69 35 70
REMARK SMILES IDX 39 71 42 72 36 73 37 74 40 75 38 76 64 77 65 78 73 79 66 80
REMARK SMILES IDX 67 81 71 82 74 83 68 84 69 85 72 86 70 87 49 88 50 89 58 90
REMARK SMILES IDX 51 91 52 92 56 93 59 94 53 95 54 96 57 97 55 98
REMARK H PARENT 15 5 8 12 90 25 90 26 20 32 79 51 47 62
REMARK Flexibility Score: inf
ROOT
ATOM      1  C   UNL A   1      32.020  29.514  25.095  1.00  0.00     0.116 C 
ENDROOT
BRANCH   1   2
ATOM      2  N   UNL A   1      30.873  30.215  24.546  1.00  0.00    -0.356 N 
ATOM      3  C   UNL A   1      29.965  29.823  23.606  1.00  0.00     0.226 C 
ATOM      4  O   UNL A   1      29.024  30.586  23.371  1.00  0.00    -0.274 OA
ATOM      5  H   UNL A   1      30.727  31.118  24.911  1.00  0.00     0.163 HD
BRANCH   3   6
ATOM      6  C   UNL A   1      30.088  28.495  22.854  1.00  0.00     0.103 C 
ATOM      7  C   UNL A   1      31.416  26.432  23.148  1.00  0.00     0.093 C 
ATOM      8  C   UNL A   1      30.028  26.310  23.688  1.00  0.00    -0.011 C 
ATOM      9  C   UNL A   1      31.517  27.934  22.810  1.00  0.00     0.042 C 
ATOM     10  C   UNL A   1      29.287  27.405  23.492  1.00  0.00    -0.016 C 
BRANCH   7  11
ATOM     11  N   UNL A   1      31.562  25.648  21.913  1.00  0.00    -0.204 NA
ATOM     12  H   UNL A   1      30.886  24.886  21.956  1.00  0.00     0.142 HD
BRANCH  11  13
ATOM     13  S   UNL A   1      33.074  24.961  21.587  1.00  0.00     0.242 S 
ATOM     14  O   UNL A   1      34.093  25.907  21.981  1.00  0.00    -0.207 OA
ATOM     15  O   UNL A   1      32.998  24.408  20.253  1.00  0.00    -0.207 OA
BRANCH  13  16
ATOM     16  C   UNL A   1      33.297  23.592  22.611  1.00  0.00     0.100 A 
ATOM     17  C   UNL A   1      35.189  21.397  24.766  1.00  0.00     0.150 C 
ATOM     18  N   UNL A   1      34.176  22.113  24.017  1.00  0.00    -0.345 N 
ATOM     19  C   UNL A   1      34.476  23.156  23.172  1.00  0.00     0.107 A 
ATOM     20  C   UNL A   1      32.805  21.917  24.067  1.00  0.00     0.107 A 
ATOM     21  C   UNL A   1      32.269  22.746  23.088  1.00  0.00     0.055 A 
BRANCH  20  22
ATOM     22  C   UNL A   1      32.105  21.029  24.976  1.00  0.00     0.265 C 
ATOM     23  N   UNL A   1      31.520  21.639  26.049  1.00  0.00    -0.364 N 
ATOM     24  O   UNL A   1      32.048  19.809  24.872  1.00  0.00    -0.268 OA
ATOM     25  H   UNL A   1      31.560  22.619  26.141  1.00  0.00     0.160 HD
ATOM     26  H   UNL A   1      31.058  21.099  26.731  1.00  0.00     0.160 HD
ENDBRANCH  20  22
ENDBRANCH  13  16
ENDBRANCH  11  13
ENDBRANCH   7  11
ENDBRANCH   3   6
ENDBRANCH   1   2
BRANCH   1  27
ATOM     27  C   UNL A   1      32.410  30.029  26.473  1.00  0.00     0.023 C 
BRANCH  27  28
ATOM     28  C   UNL A   1      31.921  31.439  26.788  1.00  0.00     0.023 C 
BRANCH  28  29
ATOM     29  C   UNL A   1      32.965  32.364  27.408  1.00  0.00     0.116 C 
BRANCH  29  30
ATOM     30  N   UNL A   1      32.492  33.729  27.596  1.00  0.00    -0.352 N 
ATOM     31  C   UNL A   1      32.979  34.708  28.432  1.00  0.00     0.251 C 
ATOM     32  H   UNL A   1      31.716  33.988  27.049  1.00  0.00     0.163 HD
ATOM     33  O   UNL A   1      32.402  35.783  28.543  1.00  0.00    -0.269 OA
BRANCH  31  34
ATOM     34  C   UNL A   1      34.185  34.427  29.232  1.00  0.00     0.039 A 
ATOM     35  C   UNL A   1      34.032  34.001  30.554  1.00  0.00     0.014 A 
ATOM     36  C   UNL A   1      35.452  34.501  28.647  1.00  0.00     0.014 A 
ATOM     37  C   UNL A   1      35.144  33.541  31.258  1.00  0.00     0.010 A 
ATOM     38  C   UNL A   1      36.549  33.983  29.328  1.00  0.00     0.010 A 
ATOM     39  C   UNL A   1      36.397  33.474  30.628  1.00  0.00    -0.014 A 
BRANCH  39  40
ATOM     40  C   UNL A   1      37.552  32.809  31.278  1.00  0.00     0.031 A 
ATOM     41  C   UNL A   1      38.218  31.636  30.623  1.00  0.00     0.074 A 
ATOM     42  C   UNL A   1      37.925  33.199  32.513  1.00  0.00     0.049 A 
ATOM     43  N   UNL A   1      39.156  30.852  31.090  1.00  0.00    -0.248 NA
ATOM     44  C   UNL A   1      37.747  31.279  29.276  1.00  0.00     0.031 C 
ATOM     45  C   UNL A   1      37.315  34.290  33.276  1.00  0.00     0.029 A 
ATOM     46  N   UNL A   1      38.893  32.708  33.353  1.00  0.00    -0.354 N 
ATOM     47  C   UNL A   1      39.374  29.901  30.105  1.00  0.00     0.074 A 
ATOM     48  C   UNL A   1      38.447  30.180  29.029  1.00  0.00     0.031 C 
ATOM     49  C   UNL A   1      37.927  34.391  34.466  1.00  0.00     0.029 A 
ATOM     50  C   UNL A   1      38.947  33.352  34.565  1.00  0.00     0.049 A 
ATOM     51  H   UNL A   1      39.492  31.966  33.110  1.00  0.00     0.167 HD
ATOM     52  C   UNL A   1      40.280  28.895  30.095  1.00  0.00     0.037 A 
ATOM     53  C   UNL A   1      39.721  33.119  35.641  1.00  0.00     0.037 A 
ATOM     54  C   UNL A   1      41.225  28.641  31.150  1.00  0.00     0.049 A 
ATOM     55  C   UNL A   1      40.719  31.997  35.601  1.00  0.00     0.074 A 
ATOM     56  C   UNL A   1      42.246  27.708  31.187  1.00  0.00     0.029 A 
ATOM     57  N   UNL A   1      41.261  29.323  32.355  1.00  0.00    -0.354 N 
ATOM     58  N   UNL A   1      40.968  31.148  34.634  1.00  0.00    -0.248 NA
ATOM     59  C   UNL A   1      41.543  31.799  36.802  1.00  0.00     0.031 C 
ATOM     60  C   UNL A   1      42.878  27.801  32.432  1.00  0.00     0.029 A 
ATOM     61  C   UNL A   1      42.270  28.814  33.156  1.00  0.00     0.049 A 
ATOM     62  H   UNL A   1      40.658  30.060  32.607  1.00  0.00     0.167 HD
ATOM     63  C   UNL A   1      41.980  30.325  35.102  1.00  0.00     0.074 A 
ATOM     64  C   UNL A   1      42.314  30.784  36.434  1.00  0.00     0.031 C 
ATOM     65  C   UNL A   1      42.579  29.278  34.484  1.00  0.00     0.037 A 
BRANCH  52  66
ATOM     66  C   UNL A   1      40.299  27.995  28.896  1.00  0.00     0.064 A 
ATOM     67  C   UNL A   1      41.057  28.306  27.759  1.00  0.00     0.173 A 
ATOM     68  C   UNL A   1      39.585  26.788  28.902  1.00  0.00     0.173 A 
ATOM     69  F   UNL A   1      41.746  29.456  27.701  1.00  0.00    -0.203 F 
ATOM     70  C   UNL A   1      41.082  27.452  26.659  1.00  0.00     0.198 A 
ATOM     71  C   UNL A   1      39.630  25.924  27.811  1.00  0.00     0.198 A 
ATOM     72  F   UNL A   1      38.847  26.443  29.969  1.00  0.00    -0.203 F 
ATOM     73  F   UNL A   1      41.782  27.788  25.568  1.00  0.00    -0.200 F 
ATOM     74  C   UNL A   1      40.374  26.260  26.689  1.00  0.00     0.200 A 
ATOM     75  F   UNL A   1      38.952  24.768  27.844  1.00  0.00    -0.200 F 
ATOM     76  F   UNL A   1      40.404  25.435  25.633  1.00  0.00    -0.200 F 
ENDBRANCH  52  66
BRANCH  53  77
ATOM     77  C   UNL A   1      39.583  33.971  36.848  1.00  0.00     0.064 A 
ATOM     78  C   UNL A   1      38.783  33.565  37.924  1.00  0.00     0.173 A 
ATOM     79  C   UNL A   1      40.250  35.200  36.954  1.00  0.00     0.173 A 
ATOM     80  F   UNL A   1      38.110  32.407  37.857  1.00  0.00    -0.203 F 
ATOM     81  C   UNL A   1      38.643  34.363  39.058  1.00  0.00     0.198 A 
ATOM     82  C   UNL A   1      40.128  35.986  38.098  1.00  0.00     0.198 A 
ATOM     83  F   UNL A   1      41.030  35.629  35.952  1.00  0.00    -0.203 F 
ATOM     84  F   UNL A   1      37.846  33.968  40.059  1.00  0.00    -0.200 F 
ATOM     85  C   UNL A   1      39.321  35.570  39.146  1.00  0.00     0.200 A 
ATOM     86  F   UNL A   1      40.791  37.147  38.184  1.00  0.00    -0.200 F 
ATOM     87  F   UNL A   1      39.191  36.335  40.238  1.00  0.00    -0.200 F 
ENDBRANCH  53  77
BRANCH  65  88
ATOM     88  C   UNL A   1      43.655  28.563  35.241  1.00  0.00     0.064 A 
ATOM     89  C   UNL A   1      44.995  28.966  35.156  1.00  0.00     0.173 A 
ATOM     90  C   UNL A   1      43.340  27.490  36.089  1.00  0.00     0.173 A 
ATOM     91  F   UNL A   1      45.346  29.974  34.344  1.00  0.00    -0.203 F 
ATOM     92  C   UNL A   1      45.986  28.309  35.882  1.00  0.00     0.198 A 
ATOM     93  C   UNL A   1      44.329  26.851  36.829  1.00  0.00     0.198 A 
ATOM     94  F   UNL A   1      42.071  27.071  36.204  1.00  0.00    -0.203 F 
ATOM     95  F   UNL A   1      47.265  28.687  35.759  1.00  0.00    -0.200 F 
ATOM     96  C   UNL A   1      45.651  27.258  36.722  1.00  0.00     0.200 A 
ATOM     97  F   UNL A   1      44.004  25.840  37.647  1.00  0.00    -0.200 F 
ATOM     98  F   UNL A   1      46.605  26.630  37.424  1.00  0.00    -0.200 F 
ENDBRANCH  65  88
ENDBRANCH  39  40
ENDBRANCH  31  34
ENDBRANCH  29  30
ENDBRANCH  28  29
ENDBRANCH  27  28
ENDBRANCH   1  27
TORSDOF 15
ENDMDL
MODEL 3
REMARK VINA RESULT:     -13.0      1.521      7.413
REMARK SMILES Cn1cc(S(=O)(=O)N[C@@H]2C=C[C@@H](C(=O)NCCCCNC(=O)c3ccc(-c4c5nc(c(-c6c(F)c(F)c(F)c(F)c6F)c6ccc([nH]6)c(-c6c(F)c(F)c(F)c(F)c6F)c6nc(c(-c7c(F)c(F)c(F)c(F)c7F)c7ccc4[nH]7)C=C6)C=C5)cc3)C2)cc1C(N)=O
REMARK SMILES IDX 16 1 15 2 13 3 14 4 12 6 9 7 10 8 86 9 11 10 8 11 5 13 6 14
REMARK SMILES IDX 7 15 4 16 1 17 2 18 3 19 88 20 87 21 89 22 90 23 91 24 17 27
REMARK SMILES IDX 18 28 19 29 20 30 21 31 22 33 23 34 24 35 85 36 25 37 84 38
REMARK SMILES IDX 26 39 27 40 28 41 78 42 29 43 83 44 77 45 79 46 30 47 82 48
REMARK SMILES IDX 76 49 75 50 31 52 63 53 43 54 62 55 44 56 47 57 61 58 80 59
REMARK SMILES IDX 45 60 46 61 60 63 81 64 48 65 32 66 33 67 41 68 34 69 35 70
REMARK SMILES IDX 39 71 42 72 36 73 37 74 40 75 38 76 64 77 65 78 73 79 66 80
REMARK SMILES IDX 67 81 71 82 74 83 68 84 69 85 72 86 70 87 49 88 50 89 58 90
REMARK SMILES IDX 51 91 52 92 56 93 59 94 53 95 54 96 57 97 55 98
REMARK H PARENT 15 5 8 12 90 25 90 26 20 32 79 51 47 62
REMARK Flexibility Score: inf
ROOT
ATOM      1  C   UNL A   1      31.619  29.704  25.273  1.00  0.00     0.116 C 
ENDROOT
BRANCH   1   2
ATOM      2  N   UNL A   1      30.609  30.447  24.542  1.00  0.00    -0.356 N 
ATOM      3  C   UNL A   1      29.825  30.073  23.490  1.00  0.00     0.226 C 
ATOM      4  O   UNL A   1      28.977  30.879  23.098  1.00  0.00    -0.274 OA
ATOM      5  H   UNL A   1      30.468  31.370  24.856  1.00  0.00     0.163 HD
BRANCH   3   6
ATOM      6  C   UNL A   1      29.974  28.713  22.802  1.00  0.00     0.103 C 
ATOM      7  C   UNL A   1      31.417  26.735  23.128  1.00  0.00     0.093 C 
ATOM      8  C   UNL A   1      30.068  26.576  23.751  1.00  0.00    -0.011 C 
ATOM      9  C   UNL A   1      31.425  28.219  22.707  1.00  0.00     0.042 C 
ATOM     10  C   UNL A   1      29.264  27.623  23.541  1.00  0.00    -0.016 C 
BRANCH   7  11
ATOM     11  N   UNL A   1      31.537  25.891  21.929  1.00  0.00    -0.204 NA
ATOM     12  H   UNL A   1      30.864  25.132  22.024  1.00  0.00     0.142 HD
BRANCH  11  13
ATOM     13  S   UNL A   1      33.042  25.192  21.600  1.00  0.00     0.242 S 
ATOM     14  O   UNL A   1      34.069  26.122  22.010  1.00  0.00    -0.207 OA
ATOM     15  O   UNL A   1      32.966  24.658  20.260  1.00  0.00    -0.207 OA
BRANCH  13  16
ATOM     16  C   UNL A   1      33.247  23.809  22.608  1.00  0.00     0.100 A 
ATOM     17  C   UNL A   1      35.117  21.541  24.706  1.00  0.00     0.150 C 
ATOM     18  N   UNL A   1      34.111  22.292  23.983  1.00  0.00    -0.345 N 
ATOM     19  C   UNL A   1      34.423  23.334  23.141  1.00  0.00     0.107 A 
ATOM     20  C   UNL A   1      32.736  22.135  24.060  1.00  0.00     0.107 A 
ATOM     21  C   UNL A   1      32.204  22.989  23.098  1.00  0.00     0.055 A 
BRANCH  20  22
ATOM     22  C   UNL A   1      32.029  21.260  24.975  1.00  0.00     0.265 C 
ATOM     23  N   UNL A   1      31.438  21.884  26.037  1.00  0.00    -0.364 N 
ATOM     24  O   UNL A   1      31.971  20.039  24.886  1.00  0.00    -0.268 OA
ATOM     25  H   UNL A   1      31.478  22.865  26.117  1.00  0.00     0.160 HD
ATOM     26  H   UNL A   1      30.971  21.353  26.722  1.00  0.00     0.160 HD
ENDBRANCH  20  22
ENDBRANCH  13  16
ENDBRANCH  11  13
ENDBRANCH   7  11
ENDBRANCH   3   6
ENDBRANCH   1   2
BRANCH   1  27
ATOM     27  C   UNL A   1      31.946  30.336  26.618  1.00  0.00     0.023 C 
BRANCH  27  28
ATOM     28  C   UNL A   1      31.710  31.842  26.688  1.00  0.00     0.023 C 
BRANCH  28  29
ATOM     29  C   UNL A   1      32.807  32.638  27.390  1.00  0.00     0.116 C 
BRANCH  29  30
ATOM     30  N   UNL A   1      32.443  34.025  27.646  1.00  0.00    -0.352 N 
ATOM     31  C   UNL A   1      32.980  34.909  28.554  1.00  0.00     0.251 C 
ATOM     32  H   UNL A   1      31.712  34.381  27.092  1.00  0.00     0.163 HD
ATOM     33  O   UNL A   1      32.491  36.021  28.713  1.00  0.00    -0.269 OA
BRANCH  31  34
ATOM     34  C   UNL A   1      34.129  34.480  29.373  1.00  0.00     0.039 A 
ATOM     35  C   UNL A   1      33.889  33.931  30.635  1.00  0.00     0.014 A 
ATOM     36  C   UNL A   1      35.426  34.541  28.855  1.00  0.00     0.014 A 
ATOM     37  C   UNL A   1      34.940  33.339  31.335  1.00  0.00     0.010 A 
ATOM     38  C   UNL A   1      36.459  33.896  29.526  1.00  0.00     0.010 A 
ATOM     39  C   UNL A   1      36.217  33.265  30.757  1.00  0.00    -0.014 A 
BRANCH  39  40
ATOM     40  C   UNL A   1      37.302  32.473  31.384  1.00  0.00     0.031 A 
ATOM     41  C   UNL A   1      37.824  32.844  32.739  1.00  0.00     0.074 A 
ATOM     42  C   UNL A   1      37.888  31.486  30.677  1.00  0.00     0.049 A 
ATOM     43  N   UNL A   1      38.844  32.350  33.395  1.00  0.00    -0.248 NA
ATOM     44  C   UNL A   1      37.126  33.932  33.439  1.00  0.00     0.031 C 
ATOM     45  C   UNL A   1      37.506  31.072  29.325  1.00  0.00     0.029 A 
ATOM     46  N   UNL A   1      38.944  30.667  30.988  1.00  0.00    -0.354 N 
ATOM     47  C   UNL A   1      38.921  33.078  34.572  1.00  0.00     0.074 A 
ATOM     48  C   UNL A   1      37.869  34.072  34.528  1.00  0.00     0.031 C 
ATOM     49  C   UNL A   1      38.309  30.073  28.927  1.00  0.00     0.029 A 
ATOM     50  C   UNL A   1      39.283  29.800  29.979  1.00  0.00     0.049 A 
ATOM     51  H   UNL A   1      39.414  30.698  31.852  1.00  0.00     0.167 HD
ATOM     52  C   UNL A   1      39.782  32.919  35.604  1.00  0.00     0.037 A 
ATOM     53  C   UNL A   1      40.279  28.897  29.903  1.00  0.00     0.037 A 
ATOM     54  C   UNL A   1      40.804  31.907  35.661  1.00  0.00     0.049 A 
ATOM     55  C   UNL A   1      41.219  28.740  31.064  1.00  0.00     0.074 A 
ATOM     56  C   UNL A   1      41.660  31.604  36.705  1.00  0.00     0.029 A 
ATOM     57  N   UNL A   1      41.107  31.036  34.627  1.00  0.00    -0.354 N 
ATOM     58  N   UNL A   1      41.237  29.385  32.205  1.00  0.00    -0.248 NA
ATOM     59  C   UNL A   1      42.279  27.731  30.927  1.00  0.00     0.031 C 
ATOM     60  C   UNL A   1      42.508  30.571  36.289  1.00  0.00     0.029 A 
ATOM     61  C   UNL A   1      42.157  30.212  34.997  1.00  0.00     0.049 A 
ATOM     62  H   UNL A   1      40.647  31.007  33.758  1.00  0.00     0.167 HD
ATOM     63  C   UNL A   1      42.297  28.856  32.925  1.00  0.00     0.074 A 
ATOM     64  C   UNL A   1      42.891  27.823  32.101  1.00  0.00     0.031 C 
ATOM     65  C   UNL A   1      42.741  29.197  34.159  1.00  0.00     0.037 A 
BRANCH  52  66
ATOM     66  C   UNL A   1      39.651  33.858  36.765  1.00  0.00     0.064 A 
ATOM     67  C   UNL A   1      38.852  33.544  37.874  1.00  0.00     0.173 A 
ATOM     68  C   UNL A   1      40.365  35.065  36.787  1.00  0.00     0.173 A 
ATOM     69  F   UNL A   1      38.140  32.407  37.892  1.00  0.00    -0.203 F 
ATOM     70  C   UNL A   1      38.754  34.416  38.955  1.00  0.00     0.198 A 
ATOM     71  C   UNL A   1      40.283  35.924  37.879  1.00  0.00     0.198 A 
ATOM     72  F   UNL A   1      41.145  35.409  35.751  1.00  0.00    -0.203 F 
ATOM     73  F   UNL A   1      37.955  34.114  39.986  1.00  0.00    -0.200 F 
ATOM     74  C   UNL A   1      39.474  35.601  38.959  1.00  0.00     0.200 A 
ATOM     75  F   UNL A   1      40.985  37.066  37.886  1.00  0.00    -0.200 F 
ATOM     76  F   UNL A   1      39.384  36.437  40.004  1.00  0.00    -0.200 F 
ENDBRANCH  52  66
BRANCH  53  77
ATOM     77  C   UNL A   1      40.434  28.069  28.682  1.00  0.00     0.064 A 
ATOM     78  C   UNL A   1      39.799  26.823  28.578  1.00  0.00     0.173 A 
ATOM     79  C   UNL A   1      41.207  28.503  27.597  1.00  0.00     0.173 A 
ATOM     80  F   UNL A   1      39.067  26.358  29.600  1.00  0.00    -0.203 F 
ATOM     81  C   UNL A   1      39.945  26.036  27.438  1.00  0.00     0.198 A 
ATOM     82  C   UNL A   1      41.333  27.725  26.448  1.00  0.00     0.198 A 
ATOM     83  F   UNL A   1      41.830  29.689  27.649  1.00  0.00    -0.203 F 
ATOM     84  F   UNL A   1      39.356  24.834  27.376  1.00  0.00    -0.200 F 
ATOM     85  C   UNL A   1      40.706  26.490  26.372  1.00  0.00     0.200 A 
ATOM     86  F   UNL A   1      42.062  28.171  25.416  1.00  0.00    -0.200 F 
ATOM     87  F   UNL A   1      40.842  25.736  25.273  1.00  0.00    -0.200 F 
ENDBRANCH  53  77
BRANCH  65  88
ATOM     88  C   UNL A   1      43.922  28.446  34.690  1.00  0.00     0.064 A 
ATOM     89  C   UNL A   1      43.765  27.236  35.381  1.00  0.00     0.173 A 
ATOM     90  C   UNL A   1      45.226  28.919  34.474  1.00  0.00     0.173 A 
ATOM     91  F   UNL A   1      42.537  26.754  35.626  1.00  0.00    -0.203 F 
ATOM     92  C   UNL A   1      44.871  26.533  35.851  1.00  0.00     0.198 A 
ATOM     93  C   UNL A   1      46.329  28.203  34.928  1.00  0.00     0.198 A 
ATOM     94  F   UNL A   1      45.426  30.071  33.818  1.00  0.00    -0.203 F 
ATOM     95  F   UNL A   1      44.697  25.397  36.540  1.00  0.00    -0.200 F 
ATOM     96  C   UNL A   1      46.151  27.013  35.618  1.00  0.00     0.200 A 
ATOM     97  F   UNL A   1      47.566  28.663  34.695  1.00  0.00    -0.200 F 
ATOM     98  F   UNL A   1      47.215  26.332  36.067  1.00  0.00    -0.200 F 
ENDBRANCH  65  88
ENDBRANCH  39  40
ENDBRANCH  31  34
ENDBRANCH  29  30
ENDBRANCH  28  29
ENDBRANCH  27  28
ENDBRANCH   1  27
TORSDOF 15
ENDMDL
