MODEL 1
REMARK VINA RESULT:     -11.8      0.000      0.000
REMARK SMILES CCc1cc(C(=O)N[C@@H]2C=C[C@H](C(=O)NCCCCNC(=O)c3ccc(-c4c5nc(c(-c6c(F)c(F)c(F)c(F)c6F)c6ccc([nH]6)c(-c6c(F)c(F)c(F)c(F)c6F)c6nc(c(-c7c(F)c(F)c(F)c(F)c7F)c7ccc4[nH]7)C=C6)C=C5)cc3)C2)n(C)n1
REMARK SMILES IDX 17 1 16 2 15 3 13 4 14 5 12 7 9 8 10 9 86 10 11 11 8 12 6 13
REMARK SMILES IDX 7 14 5 16 3 17 4 18 89 19 87 20 88 21 2 22 1 23 18 24 19 25
REMARK SMILES IDX 20 26 21 27 22 29 23 30 24 31 85 32 25 33 84 34 26 35 27 36
REMARK SMILES IDX 28 37 78 38 29 39 83 40 77 41 79 42 30 43 82 44 76 45 75 46
REMARK SMILES IDX 31 48 63 49 43 50 62 51 44 52 47 53 61 54 80 55 45 56 46 57
REMARK SMILES IDX 60 59 81 60 48 61 32 62 33 63 41 64 34 65 35 66 39 67 42 68
REMARK SMILES IDX 36 69 37 70 40 71 38 72 64 73 65 74 73 75 66 76 67 77 71 78
REMARK SMILES IDX 74 79 68 80 69 81 72 82 70 83 49 84 50 85 58 86 51 87 52 88
REMARK SMILES IDX 56 89 59 90 53 91 54 92 57 93 55 94
REMARK H PARENT 15 6 8 15 20 28 79 47 47 58
REMARK Flexibility Score: inf
ROOT
ATOM      1  C   UNL A   1      34.693  32.910  28.953  1.00  0.00     0.023 C 
ENDROOT
BRANCH   1   2
ATOM      2  C   UNL A   1      34.612  31.686  28.049  1.00  0.00     0.116 C 
BRANCH   2   3
ATOM      3  N   UNL A   1      33.340  31.625  27.366  1.00  0.00    -0.356 N 
ATOM      4  C   UNL A   1      32.668  30.547  26.885  1.00  0.00     0.227 C 
ATOM      5  O   UNL A   1      31.683  30.770  26.174  1.00  0.00    -0.274 OA
ATOM      6  H   UNL A   1      32.895  32.492  27.229  1.00  0.00     0.163 HD
BRANCH   4   7
ATOM      7  C   UNL A   1      33.048  29.101  27.230  1.00  0.00     0.103 C 
ATOM      8  C   UNL A   1      33.610  27.089  25.905  1.00  0.00     0.106 C 
ATOM      9  C   UNL A   1      32.326  26.961  26.615  1.00  0.00    -0.006 C 
ATOM     10  C   UNL A   1      34.124  28.480  26.324  1.00  0.00     0.047 C 
ATOM     11  C   UNL A   1      31.970  28.068  27.277  1.00  0.00    -0.016 C 
BRANCH   8  12
ATOM     12  N   UNL A   1      33.585  26.881  24.459  1.00  0.00    -0.344 N 
ATOM     13  C   UNL A   1      32.849  27.083  23.325  1.00  0.00     0.270 C 
ATOM     14  O   UNL A   1      33.484  26.817  22.298  1.00  0.00    -0.268 OA
ATOM     15  H   UNL A   1      34.416  26.418  24.204  1.00  0.00     0.164 HD
BRANCH  13  16
ATOM     16  C   UNL A   1      31.511  27.622  23.218  1.00  0.00     0.126 A 
ATOM     17  C   UNL A   1      29.800  28.976  22.641  1.00  0.00     0.063 A 
ATOM     18  C   UNL A   1      31.119  28.602  22.302  1.00  0.00     0.059 A 
ATOM     19  N   UNL A   1      29.350  28.199  23.631  1.00  0.00    -0.178 NA
ATOM     20  N   UNL A   1      30.297  27.236  23.731  1.00  0.00    -0.263 N 
ATOM     21  C   UNL A   1      29.796  25.886  23.860  1.00  0.00     0.174 C 
BRANCH  17  22
ATOM     22  C   UNL A   1      28.926  30.032  22.046  1.00  0.00     0.055 C 
ATOM     23  C   UNL A   1      27.699  30.375  22.881  1.00  0.00     0.011 C 
ENDBRANCH  17  22
ENDBRANCH  13  16
ENDBRANCH   8  12
ENDBRANCH   4   7
ENDBRANCH   2   3
ENDBRANCH   1   2
BRANCH   1  24
ATOM     24  C   UNL A   1      33.506  33.866  28.878  1.00  0.00     0.023 C 
BRANCH  24  25
ATOM     25  C   UNL A   1      33.779  35.325  29.243  1.00  0.00     0.116 C 
BRANCH  25  26
ATOM     26  N   UNL A   1      32.853  35.883  30.218  1.00  0.00    -0.352 N 
ATOM     27  C   UNL A   1      32.824  35.834  31.593  1.00  0.00     0.251 C 
ATOM     28  H   UNL A   1      32.110  36.392  29.819  1.00  0.00     0.163 HD
ATOM     29  O   UNL A   1      31.892  36.334  32.220  1.00  0.00    -0.269 OA
BRANCH  27  30
ATOM     30  C   UNL A   1      33.880  35.114  32.323  1.00  0.00     0.039 A 
ATOM     31  C   UNL A   1      33.643  33.805  32.756  1.00  0.00     0.014 A 
ATOM     32  C   UNL A   1      35.126  35.706  32.505  1.00  0.00     0.014 A 
ATOM     33  C   UNL A   1      34.702  33.046  33.252  1.00  0.00     0.010 A 
ATOM     34  C   UNL A   1      36.199  34.916  32.879  1.00  0.00     0.010 A 
ATOM     35  C   UNL A   1      35.998  33.577  33.247  1.00  0.00    -0.014 A 
BRANCH  35  36
ATOM     36  C   UNL A   1      37.186  32.773  33.617  1.00  0.00     0.031 A 
ATOM     37  C   UNL A   1      37.885  33.063  34.914  1.00  0.00     0.074 A 
ATOM     38  C   UNL A   1      37.699  31.898  32.732  1.00  0.00     0.049 A 
ATOM     39  N   UNL A   1      39.042  32.637  35.347  1.00  0.00    -0.248 NA
ATOM     40  C   UNL A   1      37.213  34.006  35.824  1.00  0.00     0.031 C 
ATOM     41  C   UNL A   1      37.136  31.591  31.414  1.00  0.00     0.029 A 
ATOM     42  N   UNL A   1      38.829  31.122  32.795  1.00  0.00    -0.354 N 
ATOM     43  C   UNL A   1      39.249  33.287  36.556  1.00  0.00     0.074 A 
ATOM     44  C   UNL A   1      38.135  34.185  36.755  1.00  0.00     0.031 C 
ATOM     45  C   UNL A   1      37.909  30.679  30.804  1.00  0.00     0.029 A 
ATOM     46  C   UNL A   1      39.045  30.369  31.666  1.00  0.00     0.049 A 
ATOM     47  H   UNL A   1      39.428  31.106  33.576  1.00  0.00     0.167 HD
ATOM     48  C   UNL A   1      40.266  33.124  37.435  1.00  0.00     0.037 A 
ATOM     49  C   UNL A   1      40.053  29.532  31.364  1.00  0.00     0.037 A 
ATOM     50  C   UNL A   1      41.343  32.193  37.238  1.00  0.00     0.049 A 
ATOM     51  C   UNL A   1      41.152  29.338  32.375  1.00  0.00     0.074 A 
ATOM     52  C   UNL A   1      42.399  31.899  38.080  1.00  0.00     0.029 A 
ATOM     53  N   UNL A   1      41.490  31.393  36.112  1.00  0.00    -0.354 N 
ATOM     54  N   UNL A   1      41.313  29.917  33.541  1.00  0.00    -0.248 NA
ATOM     55  C   UNL A   1      42.202  28.371  32.033  1.00  0.00     0.031 C 
ATOM     56  C   UNL A   1      43.203  30.942  37.451  1.00  0.00     0.029 A 
ATOM     57  C   UNL A   1      42.623  30.606  36.236  1.00  0.00     0.049 A 
ATOM     58  H   UNL A   1      40.880  31.385  35.340  1.00  0.00     0.167 HD
ATOM     59  C   UNL A   1      42.464  29.366  34.086  1.00  0.00     0.074 A 
ATOM     60  C   UNL A   1      42.951  28.393  33.128  1.00  0.00     0.031 C 
ATOM     61  C   UNL A   1      43.069  29.638  35.268  1.00  0.00     0.037 A 
BRANCH  48  62
ATOM     62  C   UNL A   1      40.238  33.956  38.684  1.00  0.00     0.064 A 
ATOM     63  C   UNL A   1      39.561  33.528  39.837  1.00  0.00     0.173 A 
ATOM     64  C   UNL A   1      40.892  35.197  38.732  1.00  0.00     0.173 A 
ATOM     65  F   UNL A   1      38.904  32.359  39.839  1.00  0.00    -0.203 F 
ATOM     66  C   UNL A   1      39.506  34.326  40.977  1.00  0.00     0.198 A 
ATOM     67  C   UNL A   1      40.865  35.977  39.886  1.00  0.00     0.198 A 
ATOM     68  F   UNL A   1      41.555  35.654  37.661  1.00  0.00    -0.203 F 
ATOM     69  F   UNL A   1      38.798  33.924  42.041  1.00  0.00    -0.200 F 
ATOM     70  C   UNL A   1      40.163  35.547  41.003  1.00  0.00     0.200 A 
ATOM     71  F   UNL A   1      41.508  37.152  39.914  1.00  0.00    -0.200 F 
ATOM     72  F   UNL A   1      40.111  36.314  42.100  1.00  0.00    -0.200 F 
ENDBRANCH  48  62
BRANCH  49  73
ATOM     73  C   UNL A   1      40.053  28.790  30.076  1.00  0.00     0.064 A 
ATOM     74  C   UNL A   1      39.465  27.520  29.981  1.00  0.00     0.173 A 
ATOM     75  C   UNL A   1      40.633  29.325  28.916  1.00  0.00     0.173 A 
ATOM     76  F   UNL A   1      38.911  26.958  31.065  1.00  0.00    -0.203 F 
ATOM     77  C   UNL A   1      39.478  26.805  28.785  1.00  0.00     0.198 A 
ATOM     78  C   UNL A   1      40.621  28.620  27.712  1.00  0.00     0.198 A 
ATOM     79  F   UNL A   1      41.202  30.539  28.948  1.00  0.00    -0.203 F 
ATOM     80  F   UNL A   1      38.949  25.574  28.737  1.00  0.00    -0.200 F 
ATOM     81  C   UNL A   1      40.051  27.357  27.650  1.00  0.00     0.200 A 
ATOM     82  F   UNL A   1      41.163  29.164  26.614  1.00  0.00    -0.200 F 
ATOM     83  F   UNL A   1      40.061  26.671  26.500  1.00  0.00    -0.200 F 
ENDBRANCH  49  73
BRANCH  61  84
ATOM     84  C   UNL A   1      44.296  28.845  35.602  1.00  0.00     0.064 A 
ATOM     85  C   UNL A   1      45.574  29.268  35.211  1.00  0.00     0.173 A 
ATOM     86  C   UNL A   1      44.192  27.666  36.356  1.00  0.00     0.173 A 
ATOM     87  F   UNL A   1      45.721  30.382  34.477  1.00  0.00    -0.203 F 
ATOM     88  C   UNL A   1      46.703  28.526  35.542  1.00  0.00     0.198 A 
ATOM     89  C   UNL A   1      45.326  26.942  36.709  1.00  0.00     0.198 A 
ATOM     90  F   UNL A   1      42.990  27.224  36.758  1.00  0.00    -0.203 F 
ATOM     91  F   UNL A   1      47.911  28.923  35.118  1.00  0.00    -0.200 F 
ATOM     92  C   UNL A   1      46.580  27.368  36.296  1.00  0.00     0.200 A 
ATOM     93  F   UNL A   1      45.205  25.832  37.450  1.00  0.00    -0.200 F 
ATOM     94  F   UNL A   1      47.668  26.658  36.620  1.00  0.00    -0.200 F 
ENDBRANCH  61  84
ENDBRANCH  35  36
ENDBRANCH  27  30
ENDBRANCH  25  26
ENDBRANCH  24  25
ENDBRANCH   1  24
TORSDOF 14
ENDMDL
MODEL 2
REMARK VINA RESULT:     -11.7      1.624      7.652
REMARK SMILES CCc1cc(C(=O)N[C@@H]2C=C[C@H](C(=O)NCCCCNC(=O)c3ccc(-c4c5nc(c(-c6c(F)c(F)c(F)c(F)c6F)c6ccc([nH]6)c(-c6c(F)c(F)c(F)c(F)c6F)c6nc(c(-c7c(F)c(F)c(F)c(F)c7F)c7ccc4[nH]7)C=C6)C=C5)cc3)C2)n(C)n1
REMARK SMILES IDX 17 1 16 2 15 3 13 4 14 5 12 7 9 8 10 9 86 10 11 11 8 12 6 13
REMARK SMILES IDX 7 14 5 16 3 17 4 18 89 19 87 20 88 21 2 22 1 23 18 24 19 25
REMARK SMILES IDX 20 26 21 27 22 29 23 30 24 31 85 32 25 33 84 34 26 35 27 36
REMARK SMILES IDX 28 37 78 38 29 39 83 40 77 41 79 42 30 43 82 44 76 45 75 46
REMARK SMILES IDX 31 48 63 49 43 50 62 51 44 52 47 53 61 54 80 55 45 56 46 57
REMARK SMILES IDX 60 59 81 60 48 61 32 62 33 63 41 64 34 65 35 66 39 67 42 68
REMARK SMILES IDX 36 69 37 70 40 71 38 72 64 73 65 74 73 75 66 76 67 77 71 78
REMARK SMILES IDX 74 79 68 80 69 81 72 82 70 83 49 84 50 85 58 86 51 87 52 88
REMARK SMILES IDX 56 89 59 90 53 91 54 92 57 93 55 94
REMARK H PARENT 15 6 8 15 20 28 79 47 47 58
REMARK Flexibility Score: inf
ROOT
ATOM      1  C   UNL A   1      32.496  29.900  26.283  1.00  0.00     0.023 C 
ENDROOT
BRANCH   1   2
ATOM      2  C   UNL A   1      32.613  28.723  27.245  1.00  0.00     0.116 C 
BRANCH   2   3
ATOM      3  N   UNL A   1      31.511  27.803  27.079  1.00  0.00    -0.356 N 
ATOM      4  C   UNL A   1      31.510  26.534  26.594  1.00  0.00     0.227 C 
ATOM      5  O   UNL A   1      30.409  26.016  26.379  1.00  0.00    -0.274 OA
ATOM      6  H   UNL A   1      30.632  28.146  27.360  1.00  0.00     0.163 HD
BRANCH   4   7
ATOM      7  C   UNL A   1      32.792  25.726  26.361  1.00  0.00     0.103 C 
ATOM      8  C   UNL A   1      34.050  25.003  24.357  1.00  0.00     0.106 C 
ATOM      9  C   UNL A   1      33.425  23.877  25.072  1.00  0.00    -0.006 C 
ATOM     10  C   UNL A   1      33.676  26.232  25.209  1.00  0.00     0.047 C 
ATOM     11  C   UNL A   1      32.680  24.257  26.116  1.00  0.00    -0.016 C 
BRANCH   8  12
ATOM     12  N   UNL A   1      33.721  25.145  22.940  1.00  0.00    -0.344 N 
ATOM     13  C   UNL A   1      32.990  25.872  22.043  1.00  0.00     0.270 C 
ATOM     14  O   UNL A   1      33.281  25.603  20.871  1.00  0.00    -0.268 OA
ATOM     15  H   UNL A   1      34.214  24.454  22.443  1.00  0.00     0.164 HD
BRANCH  13  16
ATOM     16  C   UNL A   1      32.028  26.916  22.317  1.00  0.00     0.126 A 
ATOM     17  C   UNL A   1      30.077  27.941  22.804  1.00  0.00     0.063 A 
ATOM     18  C   UNL A   1      30.760  26.706  22.866  1.00  0.00     0.059 A 
ATOM     19  N   UNL A   1      30.903  28.892  22.357  1.00  0.00    -0.178 NA
ATOM     20  N   UNL A   1      32.114  28.286  22.361  1.00  0.00    -0.263 N 
ATOM     21  C   UNL A   1      33.199  29.074  22.901  1.00  0.00     0.174 C 
BRANCH  17  22
ATOM     22  C   UNL A   1      28.669  28.272  23.180  1.00  0.00     0.055 C 
ATOM     23  C   UNL A   1      28.086  29.467  22.439  1.00  0.00     0.011 C 
ENDBRANCH  17  22
ENDBRANCH  13  16
ENDBRANCH   8  12
ENDBRANCH   4   7
ENDBRANCH   2   3
ENDBRANCH   1   2
BRANCH   1  24
ATOM     24  C   UNL A   1      32.028  31.214  26.902  1.00  0.00     0.023 C 
BRANCH  24  25
ATOM     25  C   UNL A   1      33.120  32.194  27.331  1.00  0.00     0.116 C 
BRANCH  25  26
ATOM     26  N   UNL A   1      32.645  33.546  27.590  1.00  0.00    -0.352 N 
ATOM     27  C   UNL A   1      33.080  34.524  28.454  1.00  0.00     0.251 C 
ATOM     28  H   UNL A   1      31.869  33.810  27.043  1.00  0.00     0.163 HD
ATOM     29  O   UNL A   1      32.476  35.590  28.552  1.00  0.00    -0.269 OA
BRANCH  27  30
ATOM     30  C   UNL A   1      34.239  34.270  29.325  1.00  0.00     0.039 A 
ATOM     31  C   UNL A   1      34.040  33.659  30.568  1.00  0.00     0.014 A 
ATOM     32  C   UNL A   1      35.523  34.562  28.876  1.00  0.00     0.014 A 
ATOM     33  C   UNL A   1      35.143  33.221  31.300  1.00  0.00     0.010 A 
ATOM     34  C   UNL A   1      36.609  34.018  29.540  1.00  0.00     0.010 A 
ATOM     35  C   UNL A   1      36.428  33.335  30.753  1.00  0.00    -0.014 A 
BRANCH  35  36
ATOM     36  C   UNL A   1      37.623  32.755  31.409  1.00  0.00     0.031 A 
ATOM     37  C   UNL A   1      38.352  31.633  30.731  1.00  0.00     0.074 A 
ATOM     38  C   UNL A   1      37.951  33.144  32.656  1.00  0.00     0.049 A 
ATOM     39  N   UNL A   1      39.284  30.844  31.199  1.00  0.00    -0.248 NA
ATOM     40  C   UNL A   1      37.935  31.318  29.353  1.00  0.00     0.031 C 
ATOM     41  C   UNL A   1      37.265  34.180  33.433  1.00  0.00     0.029 A 
ATOM     42  N   UNL A   1      38.933  32.695  33.502  1.00  0.00    -0.354 N 
ATOM     43  C   UNL A   1      39.535  29.925  30.190  1.00  0.00     0.074 A 
ATOM     44  C   UNL A   1      38.614  30.208  29.113  1.00  0.00     0.031 C 
ATOM     45  C   UNL A   1      37.859  34.301  34.631  1.00  0.00     0.029 A 
ATOM     46  C   UNL A   1      38.937  33.323  34.724  1.00  0.00     0.049 A 
ATOM     47  H   UNL A   1      39.573  31.988  33.257  1.00  0.00     0.167 HD
ATOM     48  C   UNL A   1      40.474  28.950  30.155  1.00  0.00     0.037 A 
ATOM     49  C   UNL A   1      39.721  33.121  35.799  1.00  0.00     0.037 A 
ATOM     50  C   UNL A   1      41.411  28.713  31.220  1.00  0.00     0.049 A 
ATOM     51  C   UNL A   1      40.784  32.057  35.720  1.00  0.00     0.074 A 
ATOM     52  C   UNL A   1      42.441  27.793  31.278  1.00  0.00     0.029 A 
ATOM     53  N   UNL A   1      41.431  29.419  32.416  1.00  0.00    -0.354 N 
ATOM     54  N   UNL A   1      41.051  31.226  34.741  1.00  0.00    -0.248 NA
ATOM     55  C   UNL A   1      41.658  31.908  36.890  1.00  0.00     0.031 C 
ATOM     56  C   UNL A   1      43.068  27.922  32.522  1.00  0.00     0.029 A 
ATOM     57  C   UNL A   1      42.457  28.953  33.221  1.00  0.00     0.049 A 
ATOM     58  H   UNL A   1      40.810  30.143  32.656  1.00  0.00     0.167 HD
ATOM     59  C   UNL A   1      42.140  30.476  35.162  1.00  0.00     0.074 A 
ATOM     60  C   UNL A   1      42.494  30.964  36.481  1.00  0.00     0.031 C 
ATOM     61  C   UNL A   1      42.788  29.472  34.523  1.00  0.00     0.037 A 
BRANCH  48  62
ATOM     62  C   UNL A   1      40.535  28.094  28.923  1.00  0.00     0.064 A 
ATOM     63  C   UNL A   1      41.306  28.465  27.809  1.00  0.00     0.173 A 
ATOM     64  C   UNL A   1      39.817  26.892  28.850  1.00  0.00     0.173 A 
ATOM     65  F   UNL A   1      41.998  29.614  27.819  1.00  0.00    -0.203 F 
ATOM     66  C   UNL A   1      41.323  27.685  26.655  1.00  0.00     0.198 A 
ATOM     67  C   UNL A   1      39.864  26.097  27.708  1.00  0.00     0.198 A 
ATOM     68  F   UNL A   1      39.066  26.488  29.885  1.00  0.00    -0.203 F 
ATOM     69  F   UNL A   1      42.013  28.095  25.582  1.00  0.00    -0.200 F 
ATOM     70  C   UNL A   1      40.608  26.499  26.607  1.00  0.00     0.200 A 
ATOM     71  F   UNL A   1      39.180  24.945  27.666  1.00  0.00    -0.200 F 
ATOM     72  F   UNL A   1      40.625  25.749  25.498  1.00  0.00    -0.200 F 
ENDBRANCH  48  62
BRANCH  49  73
ATOM     73  C   UNL A   1      39.560  33.961  37.015  1.00  0.00     0.064 A 
ATOM     74  C   UNL A   1      38.815  33.500  38.110  1.00  0.00     0.173 A 
ATOM     75  C   UNL A   1      40.142  35.234  37.113  1.00  0.00     0.173 A 
ATOM     76  F   UNL A   1      38.226  32.297  38.059  1.00  0.00    -0.203 F 
ATOM     77  C   UNL A   1      38.638  34.288  39.246  1.00  0.00     0.198 A 
ATOM     78  C   UNL A   1      39.987  36.010  38.262  1.00  0.00     0.198 A 
ATOM     79  F   UNL A   1      40.871  35.720  36.098  1.00  0.00    -0.203 F 
ATOM     80  F   UNL A   1      37.883  33.839  40.258  1.00  0.00    -0.200 F 
ATOM     81  C   UNL A   1      39.228  35.540  39.323  1.00  0.00     0.200 A 
ATOM     82  F   UNL A   1      40.571  37.213  38.338  1.00  0.00    -0.200 F 
ATOM     83  F   UNL A   1      39.060  36.295  40.417  1.00  0.00    -0.200 F 
ENDBRANCH  49  73
BRANCH  61  84
ATOM     84  C   UNL A   1      43.967  28.868  35.226  1.00  0.00     0.064 A 
ATOM     85  C   UNL A   1      45.269  29.346  35.021  1.00  0.00     0.173 A 
ATOM     86  C   UNL A   1      43.782  27.824  36.145  1.00  0.00     0.173 A 
ATOM     87  F   UNL A   1      45.495  30.333  34.141  1.00  0.00    -0.203 F 
ATOM     88  C   UNL A   1      46.348  28.782  35.693  1.00  0.00     0.198 A 
ATOM     89  C   UNL A   1      44.860  27.282  36.837  1.00  0.00     0.198 A 
ATOM     90  F   UNL A   1      42.553  27.338  36.379  1.00  0.00    -0.203 F 
ATOM     91  F   UNL A   1      47.591  29.221  35.448  1.00  0.00    -0.200 F 
ATOM     92  C   UNL A   1      46.144  27.757  36.605  1.00  0.00     0.200 A 
ATOM     93  F   UNL A   1      44.658  26.302  37.727  1.00  0.00    -0.200 F 
ATOM     94  F   UNL A   1      47.183  27.220  37.256  1.00  0.00    -0.200 F 
ENDBRANCH  61  84
ENDBRANCH  35  36
ENDBRANCH  27  30
ENDBRANCH  25  26
ENDBRANCH  24  25
ENDBRANCH   1  24
TORSDOF 14
ENDMDL
MODEL 3
REMARK VINA RESULT:     -11.7      2.440      4.232
REMARK SMILES CCc1cc(C(=O)N[C@@H]2C=C[C@H](C(=O)NCCCCNC(=O)c3ccc(-c4c5nc(c(-c6c(F)c(F)c(F)c(F)c6F)c6ccc([nH]6)c(-c6c(F)c(F)c(F)c(F)c6F)c6nc(c(-c7c(F)c(F)c(F)c(F)c7F)c7ccc4[nH]7)C=C6)C=C5)cc3)C2)n(C)n1
REMARK SMILES IDX 17 1 16 2 15 3 13 4 14 5 12 7 9 8 10 9 86 10 11 11 8 12 6 13
REMARK SMILES IDX 7 14 5 16 3 17 4 18 89 19 87 20 88 21 2 22 1 23 18 24 19 25
REMARK SMILES IDX 20 26 21 27 22 29 23 30 24 31 85 32 25 33 84 34 26 35 27 36
REMARK SMILES IDX 28 37 78 38 29 39 83 40 77 41 79 42 30 43 82 44 76 45 75 46
REMARK SMILES IDX 31 48 63 49 43 50 62 51 44 52 47 53 61 54 80 55 45 56 46 57
REMARK SMILES IDX 60 59 81 60 48 61 32 62 33 63 41 64 34 65 35 66 39 67 42 68
REMARK SMILES IDX 36 69 37 70 40 71 38 72 64 73 65 74 73 75 66 76 67 77 71 78
REMARK SMILES IDX 74 79 68 80 69 81 72 82 70 83 49 84 50 85 58 86 51 87 52 88
REMARK SMILES IDX 56 89 59 90 53 91 54 92 57 93 55 94
REMARK H PARENT 15 6 8 15 20 28 79 47 47 58
REMARK Flexibility Score: inf
ROOT
ATOM      1  C   UNL A   1      31.789  30.506  26.665  1.00  0.00     0.023 C 
ENDROOT
BRANCH   1   2
ATOM      2  C   UNL A   1      32.141  29.996  25.272  1.00  0.00     0.116 C 
BRANCH   2   3
ATOM      3  N   UNL A   1      31.212  28.978  24.839  1.00  0.00    -0.356 N 
ATOM      4  C   UNL A   1      31.299  27.626  24.945  1.00  0.00     0.227 C 
ATOM      5  O   UNL A   1      30.459  26.959  24.331  1.00  0.00    -0.274 OA
ATOM      6  H   UNL A   1      30.396  29.313  24.402  1.00  0.00     0.163 HD
BRANCH   4   7
ATOM      7  C   UNL A   1      32.342  26.920  25.820  1.00  0.00     0.103 C 
ATOM      8  C   UNL A   1      34.159  25.297  25.391  1.00  0.00     0.106 C 
ATOM      9  C   UNL A   1      33.054  24.719  26.175  1.00  0.00    -0.006 C 
ATOM     10  C   UNL A   1      33.728  26.762  25.175  1.00  0.00     0.047 C 
ATOM     11  C   UNL A   1      32.029  25.560  26.353  1.00  0.00    -0.016 C 
BRANCH   8  12
ATOM     12  N   UNL A   1      34.524  24.602  24.158  1.00  0.00    -0.344 N 
ATOM     13  C   UNL A   1      35.260  23.571  23.647  1.00  0.00     0.270 C 
ATOM     14  O   UNL A   1      35.009  23.358  22.455  1.00  0.00    -0.268 OA
ATOM     15  H   UNL A   1      34.063  25.047  23.411  1.00  0.00     0.164 HD
BRANCH  13  16
ATOM     16  C   UNL A   1      36.186  22.707  24.346  1.00  0.00     0.126 A 
ATOM     17  C   UNL A   1      38.011  22.012  25.477  1.00  0.00     0.063 A 
ATOM     18  C   UNL A   1      37.255  23.153  25.127  1.00  0.00     0.059 A 
ATOM     19  N   UNL A   1      37.390  20.909  25.046  1.00  0.00    -0.178 NA
ATOM     20  N   UNL A   1      36.182  21.366  24.641  1.00  0.00    -0.263 N 
ATOM     21  C   UNL A   1      35.048  20.569  25.054  1.00  0.00     0.174 C 
BRANCH  17  22
ATOM     22  C   UNL A   1      39.295  21.914  26.236  1.00  0.00     0.055 C 
ATOM     23  C   UNL A   1      39.979  20.557  26.139  1.00  0.00     0.011 C 
ENDBRANCH  17  22
ENDBRANCH  13  16
ENDBRANCH   8  12
ENDBRANCH   4   7
ENDBRANCH   2   3
ENDBRANCH   1   2
BRANCH   1  24
ATOM     24  C   UNL A   1      31.597  32.014  26.786  1.00  0.00     0.023 C 
BRANCH  24  25
ATOM     25  C   UNL A   1      32.800  32.820  27.274  1.00  0.00     0.116 C 
BRANCH  25  26
ATOM     26  N   UNL A   1      32.485  34.182  27.684  1.00  0.00    -0.352 N 
ATOM     27  C   UNL A   1      33.029  35.002  28.646  1.00  0.00     0.251 C 
ATOM     28  H   UNL A   1      31.747  34.592  27.177  1.00  0.00     0.163 HD
ATOM     29  O   UNL A   1      32.552  36.114  28.865  1.00  0.00    -0.269 OA
BRANCH  27  30
ATOM     30  C   UNL A   1      34.147  34.521  29.472  1.00  0.00     0.039 A 
ATOM     31  C   UNL A   1      33.879  33.932  30.712  1.00  0.00     0.014 A 
ATOM     32  C   UNL A   1      35.449  34.581  28.983  1.00  0.00     0.014 A 
ATOM     33  C   UNL A   1      34.904  33.283  31.399  1.00  0.00     0.010 A 
ATOM     34  C   UNL A   1      36.436  33.834  29.601  1.00  0.00     0.010 A 
ATOM     35  C   UNL A   1      36.171  33.170  30.809  1.00  0.00    -0.014 A 
BRANCH  35  36
ATOM     36  C   UNL A   1      37.258  32.368  31.415  1.00  0.00     0.031 A 
ATOM     37  C   UNL A   1      37.766  32.741  32.777  1.00  0.00     0.074 A 
ATOM     38  C   UNL A   1      37.865  31.413  30.684  1.00  0.00     0.049 A 
ATOM     39  N   UNL A   1      38.829  32.322  33.411  1.00  0.00    -0.248 NA
ATOM     40  C   UNL A   1      37.001  33.771  33.501  1.00  0.00     0.031 C 
ATOM     41  C   UNL A   1      37.495  31.018  29.323  1.00  0.00     0.029 A 
ATOM     42  N   UNL A   1      38.943  30.616  30.977  1.00  0.00    -0.354 N 
ATOM     43  C   UNL A   1      38.877  33.060  34.586  1.00  0.00     0.074 A 
ATOM     44  C   UNL A   1      37.779  33.999  34.547  1.00  0.00     0.031 C 
ATOM     45  C   UNL A   1      38.315  30.040  28.907  1.00  0.00     0.029 A 
ATOM     46  C   UNL A   1      39.297  29.770  29.952  1.00  0.00     0.049 A 
ATOM     47  H   UNL A   1      39.418  30.646  31.838  1.00  0.00     0.167 HD
ATOM     48  C   UNL A   1      39.744  32.940  35.619  1.00  0.00     0.037 A 
ATOM     49  C   UNL A   1      40.307  28.886  29.870  1.00  0.00     0.037 A 
ATOM     50  C   UNL A   1      40.803  31.969  35.658  1.00  0.00     0.049 A 
ATOM     51  C   UNL A   1      41.234  28.745  31.048  1.00  0.00     0.074 A 
ATOM     52  C   UNL A   1      41.709  31.716  36.670  1.00  0.00     0.029 A 
ATOM     53  N   UNL A   1      41.086  31.079  34.629  1.00  0.00    -0.354 N 
ATOM     54  N   UNL A   1      41.241  29.409  32.178  1.00  0.00    -0.248 NA
ATOM     55  C   UNL A   1      42.287  27.727  30.943  1.00  0.00     0.031 C 
ATOM     56  C   UNL A   1      42.561  30.691  36.243  1.00  0.00     0.029 A 
ATOM     57  C   UNL A   1      42.158  30.276  34.983  1.00  0.00     0.049 A 
ATOM     58  H   UNL A   1      40.599  31.026  33.777  1.00  0.00     0.167 HD
ATOM     59  C   UNL A   1      42.276  28.874  32.931  1.00  0.00     0.074 A 
ATOM     60  C   UNL A   1      42.864  27.816  32.133  1.00  0.00     0.031 C 
ATOM     61  C   UNL A   1      42.707  29.223  34.168  1.00  0.00     0.037 A 
BRANCH  48  62
ATOM     62  C   UNL A   1      39.561  33.869  36.784  1.00  0.00     0.064 A 
ATOM     63  C   UNL A   1      40.142  35.147  36.803  1.00  0.00     0.173 A 
ATOM     64  C   UNL A   1      38.798  33.482  37.896  1.00  0.00     0.173 A 
ATOM     65  F   UNL A   1      40.896  35.561  35.773  1.00  0.00    -0.203 F 
ATOM     66  C   UNL A   1      40.001  35.986  37.906  1.00  0.00     0.198 A 
ATOM     67  C   UNL A   1      38.629  34.337  38.983  1.00  0.00     0.198 A 
ATOM     68  F   UNL A   1      38.218  32.273  37.931  1.00  0.00    -0.203 F 
ATOM     69  F   UNL A   1      40.621  37.173  37.926  1.00  0.00    -0.200 F 
ATOM     70  C   UNL A   1      39.240  35.583  38.992  1.00  0.00     0.200 A 
ATOM     71  F   UNL A   1      37.885  33.950  40.028  1.00  0.00    -0.200 F 
ATOM     72  F   UNL A   1      39.103  36.390  40.052  1.00  0.00    -0.200 F 
ENDBRANCH  48  62
BRANCH  49  73
ATOM     73  C   UNL A   1      40.471  28.045  28.655  1.00  0.00     0.064 A 
ATOM     74  C   UNL A   1      39.833  26.800  28.554  1.00  0.00     0.173 A 
ATOM     75  C   UNL A   1      41.263  28.459  27.573  1.00  0.00     0.173 A 
ATOM     76  F   UNL A   1      39.078  26.353  29.568  1.00  0.00    -0.203 F 
ATOM     77  C   UNL A   1      39.997  25.992  27.431  1.00  0.00     0.198 A 
ATOM     78  C   UNL A   1      41.404  27.661  26.437  1.00  0.00     0.198 A 
ATOM     79  F   UNL A   1      41.890  29.643  27.613  1.00  0.00    -0.203 F 
ATOM     80  F   UNL A   1      39.411  24.788  27.383  1.00  0.00    -0.200 F 
ATOM     81  C   UNL A   1      40.778  26.426  26.371  1.00  0.00     0.200 A 
ATOM     82  F   UNL A   1      42.148  28.091  25.409  1.00  0.00    -0.200 F 
ATOM     83  F   UNL A   1      40.934  25.650  25.290  1.00  0.00    -0.200 F 
ENDBRANCH  49  73
BRANCH  61  84
ATOM     84  C   UNL A   1      43.840  28.427  34.743  1.00  0.00     0.064 A 
ATOM     85  C   UNL A   1      43.618  27.240  35.455  1.00  0.00     0.173 A 
ATOM     86  C   UNL A   1      45.166  28.840  34.543  1.00  0.00     0.173 A 
ATOM     87  F   UNL A   1      42.366  26.814  35.683  1.00  0.00    -0.203 F 
ATOM     88  C   UNL A   1      44.683  26.508  35.969  1.00  0.00     0.198 A 
ATOM     89  C   UNL A   1      46.230  28.089  35.033  1.00  0.00     0.198 A 
ATOM     90  F   UNL A   1      45.429  29.966  33.863  1.00  0.00    -0.203 F 
ATOM     91  F   UNL A   1      44.447  25.401  36.687  1.00  0.00    -0.200 F 
ATOM     92  C   UNL A   1      45.987  26.928  35.752  1.00  0.00     0.200 A 
ATOM     93  F   UNL A   1      47.488  28.490  34.811  1.00  0.00    -0.200 F 
ATOM     94  F   UNL A   1      47.011  26.217  36.242  1.00  0.00    -0.200 F 
ENDBRANCH  61  84
ENDBRANCH  35  36
ENDBRANCH  27  30
ENDBRANCH  25  26
ENDBRANCH  24  25
ENDBRANCH   1  24
TORSDOF 14
ENDMDL
