MODEL 1
REMARK VINA RESULT:     -13.8      0.000      0.000
REMARK SMILES O=C1CC[C@@H](CC(=O)N2CCC(Oc3ccccc3)(C(=O)NCCCCNC(=O)c3ccc(-c4c5nc(c(-c6c(F)c(F)c(F)c(F)c6F)c6ccc([nH]6)c(-c6c(F)c(F)c(F)c(F)c6F)c6nc(c(-c7c(F)c(F)c(F)c(F)c7F)c7ccc4[nH]7)C=C6)C=C5)cc3)CC2)N1
REMARK SMILES IDX 24 1 23 2 22 3 20 4 21 5 12 7 7 8 8 9 9 10 10 11 94 12 11 13
REMARK SMILES IDX 93 14 6 15 5 16 1 17 2 18 3 19 95 20 4 21 13 23 14 24 15 25
REMARK SMILES IDX 19 26 16 27 18 28 17 29 25 30 26 31 27 32 28 33 29 35 30 36
REMARK SMILES IDX 31 37 92 38 32 39 91 40 33 41 34 42 35 43 85 44 36 45 90 46
REMARK SMILES IDX 84 47 86 48 37 49 89 50 83 51 82 52 38 54 70 55 50 56 69 57
REMARK SMILES IDX 51 58 54 59 68 60 87 61 52 62 53 63 67 65 88 66 55 67 39 68
REMARK SMILES IDX 40 69 48 70 41 71 42 72 46 73 49 74 43 75 44 76 47 77 45 78
REMARK SMILES IDX 71 79 72 80 80 81 73 82 74 83 78 84 81 85 75 86 76 87 79 88
REMARK SMILES IDX 77 89 56 90 57 91 65 92 58 93 59 94 63 95 66 96 60 97 61 98
REMARK SMILES IDX 64 99 62 100
REMARK H PARENT 22 6 95 22 27 34 86 53 54 64
REMARK Flexibility Score: inf
ROOT
ATOM      1  C   UNL A   1      31.780  30.520  26.670  1.00  0.00     0.023 C 
ENDROOT
BRANCH   1   2
ATOM      2  C   UNL A   1      31.480  29.978  25.277  1.00  0.00     0.116 C 
BRANCH   2   3
ATOM      3  N   UNL A   1      32.692  29.503  24.655  1.00  0.00    -0.353 N 
ATOM      4  C   UNL A   1      32.945  28.325  24.028  1.00  0.00     0.264 C 
ATOM      5  O   UNL A   1      34.083  28.214  23.558  1.00  0.00    -0.270 OA
ATOM      6  H   UNL A   1      33.452  30.127  24.691  1.00  0.00     0.163 HD
BRANCH   4   7
ATOM      7  C   UNL A   1      31.861  27.214  23.895  1.00  0.00     0.190 C 
ATOM      8  C   UNL A   1      32.240  24.117  26.654  1.00  0.00     0.224 C 
ATOM      9  O   UNL A   1      31.162  23.981  27.252  1.00  0.00    -0.275 OA
ATOM     10  N   UNL A   1      32.521  25.311  26.018  1.00  0.00    -0.342 N 
ATOM     11  C   UNL A   1      31.773  26.519  26.358  1.00  0.00     0.124 C 
ATOM     12  C   UNL A   1      33.373  25.455  24.864  1.00  0.00     0.124 C 
ATOM     13  C   UNL A   1      30.989  27.044  25.160  1.00  0.00     0.080 C 
ATOM     14  C   UNL A   1      32.591  25.891  23.628  1.00  0.00     0.080 C 
BRANCH   8  15
ATOM     15  C   UNL A   1      33.300  23.020  26.871  1.00  0.00     0.125 C 
BRANCH  15  16
ATOM     16  C   UNL A   1      33.644  21.834  25.967  1.00  0.00     0.091 C 
ATOM     17  O   UNL A   1      32.527  18.510  25.741  1.00  0.00    -0.275 OA
ATOM     18  C   UNL A   1      32.822  19.679  25.538  1.00  0.00     0.220 C 
ATOM     19  C   UNL A   1      32.610  20.436  24.251  1.00  0.00     0.102 C 
ATOM     20  N   UNL A   1      33.354  20.529  26.480  1.00  0.00    -0.353 N 
ATOM     21  C   UNL A   1      33.044  21.872  24.559  1.00  0.00     0.035 C 
ATOM     22  H   UNL A   1      33.521  20.265  27.413  1.00  0.00     0.163 HD
ENDBRANCH  15  16
ENDBRANCH   8  15
BRANCH   7  23
ATOM     23  O   UNL A   1      31.149  27.681  22.720  1.00  0.00    -0.477 OA
BRANCH  23  24
ATOM     24  C   UNL A   1      29.899  28.195  22.883  1.00  0.00     0.120 A 
ATOM     25  C   UNL A   1      28.907  27.364  23.397  1.00  0.00     0.046 A 
ATOM     26  C   UNL A   1      29.571  29.460  22.400  1.00  0.00     0.046 A 
ATOM     27  C   UNL A   1      27.596  27.832  23.501  1.00  0.00     0.004 A 
ATOM     28  C   UNL A   1      28.267  29.936  22.523  1.00  0.00     0.004 A 
ATOM     29  C   UNL A   1      27.280  29.123  23.079  1.00  0.00     0.000 A 
ENDBRANCH  23  24
ENDBRANCH   7  23
ENDBRANCH   4   7
ENDBRANCH   2   3
ENDBRANCH   1   2
BRANCH   1  30
ATOM     30  C   UNL A   1      31.564  32.027  26.811  1.00  0.00     0.023 C 
BRANCH  30  31
ATOM     31  C   UNL A   1      32.794  32.802  27.264  1.00  0.00     0.116 C 
BRANCH  31  32
ATOM     32  N   UNL A   1      32.484  34.176  27.628  1.00  0.00    -0.352 N 
ATOM     33  C   UNL A   1      33.024  34.940  28.630  1.00  0.00     0.251 C 
ATOM     34  H   UNL A   1      31.794  34.616  27.080  1.00  0.00     0.163 HD
ATOM     35  O   UNL A   1      32.543  36.033  28.910  1.00  0.00    -0.269 OA
BRANCH  33  36
ATOM     36  C   UNL A   1      34.172  34.414  29.390  1.00  0.00     0.039 A 
ATOM     37  C   UNL A   1      33.934  33.711  30.571  1.00  0.00     0.014 A 
ATOM     38  C   UNL A   1      35.475  34.584  28.911  1.00  0.00     0.014 A 
ATOM     39  C   UNL A   1      35.005  33.127  31.247  1.00  0.00     0.010 A 
ATOM     40  C   UNL A   1      36.527  33.930  29.539  1.00  0.00     0.010 A 
ATOM     41  C   UNL A   1      36.305  33.204  30.719  1.00  0.00    -0.014 A 
BRANCH  41  42
ATOM     42  C   UNL A   1      37.450  32.552  31.400  1.00  0.00     0.031 A 
ATOM     43  C   UNL A   1      38.145  31.392  30.742  1.00  0.00     0.074 A 
ATOM     44  C   UNL A   1      37.830  32.969  32.623  1.00  0.00     0.049 A 
ATOM     45  N   UNL A   1      39.110  30.636  31.201  1.00  0.00    -0.248 NA
ATOM     46  C   UNL A   1      37.676  31.012  29.398  1.00  0.00     0.031 C 
ATOM     47  C   UNL A   1      37.208  34.058  33.379  1.00  0.00     0.029 A 
ATOM     48  N   UNL A   1      38.828  32.519  33.452  1.00  0.00    -0.354 N 
ATOM     49  C   UNL A   1      39.357  29.696  30.210  1.00  0.00     0.074 A 
ATOM     50  C   UNL A   1      38.398  29.929  29.152  1.00  0.00     0.031 C 
ATOM     51  C   UNL A   1      37.852  34.207  34.549  1.00  0.00     0.029 A 
ATOM     52  C   UNL A   1      38.900  33.197  34.645  1.00  0.00     0.049 A 
ATOM     53  H   UNL A   1      39.433  31.781  33.214  1.00  0.00     0.167 HD
ATOM     54  C   UNL A   1      40.319  28.745  30.168  1.00  0.00     0.037 A 
ATOM     55  C   UNL A   1      39.716  33.013  35.701  1.00  0.00     0.037 A 
ATOM     56  C   UNL A   1      41.285  28.529  31.213  1.00  0.00     0.049 A 
ATOM     57  C   UNL A   1      40.757  31.923  35.639  1.00  0.00     0.074 A 
ATOM     58  C   UNL A   1      42.317  27.608  31.254  1.00  0.00     0.029 A 
ATOM     59  N   UNL A   1      41.338  29.247  32.398  1.00  0.00    -0.354 N 
ATOM     60  N   UNL A   1      41.017  31.078  34.670  1.00  0.00    -0.248 NA
ATOM     61  C   UNL A   1      41.624  31.768  36.815  1.00  0.00     0.031 C 
ATOM     62  C   UNL A   1      42.968  27.740  32.485  1.00  0.00     0.029 A 
ATOM     63  C   UNL A   1      42.379  28.780  33.183  1.00  0.00     0.049 A 
ATOM     64  H   UNL A   1      40.728  29.978  32.644  1.00  0.00     0.167 HD
ATOM     65  C   UNL A   1      42.100  30.324  35.102  1.00  0.00     0.074 A 
ATOM     66  C   UNL A   1      42.458  30.822  36.413  1.00  0.00     0.031 C 
ATOM     67  C   UNL A   1      42.741  29.309  34.473  1.00  0.00     0.037 A 
BRANCH  54  68
ATOM     68  C   UNL A   1      40.391  27.877  28.947  1.00  0.00     0.064 A 
ATOM     69  C   UNL A   1      39.644  26.692  28.848  1.00  0.00     0.173 A 
ATOM     70  C   UNL A   1      41.160  28.261  27.838  1.00  0.00     0.173 A 
ATOM     71  F   UNL A   1      38.904  26.272  29.884  1.00  0.00    -0.203 F 
ATOM     72  C   UNL A   1      39.679  25.917  27.692  1.00  0.00     0.198 A 
ATOM     73  C   UNL A   1      41.167  27.500  26.672  1.00  0.00     0.198 A 
ATOM     74  F   UNL A   1      41.889  29.387  27.879  1.00  0.00    -0.203 F 
ATOM     75  F   UNL A   1      38.989  24.769  27.636  1.00  0.00    -0.200 F 
ATOM     76  C   UNL A   1      40.431  26.327  26.602  1.00  0.00     0.200 A 
ATOM     77  F   UNL A   1      41.883  27.906  25.614  1.00  0.00    -0.200 F 
ATOM     78  F   UNL A   1      40.449  25.590  25.483  1.00  0.00    -0.200 F 
ENDBRANCH  54  68
BRANCH  55  79
ATOM     79  C   UNL A   1      39.598  33.874  36.909  1.00  0.00     0.064 A 
ATOM     80  C   UNL A   1      38.821  33.476  38.007  1.00  0.00     0.173 A 
ATOM     81  C   UNL A   1      40.212  35.134  36.971  1.00  0.00     0.173 A 
ATOM     82  F   UNL A   1      38.198  32.288  37.991  1.00  0.00    -0.203 F 
ATOM     83  C   UNL A   1      38.625  34.321  39.097  1.00  0.00     0.198 A 
ATOM     84  C   UNL A   1      40.046  35.963  38.078  1.00  0.00     0.198 A 
ATOM     85  F   UNL A   1      40.974  35.562  35.953  1.00  0.00    -0.203 F 
ATOM     86  F   UNL A   1      37.816  33.945  40.096  1.00  0.00    -0.200 F 
ATOM     87  C   UNL A   1      39.240  35.564  39.133  1.00  0.00     0.200 A 
ATOM     88  F   UNL A   1      40.655  37.156  38.115  1.00  0.00    -0.200 F 
ATOM     89  F   UNL A   1      39.043  36.381  40.175  1.00  0.00    -0.200 F 
ENDBRANCH  55  79
BRANCH  67  90
ATOM     90  C   UNL A   1      43.934  28.711  35.162  1.00  0.00     0.064 A 
ATOM     91  C   UNL A   1      43.822  27.602  36.011  1.00  0.00     0.173 A 
ATOM     92  C   UNL A   1      45.216  29.238  34.934  1.00  0.00     0.173 A 
ATOM     93  F   UNL A   1      42.617  27.069  36.271  1.00  0.00    -0.203 F 
ATOM     94  C   UNL A   1      44.944  27.060  36.631  1.00  0.00     0.198 A 
ATOM     95  C   UNL A   1      46.339  28.671  35.527  1.00  0.00     0.198 A 
ATOM     96  F   UNL A   1      45.379  30.293  34.122  1.00  0.00    -0.203 F 
ATOM     97  F   UNL A   1      44.805  26.033  37.483  1.00  0.00    -0.200 F 
ATOM     98  C   UNL A   1      46.201  27.589  36.383  1.00  0.00     0.200 A 
ATOM     99  F   UNL A   1      47.555  29.173  35.272  1.00  0.00    -0.200 F 
ATOM    100  F   UNL A   1      47.281  27.060  36.975  1.00  0.00    -0.200 F 
ENDBRANCH  67  90
ENDBRANCH  41  42
ENDBRANCH  33  36
ENDBRANCH  31  32
ENDBRANCH  30  31
ENDBRANCH   1  30
TORSDOF 15
ENDMDL
MODEL 2
REMARK VINA RESULT:     -13.8      0.255      1.561
REMARK SMILES O=C1CC[C@@H](CC(=O)N2CCC(Oc3ccccc3)(C(=O)NCCCCNC(=O)c3ccc(-c4c5nc(c(-c6c(F)c(F)c(F)c(F)c6F)c6ccc([nH]6)c(-c6c(F)c(F)c(F)c(F)c6F)c6nc(c(-c7c(F)c(F)c(F)c(F)c7F)c7ccc4[nH]7)C=C6)C=C5)cc3)CC2)N1
REMARK SMILES IDX 24 1 23 2 22 3 20 4 21 5 12 7 7 8 8 9 9 10 10 11 94 12 11 13
REMARK SMILES IDX 93 14 6 15 5 16 1 17 2 18 3 19 95 20 4 21 13 23 14 24 15 25
REMARK SMILES IDX 19 26 16 27 18 28 17 29 25 30 26 31 27 32 28 33 29 35 30 36
REMARK SMILES IDX 31 37 92 38 32 39 91 40 33 41 34 42 35 43 85 44 36 45 90 46
REMARK SMILES IDX 84 47 86 48 37 49 89 50 83 51 82 52 38 54 70 55 50 56 69 57
REMARK SMILES IDX 51 58 54 59 68 60 87 61 52 62 53 63 67 65 88 66 55 67 39 68
REMARK SMILES IDX 40 69 48 70 41 71 42 72 46 73 49 74 43 75 44 76 47 77 45 78
REMARK SMILES IDX 71 79 72 80 80 81 73 82 74 83 78 84 81 85 75 86 76 87 79 88
REMARK SMILES IDX 77 89 56 90 57 91 65 92 58 93 59 94 63 95 66 96 60 97 61 98
REMARK SMILES IDX 64 99 62 100
REMARK H PARENT 22 6 95 22 27 34 86 53 54 64
REMARK Flexibility Score: inf
ROOT
ATOM      1  C   UNL A   1      31.869  30.558  26.753  1.00  0.00     0.023 C 
ENDROOT
BRANCH   1   2
ATOM      2  C   UNL A   1      31.558  30.021  25.361  1.00  0.00     0.116 C 
BRANCH   2   3
ATOM      3  N   UNL A   1      32.770  29.576  24.715  1.00  0.00    -0.353 N 
ATOM      4  C   UNL A   1      33.038  28.408  24.076  1.00  0.00     0.264 C 
ATOM      5  O   UNL A   1      34.170  28.325  23.588  1.00  0.00    -0.270 OA
ATOM      6  H   UNL A   1      33.516  30.217  24.742  1.00  0.00     0.163 HD
BRANCH   4   7
ATOM      7  C   UNL A   1      31.976  27.274  23.954  1.00  0.00     0.190 C 
ATOM      8  C   UNL A   1      32.515  24.131  26.634  1.00  0.00     0.224 C 
ATOM      9  O   UNL A   1      31.460  23.958  27.263  1.00  0.00    -0.275 OA
ATOM     10  N   UNL A   1      32.747  25.344  26.016  1.00  0.00    -0.342 N 
ATOM     11  C   UNL A   1      31.983  26.527  26.404  1.00  0.00     0.124 C 
ATOM     12  C   UNL A   1      33.559  25.533  24.838  1.00  0.00     0.124 C 
ATOM     13  C   UNL A   1      31.149  27.058  25.243  1.00  0.00     0.080 C 
ATOM     14  C   UNL A   1      32.727  25.974  23.637  1.00  0.00     0.080 C 
BRANCH   8  15
ATOM     15  C   UNL A   1      33.607  23.056  26.795  1.00  0.00     0.125 C 
BRANCH  15  16
ATOM     16  C   UNL A   1      33.861  21.819  25.931  1.00  0.00     0.091 C 
ATOM     17  O   UNL A   1      32.341  18.664  25.645  1.00  0.00    -0.275 OA
ATOM     18  C   UNL A   1      32.800  19.781  25.456  1.00  0.00     0.220 C 
ATOM     19  C   UNL A   1      32.788  20.535  24.150  1.00  0.00     0.102 C 
ATOM     20  N   UNL A   1      33.366  20.572  26.430  1.00  0.00    -0.353 N 
ATOM     21  C   UNL A   1      33.381  21.908  24.480  1.00  0.00     0.035 C 
ATOM     22  H   UNL A   1      33.425  20.306  27.375  1.00  0.00     0.163 HD
ENDBRANCH  15  16
ENDBRANCH   8  15
BRANCH   7  23
ATOM     23  O   UNL A   1      31.216  27.748  22.813  1.00  0.00    -0.477 OA
BRANCH  23  24
ATOM     24  C   UNL A   1      29.908  28.078  22.998  1.00  0.00     0.120 A 
ATOM     25  C   UNL A   1      29.044  27.098  23.479  1.00  0.00     0.046 A 
ATOM     26  C   UNL A   1      29.406  29.303  22.566  1.00  0.00     0.046 A 
ATOM     27  C   UNL A   1      27.682  27.376  23.603  1.00  0.00     0.004 A 
ATOM     28  C   UNL A   1      28.050  29.590  22.710  1.00  0.00     0.004 A 
ATOM     29  C   UNL A   1      27.188  28.626  23.234  1.00  0.00     0.000 A 
ENDBRANCH  23  24
ENDBRANCH   7  23
ENDBRANCH   4   7
ENDBRANCH   2   3
ENDBRANCH   1   2
BRANCH   1  30
ATOM     30  C   UNL A   1      31.595  32.052  26.918  1.00  0.00     0.023 C 
BRANCH  30  31
ATOM     31  C   UNL A   1      32.826  32.888  27.243  1.00  0.00     0.116 C 
BRANCH  31  32
ATOM     32  N   UNL A   1      32.490  34.257  27.603  1.00  0.00    -0.352 N 
ATOM     33  C   UNL A   1      33.006  35.029  28.612  1.00  0.00     0.251 C 
ATOM     34  H   UNL A   1      31.799  34.686  27.048  1.00  0.00     0.163 HD
ATOM     35  O   UNL A   1      32.505  36.114  28.887  1.00  0.00    -0.269 OA
BRANCH  33  36
ATOM     36  C   UNL A   1      34.153  34.520  29.385  1.00  0.00     0.039 A 
ATOM     37  C   UNL A   1      33.919  33.905  30.614  1.00  0.00     0.014 A 
ATOM     38  C   UNL A   1      35.451  34.619  28.873  1.00  0.00     0.014 A 
ATOM     39  C   UNL A   1      34.986  33.336  31.309  1.00  0.00     0.010 A 
ATOM     40  C   UNL A   1      36.496  33.977  29.524  1.00  0.00     0.010 A 
ATOM     41  C   UNL A   1      36.277  33.338  30.754  1.00  0.00    -0.014 A 
BRANCH  41  42
ATOM     42  C   UNL A   1      37.416  32.699  31.456  1.00  0.00     0.031 A 
ATOM     43  C   UNL A   1      38.125  31.535  30.820  1.00  0.00     0.074 A 
ATOM     44  C   UNL A   1      37.778  33.130  32.680  1.00  0.00     0.049 A 
ATOM     45  N   UNL A   1      39.087  30.788  31.300  1.00  0.00    -0.248 NA
ATOM     46  C   UNL A   1      37.674  31.138  29.475  1.00  0.00     0.031 C 
ATOM     47  C   UNL A   1      37.141  34.224  33.416  1.00  0.00     0.029 A 
ATOM     48  N   UNL A   1      38.767  32.694  33.526  1.00  0.00    -0.354 N 
ATOM     49  C   UNL A   1      39.351  29.839  30.321  1.00  0.00     0.074 A 
ATOM     50  C   UNL A   1      38.404  30.056  29.249  1.00  0.00     0.031 C 
ATOM     51  C   UNL A   1      37.769  34.388  34.592  1.00  0.00     0.029 A 
ATOM     52  C   UNL A   1      38.821  33.384  34.713  1.00  0.00     0.049 A 
ATOM     53  H   UNL A   1      39.379  31.956  33.304  1.00  0.00     0.167 HD
ATOM     54  C   UNL A   1      40.318  28.893  30.303  1.00  0.00     0.037 A 
ATOM     55  C   UNL A   1      39.624  33.216  35.781  1.00  0.00     0.037 A 
ATOM     56  C   UNL A   1      41.271  28.691  31.362  1.00  0.00     0.049 A 
ATOM     57  C   UNL A   1      40.670  32.130  35.744  1.00  0.00     0.074 A 
ATOM     58  C   UNL A   1      42.307  27.776  31.426  1.00  0.00     0.029 A 
ATOM     59  N   UNL A   1      41.306  29.423  32.539  1.00  0.00    -0.354 N 
ATOM     60  N   UNL A   1      40.947  31.276  34.787  1.00  0.00    -0.248 NA
ATOM     61  C   UNL A   1      41.523  31.992  36.933  1.00  0.00     0.031 C 
ATOM     62  C   UNL A   1      42.941  27.924  32.663  1.00  0.00     0.029 A 
ATOM     63  C   UNL A   1      42.339  28.969  33.343  1.00  0.00     0.049 A 
ATOM     64  H   UNL A   1      40.689  30.154  32.770  1.00  0.00     0.167 HD
ATOM     65  C   UNL A   1      42.028  30.532  35.242  1.00  0.00     0.074 A 
ATOM     66  C   UNL A   1      42.367  31.045  36.551  1.00  0.00     0.031 C 
ATOM     67  C   UNL A   1      42.681  29.513  34.632  1.00  0.00     0.037 A 
BRANCH  54  68
ATOM     68  C   UNL A   1      40.409  28.011  29.092  1.00  0.00     0.064 A 
ATOM     69  C   UNL A   1      39.674  26.819  28.998  1.00  0.00     0.173 A 
ATOM     70  C   UNL A   1      41.186  28.390  27.987  1.00  0.00     0.173 A 
ATOM     71  F   UNL A   1      38.926  26.404  30.032  1.00  0.00    -0.203 F 
ATOM     72  C   UNL A   1      39.727  26.032  27.851  1.00  0.00     0.198 A 
ATOM     73  C   UNL A   1      41.212  27.616  26.829  1.00  0.00     0.198 A 
ATOM     74  F   UNL A   1      41.905  29.522  28.022  1.00  0.00    -0.203 F 
ATOM     75  F   UNL A   1      39.047  24.878  27.801  1.00  0.00    -0.200 F 
ATOM     76  C   UNL A   1      40.486  26.436  26.764  1.00  0.00     0.200 A 
ATOM     77  F   UNL A   1      41.935  28.017  25.773  1.00  0.00    -0.200 F 
ATOM     78  F   UNL A   1      40.522  25.687  25.654  1.00  0.00    -0.200 F 
ENDBRANCH  54  68
BRANCH  55  79
ATOM     79  C   UNL A   1      39.487  34.089  36.978  1.00  0.00     0.064 A 
ATOM     80  C   UNL A   1      40.143  35.327  37.049  1.00  0.00     0.173 A 
ATOM     81  C   UNL A   1      38.745  33.683  38.098  1.00  0.00     0.173 A 
ATOM     82  F   UNL A   1      40.880  35.754  36.013  1.00  0.00    -0.203 F 
ATOM     83  C   UNL A   1      40.101  36.101  38.207  1.00  0.00     0.198 A 
ATOM     84  C   UNL A   1      38.673  34.475  39.241  1.00  0.00     0.198 A 
ATOM     85  F   UNL A   1      38.090  32.513  38.082  1.00  0.00    -0.203 F 
ATOM     86  F   UNL A   1      40.800  37.242  38.272  1.00  0.00    -0.200 F 
ATOM     87  C   UNL A   1      39.364  35.676  39.302  1.00  0.00     0.200 A 
ATOM     88  F   UNL A   1      37.947  34.068  40.291  1.00  0.00    -0.200 F 
ATOM     89  F   UNL A   1      39.332  36.414  40.418  1.00  0.00    -0.200 F 
ENDBRANCH  55  79
BRANCH  67  90
ATOM     90  C   UNL A   1      43.868  28.929  35.342  1.00  0.00     0.064 A 
ATOM     91  C   UNL A   1      45.169  29.403  35.128  1.00  0.00     0.173 A 
ATOM     92  C   UNL A   1      43.689  27.902  36.284  1.00  0.00     0.173 A 
ATOM     93  F   UNL A   1      45.395  30.374  34.229  1.00  0.00    -0.203 F 
ATOM     94  C   UNL A   1      46.252  28.851  35.806  1.00  0.00     0.198 A 
ATOM     95  C   UNL A   1      44.769  27.378  36.986  1.00  0.00     0.198 A 
ATOM     96  F   UNL A   1      42.463  27.419  36.534  1.00  0.00    -0.203 F 
ATOM     97  F   UNL A   1      47.494  29.282  35.543  1.00  0.00    -0.200 F 
ATOM     98  C   UNL A   1      46.051  27.845  36.740  1.00  0.00     0.200 A 
ATOM     99  F   UNL A   1      44.570  26.419  37.900  1.00  0.00    -0.200 F 
ATOM    100  F   UNL A   1      47.095  27.321  37.397  1.00  0.00    -0.200 F 
ENDBRANCH  67  90
ENDBRANCH  41  42
ENDBRANCH  33  36
ENDBRANCH  31  32
ENDBRANCH  30  31
ENDBRANCH   1  30
TORSDOF 15
ENDMDL
MODEL 3
REMARK VINA RESULT:     -13.8      0.676      7.206
REMARK SMILES O=C1CC[C@@H](CC(=O)N2CCC(Oc3ccccc3)(C(=O)NCCCCNC(=O)c3ccc(-c4c5nc(c(-c6c(F)c(F)c(F)c(F)c6F)c6ccc([nH]6)c(-c6c(F)c(F)c(F)c(F)c6F)c6nc(c(-c7c(F)c(F)c(F)c(F)c7F)c7ccc4[nH]7)C=C6)C=C5)cc3)CC2)N1
REMARK SMILES IDX 24 1 23 2 22 3 20 4 21 5 12 7 7 8 8 9 9 10 10 11 94 12 11 13
REMARK SMILES IDX 93 14 6 15 5 16 1 17 2 18 3 19 95 20 4 21 13 23 14 24 15 25
REMARK SMILES IDX 19 26 16 27 18 28 17 29 25 30 26 31 27 32 28 33 29 35 30 36
REMARK SMILES IDX 31 37 92 38 32 39 91 40 33 41 34 42 35 43 85 44 36 45 90 46
REMARK SMILES IDX 84 47 86 48 37 49 89 50 83 51 82 52 38 54 70 55 50 56 69 57
REMARK SMILES IDX 51 58 54 59 68 60 87 61 52 62 53 63 67 65 88 66 55 67 39 68
REMARK SMILES IDX 40 69 48 70 41 71 42 72 46 73 49 74 43 75 44 76 47 77 45 78
REMARK SMILES IDX 71 79 72 80 80 81 73 82 74 83 78 84 81 85 75 86 76 87 79 88
REMARK SMILES IDX 77 89 56 90 57 91 65 92 58 93 59 94 63 95 66 96 60 97 61 98
REMARK SMILES IDX 64 99 62 100
REMARK H PARENT 22 6 95 22 27 34 86 53 54 64
REMARK Flexibility Score: inf
ROOT
ATOM      1  C   UNL A   1      31.773  30.642  26.761  1.00  0.00     0.023 C 
ENDROOT
BRANCH   1   2
ATOM      2  C   UNL A   1      31.566  30.080  25.359  1.00  0.00     0.116 C 
BRANCH   2   3
ATOM      3  N   UNL A   1      32.809  29.563  24.839  1.00  0.00    -0.353 N 
ATOM      4  C   UNL A   1      33.075  28.374  24.240  1.00  0.00     0.264 C 
ATOM      5  O   UNL A   1      34.244  28.225  23.865  1.00  0.00    -0.270 OA
ATOM      6  H   UNL A   1      33.582  30.165  24.933  1.00  0.00     0.163 HD
BRANCH   4   7
ATOM      7  C   UNL A   1      31.972  27.295  24.025  1.00  0.00     0.190 C 
ATOM      8  C   UNL A   1      32.150  24.109  26.702  1.00  0.00     0.224 C 
ATOM      9  O   UNL A   1      31.043  23.984  27.247  1.00  0.00    -0.275 OA
ATOM     10  N   UNL A   1      32.488  25.314  26.117  1.00  0.00    -0.342 N 
ATOM     11  C   UNL A   1      31.755  26.531  26.460  1.00  0.00     0.124 C 
ATOM     12  C   UNL A   1      33.396  25.471  25.006  1.00  0.00     0.124 C 
ATOM     13  C   UNL A   1      31.039  27.111  25.244  1.00  0.00     0.080 C 
ATOM     14  C   UNL A   1      32.681  25.962  23.751  1.00  0.00     0.080 C 
BRANCH   8  15
ATOM     15  C   UNL A   1      33.173  22.980  26.933  1.00  0.00     0.125 C 
BRANCH  15  16
ATOM     16  C   UNL A   1      33.539  21.822  26.003  1.00  0.00     0.091 C 
ATOM     17  O   UNL A   1      32.529  18.467  25.737  1.00  0.00    -0.275 OA
ATOM     18  C   UNL A   1      32.781  19.648  25.550  1.00  0.00     0.220 C 
ATOM     19  C   UNL A   1      32.523  20.420  24.280  1.00  0.00     0.102 C 
ATOM     20  N   UNL A   1      33.302  20.499  26.498  1.00  0.00    -0.353 N 
ATOM     21  C   UNL A   1      32.915  21.863  24.606  1.00  0.00     0.035 C 
ATOM     22  H   UNL A   1      33.493  20.225  27.423  1.00  0.00     0.163 HD
ENDBRANCH  15  16
ENDBRANCH   8  15
BRANCH   7  23
ATOM     23  O   UNL A   1      31.325  27.815  22.835  1.00  0.00    -0.477 OA
BRANCH  23  24
ATOM     24  C   UNL A   1      29.990  28.076  22.885  1.00  0.00     0.120 A 
ATOM     25  C   UNL A   1      29.552  29.341  22.502  1.00  0.00     0.046 A 
ATOM     26  C   UNL A   1      29.099  27.171  23.457  1.00  0.00     0.046 A 
ATOM     27  C   UNL A   1      28.202  29.671  22.618  1.00  0.00     0.004 A 
ATOM     28  C   UNL A   1      27.747  27.491  23.554  1.00  0.00     0.004 A 
ATOM     29  C   UNL A   1      27.297  28.741  23.129  1.00  0.00     0.000 A 
ENDBRANCH  23  24
ENDBRANCH   7  23
ENDBRANCH   4   7
ENDBRANCH   2   3
ENDBRANCH   1   2
BRANCH   1  30
ATOM     30  C   UNL A   1      31.535  32.147  26.868  1.00  0.00     0.023 C 
BRANCH  30  31
ATOM     31  C   UNL A   1      32.797  32.973  27.080  1.00  0.00     0.116 C 
BRANCH  31  32
ATOM     32  N   UNL A   1      32.515  34.291  27.626  1.00  0.00    -0.352 N 
ATOM     33  C   UNL A   1      33.076  34.907  28.715  1.00  0.00     0.251 C 
ATOM     34  H   UNL A   1      31.828  34.812  27.149  1.00  0.00     0.163 HD
ATOM     35  O   UNL A   1      32.618  35.960  29.142  1.00  0.00    -0.269 OA
BRANCH  33  36
ATOM     36  C   UNL A   1      34.221  34.265  29.386  1.00  0.00     0.039 A 
ATOM     37  C   UNL A   1      33.976  33.340  30.401  1.00  0.00     0.014 A 
ATOM     38  C   UNL A   1      35.529  34.551  28.982  1.00  0.00     0.014 A 
ATOM     39  C   UNL A   1      35.046  32.657  30.978  1.00  0.00     0.010 A 
ATOM     40  C   UNL A   1      36.584  33.807  29.497  1.00  0.00     0.010 A 
ATOM     41  C   UNL A   1      36.355  32.861  30.507  1.00  0.00    -0.014 A 
BRANCH  41  42
ATOM     42  C   UNL A   1      37.501  32.111  31.077  1.00  0.00     0.031 A 
ATOM     43  C   UNL A   1      38.013  32.462  32.446  1.00  0.00     0.074 A 
ATOM     44  C   UNL A   1      38.108  31.156  30.346  1.00  0.00     0.049 A 
ATOM     45  N   UNL A   1      39.048  31.985  33.091  1.00  0.00    -0.248 NA
ATOM     46  C   UNL A   1      37.282  33.508  33.181  1.00  0.00     0.031 C 
ATOM     47  C   UNL A   1      37.727  30.754  28.991  1.00  0.00     0.029 A 
ATOM     48  N   UNL A   1      39.182  30.353  30.639  1.00  0.00    -0.354 N 
ATOM     49  C   UNL A   1      39.091  32.673  34.296  1.00  0.00     0.074 A 
ATOM     50  C   UNL A   1      38.023  33.648  34.270  1.00  0.00     0.031 C 
ATOM     51  C   UNL A   1      38.539  29.766  28.579  1.00  0.00     0.029 A 
ATOM     52  C   UNL A   1      39.524  29.497  29.621  1.00  0.00     0.049 A 
ATOM     53  H   UNL A   1      39.663  30.388  31.498  1.00  0.00     0.167 HD
ATOM     54  C   UNL A   1      39.924  32.485  35.346  1.00  0.00     0.037 A 
ATOM     55  C   UNL A   1      40.529  28.603  29.537  1.00  0.00     0.037 A 
ATOM     56  C   UNL A   1      40.973  31.500  35.378  1.00  0.00     0.049 A 
ATOM     57  C   UNL A   1      41.462  28.440  30.710  1.00  0.00     0.074 A 
ATOM     58  C   UNL A   1      41.855  31.213  36.405  1.00  0.00     0.029 A 
ATOM     59  N   UNL A   1      41.276  30.639  34.335  1.00  0.00    -0.354 N 
ATOM     60  N   UNL A   1      41.455  29.057  31.868  1.00  0.00    -0.248 NA
ATOM     61  C   UNL A   1      42.537  27.449  30.568  1.00  0.00     0.031 C 
ATOM     62  C   UNL A   1      42.721  30.208  35.967  1.00  0.00     0.029 A 
ATOM     63  C   UNL A   1      42.342  29.828  34.690  1.00  0.00     0.049 A 
ATOM     64  H   UNL A   1      40.806  30.608  33.471  1.00  0.00     0.167 HD
ATOM     65  C   UNL A   1      42.493  28.499  32.603  1.00  0.00     0.074 A 
ATOM     66  C   UNL A   1      43.097  27.484  31.768  1.00  0.00     0.031 C 
ATOM     67  C   UNL A   1      42.911  28.801  33.856  1.00  0.00     0.037 A 
BRANCH  54  68
ATOM     68  C   UNL A   1      39.726  33.348  36.558  1.00  0.00     0.064 A 
ATOM     69  C   UNL A   1      40.390  34.577  36.696  1.00  0.00     0.173 A 
ATOM     70  C   UNL A   1      38.818  32.978  37.560  1.00  0.00     0.173 A 
ATOM     71  F   UNL A   1      41.280  34.971  35.772  1.00  0.00    -0.203 F 
ATOM     72  C   UNL A   1      40.164  35.394  37.800  1.00  0.00     0.198 A 
ATOM     73  C   UNL A   1      38.571  33.813  38.648  1.00  0.00     0.198 A 
ATOM     74  F   UNL A   1      38.154  31.815  37.476  1.00  0.00    -0.203 F 
ATOM     75  F   UNL A   1      40.840  36.545  37.929  1.00  0.00    -0.200 F 
ATOM     76  C   UNL A   1      39.247  35.017  38.769  1.00  0.00     0.200 A 
ATOM     77  F   UNL A   1      37.673  33.453  39.576  1.00  0.00    -0.200 F 
ATOM     78  F   UNL A   1      39.017  35.812  39.822  1.00  0.00    -0.200 F 
ENDBRANCH  54  68
BRANCH  55  79
ATOM     79  C   UNL A   1      40.714  27.784  28.308  1.00  0.00     0.064 A 
ATOM     80  C   UNL A   1      40.142  26.507  28.198  1.00  0.00     0.173 A 
ATOM     81  C   UNL A   1      41.510  28.232  27.244  1.00  0.00     0.173 A 
ATOM     82  F   UNL A   1      39.387  26.024  29.196  1.00  0.00    -0.203 F 
ATOM     83  C   UNL A   1      40.396  25.696  27.095  1.00  0.00     0.198 A 
ATOM     84  C   UNL A   1      41.732  27.434  26.124  1.00  0.00     0.198 A 
ATOM     85  F   UNL A   1      42.074  29.448  27.292  1.00  0.00    -0.203 F 
ATOM     86  F   UNL A   1      39.898  24.453  27.052  1.00  0.00    -0.200 F 
ATOM     87  C   UNL A   1      41.189  26.160  26.056  1.00  0.00     0.200 A 
ATOM     88  F   UNL A   1      42.486  27.894  25.116  1.00  0.00    -0.200 F 
ATOM     89  F   UNL A   1      41.442  25.376  25.001  1.00  0.00    -0.200 F 
ENDBRANCH  55  79
BRANCH  67  90
ATOM     90  C   UNL A   1      44.033  27.983  34.427  1.00  0.00     0.064 A 
ATOM     91  C   UNL A   1      45.373  28.377  34.311  1.00  0.00     0.173 A 
ATOM     92  C   UNL A   1      43.755  26.803  35.136  1.00  0.00     0.173 A 
ATOM     93  F   UNL A   1      45.693  29.490  33.631  1.00  0.00    -0.203 F 
ATOM     94  C   UNL A   1      46.396  27.607  34.856  1.00  0.00     0.198 A 
ATOM     95  C   UNL A   1      44.776  26.054  35.711  1.00  0.00     0.198 A 
ATOM     96  F   UNL A   1      42.489  26.386  35.285  1.00  0.00    -0.203 F 
ATOM     97  F   UNL A   1      47.674  27.974  34.684  1.00  0.00    -0.200 F 
ATOM     98  C   UNL A   1      46.096  26.451  35.562  1.00  0.00     0.200 A 
ATOM     99  F   UNL A   1      44.484  24.948  36.407  1.00  0.00    -0.200 F 
ATOM    100  F   UNL A   1      47.083  25.714  36.093  1.00  0.00    -0.200 F 
ENDBRANCH  67  90
ENDBRANCH  41  42
ENDBRANCH  33  36
ENDBRANCH  31  32
ENDBRANCH  30  31
ENDBRANCH   1  30
TORSDOF 15
ENDMDL
