MODEL 1
REMARK VINA RESULT:     -12.9      0.000      0.000
REMARK SMILES C[C@@H]1[C@H](C(=O)NCCCCNC(=O)c2ccc(-c3c4nc(c(-c5c(F)c(F)c(F)c(F)c5F)c5ccc([nH]5)c(-c5c(F)c(F)c(F)c(F)c5F)c5nc(c(-c6c(F)c(F)c(F)c(F)c6F)c6ccc3[nH]6)C=C5)C=C4)cc2)CC[N@@H+]1Cc1ccc2c(c1)CCN2C
REMARK SMILES IDX 8 1 7 2 6 3 4 4 5 5 3 7 1 8 2 9 79 10 77 11 78 12 80 14
REMARK SMILES IDX 81 15 82 16 86 17 83 18 85 19 84 20 87 21 89 22 88 23 90 24
REMARK SMILES IDX 9 25 10 26 11 27 12 28 13 30 14 31 15 32 76 33 16 34 75 35
REMARK SMILES IDX 17 36 18 37 19 38 69 39 20 40 74 41 68 42 70 43 21 44 73 45
REMARK SMILES IDX 67 46 66 47 22 49 54 50 34 51 53 52 35 53 38 54 52 55 71 56
REMARK SMILES IDX 36 57 37 58 51 60 72 61 39 62 23 63 24 64 32 65 25 66 26 67
REMARK SMILES IDX 30 68 33 69 27 70 28 71 31 72 29 73 55 74 56 75 64 76 57 77
REMARK SMILES IDX 58 78 62 79 65 80 59 81 60 82 63 83 61 84 40 85 41 86 49 87
REMARK SMILES IDX 42 88 43 89 47 90 50 91 44 92 45 93 48 94 46 95
REMARK H PARENT 6 6 79 13 11 29 70 48 38 59
REMARK Flexibility Score: inf
ROOT
ATOM      1  C   UNL A   1      31.833  30.427  26.657  1.00  0.00     0.023 C 
ENDROOT
BRANCH   1   2
ATOM      2  C   UNL A   1      31.540  29.853  25.270  1.00  0.00     0.116 C 
BRANCH   2   3
ATOM      3  N   UNL A   1      32.624  29.018  24.813  1.00  0.00    -0.356 N 
ATOM      4  C   UNL A   1      32.715  27.670  24.716  1.00  0.00     0.229 C 
ATOM      5  O   UNL A   1      33.821  27.221  24.396  1.00  0.00    -0.275 OA
ATOM      6  H   UNL A   1      33.429  29.507  24.526  1.00  0.00     0.163 HD
BRANCH   4   7
ATOM      7  C   UNL A   1      31.546  26.713  24.915  1.00  0.00     0.142 C 
ATOM      8  C   UNL A   1      31.344  26.197  22.323  1.00  0.00     0.076 C 
ATOM      9  C   UNL A   1      30.838  26.005  23.739  1.00  0.00     0.193 C 
ATOM     10  N   UNL A   1      30.566  24.635  24.205  1.00  0.00    -0.328 N 
ATOM     11  C   UNL A   1      31.756  25.626  25.966  1.00  0.00     0.081 C 
ATOM     12  C   UNL A   1      30.628  24.654  25.659  1.00  0.00     0.263 C 
ATOM     13  H   UNL A   1      29.629  24.413  23.867  1.00  0.00     0.348 HD
BRANCH  10  14
ATOM     14  C   UNL A   1      31.029  23.443  23.493  1.00  0.00     0.299 C 
BRANCH  14  15
ATOM     15  C   UNL A   1      32.359  22.794  23.853  1.00  0.00     0.007 A 
ATOM     16  C   UNL A   1      32.415  21.721  24.778  1.00  0.00     0.012 A 
ATOM     17  C   UNL A   1      33.575  23.311  23.383  1.00  0.00     0.015 A 
ATOM     18  C   UNL A   1      33.638  21.154  25.189  1.00  0.00     0.026 A 
ATOM     19  C   UNL A   1      34.767  22.742  23.796  1.00  0.00    -0.022 A 
ATOM     20  C   UNL A   1      34.816  21.678  24.695  1.00  0.00     0.040 A 
ATOM     21  C   UNL A   1      36.152  23.072  23.346  1.00  0.00     0.059 C 
ATOM     22  N   UNL A   1      36.131  21.319  24.996  1.00  0.00    -0.374 N 
ATOM     23  C   UNL A   1      36.963  22.404  24.464  1.00  0.00     0.121 C 
ATOM     24  C   UNL A   1      36.553  19.944  24.876  1.00  0.00     0.143 C 
ENDBRANCH  14  15
ENDBRANCH  10  14
ENDBRANCH   4   7
ENDBRANCH   2   3
ENDBRANCH   1   2
BRANCH   1  25
ATOM     25  C   UNL A   1      31.591  31.920  26.810  1.00  0.00     0.023 C 
BRANCH  25  26
ATOM     26  C   UNL A   1      32.804  32.716  27.253  1.00  0.00     0.116 C 
BRANCH  26  27
ATOM     27  N   UNL A   1      32.487  34.092  27.609  1.00  0.00    -0.352 N 
ATOM     28  C   UNL A   1      33.016  34.877  28.608  1.00  0.00     0.251 C 
ATOM     29  H   UNL A   1      31.795  34.523  27.057  1.00  0.00     0.163 HD
ATOM     30  O   UNL A   1      32.515  35.957  28.889  1.00  0.00    -0.269 OA
BRANCH  28  31
ATOM     31  C   UNL A   1      34.180  34.391  29.371  1.00  0.00     0.039 A 
ATOM     32  C   UNL A   1      33.953  33.655  30.536  1.00  0.00     0.014 A 
ATOM     33  C   UNL A   1      35.480  34.606  28.911  1.00  0.00     0.014 A 
ATOM     34  C   UNL A   1      35.026  33.040  31.177  1.00  0.00     0.010 A 
ATOM     35  C   UNL A   1      36.528  33.899  29.480  1.00  0.00     0.010 A 
ATOM     36  C   UNL A   1      36.311  33.109  30.618  1.00  0.00    -0.014 A 
BRANCH  36  37
ATOM     37  C   UNL A   1      37.448  32.363  31.204  1.00  0.00     0.031 A 
ATOM     38  C   UNL A   1      37.935  32.712  32.580  1.00  0.00     0.074 A 
ATOM     39  C   UNL A   1      38.085  31.436  30.464  1.00  0.00     0.049 A 
ATOM     40  N   UNL A   1      38.969  32.251  33.234  1.00  0.00    -0.248 NA
ATOM     41  C   UNL A   1      37.186  33.755  33.301  1.00  0.00     0.031 C 
ATOM     42  C   UNL A   1      37.740  31.063  29.089  1.00  0.00     0.029 A 
ATOM     43  N   UNL A   1      39.161  30.642  30.761  1.00  0.00    -0.354 N 
ATOM     44  C   UNL A   1      39.007  32.964  34.424  1.00  0.00     0.074 A 
ATOM     45  C   UNL A   1      37.936  33.934  34.376  1.00  0.00     0.031 C 
ATOM     46  C   UNL A   1      38.566  30.088  28.677  1.00  0.00     0.029 A 
ATOM     47  C   UNL A   1      39.521  29.795  29.740  1.00  0.00     0.049 A 
ATOM     48  H   UNL A   1      39.634  30.676  31.624  1.00  0.00     0.167 HD
ATOM     49  C   UNL A   1      39.841  32.802  35.477  1.00  0.00     0.037 A 
ATOM     50  C   UNL A   1      40.509  28.884  29.677  1.00  0.00     0.037 A 
ATOM     51  C   UNL A   1      40.875  31.803  35.531  1.00  0.00     0.049 A 
ATOM     52  C   UNL A   1      41.400  28.697  30.874  1.00  0.00     0.074 A 
ATOM     53  C   UNL A   1      41.737  31.508  36.572  1.00  0.00     0.029 A 
ATOM     54  N   UNL A   1      41.177  30.929  34.497  1.00  0.00    -0.354 N 
ATOM     55  N   UNL A   1      41.386  29.330  32.022  1.00  0.00    -0.248 NA
ATOM     56  C   UNL A   1      42.437  27.661  30.771  1.00  0.00     0.031 C 
ATOM     57  C   UNL A   1      42.585  30.477  36.153  1.00  0.00     0.029 A 
ATOM     58  C   UNL A   1      42.220  30.098  34.871  1.00  0.00     0.049 A 
ATOM     59  H   UNL A   1      40.718  30.904  33.626  1.00  0.00     0.167 HD
ATOM     60  C   UNL A   1      42.387  28.751  32.789  1.00  0.00     0.074 A 
ATOM     61  C   UNL A   1      42.981  27.707  31.979  1.00  0.00     0.031 C 
ATOM     62  C   UNL A   1      42.779  29.054  34.051  1.00  0.00     0.037 A 
BRANCH  49  63
ATOM     63  C   UNL A   1      39.656  33.717  36.651  1.00  0.00     0.064 A 
ATOM     64  C   UNL A   1      38.850  33.358  37.744  1.00  0.00     0.173 A 
ATOM     65  C   UNL A   1      40.292  34.966  36.691  1.00  0.00     0.173 A 
ATOM     66  F   UNL A   1      38.203  32.182  37.749  1.00  0.00    -0.203 F 
ATOM     67  C   UNL A   1      38.657  34.231  38.811  1.00  0.00     0.198 A 
ATOM     68  C   UNL A   1      40.124  35.822  37.776  1.00  0.00     0.198 A 
ATOM     69  F   UNL A   1      41.076  35.358  35.675  1.00  0.00    -0.203 F 
ATOM     70  F   UNL A   1      37.831  33.892  39.811  1.00  0.00    -0.200 F 
ATOM     71  C   UNL A   1      39.299  35.460  38.829  1.00  0.00     0.200 A 
ATOM     72  F   UNL A   1      40.753  37.007  37.797  1.00  0.00    -0.200 F 
ATOM     73  F   UNL A   1      39.113  36.299  39.857  1.00  0.00    -0.200 F 
ENDBRANCH  49  63
BRANCH  50  74
ATOM     74  C   UNL A   1      40.675  28.049  28.458  1.00  0.00     0.064 A 
ATOM     75  C   UNL A   1      40.047  26.799  28.358  1.00  0.00     0.173 A 
ATOM     76  C   UNL A   1      41.450  28.479  27.373  1.00  0.00     0.173 A 
ATOM     77  F   UNL A   1      39.307  26.338  29.377  1.00  0.00    -0.203 F 
ATOM     78  C   UNL A   1      40.209  26.001  27.228  1.00  0.00     0.198 A 
ATOM     79  C   UNL A   1      41.589  27.691  26.232  1.00  0.00     0.198 A 
ATOM     80  F   UNL A   1      42.063  29.670  27.415  1.00  0.00    -0.203 F 
ATOM     81  F   UNL A   1      39.632  24.791  27.177  1.00  0.00    -0.200 F 
ATOM     82  C   UNL A   1      40.975  26.449  26.163  1.00  0.00     0.200 A 
ATOM     83  F   UNL A   1      42.319  28.134  25.199  1.00  0.00    -0.200 F 
ATOM     84  F   UNL A   1      41.127  25.683  25.075  1.00  0.00    -0.200 F 
ENDBRANCH  50  74
BRANCH  62  85
ATOM     85  C   UNL A   1      43.871  28.216  34.648  1.00  0.00     0.064 A 
ATOM     86  C   UNL A   1      45.214  28.614  34.603  1.00  0.00     0.173 A 
ATOM     87  C   UNL A   1      43.557  27.021  35.312  1.00  0.00     0.173 A 
ATOM     88  F   UNL A   1      45.563  29.742  33.966  1.00  0.00    -0.203 F 
ATOM     89  C   UNL A   1      46.209  27.831  35.181  1.00  0.00     0.198 A 
ATOM     90  C   UNL A   1      44.552  26.256  35.915  1.00  0.00     0.198 A 
ATOM     91  F   UNL A   1      42.285  26.601  35.388  1.00  0.00    -0.203 F 
ATOM     92  F   UNL A   1      47.492  28.206  35.088  1.00  0.00    -0.200 F 
ATOM     93  C   UNL A   1      45.877  26.659  35.843  1.00  0.00     0.200 A 
ATOM     94  F   UNL A   1      44.226  25.130  36.566  1.00  0.00    -0.200 F 
ATOM     95  F   UNL A   1      46.836  25.911  36.407  1.00  0.00    -0.200 F 
ENDBRANCH  62  85
ENDBRANCH  36  37
ENDBRANCH  28  31
ENDBRANCH  26  27
ENDBRANCH  25  26
ENDBRANCH   1  25
TORSDOF 13
ENDMDL
MODEL 2
REMARK VINA RESULT:     -12.9      0.131      1.589
REMARK SMILES C[C@@H]1[C@H](C(=O)NCCCCNC(=O)c2ccc(-c3c4nc(c(-c5c(F)c(F)c(F)c(F)c5F)c5ccc([nH]5)c(-c5c(F)c(F)c(F)c(F)c5F)c5nc(c(-c6c(F)c(F)c(F)c(F)c6F)c6ccc3[nH]6)C=C5)C=C4)cc2)CC[N@@H+]1Cc1ccc2c(c1)CCN2C
REMARK SMILES IDX 8 1 7 2 6 3 4 4 5 5 3 7 1 8 2 9 79 10 77 11 78 12 80 14
REMARK SMILES IDX 81 15 82 16 86 17 83 18 85 19 84 20 87 21 89 22 88 23 90 24
REMARK SMILES IDX 9 25 10 26 11 27 12 28 13 30 14 31 15 32 76 33 16 34 75 35
REMARK SMILES IDX 17 36 18 37 19 38 69 39 20 40 74 41 68 42 70 43 21 44 73 45
REMARK SMILES IDX 67 46 66 47 22 49 54 50 34 51 53 52 35 53 38 54 52 55 71 56
REMARK SMILES IDX 36 57 37 58 51 60 72 61 39 62 23 63 24 64 32 65 25 66 26 67
REMARK SMILES IDX 30 68 33 69 27 70 28 71 31 72 29 73 55 74 56 75 64 76 57 77
REMARK SMILES IDX 58 78 62 79 65 80 59 81 60 82 63 83 61 84 40 85 41 86 49 87
REMARK SMILES IDX 42 88 43 89 47 90 50 91 44 92 45 93 48 94 46 95
REMARK H PARENT 6 6 79 13 11 29 70 48 38 59
REMARK Flexibility Score: inf
ROOT
ATOM      1  C   UNL A   1      31.765  30.501  26.641  1.00  0.00     0.023 C 
ENDROOT
BRANCH   1   2
ATOM      2  C   UNL A   1      31.630  30.006  25.200  1.00  0.00     0.116 C 
BRANCH   2   3
ATOM      3  N   UNL A   1      32.711  29.115  24.854  1.00  0.00    -0.356 N 
ATOM      4  C   UNL A   1      32.765  27.762  24.837  1.00  0.00     0.229 C 
ATOM      5  O   UNL A   1      33.873  27.265  24.606  1.00  0.00    -0.275 OA
ATOM      6  H   UNL A   1      33.546  29.564  24.585  1.00  0.00     0.163 HD
BRANCH   4   7
ATOM      7  C   UNL A   1      31.558  26.851  25.024  1.00  0.00     0.142 C 
ATOM      8  C   UNL A   1      31.328  26.388  22.424  1.00  0.00     0.076 C 
ATOM      9  C   UNL A   1      30.819  26.193  23.839  1.00  0.00     0.193 C 
ATOM     10  N   UNL A   1      30.491  24.828  24.282  1.00  0.00    -0.328 N 
ATOM     11  C   UNL A   1      31.725  25.738  26.056  1.00  0.00     0.081 C 
ATOM     12  C   UNL A   1      30.556  24.820  25.735  1.00  0.00     0.263 C 
ATOM     13  H   UNL A   1      29.545  24.651  23.943  1.00  0.00     0.348 HD
BRANCH  10  14
ATOM     14  C   UNL A   1      30.902  23.630  23.549  1.00  0.00     0.299 C 
BRANCH  14  15
ATOM     15  C   UNL A   1      32.206  22.922  23.893  1.00  0.00     0.007 A 
ATOM     16  C   UNL A   1      32.225  21.845  24.814  1.00  0.00     0.012 A 
ATOM     17  C   UNL A   1      33.438  23.386  23.410  1.00  0.00     0.015 A 
ATOM     18  C   UNL A   1      33.426  21.223  25.210  1.00  0.00     0.026 A 
ATOM     19  C   UNL A   1      34.609  22.764  23.808  1.00  0.00    -0.022 A 
ATOM     20  C   UNL A   1      34.621  21.696  24.704  1.00  0.00     0.040 A 
ATOM     21  C   UNL A   1      36.002  23.033  23.343  1.00  0.00     0.059 C 
ATOM     22  N   UNL A   1      35.921  21.278  24.990  1.00  0.00    -0.374 N 
ATOM     23  C   UNL A   1      36.794  22.327  24.450  1.00  0.00     0.121 C 
ATOM     24  C   UNL A   1      36.281  19.886  24.862  1.00  0.00     0.143 C 
ENDBRANCH  14  15
ENDBRANCH  10  14
ENDBRANCH   4   7
ENDBRANCH   2   3
ENDBRANCH   1   2
BRANCH   1  25
ATOM     25  C   UNL A   1      31.529  31.989  26.844  1.00  0.00     0.023 C 
BRANCH  25  26
ATOM     26  C   UNL A   1      32.757  32.772  27.272  1.00  0.00     0.116 C 
BRANCH  26  27
ATOM     27  N   UNL A   1      32.465  34.160  27.600  1.00  0.00    -0.352 N 
ATOM     28  C   UNL A   1      33.016  34.959  28.575  1.00  0.00     0.251 C 
ATOM     29  H   UNL A   1      31.774  34.590  27.045  1.00  0.00     0.163 HD
ATOM     30  O   UNL A   1      32.536  36.052  28.837  1.00  0.00    -0.269 OA
BRANCH  28  31
ATOM     31  C   UNL A   1      34.182  34.472  29.337  1.00  0.00     0.039 A 
ATOM     32  C   UNL A   1      33.957  33.805  30.543  1.00  0.00     0.014 A 
ATOM     33  C   UNL A   1      35.477  34.617  28.839  1.00  0.00     0.014 A 
ATOM     34  C   UNL A   1      35.023  33.186  31.191  1.00  0.00     0.010 A 
ATOM     35  C   UNL A   1      36.514  33.905  29.420  1.00  0.00     0.010 A 
ATOM     36  C   UNL A   1      36.296  33.181  30.601  1.00  0.00    -0.014 A 
BRANCH  36  37
ATOM     37  C   UNL A   1      37.421  32.426  31.200  1.00  0.00     0.031 A 
ATOM     38  C   UNL A   1      37.907  32.784  32.574  1.00  0.00     0.074 A 
ATOM     39  C   UNL A   1      38.049  31.483  30.473  1.00  0.00     0.049 A 
ATOM     40  N   UNL A   1      38.932  32.317  33.238  1.00  0.00    -0.248 NA
ATOM     41  C   UNL A   1      37.169  33.844  33.281  1.00  0.00     0.031 C 
ATOM     42  C   UNL A   1      37.705  31.100  29.101  1.00  0.00     0.029 A 
ATOM     43  N   UNL A   1      39.114  30.679  30.782  1.00  0.00    -0.354 N 
ATOM     44  C   UNL A   1      38.975  33.042  34.420  1.00  0.00     0.074 A 
ATOM     45  C   UNL A   1      37.916  34.025  34.357  1.00  0.00     0.031 C 
ATOM     46  C   UNL A   1      38.520  30.110  28.702  1.00  0.00     0.029 A 
ATOM     47  C   UNL A   1      39.466  29.816  29.772  1.00  0.00     0.049 A 
ATOM     48  H   UNL A   1      39.583  30.716  31.647  1.00  0.00     0.167 HD
ATOM     49  C   UNL A   1      39.802  32.879  35.479  1.00  0.00     0.037 A 
ATOM     50  C   UNL A   1      40.443  28.891  29.723  1.00  0.00     0.037 A 
ATOM     51  C   UNL A   1      40.822  31.868  35.548  1.00  0.00     0.049 A 
ATOM     52  C   UNL A   1      41.325  28.706  30.926  1.00  0.00     0.074 A 
ATOM     53  C   UNL A   1      41.677  31.572  36.595  1.00  0.00     0.029 A 
ATOM     54  N   UNL A   1      41.117  30.979  34.525  1.00  0.00    -0.354 N 
ATOM     55  N   UNL A   1      41.316  29.351  32.067  1.00  0.00    -0.248 NA
ATOM     56  C   UNL A   1      42.349  27.655  30.839  1.00  0.00     0.031 C 
ATOM     57  C   UNL A   1      42.512  30.526  36.191  1.00  0.00     0.029 A 
ATOM     58  C   UNL A   1      42.148  30.139  34.911  1.00  0.00     0.049 A 
ATOM     59  H   UNL A   1      40.662  30.950  33.652  1.00  0.00     0.167 HD
ATOM     60  C   UNL A   1      42.305  28.767  32.845  1.00  0.00     0.074 A 
ATOM     61  C   UNL A   1      42.889  27.707  32.048  1.00  0.00     0.031 C 
ATOM     62  C   UNL A   1      42.697  29.079  34.105  1.00  0.00     0.037 A 
BRANCH  49  63
ATOM     63  C   UNL A   1      39.624  33.810  36.642  1.00  0.00     0.064 A 
ATOM     64  C   UNL A   1      40.264  35.059  36.690  1.00  0.00     0.173 A 
ATOM     65  C   UNL A   1      38.803  33.454  37.722  1.00  0.00     0.173 A 
ATOM     66  F   UNL A   1      41.075  35.441  35.691  1.00  0.00    -0.203 F 
ATOM     67  C   UNL A   1      40.119  35.898  37.791  1.00  0.00     0.198 A 
ATOM     68  C   UNL A   1      38.634  34.311  38.807  1.00  0.00     0.198 A 
ATOM     69  F   UNL A   1      38.166  32.273  37.728  1.00  0.00    -0.203 F 
ATOM     70  F   UNL A   1      40.792  37.057  37.841  1.00  0.00    -0.200 F 
ATOM     71  C   UNL A   1      39.300  35.526  38.846  1.00  0.00     0.200 A 
ATOM     72  F   UNL A   1      37.833  33.954  39.822  1.00  0.00    -0.200 F 
ATOM     73  F   UNL A   1      39.160  36.335  39.905  1.00  0.00    -0.200 F 
ENDBRANCH  49  63
BRANCH  50  74
ATOM     74  C   UNL A   1      40.602  28.042  28.514  1.00  0.00     0.064 A 
ATOM     75  C   UNL A   1      41.383  28.476  27.434  1.00  0.00     0.173 A 
ATOM     76  C   UNL A   1      39.989  26.786  28.413  1.00  0.00     0.173 A 
ATOM     77  F   UNL A   1      41.978  29.678  27.478  1.00  0.00    -0.203 F 
ATOM     78  C   UNL A   1      41.526  27.695  26.289  1.00  0.00     0.198 A 
ATOM     79  C   UNL A   1      40.154  25.995  27.277  1.00  0.00     0.198 A 
ATOM     80  F   UNL A   1      39.239  26.321  29.422  1.00  0.00    -0.203 F 
ATOM     81  F   UNL A   1      42.244  28.155  25.254  1.00  0.00    -0.200 F 
ATOM     82  C   UNL A   1      40.916  26.453  26.213  1.00  0.00     0.200 A 
ATOM     83  F   UNL A   1      39.574  24.788  27.213  1.00  0.00    -0.200 F 
ATOM     84  F   UNL A   1      41.056  25.702  25.113  1.00  0.00    -0.200 F 
ENDBRANCH  50  74
BRANCH  62  85
ATOM     85  C   UNL A   1      43.774  28.233  34.716  1.00  0.00     0.064 A 
ATOM     86  C   UNL A   1      45.125  28.598  34.647  1.00  0.00     0.173 A 
ATOM     87  C   UNL A   1      43.440  27.064  35.416  1.00  0.00     0.173 A 
ATOM     88  F   UNL A   1      45.495  29.699  33.975  1.00  0.00    -0.203 F 
ATOM     89  C   UNL A   1      46.108  27.809  35.238  1.00  0.00     0.198 A 
ATOM     90  C   UNL A   1      44.423  26.294  36.031  1.00  0.00     0.198 A 
ATOM     91  F   UNL A   1      42.159  26.676  35.515  1.00  0.00    -0.203 F 
ATOM     92  F   UNL A   1      47.399  28.152  35.123  1.00  0.00    -0.200 F 
ATOM     93  C   UNL A   1      45.756  26.664  35.936  1.00  0.00     0.200 A 
ATOM     94  F   UNL A   1      44.078  25.194  36.716  1.00  0.00    -0.200 F 
ATOM     95  F   UNL A   1      46.703  25.910  36.512  1.00  0.00    -0.200 F 
ENDBRANCH  62  85
ENDBRANCH  36  37
ENDBRANCH  28  31
ENDBRANCH  26  27
ENDBRANCH  25  26
ENDBRANCH   1  25
TORSDOF 13
ENDMDL
MODEL 3
REMARK VINA RESULT:     -12.9      0.392      1.781
REMARK SMILES C[C@@H]1[C@H](C(=O)NCCCCNC(=O)c2ccc(-c3c4nc(c(-c5c(F)c(F)c(F)c(F)c5F)c5ccc([nH]5)c(-c5c(F)c(F)c(F)c(F)c5F)c5nc(c(-c6c(F)c(F)c(F)c(F)c6F)c6ccc3[nH]6)C=C5)C=C4)cc2)CC[N@@H+]1Cc1ccc2c(c1)CCN2C
REMARK SMILES IDX 8 1 7 2 6 3 4 4 5 5 3 7 1 8 2 9 79 10 77 11 78 12 80 14
REMARK SMILES IDX 81 15 82 16 86 17 83 18 85 19 84 20 87 21 89 22 88 23 90 24
REMARK SMILES IDX 9 25 10 26 11 27 12 28 13 30 14 31 15 32 76 33 16 34 75 35
REMARK SMILES IDX 17 36 18 37 19 38 69 39 20 40 74 41 68 42 70 43 21 44 73 45
REMARK SMILES IDX 67 46 66 47 22 49 54 50 34 51 53 52 35 53 38 54 52 55 71 56
REMARK SMILES IDX 36 57 37 58 51 60 72 61 39 62 23 63 24 64 32 65 25 66 26 67
REMARK SMILES IDX 30 68 33 69 27 70 28 71 31 72 29 73 55 74 56 75 64 76 57 77
REMARK SMILES IDX 58 78 62 79 65 80 59 81 60 82 63 83 61 84 40 85 41 86 49 87
REMARK SMILES IDX 42 88 43 89 47 90 50 91 44 92 45 93 48 94 46 95
REMARK H PARENT 6 6 79 13 11 29 70 48 38 59
REMARK Flexibility Score: inf
ROOT
ATOM      1  C   UNL A   1      31.764  30.600  26.504  1.00  0.00     0.023 C 
ENDROOT
BRANCH   1   2
ATOM      2  C   UNL A   1      31.414  30.105  25.100  1.00  0.00     0.116 C 
BRANCH   2   3
ATOM      3  N   UNL A   1      32.530  29.413  24.500  1.00  0.00    -0.356 N 
ATOM      4  C   UNL A   1      32.725  28.093  24.269  1.00  0.00     0.229 C 
ATOM      5  O   UNL A   1      33.840  27.775  23.840  1.00  0.00    -0.275 OA
ATOM      6  H   UNL A   1      33.270  29.996  24.212  1.00  0.00     0.163 HD
BRANCH   4   7
ATOM      7  C   UNL A   1      31.656  27.022  24.446  1.00  0.00     0.142 C 
ATOM      8  C   UNL A   1      31.668  26.383  21.874  1.00  0.00     0.076 C 
ATOM      9  C   UNL A   1      31.101  26.193  23.268  1.00  0.00     0.193 C 
ATOM     10  N   UNL A   1      30.951  24.822  23.781  1.00  0.00    -0.328 N 
ATOM     11  C   UNL A   1      31.918  26.007  25.558  1.00  0.00     0.081 C 
ATOM     12  C   UNL A   1      30.922  24.905  25.233  1.00  0.00     0.263 C 
ATOM     13  H   UNL A   1      30.066  24.485  23.401  1.00  0.00     0.348 HD
BRANCH  10  14
ATOM     14  C   UNL A   1      31.581  23.661  23.152  1.00  0.00     0.299 C 
BRANCH  14  15
ATOM     15  C   UNL A   1      32.969  23.204  23.585  1.00  0.00     0.007 A 
ATOM     16  C   UNL A   1      34.119  23.961  23.246  1.00  0.00     0.012 A 
ATOM     17  C   UNL A   1      33.167  21.970  24.220  1.00  0.00     0.015 A 
ATOM     18  C   UNL A   1      35.421  23.523  23.565  1.00  0.00     0.026 A 
ATOM     19  C   UNL A   1      34.451  21.555  24.528  1.00  0.00    -0.022 A 
ATOM     20  C   UNL A   1      35.578  22.309  24.204  1.00  0.00     0.040 A 
ATOM     21  C   UNL A   1      34.872  20.337  25.281  1.00  0.00     0.059 C 
ATOM     22  N   UNL A   1      36.756  21.655  24.567  1.00  0.00    -0.374 N 
ATOM     23  C   UNL A   1      36.355  20.282  24.893  1.00  0.00     0.121 C 
ATOM     24  C   UNL A   1      37.750  22.337  25.362  1.00  0.00     0.143 C 
ENDBRANCH  14  15
ENDBRANCH  10  14
ENDBRANCH   4   7
ENDBRANCH   2   3
ENDBRANCH   1   2
BRANCH   1  25
ATOM     25  C   UNL A   1      31.540  32.084  26.746  1.00  0.00     0.023 C 
BRANCH  25  26
ATOM     26  C   UNL A   1      32.734  32.817  27.331  1.00  0.00     0.116 C 
BRANCH  26  27
ATOM     27  N   UNL A   1      32.448  34.207  27.657  1.00  0.00    -0.352 N 
ATOM     28  C   UNL A   1      33.011  35.007  28.624  1.00  0.00     0.251 C 
ATOM     29  H   UNL A   1      31.753  34.636  27.107  1.00  0.00     0.163 HD
ATOM     30  O   UNL A   1      32.535  36.103  28.887  1.00  0.00    -0.269 OA
BRANCH  28  31
ATOM     31  C   UNL A   1      34.182  34.520  29.378  1.00  0.00     0.039 A 
ATOM     32  C   UNL A   1      33.968  33.890  30.606  1.00  0.00     0.014 A 
ATOM     33  C   UNL A   1      35.469  34.627  28.851  1.00  0.00     0.014 A 
ATOM     34  C   UNL A   1      35.035  33.269  31.251  1.00  0.00     0.010 A 
ATOM     35  C   UNL A   1      36.504  33.911  29.432  1.00  0.00     0.010 A 
ATOM     36  C   UNL A   1      36.296  33.225  30.637  1.00  0.00    -0.014 A 
BRANCH  36  37
ATOM     37  C   UNL A   1      37.419  32.466  31.235  1.00  0.00     0.031 A 
ATOM     38  C   UNL A   1      37.912  32.826  32.607  1.00  0.00     0.074 A 
ATOM     39  C   UNL A   1      38.038  31.516  30.510  1.00  0.00     0.049 A 
ATOM     40  N   UNL A   1      38.936  32.355  33.269  1.00  0.00    -0.248 NA
ATOM     41  C   UNL A   1      37.181  33.893  33.312  1.00  0.00     0.031 C 
ATOM     42  C   UNL A   1      37.688  31.130  29.141  1.00  0.00     0.029 A 
ATOM     43  N   UNL A   1      39.100  30.706  30.819  1.00  0.00    -0.354 N 
ATOM     44  C   UNL A   1      38.987  33.085  34.448  1.00  0.00     0.074 A 
ATOM     45  C   UNL A   1      37.934  34.073  34.384  1.00  0.00     0.031 C 
ATOM     46  C   UNL A   1      38.496  30.133  28.743  1.00  0.00     0.029 A 
ATOM     47  C   UNL A   1      39.443  29.838  29.812  1.00  0.00     0.049 A 
ATOM     48  H   UNL A   1      39.572  30.744  31.683  1.00  0.00     0.167 HD
ATOM     49  C   UNL A   1      39.816  32.922  35.505  1.00  0.00     0.037 A 
ATOM     50  C   UNL A   1      40.415  28.907  29.763  1.00  0.00     0.037 A 
ATOM     51  C   UNL A   1      40.831  31.905  35.575  1.00  0.00     0.049 A 
ATOM     52  C   UNL A   1      41.300  28.722  30.964  1.00  0.00     0.074 A 
ATOM     53  C   UNL A   1      41.687  31.608  36.620  1.00  0.00     0.029 A 
ATOM     54  N   UNL A   1      41.117  31.010  34.554  1.00  0.00    -0.354 N 
ATOM     55  N   UNL A   1      41.298  29.371  32.102  1.00  0.00    -0.248 NA
ATOM     56  C   UNL A   1      42.318  27.665  30.877  1.00  0.00     0.031 C 
ATOM     57  C   UNL A   1      42.514  30.555  36.218  1.00  0.00     0.029 A 
ATOM     58  C   UNL A   1      42.144  30.165  34.940  1.00  0.00     0.049 A 
ATOM     59  H   UNL A   1      40.659  30.981  33.683  1.00  0.00     0.167 HD
ATOM     60  C   UNL A   1      42.287  28.784  32.879  1.00  0.00     0.074 A 
ATOM     61  C   UNL A   1      42.861  27.718  32.085  1.00  0.00     0.031 C 
ATOM     62  C   UNL A   1      42.684  29.099  34.136  1.00  0.00     0.037 A 
BRANCH  49  63
ATOM     63  C   UNL A   1      39.647  33.858  36.665  1.00  0.00     0.064 A 
ATOM     64  C   UNL A   1      40.285  35.109  36.700  1.00  0.00     0.173 A 
ATOM     65  C   UNL A   1      38.837  33.506  37.754  1.00  0.00     0.173 A 
ATOM     66  F   UNL A   1      41.086  35.487  35.691  1.00  0.00    -0.203 F 
ATOM     67  C   UNL A   1      40.149  35.953  37.798  1.00  0.00     0.198 A 
ATOM     68  C   UNL A   1      38.677  34.368  38.836  1.00  0.00     0.198 A 
ATOM     69  F   UNL A   1      38.203  32.324  37.772  1.00  0.00    -0.203 F 
ATOM     70  F   UNL A   1      40.819  37.113  37.836  1.00  0.00    -0.200 F 
ATOM     71  C   UNL A   1      39.340  35.585  38.863  1.00  0.00     0.200 A 
ATOM     72  F   UNL A   1      37.887  34.015  39.861  1.00  0.00    -0.200 F 
ATOM     73  F   UNL A   1      39.210  36.399  39.919  1.00  0.00    -0.200 F 
ENDBRANCH  49  63
BRANCH  50  74
ATOM     74  C   UNL A   1      40.565  28.052  28.557  1.00  0.00     0.064 A 
ATOM     75  C   UNL A   1      39.923  26.808  28.479  1.00  0.00     0.173 A 
ATOM     76  C   UNL A   1      41.341  28.455  27.462  1.00  0.00     0.173 A 
ATOM     77  F   UNL A   1      39.182  26.371  29.508  1.00  0.00    -0.203 F 
ATOM     78  C   UNL A   1      40.070  25.991  27.360  1.00  0.00     0.198 A 
ATOM     79  C   UNL A   1      41.466  27.648  26.333  1.00  0.00     0.198 A 
ATOM     80  F   UNL A   1      41.969  29.640  27.483  1.00  0.00    -0.203 F 
ATOM     81  F   UNL A   1      39.479  24.787  27.331  1.00  0.00    -0.200 F 
ATOM     82  C   UNL A   1      40.837  26.413  26.286  1.00  0.00     0.200 A 
ATOM     83  F   UNL A   1      42.197  28.066  25.290  1.00  0.00    -0.200 F 
ATOM     84  F   UNL A   1      40.975  25.628  25.210  1.00  0.00    -0.200 F 
ENDBRANCH  50  74
BRANCH  62  85
ATOM     85  C   UNL A   1      43.759  28.249  34.747  1.00  0.00     0.064 A 
ATOM     86  C   UNL A   1      43.459  27.067  35.439  1.00  0.00     0.173 A 
ATOM     87  C   UNL A   1      45.108  28.604  34.598  1.00  0.00     0.173 A 
ATOM     88  F   UNL A   1      42.183  26.695  35.620  1.00  0.00    -0.203 F 
ATOM     89  C   UNL A   1      44.472  26.282  35.981  1.00  0.00     0.198 A 
ATOM     90  C   UNL A   1      46.119  27.800  35.116  1.00  0.00     0.198 A 
ATOM     91  F   UNL A   1      45.444  29.722  33.939  1.00  0.00    -0.203 F 
ATOM     92  F   UNL A   1      44.163  25.180  36.677  1.00  0.00    -0.200 F 
ATOM     93  C   UNL A   1      45.801  26.644  35.812  1.00  0.00     0.200 A 
ATOM     94  F   UNL A   1      47.403  28.146  34.940  1.00  0.00    -0.200 F 
ATOM     95  F   UNL A   1      46.775  25.882  36.327  1.00  0.00    -0.200 F 
ENDBRANCH  62  85
ENDBRANCH  36  37
ENDBRANCH  28  31
ENDBRANCH  26  27
ENDBRANCH  25  26
ENDBRANCH   1  25
TORSDOF 13
ENDMDL
