MODEL 1
REMARK VINA RESULT:     -13.0      0.000      0.000
REMARK SMILES Nc1nonc1C(=O)N1[C@@H]2CC[C@H]1C[C@H](CC(=O)NCCCCNC(=O)c1ccc(-c3c4nc(c(-c5c(F)c(F)c(F)c(F)c5F)c5ccc([nH]5)c(-c5c(F)c(F)c(F)c(F)c5F)c5nc(c(-c6c(F)c(F)c(F)c(F)c6F)c6ccc3[nH]6)C=C5)C=C4)cc1)C2
REMARK SMILES IDX 20 1 19 2 17 3 18 4 16 6 15 7 9 8 10 9 13 10 11 11 90 12
REMARK SMILES IDX 12 13 14 14 7 15 8 16 6 17 2 18 3 19 4 20 5 21 1 22 21 25
REMARK SMILES IDX 22 26 23 27 24 28 25 29 26 31 27 32 28 33 89 34 29 35 88 36
REMARK SMILES IDX 30 37 31 38 32 39 82 40 33 41 87 42 81 43 83 44 34 45 86 46
REMARK SMILES IDX 80 47 79 48 35 50 67 51 47 52 66 53 48 54 51 55 65 56 84 57
REMARK SMILES IDX 49 58 50 59 64 61 85 62 52 63 36 64 37 65 45 66 38 67 39 68
REMARK SMILES IDX 43 69 46 70 40 71 41 72 44 73 42 74 68 75 69 76 77 77 70 78
REMARK SMILES IDX 71 79 75 80 78 81 72 82 73 83 76 84 74 85 53 86 54 87 62 88
REMARK SMILES IDX 55 89 56 90 60 91 63 92 57 93 58 94 61 95 59 96
REMARK H PARENT 19 5 1 23 1 24 24 30 83 49 51 60
REMARK Flexibility Score: inf
ROOT
ATOM      1  C   UNL A   1      33.244  30.026  26.551  1.00  0.00     0.116 C 
ENDROOT
BRANCH   1   2
ATOM      2  N   UNL A   1      33.399  29.672  25.149  1.00  0.00    -0.356 N 
ATOM      3  C   UNL A   1      33.845  28.530  24.548  1.00  0.00     0.220 C 
ATOM      4  O   UNL A   1      33.962  28.535  23.321  1.00  0.00    -0.275 OA
ATOM      5  H   UNL A   1      33.136  30.383  24.521  1.00  0.00     0.163 HD
BRANCH   3   6
ATOM      6  C   UNL A   1      34.192  27.284  25.351  1.00  0.00     0.103 C 
BRANCH   6   7
ATOM      7  C   UNL A   1      33.073  26.212  25.378  1.00  0.00     0.002 C 
ATOM      8  N   UNL A   1      30.396  26.570  24.417  1.00  0.00    -0.331 N 
ATOM      9  C   UNL A   1      31.150  25.467  23.832  1.00  0.00     0.086 C 
ATOM     10  C   UNL A   1      30.484  26.331  25.841  1.00  0.00     0.086 C 
ATOM     11  C   UNL A   1      30.814  24.246  24.715  1.00  0.00     0.027 C 
ATOM     12  C   UNL A   1      32.632  25.858  23.935  1.00  0.00     0.029 C 
ATOM     13  C   UNL A   1      30.233  24.839  25.999  1.00  0.00     0.027 C 
ATOM     14  C   UNL A   1      31.907  26.687  26.266  1.00  0.00     0.029 C 
BRANCH   8  15
ATOM     15  C   UNL A   1      29.165  26.898  23.847  1.00  0.00     0.280 C 
ATOM     16  O   UNL A   1      28.166  26.213  24.068  1.00  0.00    -0.267 OA
BRANCH  15  17
ATOM     17  C   UNL A   1      29.170  28.030  22.915  1.00  0.00     0.216 A 
ATOM     18  C   UNL A   1      28.149  28.911  22.468  1.00  0.00     0.201 A 
ATOM     19  N   UNL A   1      28.667  29.818  21.645  1.00  0.00    -0.032 NA
ATOM     20  O   UNL A   1      30.008  29.494  21.542  1.00  0.00    -0.242 OA
ATOM     21  N   UNL A   1      30.317  28.388  22.314  1.00  0.00    -0.042 NA
BRANCH  18  22
ATOM     22  N   UNL A   1      26.837  28.878  22.757  1.00  0.00    -0.379 N 
ATOM     23  H   UNL A   1      26.247  29.605  22.452  1.00  0.00     0.158 HD
ATOM     24  H   UNL A   1      26.466  28.128  23.276  1.00  0.00     0.158 HD
ENDBRANCH  18  22
ENDBRANCH  15  17
ENDBRANCH   8  15
ENDBRANCH   6   7
ENDBRANCH   3   6
ENDBRANCH   1   2
BRANCH   1  25
ATOM     25  C   UNL A   1      31.816  30.510  26.845  1.00  0.00     0.023 C 
BRANCH  25  26
ATOM     26  C   UNL A   1      31.587  32.005  26.776  1.00  0.00     0.023 C 
BRANCH  26  27
ATOM     27  C   UNL A   1      32.738  32.825  27.316  1.00  0.00     0.116 C 
BRANCH  27  28
ATOM     28  N   UNL A   1      32.384  34.201  27.651  1.00  0.00    -0.352 N 
ATOM     29  C   UNL A   1      32.976  35.029  28.583  1.00  0.00     0.251 C 
ATOM     30  H   UNL A   1      31.628  34.585  27.151  1.00  0.00     0.163 HD
ATOM     31  O   UNL A   1      32.530  36.140  28.812  1.00  0.00    -0.269 OA
BRANCH  29  32
ATOM     32  C   UNL A   1      34.134  34.509  29.341  1.00  0.00     0.039 A 
ATOM     33  C   UNL A   1      33.909  33.789  30.515  1.00  0.00     0.014 A 
ATOM     34  C   UNL A   1      35.423  34.633  28.818  1.00  0.00     0.014 A 
ATOM     35  C   UNL A   1      34.971  33.112  31.114  1.00  0.00     0.010 A 
ATOM     36  C   UNL A   1      36.447  33.862  29.344  1.00  0.00     0.010 A 
ATOM     37  C   UNL A   1      36.236  33.103  30.504  1.00  0.00    -0.014 A 
BRANCH  37  38
ATOM     38  C   UNL A   1      37.375  32.346  31.077  1.00  0.00     0.031 A 
ATOM     39  C   UNL A   1      37.866  32.692  32.456  1.00  0.00     0.074 A 
ATOM     40  C   UNL A   1      38.014  31.418  30.338  1.00  0.00     0.049 A 
ATOM     41  N   UNL A   1      38.911  32.243  33.103  1.00  0.00    -0.248 NA
ATOM     42  C   UNL A   1      37.106  33.719  33.188  1.00  0.00     0.031 C 
ATOM     43  C   UNL A   1      37.672  31.040  28.966  1.00  0.00     0.029 A 
ATOM     44  N   UNL A   1      39.094  30.628  30.640  1.00  0.00    -0.354 N 
ATOM     45  C   UNL A   1      38.944  32.950  34.297  1.00  0.00     0.074 A 
ATOM     46  C   UNL A   1      37.863  33.910  34.256  1.00  0.00     0.031 C 
ATOM     47  C   UNL A   1      38.505  30.067  28.556  1.00  0.00     0.029 A 
ATOM     48  C   UNL A   1      39.457  29.777  29.624  1.00  0.00     0.049 A 
ATOM     49  H   UNL A   1      39.566  30.666  31.503  1.00  0.00     0.167 HD
ATOM     50  C   UNL A   1      39.776  32.790  35.352  1.00  0.00     0.037 A 
ATOM     51  C   UNL A   1      40.446  28.865  29.568  1.00  0.00     0.037 A 
ATOM     52  C   UNL A   1      40.814  31.799  35.410  1.00  0.00     0.049 A 
ATOM     53  C   UNL A   1      41.337  28.681  30.768  1.00  0.00     0.074 A 
ATOM     54  C   UNL A   1      41.679  31.513  36.451  1.00  0.00     0.029 A 
ATOM     55  N   UNL A   1      41.115  30.918  34.381  1.00  0.00    -0.354 N 
ATOM     56  N   UNL A   1      41.321  29.315  31.915  1.00  0.00    -0.248 NA
ATOM     57  C   UNL A   1      42.374  27.645  30.669  1.00  0.00     0.031 C 
ATOM     58  C   UNL A   1      42.522  30.474  36.040  1.00  0.00     0.029 A 
ATOM     59  C   UNL A   1      42.155  30.088  34.761  1.00  0.00     0.049 A 
ATOM     60  H   UNL A   1      40.657  30.889  33.510  1.00  0.00     0.167 HD
ATOM     61  C   UNL A   1      42.319  28.735  32.686  1.00  0.00     0.074 A 
ATOM     62  C   UNL A   1      42.914  27.690  31.879  1.00  0.00     0.031 C 
ATOM     63  C   UNL A   1      42.712  29.039  33.947  1.00  0.00     0.037 A 
BRANCH  50  64
ATOM     64  C   UNL A   1      39.573  33.694  36.533  1.00  0.00     0.064 A 
ATOM     65  C   UNL A   1      40.165  34.965  36.594  1.00  0.00     0.173 A 
ATOM     66  C   UNL A   1      38.773  33.290  37.612  1.00  0.00     0.173 A 
ATOM     67  F   UNL A   1      40.955  35.389  35.596  1.00  0.00    -0.203 F 
ATOM     68  C   UNL A   1      39.994  35.784  37.706  1.00  0.00     0.198 A 
ATOM     69  C   UNL A   1      38.577  34.126  38.709  1.00  0.00     0.198 A 
ATOM     70  F   UNL A   1      38.184  32.085  37.605  1.00  0.00    -0.203 F 
ATOM     71  F   UNL A   1      40.620  36.966  37.767  1.00  0.00    -0.200 F 
ATOM     72  C   UNL A   1      39.195  35.366  38.760  1.00  0.00     0.200 A 
ATOM     73  F   UNL A   1      37.798  33.725  39.723  1.00  0.00    -0.200 F 
ATOM     74  F   UNL A   1      39.029  36.156  39.829  1.00  0.00    -0.200 F 
ENDBRANCH  50  64
BRANCH  51  75
ATOM     75  C   UNL A   1      40.620  28.022  28.357  1.00  0.00     0.064 A 
ATOM     76  C   UNL A   1      40.023  26.755  28.275  1.00  0.00     0.173 A 
ATOM     77  C   UNL A   1      41.393  28.449  27.268  1.00  0.00     0.173 A 
ATOM     78  F   UNL A   1      39.290  26.295  29.299  1.00  0.00    -0.203 F 
ATOM     79  C   UNL A   1      40.213  25.938  27.163  1.00  0.00     0.198 A 
ATOM     80  C   UNL A   1      41.561  27.641  26.144  1.00  0.00     0.198 A 
ATOM     81  F   UNL A   1      41.980  29.654  27.292  1.00  0.00    -0.203 F 
ATOM     82  F   UNL A   1      39.671  24.713  27.134  1.00  0.00    -0.200 F 
ATOM     83  C   UNL A   1      40.979  26.383  26.096  1.00  0.00     0.200 A 
ATOM     84  F   UNL A   1      42.291  28.079  25.109  1.00  0.00    -0.200 F 
ATOM     85  F   UNL A   1      41.164  25.597  25.028  1.00  0.00    -0.200 F 
ENDBRANCH  51  75
BRANCH  63  86
ATOM     86  C   UNL A   1      43.797  28.199  34.548  1.00  0.00     0.064 A 
ATOM     87  C   UNL A   1      45.144  28.586  34.491  1.00  0.00     0.173 A 
ATOM     88  C   UNL A   1      43.479  27.015  35.229  1.00  0.00     0.173 A 
ATOM     89  F   UNL A   1      45.498  29.704  33.840  1.00  0.00    -0.203 F 
ATOM     90  C   UNL A   1      46.136  27.803  35.075  1.00  0.00     0.198 A 
ATOM     91  C   UNL A   1      44.470  26.249  35.835  1.00  0.00     0.198 A 
ATOM     92  F   UNL A   1      42.203  26.607  35.318  1.00  0.00    -0.203 F 
ATOM     93  F   UNL A   1      47.421  28.167  34.970  1.00  0.00    -0.200 F 
ATOM     94  C   UNL A   1      45.798  26.640  35.751  1.00  0.00     0.200 A 
ATOM     95  F   UNL A   1      44.141  25.132  36.498  1.00  0.00    -0.200 F 
ATOM     96  F   UNL A   1      46.754  25.891  36.317  1.00  0.00    -0.200 F 
ENDBRANCH  63  86
ENDBRANCH  37  38
ENDBRANCH  29  32
ENDBRANCH  27  28
ENDBRANCH  26  27
ENDBRANCH  25  26
ENDBRANCH   1  25
TORSDOF 15
ENDMDL
MODEL 2
REMARK VINA RESULT:     -12.8      1.681      2.586
REMARK SMILES Nc1nonc1C(=O)N1[C@@H]2CC[C@H]1C[C@H](CC(=O)NCCCCNC(=O)c1ccc(-c3c4nc(c(-c5c(F)c(F)c(F)c(F)c5F)c5ccc([nH]5)c(-c5c(F)c(F)c(F)c(F)c5F)c5nc(c(-c6c(F)c(F)c(F)c(F)c6F)c6ccc3[nH]6)C=C5)C=C4)cc1)C2
REMARK SMILES IDX 20 1 19 2 17 3 18 4 16 6 15 7 9 8 10 9 13 10 11 11 90 12
REMARK SMILES IDX 12 13 14 14 7 15 8 16 6 17 2 18 3 19 4 20 5 21 1 22 21 25
REMARK SMILES IDX 22 26 23 27 24 28 25 29 26 31 27 32 28 33 89 34 29 35 88 36
REMARK SMILES IDX 30 37 31 38 32 39 82 40 33 41 87 42 81 43 83 44 34 45 86 46
REMARK SMILES IDX 80 47 79 48 35 50 67 51 47 52 66 53 48 54 51 55 65 56 84 57
REMARK SMILES IDX 49 58 50 59 64 61 85 62 52 63 36 64 37 65 45 66 38 67 39 68
REMARK SMILES IDX 43 69 46 70 40 71 41 72 44 73 42 74 68 75 69 76 77 77 70 78
REMARK SMILES IDX 71 79 75 80 78 81 72 82 73 83 76 84 74 85 53 86 54 87 62 88
REMARK SMILES IDX 55 89 56 90 60 91 63 92 57 93 58 94 61 95 59 96
REMARK H PARENT 19 5 1 23 1 24 24 30 83 49 51 60
REMARK Flexibility Score: inf
ROOT
ATOM      1  C   UNL A   1      34.438  31.919  28.159  1.00  0.00     0.116 C 
ENDROOT
BRANCH   1   2
ATOM      2  N   UNL A   1      33.194  31.821  27.411  1.00  0.00    -0.356 N 
ATOM      3  C   UNL A   1      32.477  30.741  26.985  1.00  0.00     0.220 C 
ATOM      4  O   UNL A   1      31.488  30.950  26.279  1.00  0.00    -0.275 OA
ATOM      5  H   UNL A   1      32.798  32.691  27.169  1.00  0.00     0.163 HD
BRANCH   3   6
ATOM      6  C   UNL A   1      32.871  29.318  27.358  1.00  0.00     0.103 C 
BRANCH   6   7
ATOM      7  C   UNL A   1      32.820  28.314  26.179  1.00  0.00     0.002 C 
ATOM      8  N   UNL A   1      30.999  28.427  23.967  1.00  0.00    -0.331 N 
ATOM      9  C   UNL A   1      32.419  28.424  23.635  1.00  0.00     0.086 C 
ATOM     10  C   UNL A   1      30.839  27.258  24.804  1.00  0.00     0.086 C 
ATOM     11  C   UNL A   1      32.777  26.935  23.439  1.00  0.00     0.027 C 
ATOM     12  C   UNL A   1      33.144  29.033  24.844  1.00  0.00     0.029 C 
ATOM     13  C   UNL A   1      31.633  26.167  24.101  1.00  0.00     0.027 C 
ATOM     14  C   UNL A   1      31.460  27.590  26.159  1.00  0.00     0.029 C 
BRANCH   8  15
ATOM     15  C   UNL A   1      30.085  28.672  22.941  1.00  0.00     0.280 C 
ATOM     16  O   UNL A   1      30.203  28.118  21.848  1.00  0.00    -0.267 OA
BRANCH  15  17
ATOM     17  C   UNL A   1      29.063  29.684  23.220  1.00  0.00     0.216 A 
ATOM     18  C   UNL A   1      27.642  29.648  23.190  1.00  0.00     0.201 A 
ATOM     19  N   UNL A   1      27.155  30.824  23.575  1.00  0.00    -0.032 NA
ATOM     20  O   UNL A   1      28.262  31.617  23.816  1.00  0.00    -0.242 OA
ATOM     21  N   UNL A   1      29.437  30.921  23.588  1.00  0.00    -0.042 NA
BRANCH  18  22
ATOM     22  N   UNL A   1      26.844  28.635  22.811  1.00  0.00    -0.379 N 
ATOM     23  H   UNL A   1      26.330  28.136  23.485  1.00  0.00     0.158 HD
ATOM     24  H   UNL A   1      26.776  28.393  21.859  1.00  0.00     0.158 HD
ENDBRANCH  18  22
ENDBRANCH  15  17
ENDBRANCH   8  15
ENDBRANCH   6   7
ENDBRANCH   3   6
ENDBRANCH   1   2
BRANCH   1  25
ATOM     25  C   UNL A   1      34.450  33.168  29.052  1.00  0.00     0.023 C 
BRANCH  25  26
ATOM     26  C   UNL A   1      33.363  34.189  28.793  1.00  0.00     0.023 C 
BRANCH  26  27
ATOM     27  C   UNL A   1      33.636  35.543  29.412  1.00  0.00     0.116 C 
BRANCH  27  28
ATOM     28  N   UNL A   1      32.622  35.976  30.368  1.00  0.00    -0.352 N 
ATOM     29  C   UNL A   1      32.612  35.796  31.736  1.00  0.00     0.251 C 
ATOM     30  H   UNL A   1      31.850  36.456  29.990  1.00  0.00     0.163 HD
ATOM     31  O   UNL A   1      31.659  36.150  32.410  1.00  0.00    -0.269 OA
BRANCH  29  32
ATOM     32  C   UNL A   1      33.761  35.105  32.358  1.00  0.00     0.039 A 
ATOM     33  C   UNL A   1      33.598  33.801  32.826  1.00  0.00     0.014 A 
ATOM     34  C   UNL A   1      35.020  35.710  32.358  1.00  0.00     0.014 A 
ATOM     35  C   UNL A   1      34.721  33.068  33.209  1.00  0.00     0.010 A 
ATOM     36  C   UNL A   1      36.143  34.941  32.622  1.00  0.00     0.010 A 
ATOM     37  C   UNL A   1      36.006  33.617  33.062  1.00  0.00    -0.014 A 
BRANCH  37  38
ATOM     38  C   UNL A   1      37.228  32.849  33.400  1.00  0.00     0.031 A 
ATOM     39  C   UNL A   1      37.937  33.133  34.697  1.00  0.00     0.074 A 
ATOM     40  C   UNL A   1      37.742  31.968  32.520  1.00  0.00     0.049 A 
ATOM     41  N   UNL A   1      39.076  32.667  35.139  1.00  0.00    -0.248 NA
ATOM     42  C   UNL A   1      37.301  34.111  35.595  1.00  0.00     0.031 C 
ATOM     43  C   UNL A   1      37.182  31.654  31.204  1.00  0.00     0.029 A 
ATOM     44  N   UNL A   1      38.862  31.180  32.600  1.00  0.00    -0.354 N 
ATOM     45  C   UNL A   1      39.301  33.315  36.347  1.00  0.00     0.074 A 
ATOM     46  C   UNL A   1      38.222  34.259  36.533  1.00  0.00     0.031 C 
ATOM     47  C   UNL A   1      37.942  30.715  30.615  1.00  0.00     0.029 A 
ATOM     48  C   UNL A   1      39.059  30.386  31.496  1.00  0.00     0.049 A 
ATOM     49  H   UNL A   1      39.469  31.182  33.375  1.00  0.00     0.167 HD
ATOM     50  C   UNL A   1      40.296  33.115  37.242  1.00  0.00     0.037 A 
ATOM     51  C   UNL A   1      40.031  29.493  31.232  1.00  0.00     0.037 A 
ATOM     52  C   UNL A   1      41.335  32.137  37.078  1.00  0.00     0.049 A 
ATOM     53  C   UNL A   1      41.108  29.262  32.258  1.00  0.00     0.074 A 
ATOM     54  C   UNL A   1      42.361  31.811  37.947  1.00  0.00     0.029 A 
ATOM     55  N   UNL A   1      41.469  31.313  35.970  1.00  0.00    -0.354 N 
ATOM     56  N   UNL A   1      41.277  29.838  33.424  1.00  0.00    -0.248 NA
ATOM     57  C   UNL A   1      42.121  28.248  31.938  1.00  0.00     0.031 C 
ATOM     58  C   UNL A   1      43.132  30.807  37.351  1.00  0.00     0.029 A 
ATOM     59  C   UNL A   1      42.562  30.480  36.131  1.00  0.00     0.049 A 
ATOM     60  H   UNL A   1      40.874  31.320  35.185  1.00  0.00     0.167 HD
ATOM     61  C   UNL A   1      42.391  29.234  33.990  1.00  0.00     0.074 A 
ATOM     62  C   UNL A   1      42.852  28.239  33.044  1.00  0.00     0.031 C 
ATOM     63  C   UNL A   1      42.984  29.481  35.184  1.00  0.00     0.037 A 
BRANCH  50  64
ATOM     64  C   UNL A   1      40.284  33.955  38.485  1.00  0.00     0.064 A 
ATOM     65  C   UNL A   1      41.030  35.140  38.575  1.00  0.00     0.173 A 
ATOM     66  C   UNL A   1      39.514  33.578  39.595  1.00  0.00     0.173 A 
ATOM     67  F   UNL A   1      41.798  35.534  37.548  1.00  0.00    -0.203 F 
ATOM     68  C   UNL A   1      41.035  35.898  39.743  1.00  0.00     0.198 A 
ATOM     69  C   UNL A   1      39.496  34.356  40.750  1.00  0.00     0.198 A 
ATOM     70  F   UNL A   1      38.783  32.454  39.562  1.00  0.00    -0.203 F 
ATOM     71  F   UNL A   1      41.804  36.992  39.826  1.00  0.00    -0.200 F 
ATOM     72  C   UNL A   1      40.263  35.509  40.827  1.00  0.00     0.200 A 
ATOM     73  F   UNL A   1      38.742  33.983  41.794  1.00  0.00    -0.200 F 
ATOM     74  F   UNL A   1      40.266  36.240  41.950  1.00  0.00    -0.200 F 
ENDBRANCH  50  64
BRANCH  51  75
ATOM     75  C   UNL A   1      40.009  28.713  29.966  1.00  0.00     0.064 A 
ATOM     76  C   UNL A   1      39.412  27.444  29.918  1.00  0.00     0.173 A 
ATOM     77  C   UNL A   1      40.591  29.204  28.790  1.00  0.00     0.173 A 
ATOM     78  F   UNL A   1      38.859  26.923  31.023  1.00  0.00    -0.203 F 
ATOM     79  C   UNL A   1      39.422  26.686  28.749  1.00  0.00     0.198 A 
ATOM     80  C   UNL A   1      40.577  28.456  27.613  1.00  0.00     0.198 A 
ATOM     81  F   UNL A   1      41.168  30.415  28.780  1.00  0.00    -0.203 F 
ATOM     82  F   UNL A   1      38.889  25.458  28.746  1.00  0.00    -0.200 F 
ATOM     83  C   UNL A   1      40.001  27.194  27.596  1.00  0.00     0.200 A 
ATOM     84  F   UNL A   1      41.126  28.955  26.497  1.00  0.00    -0.200 F 
ATOM     85  F   UNL A   1      40.013  26.465  26.473  1.00  0.00    -0.200 F 
ENDBRANCH  51  75
BRANCH  63  86
ATOM     86  C   UNL A   1      44.159  28.628  35.555  1.00  0.00     0.064 A 
ATOM     87  C   UNL A   1      44.003  27.430  36.267  1.00  0.00     0.173 A 
ATOM     88  C   UNL A   1      45.452  28.995  35.154  1.00  0.00     0.173 A 
ATOM     89  F   UNL A   1      42.787  27.045  36.682  1.00  0.00    -0.203 F 
ATOM     90  C   UNL A   1      45.105  26.640  36.584  1.00  0.00     0.198 A 
ATOM     91  C   UNL A   1      46.548  28.190  35.449  1.00  0.00     0.198 A 
ATOM     92  F   UNL A   1      45.651  30.129  34.465  1.00  0.00    -0.203 F 
ATOM     93  F   UNL A   1      44.940  25.522  37.302  1.00  0.00    -0.200 F 
ATOM     94  C   UNL A   1      46.374  27.017  36.170  1.00  0.00     0.200 A 
ATOM     95  F   UNL A   1      47.772  28.549  35.038  1.00  0.00    -0.200 F 
ATOM     96  F   UNL A   1      47.433  26.253  36.471  1.00  0.00    -0.200 F 
ENDBRANCH  63  86
ENDBRANCH  37  38
ENDBRANCH  29  32
ENDBRANCH  27  28
ENDBRANCH  26  27
ENDBRANCH  25  26
ENDBRANCH   1  25
TORSDOF 15
ENDMDL
MODEL 3
REMARK VINA RESULT:     -12.8      1.724      2.623
REMARK SMILES Nc1nonc1C(=O)N1[C@@H]2CC[C@H]1C[C@H](CC(=O)NCCCCNC(=O)c1ccc(-c3c4nc(c(-c5c(F)c(F)c(F)c(F)c5F)c5ccc([nH]5)c(-c5c(F)c(F)c(F)c(F)c5F)c5nc(c(-c6c(F)c(F)c(F)c(F)c6F)c6ccc3[nH]6)C=C5)C=C4)cc1)C2
REMARK SMILES IDX 20 1 19 2 17 3 18 4 16 6 15 7 9 8 10 9 13 10 11 11 90 12
REMARK SMILES IDX 12 13 14 14 7 15 8 16 6 17 2 18 3 19 4 20 5 21 1 22 21 25
REMARK SMILES IDX 22 26 23 27 24 28 25 29 26 31 27 32 28 33 89 34 29 35 88 36
REMARK SMILES IDX 30 37 31 38 32 39 82 40 33 41 87 42 81 43 83 44 34 45 86 46
REMARK SMILES IDX 80 47 79 48 35 50 67 51 47 52 66 53 48 54 51 55 65 56 84 57
REMARK SMILES IDX 49 58 50 59 64 61 85 62 52 63 36 64 37 65 45 66 38 67 39 68
REMARK SMILES IDX 43 69 46 70 40 71 41 72 44 73 42 74 68 75 69 76 77 77 70 78
REMARK SMILES IDX 71 79 75 80 78 81 72 82 73 83 76 84 74 85 53 86 54 87 62 88
REMARK SMILES IDX 55 89 56 90 60 91 63 92 57 93 58 94 61 95 59 96
REMARK H PARENT 19 5 1 23 1 24 24 30 83 49 51 60
REMARK Flexibility Score: inf
ROOT
ATOM      1  C   UNL A   1      34.932  32.676  27.652  1.00  0.00     0.116 C 
ENDROOT
BRANCH   1   2
ATOM      2  N   UNL A   1      35.540  31.375  27.885  1.00  0.00    -0.356 N 
ATOM      3  C   UNL A   1      35.083  30.109  27.658  1.00  0.00     0.220 C 
ATOM      4  O   UNL A   1      35.781  29.168  28.041  1.00  0.00    -0.275 OA
ATOM      5  H   UNL A   1      36.443  31.415  28.276  1.00  0.00     0.163 HD
BRANCH   3   6
ATOM      6  C   UNL A   1      33.756  29.848  26.958  1.00  0.00     0.103 C 
BRANCH   6   7
ATOM      7  C   UNL A   1      33.444  28.349  26.722  1.00  0.00     0.002 C 
ATOM      8  N   UNL A   1      31.491  27.319  24.893  1.00  0.00    -0.331 N 
ATOM      9  C   UNL A   1      32.859  26.848  24.710  1.00  0.00     0.086 C 
ATOM     10  C   UNL A   1      31.210  27.028  26.281  1.00  0.00     0.086 C 
ATOM     11  C   UNL A   1      32.949  25.557  25.552  1.00  0.00     0.027 C 
ATOM     12  C   UNL A   1      33.772  27.955  25.259  1.00  0.00     0.029 C 
ATOM     13  C   UNL A   1      31.752  25.624  26.500  1.00  0.00     0.027 C 
ATOM     14  C   UNL A   1      31.986  28.044  27.117  1.00  0.00     0.029 C 
BRANCH   8  15
ATOM     15  C   UNL A   1      30.549  26.996  23.914  1.00  0.00     0.280 C 
ATOM     16  O   UNL A   1      30.237  25.824  23.704  1.00  0.00    -0.267 OA
BRANCH  15  17
ATOM     17  C   UNL A   1      30.047  28.115  23.112  1.00  0.00     0.216 A 
ATOM     18  C   UNL A   1      30.700  29.096  22.318  1.00  0.00     0.201 A 
ATOM     19  N   UNL A   1      29.795  29.881  21.741  1.00  0.00    -0.032 NA
ATOM     20  O   UNL A   1      28.571  29.423  22.193  1.00  0.00    -0.242 OA
ATOM     21  N   UNL A   1      28.725  28.343  23.046  1.00  0.00    -0.042 NA
BRANCH  18  22
ATOM     22  N   UNL A   1      32.020  29.288  22.152  1.00  0.00    -0.379 N 
ATOM     23  H   UNL A   1      32.508  28.783  21.462  1.00  0.00     0.158 HD
ATOM     24  H   UNL A   1      32.499  29.933  22.722  1.00  0.00     0.158 HD
ENDBRANCH  18  22
ENDBRANCH  15  17
ENDBRANCH   8  15
ENDBRANCH   6   7
ENDBRANCH   3   6
ENDBRANCH   1   2
BRANCH   1  25
ATOM     25  C   UNL A   1      34.402  33.282  28.960  1.00  0.00     0.023 C 
BRANCH  25  26
ATOM     26  C   UNL A   1      33.302  34.313  28.824  1.00  0.00     0.023 C 
BRANCH  26  27
ATOM     27  C   UNL A   1      33.601  35.621  29.523  1.00  0.00     0.116 C 
BRANCH  27  28
ATOM     28  N   UNL A   1      32.581  36.031  30.483  1.00  0.00    -0.352 N 
ATOM     29  C   UNL A   1      32.566  35.827  31.847  1.00  0.00     0.251 C 
ATOM     30  H   UNL A   1      31.807  36.512  30.110  1.00  0.00     0.163 HD
ATOM     31  O   UNL A   1      31.609  36.163  32.524  1.00  0.00    -0.269 OA
BRANCH  29  32
ATOM     32  C   UNL A   1      33.718  35.134  32.461  1.00  0.00     0.039 A 
ATOM     33  C   UNL A   1      33.567  33.815  32.893  1.00  0.00     0.014 A 
ATOM     34  C   UNL A   1      34.970  35.753  32.491  1.00  0.00     0.014 A 
ATOM     35  C   UNL A   1      34.695  33.086  33.266  1.00  0.00     0.010 A 
ATOM     36  C   UNL A   1      36.099  34.991  32.745  1.00  0.00     0.010 A 
ATOM     37  C   UNL A   1      35.974  33.654  33.147  1.00  0.00    -0.014 A 
BRANCH  37  38
ATOM     38  C   UNL A   1      37.203  32.891  33.477  1.00  0.00     0.031 A 
ATOM     39  C   UNL A   1      37.919  33.178  34.768  1.00  0.00     0.074 A 
ATOM     40  C   UNL A   1      37.715  32.013  32.593  1.00  0.00     0.049 A 
ATOM     41  N   UNL A   1      39.063  32.718  35.203  1.00  0.00    -0.248 NA
ATOM     42  C   UNL A   1      37.285  34.153  35.672  1.00  0.00     0.031 C 
ATOM     43  C   UNL A   1      37.147  31.697  31.281  1.00  0.00     0.029 A 
ATOM     44  N   UNL A   1      38.839  31.230  32.664  1.00  0.00    -0.354 N 
ATOM     45  C   UNL A   1      39.294  33.367  36.409  1.00  0.00     0.074 A 
ATOM     46  C   UNL A   1      38.212  34.306  36.603  1.00  0.00     0.031 C 
ATOM     47  C   UNL A   1      37.907  30.761  30.686  1.00  0.00     0.029 A 
ATOM     48  C   UNL A   1      39.031  30.438  31.559  1.00  0.00     0.049 A 
ATOM     49  H   UNL A   1      39.451  31.235  33.435  1.00  0.00     0.167 HD
ATOM     50  C   UNL A   1      40.296  33.171  37.296  1.00  0.00     0.037 A 
ATOM     51  C   UNL A   1      40.006  29.549  31.288  1.00  0.00     0.037 A 
ATOM     52  C   UNL A   1      41.339  32.198  37.125  1.00  0.00     0.049 A 
ATOM     53  C   UNL A   1      41.091  29.323  32.307  1.00  0.00     0.074 A 
ATOM     54  C   UNL A   1      42.372  31.877  37.987  1.00  0.00     0.029 A 
ATOM     55  N   UNL A   1      41.469  31.375  36.016  1.00  0.00    -0.354 N 
ATOM     56  N   UNL A   1      41.265  29.900  33.471  1.00  0.00    -0.248 NA
ATOM     57  C   UNL A   1      42.107  28.314  31.979  1.00  0.00     0.031 C 
ATOM     58  C   UNL A   1      43.144  30.877  37.385  1.00  0.00     0.029 A 
ATOM     59  C   UNL A   1      42.567  30.548  36.169  1.00  0.00     0.049 A 
ATOM     60  H   UNL A   1      40.868  31.380  35.236  1.00  0.00     0.167 HD
ATOM     61  C   UNL A   1      42.387  29.301  34.029  1.00  0.00     0.074 A 
ATOM     62  C   UNL A   1      42.846  28.308  33.080  1.00  0.00     0.031 C 
ATOM     63  C   UNL A   1      42.987  29.550  35.219  1.00  0.00     0.037 A 
BRANCH  50  64
ATOM     64  C   UNL A   1      40.289  34.011  38.540  1.00  0.00     0.064 A 
ATOM     65  C   UNL A   1      39.601  33.606  39.695  1.00  0.00     0.173 A 
ATOM     66  C   UNL A   1      40.980  35.230  38.582  1.00  0.00     0.173 A 
ATOM     67  F   UNL A   1      38.908  32.458  39.698  1.00  0.00    -0.203 F 
ATOM     68  C   UNL A   1      39.577  34.406  40.833  1.00  0.00     0.198 A 
ATOM     69  C   UNL A   1      40.981  36.013  39.734  1.00  0.00     0.198 A 
ATOM     70  F   UNL A   1      41.653  35.665  37.506  1.00  0.00    -0.203 F 
ATOM     71  F   UNL A   1      38.863  34.026  41.901  1.00  0.00    -0.200 F 
ATOM     72  C   UNL A   1      40.272  35.606  40.854  1.00  0.00     0.200 A 
ATOM     73  F   UNL A   1      41.661  37.168  39.757  1.00  0.00    -0.200 F 
ATOM     74  F   UNL A   1      40.251  36.374  41.952  1.00  0.00    -0.200 F 
ENDBRANCH  50  64
BRANCH  51  75
ATOM     75  C   UNL A   1      39.979  28.770  30.022  1.00  0.00     0.064 A 
ATOM     76  C   UNL A   1      39.372  27.505  29.973  1.00  0.00     0.173 A 
ATOM     77  C   UNL A   1      40.565  29.256  28.846  1.00  0.00     0.173 A 
ATOM     78  F   UNL A   1      38.814  26.989  31.078  1.00  0.00    -0.203 F 
ATOM     79  C   UNL A   1      39.377  26.747  28.805  1.00  0.00     0.198 A 
ATOM     80  C   UNL A   1      40.547  28.508  27.669  1.00  0.00     0.198 A 
ATOM     81  F   UNL A   1      41.152  30.462  28.836  1.00  0.00    -0.203 F 
ATOM     82  F   UNL A   1      38.833  25.523  28.801  1.00  0.00    -0.200 F 
ATOM     83  C   UNL A   1      39.961  27.251  27.652  1.00  0.00     0.200 A 
ATOM     84  F   UNL A   1      41.101  29.002  26.554  1.00  0.00    -0.200 F 
ATOM     85  F   UNL A   1      39.968  26.521  26.529  1.00  0.00    -0.200 F 
ENDBRANCH  51  75
BRANCH  63  86
ATOM     86  C   UNL A   1      44.168  28.703  35.582  1.00  0.00     0.064 A 
ATOM     87  C   UNL A   1      45.475  29.073  35.231  1.00  0.00     0.173 A 
ATOM     88  C   UNL A   1      43.992  27.529  36.329  1.00  0.00     0.173 A 
ATOM     89  F   UNL A   1      45.691  30.181  34.506  1.00  0.00    -0.203 F 
ATOM     90  C   UNL A   1      46.561  28.284  35.596  1.00  0.00     0.198 A 
ATOM     91  C   UNL A   1      45.083  26.756  36.715  1.00  0.00     0.198 A 
ATOM     92  F   UNL A   1      42.762  27.137  36.694  1.00  0.00    -0.203 F 
ATOM     93  F   UNL A   1      47.797  28.631  35.213  1.00  0.00    -0.200 F 
ATOM     94  C   UNL A   1      46.366  27.131  36.342  1.00  0.00     0.200 A 
ATOM     95  F   UNL A   1      44.894  25.650  37.447  1.00  0.00    -0.200 F 
ATOM     96  F   UNL A   1      47.414  26.375  36.698  1.00  0.00    -0.200 F 
ENDBRANCH  63  86
ENDBRANCH  37  38
ENDBRANCH  29  32
ENDBRANCH  27  28
ENDBRANCH  26  27
ENDBRANCH  25  26
ENDBRANCH   1  25
TORSDOF 15
ENDMDL
