MODEL 1
REMARK VINA RESULT:     -14.7      0.000      0.000
REMARK SMILES CC(=O)O[C@@H]1CC[C@@]23C(=O)O[C@]4(CC[C@]2(O)C1)[C@H]3CC[C@]1(C)[C@H](C(=O)NCCCCNC(=O)c2ccc(-c3c5nc(c(-c6c(F)c(F)c(F)c(F)c6F)c6ccc([nH]6)c(-c6c(F)c(F)c(F)c(F)c6F)c6nc(c(-c7c(F)c(F)c(F)c(F)c7F)c7ccc3[nH]7)C=C6)C=C5)cc2)CC[C@@H]14
REMARK SMILES IDX 28 1 27 2 26 3 24 4 25 5 23 7 5 8 6 9 17 10 7 11 15 12 8 13
REMARK SMILES IDX 14 14 9 15 18 16 13 17 10 18 11 19 12 20 19 21 99 22 20 23
REMARK SMILES IDX 21 24 98 25 22 26 97 27 4 28 2 29 1 30 3 31 16 32 29 34
REMARK SMILES IDX 30 35 31 36 32 37 33 39 34 40 35 41 96 42 36 43 95 44 37 45
REMARK SMILES IDX 38 46 39 47 89 48 40 49 94 50 88 51 90 52 41 53 93 54 87 55
REMARK SMILES IDX 86 56 42 58 74 59 54 60 73 61 55 62 58 63 72 64 91 65 56 66
REMARK SMILES IDX 57 67 71 69 92 70 59 71 43 72 44 73 52 74 45 75 46 76 50 77
REMARK SMILES IDX 53 78 47 79 48 80 51 81 49 82 75 83 76 84 84 85 77 86 78 87
REMARK SMILES IDX 82 88 85 89 79 90 80 91 83 92 81 93 60 94 61 95 69 96 62 97
REMARK SMILES IDX 63 98 67 99 70 100 64 101 65 102 68 103 66 104
REMARK H PARENT 26 6 16 33 31 38 90 57 58 68
REMARK Flexibility Score: inf
ROOT
ATOM      1  C   UNL A   1      32.078  30.412  26.552  1.00  0.00     0.023 C 
ENDROOT
BRANCH   1   2
ATOM      2  C   UNL A   1      32.182  30.076  25.053  1.00  0.00     0.116 C 
BRANCH   2   3
ATOM      3  N   UNL A   1      30.984  29.382  24.625  1.00  0.00    -0.356 N 
ATOM      4  C   UNL A   1      30.736  28.425  23.700  1.00  0.00     0.223 C 
ATOM      5  O   UNL A   1      29.533  28.259  23.446  1.00  0.00    -0.275 OA
ATOM      6  H   UNL A   1      30.177  29.668  25.111  1.00  0.00     0.163 HD
BRANCH   4   7
ATOM      7  C   UNL A   1      31.757  27.497  23.016  1.00  0.00     0.085 C 
ATOM      8  C   UNL A   1      33.305  19.936  25.421  1.00  0.00     0.179 C 
ATOM      9  C   UNL A   1      32.125  20.758  24.946  1.00  0.00     0.047 C 
ATOM     10  C   UNL A   1      34.282  20.790  26.232  1.00  0.00     0.081 C 
ATOM     11  C   UNL A   1      32.620  22.043  24.302  1.00  0.00     0.026 C 
ATOM     12  C   UNL A   1      34.604  22.216  25.730  1.00  0.00     0.085 C 
ATOM     13  C   UNL A   1      33.445  23.085  25.432  1.00  0.00     0.103 C 
ATOM     14  C   UNL A   1      35.357  22.324  24.309  1.00  0.00     0.041 C 
ATOM     15  C   UNL A   1      32.243  23.861  25.555  1.00  0.00     0.316 C 
ATOM     16  C   UNL A   1      34.266  24.583  25.097  1.00  0.00     0.054 C 
ATOM     17  C   UNL A   1      34.703  23.449  23.201  1.00  0.00     0.052 C 
ATOM     18  O   UNL A   1      31.325  23.877  26.364  1.00  0.00    -0.251 OA
ATOM     19  O   UNL A   1      32.283  24.449  24.283  1.00  0.00    -0.458 OA
ATOM     20  C   UNL A   1      33.682  24.592  23.770  1.00  0.00     0.120 C 
ATOM     21  C   UNL A   1      34.090  25.918  25.839  1.00  0.00     0.009 C 
ATOM     22  C   UNL A   1      33.582  25.808  22.861  1.00  0.00     0.040 C 
ATOM     23  C   UNL A   1      33.247  26.987  25.125  1.00  0.00     0.008 C 
ATOM     24  C   UNL A   1      33.186  27.128  23.594  1.00  0.00    -0.014 C 
ATOM     25  C   UNL A   1      32.425  25.545  21.854  1.00  0.00     0.009 C 
ATOM     26  C   UNL A   1      34.145  28.257  23.159  1.00  0.00     0.012 C 
ATOM     27  C   UNL A   1      31.179  26.212  22.447  1.00  0.00     0.014 C 
BRANCH   8  28
ATOM     28  O   UNL A   1      33.997  19.393  24.274  1.00  0.00    -0.462 OA
BRANCH  28  29
ATOM     29  C   UNL A   1      33.946  18.042  24.103  1.00  0.00     0.302 C 
ATOM     30  C   UNL A   1      32.916  17.684  23.074  1.00  0.00     0.139 C 
ATOM     31  O   UNL A   1      34.623  17.220  24.704  1.00  0.00    -0.253 OA
ENDBRANCH  28  29
ENDBRANCH   8  28
BRANCH  12  32
ATOM     32  O   UNL A   1      35.410  22.819  26.749  1.00  0.00    -0.389 OA
ATOM     33  H   UNL A   1      36.238  22.323  26.842  1.00  0.00     0.211 HD
ENDBRANCH  12  32
ENDBRANCH   4   7
ENDBRANCH   2   3
ENDBRANCH   1   2
BRANCH   1  34
ATOM     34  C   UNL A   1      31.690  31.839  26.880  1.00  0.00     0.023 C 
BRANCH  34  35
ATOM     35  C   UNL A   1      32.850  32.683  27.354  1.00  0.00     0.116 C 
BRANCH  35  36
ATOM     36  N   UNL A   1      32.484  34.062  27.655  1.00  0.00    -0.352 N 
ATOM     37  C   UNL A   1      33.023  34.883  28.619  1.00  0.00     0.251 C 
ATOM     38  H   UNL A   1      31.766  34.452  27.104  1.00  0.00     0.163 HD
ATOM     39  O   UNL A   1      32.550  35.984  28.867  1.00  0.00    -0.269 OA
BRANCH  37  40
ATOM     40  C   UNL A   1      34.176  34.371  29.382  1.00  0.00     0.039 A 
ATOM     41  C   UNL A   1      33.952  33.547  30.485  1.00  0.00     0.014 A 
ATOM     42  C   UNL A   1      35.470  34.603  28.908  1.00  0.00     0.014 A 
ATOM     43  C   UNL A   1      35.033  32.891  31.069  1.00  0.00     0.010 A 
ATOM     44  C   UNL A   1      36.518  33.846  29.404  1.00  0.00     0.010 A 
ATOM     45  C   UNL A   1      36.316  33.001  30.504  1.00  0.00    -0.014 A 
BRANCH  45  46
ATOM     46  C   UNL A   1      37.472  32.265  31.068  1.00  0.00     0.031 A 
ATOM     47  C   UNL A   1      37.986  32.626  32.434  1.00  0.00     0.074 A 
ATOM     48  C   UNL A   1      38.100  31.331  30.329  1.00  0.00     0.049 A 
ATOM     49  N   UNL A   1      39.009  32.141  33.089  1.00  0.00    -0.248 NA
ATOM     50  C   UNL A   1      37.283  33.711  33.139  1.00  0.00     0.031 C 
ATOM     51  C   UNL A   1      37.745  30.956  28.960  1.00  0.00     0.029 A 
ATOM     52  N   UNL A   1      39.175  30.534  30.626  1.00  0.00    -0.354 N 
ATOM     53  C   UNL A   1      39.078  32.873  34.267  1.00  0.00     0.074 A 
ATOM     54  C   UNL A   1      38.055  33.890  34.197  1.00  0.00     0.031 C 
ATOM     55  C   UNL A   1      38.568  29.979  28.546  1.00  0.00     0.029 A 
ATOM     56  C   UNL A   1      39.529  29.687  29.605  1.00  0.00     0.049 A 
ATOM     57  H   UNL A   1      39.649  30.567  31.488  1.00  0.00     0.167 HD
ATOM     58  C   UNL A   1      39.894  32.689  35.330  1.00  0.00     0.037 A 
ATOM     59  C   UNL A   1      40.518  28.776  29.534  1.00  0.00     0.037 A 
ATOM     60  C   UNL A   1      40.895  31.658  35.398  1.00  0.00     0.049 A 
ATOM     61  C   UNL A   1      41.407  28.572  30.730  1.00  0.00     0.074 A 
ATOM     62  C   UNL A   1      41.726  31.330  36.452  1.00  0.00     0.029 A 
ATOM     63  N   UNL A   1      41.204  30.793  34.357  1.00  0.00    -0.354 N 
ATOM     64  N   UNL A   1      41.401  29.200  31.881  1.00  0.00    -0.248 NA
ATOM     65  C   UNL A   1      42.430  27.523  30.624  1.00  0.00     0.031 C 
ATOM     66  C   UNL A   1      42.581  30.306  36.029  1.00  0.00     0.029 A 
ATOM     67  C   UNL A   1      42.237  29.951  34.733  1.00  0.00     0.049 A 
ATOM     68  H   UNL A   1      40.754  30.779  33.482  1.00  0.00     0.167 HD
ATOM     69  C   UNL A   1      42.404  28.616  32.642  1.00  0.00     0.074 A 
ATOM     70  C   UNL A   1      42.983  27.566  31.828  1.00  0.00     0.031 C 
ATOM     71  C   UNL A   1      42.808  28.918  33.902  1.00  0.00     0.037 A 
BRANCH  58  72
ATOM     72  C   UNL A   1      39.731  33.630  36.491  1.00  0.00     0.064 A 
ATOM     73  C   UNL A   1      38.914  33.316  37.590  1.00  0.00     0.173 A 
ATOM     74  C   UNL A   1      40.378  34.874  36.496  1.00  0.00     0.173 A 
ATOM     75  F   UNL A   1      38.260  32.144  37.633  1.00  0.00    -0.203 F 
ATOM     76  C   UNL A   1      38.708  34.232  38.618  1.00  0.00     0.198 A 
ATOM     77  C   UNL A   1      40.202  35.771  37.545  1.00  0.00     0.198 A 
ATOM     78  F   UNL A   1      41.175  35.226  35.475  1.00  0.00    -0.203 F 
ATOM     79  F   UNL A   1      37.857  33.941  39.613  1.00  0.00    -0.200 F 
ATOM     80  C   UNL A   1      39.356  35.457  38.597  1.00  0.00     0.200 A 
ATOM     81  F   UNL A   1      40.841  36.950  37.531  1.00  0.00    -0.200 F 
ATOM     82  F   UNL A   1      39.152  36.340  39.585  1.00  0.00    -0.200 F 
ENDBRANCH  58  72
BRANCH  59  83
ATOM     83  C   UNL A   1      40.687  27.976  28.293  1.00  0.00     0.064 A 
ATOM     84  C   UNL A   1      41.486  28.436  27.238  1.00  0.00     0.173 A 
ATOM     85  C   UNL A   1      40.090  26.714  28.158  1.00  0.00     0.173 A 
ATOM     86  F   UNL A   1      42.065  29.643  27.313  1.00  0.00    -0.203 F 
ATOM     87  C   UNL A   1      41.674  27.668  26.090  1.00  0.00     0.198 A 
ATOM     88  C   UNL A   1      40.302  25.934  27.023  1.00  0.00     0.198 A 
ATOM     89  F   UNL A   1      39.324  26.225  29.144  1.00  0.00    -0.203 F 
ATOM     90  F   UNL A   1      42.418  28.144  25.083  1.00  0.00    -0.200 F 
ATOM     91  C   UNL A   1      41.090  26.414  25.987  1.00  0.00     0.200 A 
ATOM     92  F   UNL A   1      39.750  24.717  26.935  1.00  0.00    -0.200 F 
ATOM     93  F   UNL A   1      41.285  25.668  24.892  1.00  0.00    -0.200 F 
ENDBRANCH  59  83
BRANCH  71  94
ATOM     94  C   UNL A   1      43.919  28.093  34.485  1.00  0.00     0.064 A 
ATOM     95  C   UNL A   1      45.257  28.512  34.427  1.00  0.00     0.173 A 
ATOM     96  C   UNL A   1      43.636  26.891  35.152  1.00  0.00     0.173 A 
ATOM     97  F   UNL A   1      45.583  29.647  33.789  1.00  0.00    -0.203 F 
ATOM     98  C   UNL A   1      46.271  27.744  34.992  1.00  0.00     0.198 A 
ATOM     99  C   UNL A   1      44.649  26.144  35.745  1.00  0.00     0.198 A 
ATOM    100  F   UNL A   1      42.373  26.450  35.243  1.00  0.00    -0.203 F 
ATOM    101  F   UNL A   1      47.548  28.138  34.880  1.00  0.00    -0.200 F 
ATOM    102  C   UNL A   1      45.967  26.566  35.657  1.00  0.00     0.200 A 
ATOM    103  F   UNL A   1      44.349  25.016  36.404  1.00  0.00    -0.200 F 
ATOM    104  F   UNL A   1      46.944  25.834  36.210  1.00  0.00    -0.200 F 
ENDBRANCH  71  94
ENDBRANCH  45  46
ENDBRANCH  37  40
ENDBRANCH  35  36
ENDBRANCH  34  35
ENDBRANCH   1  34
TORSDOF 14
ENDMDL
MODEL 2
REMARK VINA RESULT:     -14.7      0.784      7.063
REMARK SMILES CC(=O)O[C@@H]1CC[C@@]23C(=O)O[C@]4(CC[C@]2(O)C1)[C@H]3CC[C@]1(C)[C@H](C(=O)NCCCCNC(=O)c2ccc(-c3c5nc(c(-c6c(F)c(F)c(F)c(F)c6F)c6ccc([nH]6)c(-c6c(F)c(F)c(F)c(F)c6F)c6nc(c(-c7c(F)c(F)c(F)c(F)c7F)c7ccc3[nH]7)C=C6)C=C5)cc2)CC[C@@H]14
REMARK SMILES IDX 28 1 27 2 26 3 24 4 25 5 23 7 5 8 6 9 17 10 7 11 15 12 8 13
REMARK SMILES IDX 14 14 9 15 18 16 13 17 10 18 11 19 12 20 19 21 99 22 20 23
REMARK SMILES IDX 21 24 98 25 22 26 97 27 4 28 2 29 1 30 3 31 16 32 29 34
REMARK SMILES IDX 30 35 31 36 32 37 33 39 34 40 35 41 96 42 36 43 95 44 37 45
REMARK SMILES IDX 38 46 39 47 89 48 40 49 94 50 88 51 90 52 41 53 93 54 87 55
REMARK SMILES IDX 86 56 42 58 74 59 54 60 73 61 55 62 58 63 72 64 91 65 56 66
REMARK SMILES IDX 57 67 71 69 92 70 59 71 43 72 44 73 52 74 45 75 46 76 50 77
REMARK SMILES IDX 53 78 47 79 48 80 51 81 49 82 75 83 76 84 84 85 77 86 78 87
REMARK SMILES IDX 82 88 85 89 79 90 80 91 83 92 81 93 60 94 61 95 69 96 62 97
REMARK SMILES IDX 63 98 67 99 70 100 64 101 65 102 68 103 66 104
REMARK H PARENT 26 6 16 33 31 38 90 57 58 68
REMARK Flexibility Score: inf
ROOT
ATOM      1  C   UNL A   1      32.251  30.493  26.709  1.00  0.00     0.023 C 
ENDROOT
BRANCH   1   2
ATOM      2  C   UNL A   1      32.413  30.029  25.250  1.00  0.00     0.116 C 
BRANCH   2   3
ATOM      3  N   UNL A   1      31.174  29.439  24.785  1.00  0.00    -0.356 N 
ATOM      4  C   UNL A   1      30.867  28.549  23.812  1.00  0.00     0.223 C 
ATOM      5  O   UNL A   1      29.657  28.477  23.548  1.00  0.00    -0.275 OA
ATOM      6  H   UNL A   1      30.386  29.754  25.283  1.00  0.00     0.163 HD
BRANCH   4   7
ATOM      7  C   UNL A   1      31.827  27.590  23.084  1.00  0.00     0.085 C 
ATOM      8  C   UNL A   1      33.250  19.986  25.430  1.00  0.00     0.179 C 
ATOM      9  C   UNL A   1      32.076  20.844  25.008  1.00  0.00     0.047 C 
ATOM     10  C   UNL A   1      34.289  20.810  26.194  1.00  0.00     0.081 C 
ATOM     11  C   UNL A   1      32.580  22.112  24.340  1.00  0.00     0.026 C 
ATOM     12  C   UNL A   1      34.631  22.225  25.676  1.00  0.00     0.085 C 
ATOM     13  C   UNL A   1      33.487  23.129  25.429  1.00  0.00     0.103 C 
ATOM     14  C   UNL A   1      35.322  22.309  24.221  1.00  0.00     0.041 C 
ATOM     15  C   UNL A   1      32.316  23.941  25.605  1.00  0.00     0.316 C 
ATOM     16  C   UNL A   1      34.338  24.600  25.055  1.00  0.00     0.054 C 
ATOM     17  C   UNL A   1      34.653  23.453  23.143  1.00  0.00     0.052 C 
ATOM     18  O   UNL A   1      31.437  23.986  26.455  1.00  0.00    -0.251 OA
ATOM     19  O   UNL A   1      32.316  24.528  24.332  1.00  0.00    -0.458 OA
ATOM     20  C   UNL A   1      33.695  24.627  23.755  1.00  0.00     0.120 C 
ATOM     21  C   UNL A   1      34.236  25.941  25.801  1.00  0.00     0.009 C 
ATOM     22  C   UNL A   1      33.591  25.845  22.849  1.00  0.00     0.040 C 
ATOM     23  C   UNL A   1      33.395  27.035  25.124  1.00  0.00     0.008 C 
ATOM     24  C   UNL A   1      33.269  27.177  23.597  1.00  0.00    -0.014 C 
ATOM     25  C   UNL A   1      32.381  25.618  21.896  1.00  0.00     0.009 C 
ATOM     26  C   UNL A   1      34.241  28.276  23.117  1.00  0.00     0.012 C 
ATOM     27  C   UNL A   1      31.185  26.323  22.544  1.00  0.00     0.014 C 
BRANCH   8  28
ATOM     28  O   UNL A   1      33.872  19.422  24.254  1.00  0.00    -0.462 OA
BRANCH  28  29
ATOM     29  C   UNL A   1      33.583  18.121  23.965  1.00  0.00     0.302 C 
ATOM     30  C   UNL A   1      34.666  17.219  24.475  1.00  0.00     0.139 C 
ATOM     31  O   UNL A   1      32.596  17.726  23.362  1.00  0.00    -0.253 OA
ENDBRANCH  28  29
ENDBRANCH   8  28
BRANCH  12  32
ATOM     32  O   UNL A   1      35.501  22.803  26.656  1.00  0.00    -0.389 OA
ATOM     33  H   UNL A   1      36.341  22.319  26.669  1.00  0.00     0.211 HD
ENDBRANCH  12  32
ENDBRANCH   4   7
ENDBRANCH   2   3
ENDBRANCH   1   2
BRANCH   1  34
ATOM     34  C   UNL A   1      31.823  31.933  26.896  1.00  0.00     0.023 C 
BRANCH  34  35
ATOM     35  C   UNL A   1      32.879  32.793  27.551  1.00  0.00     0.116 C 
BRANCH  35  36
ATOM     36  N   UNL A   1      32.477  34.185  27.719  1.00  0.00    -0.352 N 
ATOM     37  C   UNL A   1      32.978  35.100  28.616  1.00  0.00     0.251 C 
ATOM     38  H   UNL A   1      31.764  34.507  27.122  1.00  0.00     0.163 HD
ATOM     39  O   UNL A   1      32.476  36.208  28.755  1.00  0.00    -0.269 OA
BRANCH  37  40
ATOM     40  C   UNL A   1      34.124  34.686  29.446  1.00  0.00     0.039 A 
ATOM     41  C   UNL A   1      33.893  34.197  30.732  1.00  0.00     0.014 A 
ATOM     42  C   UNL A   1      35.402  34.655  28.883  1.00  0.00     0.014 A 
ATOM     43  C   UNL A   1      34.944  33.605  31.428  1.00  0.00     0.010 A 
ATOM     44  C   UNL A   1      36.406  33.947  29.522  1.00  0.00     0.010 A 
ATOM     45  C   UNL A   1      36.196  33.436  30.810  1.00  0.00    -0.014 A 
BRANCH  45  46
ATOM     46  C   UNL A   1      37.313  32.755  31.505  1.00  0.00     0.031 A 
ATOM     47  C   UNL A   1      37.992  31.586  30.848  1.00  0.00     0.074 A 
ATOM     48  C   UNL A   1      37.665  33.137  32.747  1.00  0.00     0.049 A 
ATOM     49  N   UNL A   1      38.954  30.824  31.302  1.00  0.00    -0.248 NA
ATOM     50  C   UNL A   1      37.492  31.191  29.521  1.00  0.00     0.031 C 
ATOM     51  C   UNL A   1      37.023  34.202  33.520  1.00  0.00     0.029 A 
ATOM     52  N   UNL A   1      38.646  32.666  33.581  1.00  0.00    -0.354 N 
ATOM     53  C   UNL A   1      39.155  29.857  30.326  1.00  0.00     0.074 A 
ATOM     54  C   UNL A   1      38.161  30.072  29.302  1.00  0.00     0.031 C 
ATOM     55  C   UNL A   1      37.647  34.323  34.701  1.00  0.00     0.029 A 
ATOM     56  C   UNL A   1      38.706  33.323  34.785  1.00  0.00     0.049 A 
ATOM     57  H   UNL A   1      39.249  31.925  33.340  1.00  0.00     0.167 HD
ATOM     58  C   UNL A   1      40.110  28.900  30.269  1.00  0.00     0.037 A 
ATOM     59  C   UNL A   1      39.526  33.137  35.837  1.00  0.00     0.037 A 
ATOM     60  C   UNL A   1      41.110  28.709  31.285  1.00  0.00     0.049 A 
ATOM     61  C   UNL A   1      40.593  32.080  35.751  1.00  0.00     0.074 A 
ATOM     62  C   UNL A   1      42.170  27.822  31.297  1.00  0.00     0.029 A 
ATOM     63  N   UNL A   1      41.163  29.416  32.479  1.00  0.00    -0.354 N 
ATOM     64  N   UNL A   1      40.842  31.234  34.781  1.00  0.00    -0.248 NA
ATOM     65  C   UNL A   1      41.500  31.960  36.900  1.00  0.00     0.031 C 
ATOM     66  C   UNL A   1      42.829  27.951  32.525  1.00  0.00     0.029 A 
ATOM     67  C   UNL A   1      42.220  28.964  33.251  1.00  0.00     0.049 A 
ATOM     68  H   UNL A   1      40.542  30.135  32.738  1.00  0.00     0.167 HD
ATOM     69  C   UNL A   1      41.942  30.493  35.191  1.00  0.00     0.074 A 
ATOM     70  C   UNL A   1      42.325  31.006  36.491  1.00  0.00     0.031 C 
ATOM     71  C   UNL A   1      42.578  29.481  34.549  1.00  0.00     0.037 A 
BRANCH  58  72
ATOM     72  C   UNL A   1      40.102  27.994  29.069  1.00  0.00     0.064 A 
ATOM     73  C   UNL A   1      39.443  26.753  29.082  1.00  0.00     0.173 A 
ATOM     74  C   UNL A   1      40.782  28.358  27.898  1.00  0.00     0.173 A 
ATOM     75  F   UNL A   1      38.786  26.348  30.180  1.00  0.00    -0.203 F 
ATOM     76  C   UNL A   1      39.513  25.891  27.992  1.00  0.00     0.198 A 
ATOM     77  C   UNL A   1      40.816  27.510  26.795  1.00  0.00     0.198 A 
ATOM     78  F   UNL A   1      41.425  29.534  27.826  1.00  0.00    -0.203 F 
ATOM     79  F   UNL A   1      38.947  24.677  28.061  1.00  0.00    -0.200 F 
ATOM     80  C   UNL A   1      40.196  26.271  26.847  1.00  0.00     0.200 A 
ATOM     81  F   UNL A   1      41.464  27.886  25.683  1.00  0.00    -0.200 F 
ATOM     82  F   UNL A   1      40.268  25.437  25.801  1.00  0.00    -0.200 F 
ENDBRANCH  58  72
BRANCH  59  83
ATOM     83  C   UNL A   1      39.379  33.998  37.039  1.00  0.00     0.064 A 
ATOM     84  C   UNL A   1      38.702  33.543  38.178  1.00  0.00     0.173 A 
ATOM     85  C   UNL A   1      39.953  35.277  37.088  1.00  0.00     0.173 A 
ATOM     86  F   UNL A   1      38.123  32.334  38.174  1.00  0.00    -0.203 F 
ATOM     87  C   UNL A   1      38.597  34.337  39.319  1.00  0.00     0.198 A 
ATOM     88  C   UNL A   1      39.872  36.059  38.239  1.00  0.00     0.198 A 
ATOM     89  F   UNL A   1      40.619  35.755  36.027  1.00  0.00    -0.203 F 
ATOM     90  F   UNL A   1      37.919  33.890  40.384  1.00  0.00    -0.200 F 
ATOM     91  C   UNL A   1      39.191  35.591  39.352  1.00  0.00     0.200 A 
ATOM     92  F   UNL A   1      40.462  37.262  38.272  1.00  0.00    -0.200 F 
ATOM     93  F   UNL A   1      39.105  36.347  40.454  1.00  0.00    -0.200 F 
ENDBRANCH  59  83
BRANCH  71  94
ATOM     94  C   UNL A   1      43.767  28.872  35.235  1.00  0.00     0.064 A 
ATOM     95  C   UNL A   1      43.636  27.777  36.103  1.00  0.00     0.173 A 
ATOM     96  C   UNL A   1      45.059  29.359  34.984  1.00  0.00     0.173 A 
ATOM     97  F   UNL A   1      42.422  27.281  36.386  1.00  0.00    -0.203 F 
ATOM     98  C   UNL A   1      44.753  27.211  36.713  1.00  0.00     0.198 A 
ATOM     99  C   UNL A   1      46.175  28.770  35.569  1.00  0.00     0.198 A 
ATOM    100  F   UNL A   1      45.241  30.399  34.156  1.00  0.00    -0.203 F 
ATOM    101  F   UNL A   1      44.599  26.198  37.578  1.00  0.00    -0.200 F 
ATOM    102  C   UNL A   1      46.021  27.702  36.440  1.00  0.00     0.200 A 
ATOM    103  F   UNL A   1      47.400  29.233  35.288  1.00  0.00    -0.200 F 
ATOM    104  F   UNL A   1      47.095  27.149  37.020  1.00  0.00    -0.200 F 
ENDBRANCH  71  94
ENDBRANCH  45  46
ENDBRANCH  37  40
ENDBRANCH  35  36
ENDBRANCH  34  35
ENDBRANCH   1  34
TORSDOF 14
ENDMDL
MODEL 3
REMARK VINA RESULT:     -14.6      5.301      9.946
REMARK SMILES CC(=O)O[C@@H]1CC[C@@]23C(=O)O[C@]4(CC[C@]2(O)C1)[C@H]3CC[C@]1(C)[C@H](C(=O)NCCCCNC(=O)c2ccc(-c3c5nc(c(-c6c(F)c(F)c(F)c(F)c6F)c6ccc([nH]6)c(-c6c(F)c(F)c(F)c(F)c6F)c6nc(c(-c7c(F)c(F)c(F)c(F)c7F)c7ccc3[nH]7)C=C6)C=C5)cc2)CC[C@@H]14
REMARK SMILES IDX 28 1 27 2 26 3 24 4 25 5 23 7 5 8 6 9 17 10 7 11 15 12 8 13
REMARK SMILES IDX 14 14 9 15 18 16 13 17 10 18 11 19 12 20 19 21 99 22 20 23
REMARK SMILES IDX 21 24 98 25 22 26 97 27 4 28 2 29 1 30 3 31 16 32 29 34
REMARK SMILES IDX 30 35 31 36 32 37 33 39 34 40 35 41 96 42 36 43 95 44 37 45
REMARK SMILES IDX 38 46 39 47 89 48 40 49 94 50 88 51 90 52 41 53 93 54 87 55
REMARK SMILES IDX 86 56 42 58 74 59 54 60 73 61 55 62 58 63 72 64 91 65 56 66
REMARK SMILES IDX 57 67 71 69 92 70 59 71 43 72 44 73 52 74 45 75 46 76 50 77
REMARK SMILES IDX 53 78 47 79 48 80 51 81 49 82 75 83 76 84 84 85 77 86 78 87
REMARK SMILES IDX 82 88 85 89 79 90 80 91 83 92 81 93 60 94 61 95 69 96 62 97
REMARK SMILES IDX 63 98 67 99 70 100 64 101 65 102 68 103 66 104
REMARK H PARENT 26 6 16 33 31 38 90 57 58 68
REMARK Flexibility Score: inf
ROOT
ATOM      1  C   UNL A   1      37.455  21.354  24.974  1.00  0.00     0.023 C 
ENDROOT
BRANCH   1   2
ATOM      2  C   UNL A   1      36.169  21.243  25.813  1.00  0.00     0.116 C 
BRANCH   2   3
ATOM      3  N   UNL A   1      35.169  20.495  25.078  1.00  0.00    -0.356 N 
ATOM      4  C   UNL A   1      33.817  20.448  25.118  1.00  0.00     0.223 C 
ATOM      5  O   UNL A   1      33.320  19.493  24.501  1.00  0.00    -0.275 OA
ATOM      6  H   UNL A   1      35.557  19.891  24.405  1.00  0.00     0.163 HD
BRANCH   4   7
ATOM      7  C   UNL A   1      32.864  21.473  25.761  1.00  0.00     0.085 C 
ATOM      8  C   UNL A   1      30.991  28.600  22.437  1.00  0.00     0.179 C 
ATOM      9  C   UNL A   1      30.901  27.128  22.094  1.00  0.00     0.047 C 
ATOM     10  C   UNL A   1      32.238  28.896  23.272  1.00  0.00     0.081 C 
ATOM     11  C   UNL A   1      31.108  26.294  23.348  1.00  0.00     0.026 C 
ATOM     12  C   UNL A   1      32.621  27.910  24.399  1.00  0.00     0.085 C 
ATOM     13  C   UNL A   1      32.706  26.483  24.022  1.00  0.00     0.103 C 
ATOM     14  C   UNL A   1      31.577  27.775  25.619  1.00  0.00     0.041 C 
ATOM     15  C   UNL A   1      33.089  25.249  23.395  1.00  0.00     0.316 C 
ATOM     16  C   UNL A   1      33.324  25.813  25.505  1.00  0.00     0.054 C 
ATOM     17  C   UNL A   1      31.181  26.180  26.089  1.00  0.00     0.052 C 
ATOM     18  O   UNL A   1      33.669  24.972  22.354  1.00  0.00    -0.251 OA
ATOM     19  O   UNL A   1      32.346  24.394  24.222  1.00  0.00    -0.458 OA
ATOM     20  C   UNL A   1      32.153  24.963  25.595  1.00  0.00     0.120 C 
ATOM     21  C   UNL A   1      34.642  25.042  25.691  1.00  0.00     0.009 C 
ATOM     22  C   UNL A   1      32.035  23.716  26.459  1.00  0.00     0.040 C 
ATOM     23  C   UNL A   1      34.522  23.515  25.826  1.00  0.00     0.008 C 
ATOM     24  C   UNL A   1      33.311  22.817  26.470  1.00  0.00    -0.014 C 
ATOM     25  C   UNL A   1      30.920  22.822  25.841  1.00  0.00     0.009 C 
ATOM     26  C   UNL A   1      33.663  22.454  27.928  1.00  0.00     0.012 C 
ATOM     27  C   UNL A   1      31.632  21.810  24.937  1.00  0.00     0.014 C 
BRANCH   8  28
ATOM     28  O   UNL A   1      29.819  28.983  23.192  1.00  0.00    -0.462 OA
BRANCH  28  29
ATOM     29  C   UNL A   1      28.679  29.224  22.485  1.00  0.00     0.302 C 
ATOM     30  C   UNL A   1      27.493  28.635  23.189  1.00  0.00     0.139 C 
ATOM     31  O   UNL A   1      28.611  29.820  21.420  1.00  0.00    -0.253 OA
ENDBRANCH  28  29
ENDBRANCH   8  28
BRANCH  12  32
ATOM     32  O   UNL A   1      33.888  28.355  24.897  1.00  0.00    -0.389 OA
ATOM     33  H   UNL A   1      34.275  28.992  24.275  1.00  0.00     0.211 HD
ENDBRANCH  12  32
ENDBRANCH   4   7
ENDBRANCH   2   3
ENDBRANCH   1   2
BRANCH   1  34
ATOM     34  C   UNL A   1      38.357  20.138  24.990  1.00  0.00     0.023 C 
BRANCH  34  35
ATOM     35  C   UNL A   1      39.594  20.320  25.838  1.00  0.00     0.116 C 
BRANCH  35  36
ATOM     36  N   UNL A   1      40.429  19.126  25.916  1.00  0.00    -0.352 N 
ATOM     37  C   UNL A   1      41.790  19.065  26.111  1.00  0.00     0.251 C 
ATOM     38  H   UNL A   1      39.965  18.264  25.816  1.00  0.00     0.163 HD
ATOM     39  O   UNL A   1      42.406  18.011  26.031  1.00  0.00    -0.269 OA
BRANCH  37  40
ATOM     40  C   UNL A   1      42.498  20.330  26.378  1.00  0.00     0.039 A 
ATOM     41  C   UNL A   1      43.104  21.009  25.321  1.00  0.00     0.014 A 
ATOM     42  C   UNL A   1      42.429  20.899  27.652  1.00  0.00     0.014 A 
ATOM     43  C   UNL A   1      43.580  22.301  25.532  1.00  0.00     0.010 A 
ATOM     44  C   UNL A   1      42.778  22.228  27.821  1.00  0.00     0.010 A 
ATOM     45  C   UNL A   1      43.379  22.936  26.771  1.00  0.00    -0.014 A 
BRANCH  45  46
ATOM     46  C   UNL A   1      43.819  24.332  27.002  1.00  0.00     0.031 A 
ATOM     47  C   UNL A   1      42.826  25.352  27.484  1.00  0.00     0.074 A 
ATOM     48  C   UNL A   1      45.082  24.695  26.712  1.00  0.00     0.049 A 
ATOM     49  N   UNL A   1      42.992  26.631  27.704  1.00  0.00    -0.248 NA
ATOM     50  C   UNL A   1      41.449  24.881  27.704  1.00  0.00     0.031 C 
ATOM     51  C   UNL A   1      46.111  23.813  26.159  1.00  0.00     0.029 A 
ATOM     52  N   UNL A   1      45.713  25.906  26.835  1.00  0.00    -0.354 N 
ATOM     53  C   UNL A   1      41.741  27.111  28.067  1.00  0.00     0.074 A 
ATOM     54  C   UNL A   1      40.812  26.013  27.953  1.00  0.00     0.031 C 
ATOM     55  C   UNL A   1      47.253  24.505  26.020  1.00  0.00     0.029 A 
ATOM     56  C   UNL A   1      47.026  25.885  26.438  1.00  0.00     0.049 A 
ATOM     57  H   UNL A   1      45.265  26.715  27.174  1.00  0.00     0.167 HD
ATOM     58  C   UNL A   1      41.405  28.349  28.498  1.00  0.00     0.037 A 
ATOM     59  C   UNL A   1      47.944  26.870  26.414  1.00  0.00     0.037 A 
ATOM     60  C   UNL A   1      42.343  29.431  28.630  1.00  0.00     0.049 A 
ATOM     61  C   UNL A   1      47.558  28.237  26.912  1.00  0.00     0.074 A 
ATOM     62  C   UNL A   1      42.131  30.703  29.127  1.00  0.00     0.029 A 
ATOM     63  N   UNL A   1      43.677  29.365  28.251  1.00  0.00    -0.354 N 
ATOM     64  N   UNL A   1      46.397  28.659  27.350  1.00  0.00    -0.248 NA
ATOM     65  C   UNL A   1      48.613  29.259  26.924  1.00  0.00     0.031 C 
ATOM     66  C   UNL A   1      43.320  31.427  28.992  1.00  0.00     0.029 A 
ATOM     67  C   UNL A   1      44.293  30.585  28.472  1.00  0.00     0.049 A 
ATOM     68  H   UNL A   1      44.120  28.568  27.880  1.00  0.00     0.167 HD
ATOM     69  C   UNL A   1      46.582  29.988  27.706  1.00  0.00     0.074 A 
ATOM     70  C   UNL A   1      47.975  30.294  27.452  1.00  0.00     0.031 C 
ATOM     71  C   UNL A   1      45.681  30.873  28.201  1.00  0.00     0.037 A 
BRANCH  58  72
ATOM     72  C   UNL A   1      39.961  28.584  28.848  1.00  0.00     0.064 A 
ATOM     73  C   UNL A   1      39.045  29.091  27.911  1.00  0.00     0.173 A 
ATOM     74  C   UNL A   1      39.492  28.323  30.143  1.00  0.00     0.173 A 
ATOM     75  F   UNL A   1      39.443  29.371  26.660  1.00  0.00    -0.203 F 
ATOM     76  C   UNL A   1      37.732  29.380  28.274  1.00  0.00     0.198 A 
ATOM     77  C   UNL A   1      38.167  28.575  30.491  1.00  0.00     0.198 A 
ATOM     78  F   UNL A   1      40.320  27.833  31.078  1.00  0.00    -0.203 F 
ATOM     79  F   UNL A   1      36.902  29.942  27.384  1.00  0.00    -0.200 F 
ATOM     80  C   UNL A   1      37.293  29.118  29.562  1.00  0.00     0.200 A 
ATOM     81  F   UNL A   1      37.739  28.306  31.733  1.00  0.00    -0.200 F 
ATOM     82  F   UNL A   1      36.031  29.402  29.911  1.00  0.00    -0.200 F 
ENDBRANCH  58  72
BRANCH  59  83
ATOM     83  C   UNL A   1      49.318  26.578  25.930  1.00  0.00     0.064 A 
ATOM     84  C   UNL A   1      49.720  26.928  24.634  1.00  0.00     0.173 A 
ATOM     85  C   UNL A   1      50.271  25.983  26.771  1.00  0.00     0.173 A 
ATOM     86  F   UNL A   1      48.841  27.484  23.788  1.00  0.00    -0.203 F 
ATOM     87  C   UNL A   1      51.020  26.688  24.194  1.00  0.00     0.198 A 
ATOM     88  C   UNL A   1      51.579  25.769  26.339  1.00  0.00     0.198 A 
ATOM     89  F   UNL A   1      49.939  25.638  28.023  1.00  0.00    -0.203 F 
ATOM     90  F   UNL A   1      51.370  27.005  22.940  1.00  0.00    -0.200 F 
ATOM     91  C   UNL A   1      51.951  26.117  25.050  1.00  0.00     0.200 A 
ATOM     92  F   UNL A   1      52.479  25.234  27.175  1.00  0.00    -0.200 F 
ATOM     93  F   UNL A   1      53.206  25.902  24.632  1.00  0.00    -0.200 F 
ENDBRANCH  59  83
BRANCH  71  94
ATOM     94  C   UNL A   1      46.178  32.256  28.517  1.00  0.00     0.064 A 
ATOM     95  C   UNL A   1      46.111  33.295  27.576  1.00  0.00     0.173 A 
ATOM     96  C   UNL A   1      46.681  32.555  29.792  1.00  0.00     0.173 A 
ATOM     97  F   UNL A   1      45.650  33.058  26.339  1.00  0.00    -0.203 F 
ATOM     98  C   UNL A   1      46.557  34.575  27.894  1.00  0.00     0.198 A 
ATOM     99  C   UNL A   1      47.093  33.844  30.116  1.00  0.00     0.198 A 
ATOM    100  F   UNL A   1      46.758  31.600  30.730  1.00  0.00    -0.203 F 
ATOM    101  F   UNL A   1      46.531  35.541  26.964  1.00  0.00    -0.200 F 
ATOM    102  C   UNL A   1      47.038  34.851  29.165  1.00  0.00     0.200 A 
ATOM    103  F   UNL A   1      47.540  34.112  31.350  1.00  0.00    -0.200 F 
ATOM    104  F   UNL A   1      47.456  36.087  29.472  1.00  0.00    -0.200 F 
ENDBRANCH  71  94
ENDBRANCH  45  46
ENDBRANCH  37  40
ENDBRANCH  35  36
ENDBRANCH  34  35
ENDBRANCH   1  34
TORSDOF 14
ENDMDL
