MODEL 1
REMARK VINA RESULT:     -11.7      0.000      0.000
REMARK SMILES CC(C)(C)N(CC(=O)NCCCCNC(=O)c1ccc(-c2c3nc(c(-c4c(F)c(F)c(F)c(F)c4F)c4ccc([nH]4)c(-c4c(F)c(F)c(F)c(F)c4F)c4nc(c(-c5c(F)c(F)c(F)c(F)c5F)c5ccc2[nH]5)C=C4)C=C3)cc1)c1cccc(C#N)n1
REMARK SMILES IDX 11 1 10 2 9 3 7 4 8 5 6 7 5 8 2 9 1 10 3 11 4 12 80 13 81 14
REMARK SMILES IDX 87 15 82 16 84 17 83 18 85 19 86 20 12 21 13 22 14 23 15 24
REMARK SMILES IDX 16 26 17 27 18 28 79 29 19 30 78 31 20 32 21 33 22 34 72 35
REMARK SMILES IDX 23 36 77 37 71 38 73 39 24 40 76 41 70 42 69 43 25 45 57 46
REMARK SMILES IDX 37 47 56 48 38 49 41 50 55 51 74 52 39 53 40 54 54 56 75 57
REMARK SMILES IDX 42 58 26 59 27 60 35 61 28 62 29 63 33 64 36 65 30 66 31 67
REMARK SMILES IDX 34 68 32 69 58 70 59 71 67 72 60 73 61 74 65 75 68 76 62 77
REMARK SMILES IDX 63 78 66 79 64 80 43 81 44 82 52 83 45 84 46 85 50 86 53 87
REMARK SMILES IDX 47 88 48 89 51 90 49 91
REMARK H PARENT 9 6 14 25 73 44 41 55
REMARK Flexibility Score: inf
ROOT
ATOM      1  C   UNL A   1      31.923  30.508  26.725  1.00  0.00     0.023 C 
ENDROOT
BRANCH   1   2
ATOM      2  C   UNL A   1      31.641  29.893  25.359  1.00  0.00     0.116 C 
BRANCH   2   3
ATOM      3  N   UNL A   1      32.832  29.701  24.577  1.00  0.00    -0.355 N 
ATOM      4  C   UNL A   1      33.403  28.520  24.190  1.00  0.00     0.239 C 
ATOM      5  O   UNL A   1      34.390  28.589  23.448  1.00  0.00    -0.273 OA
ATOM      6  H   UNL A   1      33.292  30.521  24.283  1.00  0.00     0.163 HD
BRANCH   4   7
ATOM      7  C   UNL A   1      32.757  27.156  24.533  1.00  0.00     0.218 C 
BRANCH   7   8
ATOM      8  N   UNL A   1      31.982  26.453  23.464  1.00  0.00    -0.342 N 
BRANCH   8   9
ATOM      9  C   UNL A   1      32.540  25.265  22.721  1.00  0.00     0.034 C 
ATOM     10  C   UNL A   1      33.995  24.912  23.129  1.00  0.00     0.034 C 
ATOM     11  C   UNL A   1      32.530  25.549  21.203  1.00  0.00     0.034 C 
ATOM     12  C   UNL A   1      31.763  23.957  22.960  1.00  0.00     0.034 C 
ENDBRANCH   8   9
BRANCH   8  13
ATOM     13  C   UNL A   1      30.666  26.917  23.370  1.00  0.00     0.130 A 
ATOM     14  C   UNL A   1      29.576  26.289  23.968  1.00  0.00     0.047 A 
ATOM     15  N   UNL A   1      30.451  28.077  22.715  1.00  0.00    -0.220 NA
ATOM     16  C   UNL A   1      28.284  26.817  23.876  1.00  0.00     0.007 A 
ATOM     17  C   UNL A   1      29.201  28.607  22.650  1.00  0.00     0.142 A 
ATOM     18  C   UNL A   1      28.087  28.004  23.202  1.00  0.00     0.040 A 
BRANCH  17  19
ATOM     19  C   UNL A   1      29.075  29.869  21.972  1.00  0.00     0.120 C 
ATOM     20  N   UNL A   1      28.904  30.869  21.406  1.00  0.00    -0.191 NA
ENDBRANCH  17  19
ENDBRANCH   8  13
ENDBRANCH   7   8
ENDBRANCH   4   7
ENDBRANCH   2   3
ENDBRANCH   1   2
BRANCH   1  21
ATOM     21  C   UNL A   1      31.658  32.004  26.799  1.00  0.00     0.023 C 
BRANCH  21  22
ATOM     22  C   UNL A   1      32.835  32.821  27.316  1.00  0.00     0.116 C 
BRANCH  22  23
ATOM     23  N   UNL A   1      32.488  34.200  27.644  1.00  0.00    -0.352 N 
ATOM     24  C   UNL A   1      33.020  35.012  28.617  1.00  0.00     0.251 C 
ATOM     25  H   UNL A   1      31.778  34.604  27.094  1.00  0.00     0.163 HD
ATOM     26  O   UNL A   1      32.530  36.109  28.859  1.00  0.00    -0.269 OA
BRANCH  24  27
ATOM     27  C   UNL A   1      34.173  34.521  29.398  1.00  0.00     0.039 A 
ATOM     28  C   UNL A   1      33.945  33.911  30.632  1.00  0.00     0.014 A 
ATOM     29  C   UNL A   1      35.463  34.593  28.868  1.00  0.00     0.014 A 
ATOM     30  C   UNL A   1      35.007  33.296  31.295  1.00  0.00     0.010 A 
ATOM     31  C   UNL A   1      36.493  33.887  29.475  1.00  0.00     0.010 A 
ATOM     32  C   UNL A   1      36.278  33.233  30.697  1.00  0.00    -0.014 A 
BRANCH  32  33
ATOM     33  C   UNL A   1      37.390  32.483  31.336  1.00  0.00     0.031 A 
ATOM     34  C   UNL A   1      37.896  32.896  32.691  1.00  0.00     0.074 A 
ATOM     35  C   UNL A   1      37.980  31.470  30.669  1.00  0.00     0.049 A 
ATOM     36  N   UNL A   1      38.885  32.399  33.389  1.00  0.00    -0.248 NA
ATOM     37  C   UNL A   1      37.223  34.035  33.338  1.00  0.00     0.031 C 
ATOM     38  C   UNL A   1      37.620  31.017  29.324  1.00  0.00     0.029 A 
ATOM     39  N   UNL A   1      39.017  30.644  31.028  1.00  0.00    -0.354 N 
ATOM     40  C   UNL A   1      38.960  33.171  34.540  1.00  0.00     0.074 A 
ATOM     41  C   UNL A   1      37.955  34.204  34.428  1.00  0.00     0.031 C 
ATOM     42  C   UNL A   1      38.401  29.981  28.983  1.00  0.00     0.029 A 
ATOM     43  C   UNL A   1      39.354  29.728  30.059  1.00  0.00     0.049 A 
ATOM     44  H   UNL A   1      39.477  30.702  31.897  1.00  0.00     0.167 HD
ATOM     45  C   UNL A   1      39.782  33.018  35.605  1.00  0.00     0.037 A 
ATOM     46  C   UNL A   1      40.334  28.804  30.033  1.00  0.00     0.037 A 
ATOM     47  C   UNL A   1      40.761  31.971  35.723  1.00  0.00     0.049 A 
ATOM     48  C   UNL A   1      41.236  28.665  31.232  1.00  0.00     0.074 A 
ATOM     49  C   UNL A   1      41.583  31.683  36.798  1.00  0.00     0.029 A 
ATOM     50  N   UNL A   1      41.062  31.051  34.730  1.00  0.00    -0.354 N 
ATOM     51  N   UNL A   1      41.230  29.339  32.358  1.00  0.00    -0.248 NA
ATOM     52  C   UNL A   1      42.277  27.630  31.163  1.00  0.00     0.031 C 
ATOM     53  C   UNL A   1      42.438  30.643  36.425  1.00  0.00     0.029 A 
ATOM     54  C   UNL A   1      42.089  30.223  35.152  1.00  0.00     0.049 A 
ATOM     55  H   UNL A   1      40.613  30.996  33.855  1.00  0.00     0.167 HD
ATOM     56  C   UNL A   1      42.240  28.789  33.138  1.00  0.00     0.074 A 
ATOM     57  C   UNL A   1      42.820  27.710  32.368  1.00  0.00     0.031 C 
ATOM     58  C   UNL A   1      42.651  29.146  34.378  1.00  0.00     0.037 A 
BRANCH  45  59
ATOM     59  C   UNL A   1      39.673  34.004  36.731  1.00  0.00     0.064 A 
ATOM     60  C   UNL A   1      38.924  33.734  37.886  1.00  0.00     0.173 A 
ATOM     61  C   UNL A   1      40.402  35.204  36.689  1.00  0.00     0.173 A 
ATOM     62  F   UNL A   1      38.200  32.608  37.974  1.00  0.00    -0.203 F 
ATOM     63  C   UNL A   1      38.898  34.633  38.950  1.00  0.00     0.198 A 
ATOM     64  C   UNL A   1      40.401  36.083  37.767  1.00  0.00     0.198 A 
ATOM     65  F   UNL A   1      41.137  35.510  35.609  1.00  0.00    -0.203 F 
ATOM     66  F   UNL A   1      38.147  34.371  40.029  1.00  0.00    -0.200 F 
ATOM     67  C   UNL A   1      39.646  35.799  38.895  1.00  0.00     0.200 A 
ATOM     68  F   UNL A   1      41.139  37.200  37.719  1.00  0.00    -0.200 F 
ATOM     69  F   UNL A   1      39.641  36.650  39.930  1.00  0.00    -0.200 F 
ENDBRANCH  45  59
BRANCH  46  70
ATOM     70  C   UNL A   1      40.532  27.946  28.832  1.00  0.00     0.064 A 
ATOM     71  C   UNL A   1      41.335  28.362  27.761  1.00  0.00     0.173 A 
ATOM     72  C   UNL A   1      39.875  26.712  28.706  1.00  0.00     0.173 A 
ATOM     73  F   UNL A   1      41.974  29.541  27.821  1.00  0.00    -0.203 F 
ATOM     74  C   UNL A   1      41.438  27.603  26.596  1.00  0.00     0.198 A 
ATOM     75  C   UNL A   1      40.011  25.933  27.559  1.00  0.00     0.198 A 
ATOM     76  F   UNL A   1      39.098  26.259  29.702  1.00  0.00    -0.203 F 
ATOM     77  F   UNL A   1      42.148  28.065  25.559  1.00  0.00    -0.200 F 
ATOM     78  C   UNL A   1      40.778  26.388  26.497  1.00  0.00     0.200 A 
ATOM     79  F   UNL A   1      39.388  24.751  27.476  1.00  0.00    -0.200 F 
ATOM     80  F   UNL A   1      40.869  25.662  25.375  1.00  0.00    -0.200 F 
ENDBRANCH  46  70
BRANCH  58  81
ATOM     81  C   UNL A   1      43.750  28.334  35.005  1.00  0.00     0.064 A 
ATOM     82  C   UNL A   1      43.489  27.162  35.729  1.00  0.00     0.173 A 
ATOM     83  C   UNL A   1      45.092  28.720  34.846  1.00  0.00     0.173 A 
ATOM     84  F   UNL A   1      42.225  26.753  35.920  1.00  0.00    -0.203 F 
ATOM     85  C   UNL A   1      44.525  26.427  36.301  1.00  0.00     0.198 A 
ATOM     86  C   UNL A   1      46.126  27.960  35.383  1.00  0.00     0.198 A 
ATOM     87  F   UNL A   1      45.401  29.827  34.154  1.00  0.00    -0.203 F 
ATOM     88  F   UNL A   1      44.245  25.346  37.042  1.00  0.00    -0.200 F 
ATOM     89  C   UNL A   1      45.842  26.822  36.121  1.00  0.00     0.200 A 
ATOM     90  F   UNL A   1      47.399  28.331  35.187  1.00  0.00    -0.200 F 
ATOM     91  F   UNL A   1      46.836  26.108  36.664  1.00  0.00    -0.200 F 
ENDBRANCH  58  81
ENDBRANCH  32  33
ENDBRANCH  24  27
ENDBRANCH  22  23
ENDBRANCH  21  22
ENDBRANCH   1  21
TORSDOF 15
ENDMDL
MODEL 2
REMARK VINA RESULT:     -11.7      2.560      4.452
REMARK SMILES CC(C)(C)N(CC(=O)NCCCCNC(=O)c1ccc(-c2c3nc(c(-c4c(F)c(F)c(F)c(F)c4F)c4ccc([nH]4)c(-c4c(F)c(F)c(F)c(F)c4F)c4nc(c(-c5c(F)c(F)c(F)c(F)c5F)c5ccc2[nH]5)C=C4)C=C3)cc1)c1cccc(C#N)n1
REMARK SMILES IDX 11 1 10 2 9 3 7 4 8 5 6 7 5 8 2 9 1 10 3 11 4 12 80 13 81 14
REMARK SMILES IDX 87 15 82 16 84 17 83 18 85 19 86 20 12 21 13 22 14 23 15 24
REMARK SMILES IDX 16 26 17 27 18 28 79 29 19 30 78 31 20 32 21 33 22 34 72 35
REMARK SMILES IDX 23 36 77 37 71 38 73 39 24 40 76 41 70 42 69 43 25 45 57 46
REMARK SMILES IDX 37 47 56 48 38 49 41 50 55 51 74 52 39 53 40 54 54 56 75 57
REMARK SMILES IDX 42 58 26 59 27 60 35 61 28 62 29 63 33 64 36 65 30 66 31 67
REMARK SMILES IDX 34 68 32 69 58 70 59 71 67 72 60 73 61 74 65 75 68 76 62 77
REMARK SMILES IDX 63 78 66 79 64 80 43 81 44 82 52 83 45 84 46 85 50 86 53 87
REMARK SMILES IDX 47 88 48 89 51 90 49 91
REMARK H PARENT 9 6 14 25 73 44 41 55
REMARK Flexibility Score: inf
ROOT
ATOM      1  C   UNL A   1      32.064  27.833  27.202  1.00  0.00     0.023 C 
ENDROOT
BRANCH   1   2
ATOM      2  C   UNL A   1      31.334  26.910  26.233  1.00  0.00     0.116 C 
BRANCH   2   3
ATOM      3  N   UNL A   1      31.047  25.621  26.800  1.00  0.00    -0.355 N 
ATOM      4  C   UNL A   1      31.778  24.470  26.687  1.00  0.00     0.239 C 
ATOM      5  O   UNL A   1      31.383  23.488  27.328  1.00  0.00    -0.273 OA
ATOM      6  H   UNL A   1      30.223  25.559  27.337  1.00  0.00     0.163 HD
BRANCH   4   7
ATOM      7  C   UNL A   1      33.122  24.435  25.921  1.00  0.00     0.218 C 
BRANCH   7   8
ATOM      8  N   UNL A   1      33.169  23.722  24.607  1.00  0.00    -0.342 N 
BRANCH   8   9
ATOM      9  C   UNL A   1      32.682  24.362  23.332  1.00  0.00     0.034 C 
ATOM     10  C   UNL A   1      33.130  23.606  22.053  1.00  0.00     0.034 C 
ATOM     11  C   UNL A   1      33.216  25.809  23.237  1.00  0.00     0.034 C 
ATOM     12  C   UNL A   1      31.148  24.419  23.208  1.00  0.00     0.034 C 
ENDBRANCH   8   9
BRANCH   8  13
ATOM     13  C   UNL A   1      33.851  22.504  24.688  1.00  0.00     0.130 A 
ATOM     14  C   UNL A   1      35.240  22.390  24.688  1.00  0.00     0.047 A 
ATOM     15  N   UNL A   1      33.120  21.380  24.841  1.00  0.00    -0.220 NA
ATOM     16  C   UNL A   1      35.873  21.149  24.810  1.00  0.00     0.007 A 
ATOM     17  C   UNL A   1      33.735  20.177  24.989  1.00  0.00     0.142 A 
ATOM     18  C   UNL A   1      35.107  20.012  24.965  1.00  0.00     0.040 A 
BRANCH  17  19
ATOM     19  C   UNL A   1      32.878  19.041  25.194  1.00  0.00     0.120 C 
ATOM     20  N   UNL A   1      32.137  18.154  25.309  1.00  0.00    -0.191 NA
ENDBRANCH  17  19
ENDBRANCH   8  13
ENDBRANCH   7   8
ENDBRANCH   4   7
ENDBRANCH   2   3
ENDBRANCH   1   2
BRANCH   1  21
ATOM     21  C   UNL A   1      31.702  29.303  27.051  1.00  0.00     0.023 C 
BRANCH  21  22
ATOM     22  C   UNL A   1      32.806  30.158  26.443  1.00  0.00     0.116 C 
BRANCH  22  23
ATOM     23  N   UNL A   1      32.708  31.571  26.792  1.00  0.00    -0.352 N 
ATOM     24  C   UNL A   1      33.571  32.333  27.545  1.00  0.00     0.251 C 
ATOM     25  H   UNL A   1      31.919  32.044  26.441  1.00  0.00     0.163 HD
ATOM     26  O   UNL A   1      33.282  33.481  27.863  1.00  0.00    -0.269 OA
BRANCH  24  27
ATOM     27  C   UNL A   1      34.838  31.727  28.001  1.00  0.00     0.039 A 
ATOM     28  C   UNL A   1      35.969  32.535  28.123  1.00  0.00     0.014 A 
ATOM     29  C   UNL A   1      34.877  30.385  28.384  1.00  0.00     0.014 A 
ATOM     30  C   UNL A   1      37.120  32.010  28.712  1.00  0.00     0.010 A 
ATOM     31  C   UNL A   1      35.984  29.900  29.068  1.00  0.00     0.010 A 
ATOM     32  C   UNL A   1      37.119  30.706  29.237  1.00  0.00    -0.014 A 
BRANCH  32  33
ATOM     33  C   UNL A   1      38.297  30.173  29.969  1.00  0.00     0.031 A 
ATOM     34  C   UNL A   1      38.567  30.614  31.382  1.00  0.00     0.074 A 
ATOM     35  C   UNL A   1      39.152  29.341  29.341  1.00  0.00     0.049 A 
ATOM     36  N   UNL A   1      39.566  30.300  32.168  1.00  0.00    -0.248 NA
ATOM     37  C   UNL A   1      37.607  31.553  31.986  1.00  0.00     0.031 C 
ATOM     38  C   UNL A   1      39.031  28.891  27.953  1.00  0.00     0.029 A 
ATOM     39  N   UNL A   1      40.300  28.733  29.785  1.00  0.00    -0.354 N 
ATOM     40  C   UNL A   1      39.362  31.012  33.341  1.00  0.00     0.074 A 
ATOM     41  C   UNL A   1      38.176  31.816  33.152  1.00  0.00     0.031 C 
ATOM     42  C   UNL A   1      40.045  28.060  27.668  1.00  0.00     0.029 A 
ATOM     43  C   UNL A   1      40.919  27.957  28.832  1.00  0.00     0.049 A 
ATOM     44  H   UNL A   1      40.650  28.841  30.699  1.00  0.00     0.167 HD
ATOM     45  C   UNL A   1      40.088  30.980  34.483  1.00  0.00     0.037 A 
ATOM     46  C   UNL A   1      42.070  27.261  28.884  1.00  0.00     0.037 A 
ATOM     47  C   UNL A   1      41.251  30.156  34.676  1.00  0.00     0.049 A 
ATOM     48  C   UNL A   1      42.859  27.253  30.169  1.00  0.00     0.074 A 
ATOM     49  C   UNL A   1      42.006  29.991  35.823  1.00  0.00     0.029 A 
ATOM     50  N   UNL A   1      41.838  29.371  33.694  1.00  0.00    -0.354 N 
ATOM     51  N   UNL A   1      42.599  27.853  31.306  1.00  0.00    -0.248 NA
ATOM     52  C   UNL A   1      44.098  26.463  30.181  1.00  0.00     0.031 C 
ATOM     53  C   UNL A   1      43.096  29.173  35.515  1.00  0.00     0.029 A 
ATOM     54  C   UNL A   1      42.970  28.754  34.200  1.00  0.00     0.049 A 
ATOM     55  H   UNL A   1      41.499  29.267  32.775  1.00  0.00     0.167 HD
ATOM     56  C   UNL A   1      43.621  27.487  32.173  1.00  0.00     0.074 A 
ATOM     57  C   UNL A   1      44.490  26.594  31.439  1.00  0.00     0.031 C 
ATOM     58  C   UNL A   1      43.822  27.859  33.461  1.00  0.00     0.037 A 
BRANCH  45  59
ATOM     59  C   UNL A   1      39.662  31.864  35.620  1.00  0.00     0.064 A 
ATOM     60  C   UNL A   1      40.197  33.147  35.805  1.00  0.00     0.173 A 
ATOM     61  C   UNL A   1      38.637  31.450  36.486  1.00  0.00     0.173 A 
ATOM     62  F   UNL A   1      41.187  33.587  35.013  1.00  0.00    -0.203 F 
ATOM     63  C   UNL A   1      39.733  33.977  36.822  1.00  0.00     0.198 A 
ATOM     64  C   UNL A   1      38.152  32.294  37.480  1.00  0.00     0.198 A 
ATOM     65  F   UNL A   1      38.088  30.233  36.352  1.00  0.00    -0.203 F 
ATOM     66  F   UNL A   1      40.285  35.185  37.003  1.00  0.00    -0.200 F 
ATOM     67  C   UNL A   1      38.704  33.556  37.650  1.00  0.00     0.200 A 
ATOM     68  F   UNL A   1      37.145  31.893  38.266  1.00  0.00    -0.200 F 
ATOM     69  F   UNL A   1      38.241  34.366  38.612  1.00  0.00    -0.200 F 
ENDBRANCH  45  59
BRANCH  46  70
ATOM     70  C   UNL A   1      42.564  26.525  27.687  1.00  0.00     0.064 A 
ATOM     71  C   UNL A   1      42.204  25.191  27.450  1.00  0.00     0.173 A 
ATOM     72  C   UNL A   1      43.454  27.125  26.783  1.00  0.00     0.173 A 
ATOM     73  F   UNL A   1      41.369  24.562  28.292  1.00  0.00    -0.203 F 
ATOM     74  C   UNL A   1      42.748  24.473  26.386  1.00  0.00     0.198 A 
ATOM     75  C   UNL A   1      43.964  26.421  25.695  1.00  0.00     0.198 A 
ATOM     76  F   UNL A   1      43.829  28.402  26.956  1.00  0.00    -0.203 F 
ATOM     77  F   UNL A   1      42.446  23.177  26.232  1.00  0.00    -0.200 F 
ATOM     78  C   UNL A   1      43.625  25.090  25.507  1.00  0.00     0.200 A 
ATOM     79  F   UNL A   1      44.796  27.027  24.837  1.00  0.00    -0.200 F 
ATOM     80  F   UNL A   1      44.154  24.399  24.489  1.00  0.00    -0.200 F 
ENDBRANCH  46  70
BRANCH  58  81
ATOM     81  C   UNL A   1      45.002  27.264  34.178  1.00  0.00     0.064 A 
ATOM     82  C   UNL A   1      46.248  27.906  34.220  1.00  0.00     0.173 A 
ATOM     83  C   UNL A   1      44.870  26.046  34.865  1.00  0.00     0.173 A 
ATOM     84  F   UNL A   1      46.433  29.068  33.573  1.00  0.00    -0.203 F 
ATOM     85  C   UNL A   1      47.327  27.334  34.890  1.00  0.00     0.198 A 
ATOM     86  C   UNL A   1      45.938  25.499  35.569  1.00  0.00     0.198 A 
ATOM     87  F   UNL A   1      43.698  25.394  34.867  1.00  0.00    -0.203 F 
ATOM     88  F   UNL A   1      48.524  27.936  34.863  1.00  0.00    -0.200 F 
ATOM     89  C   UNL A   1      47.168  26.137  35.571  1.00  0.00     0.200 A 
ATOM     90  F   UNL A   1      45.775  24.354  36.245  1.00  0.00    -0.200 F 
ATOM     91  F   UNL A   1      48.205  25.594  36.223  1.00  0.00    -0.200 F 
ENDBRANCH  58  81
ENDBRANCH  32  33
ENDBRANCH  24  27
ENDBRANCH  22  23
ENDBRANCH  21  22
ENDBRANCH   1  21
TORSDOF 15
ENDMDL
MODEL 3
REMARK VINA RESULT:     -11.7      1.203      2.940
REMARK SMILES CC(C)(C)N(CC(=O)NCCCCNC(=O)c1ccc(-c2c3nc(c(-c4c(F)c(F)c(F)c(F)c4F)c4ccc([nH]4)c(-c4c(F)c(F)c(F)c(F)c4F)c4nc(c(-c5c(F)c(F)c(F)c(F)c5F)c5ccc2[nH]5)C=C4)C=C3)cc1)c1cccc(C#N)n1
REMARK SMILES IDX 11 1 10 2 9 3 7 4 8 5 6 7 5 8 2 9 1 10 3 11 4 12 80 13 81 14
REMARK SMILES IDX 87 15 82 16 84 17 83 18 85 19 86 20 12 21 13 22 14 23 15 24
REMARK SMILES IDX 16 26 17 27 18 28 79 29 19 30 78 31 20 32 21 33 22 34 72 35
REMARK SMILES IDX 23 36 77 37 71 38 73 39 24 40 76 41 70 42 69 43 25 45 57 46
REMARK SMILES IDX 37 47 56 48 38 49 41 50 55 51 74 52 39 53 40 54 54 56 75 57
REMARK SMILES IDX 42 58 26 59 27 60 35 61 28 62 29 63 33 64 36 65 30 66 31 67
REMARK SMILES IDX 34 68 32 69 58 70 59 71 67 72 60 73 61 74 65 75 68 76 62 77
REMARK SMILES IDX 63 78 66 79 64 80 43 81 44 82 52 83 45 84 46 85 50 86 53 87
REMARK SMILES IDX 47 88 48 89 51 90 49 91
REMARK H PARENT 9 6 14 25 73 44 41 55
REMARK Flexibility Score: inf
ROOT
ATOM      1  C   UNL A   1      31.747  30.593  26.519  1.00  0.00     0.023 C 
ENDROOT
BRANCH   1   2
ATOM      2  C   UNL A   1      31.422  30.010  25.148  1.00  0.00     0.116 C 
BRANCH   2   3
ATOM      3  N   UNL A   1      32.575  29.460  24.489  1.00  0.00    -0.355 N 
ATOM      4  C   UNL A   1      33.062  28.183  24.571  1.00  0.00     0.239 C 
ATOM      5  O   UNL A   1      34.028  27.903  23.852  1.00  0.00    -0.273 OA
ATOM      6  H   UNL A   1      33.075  30.077  23.906  1.00  0.00     0.163 HD
BRANCH   4   7
ATOM      7  C   UNL A   1      32.345  27.094  25.403  1.00  0.00     0.218 C 
BRANCH   7   8
ATOM      8  N   UNL A   1      32.111  25.760  24.770  1.00  0.00    -0.342 N 
BRANCH   8   9
ATOM      9  C   UNL A   1      31.076  25.556  23.692  1.00  0.00     0.034 C 
ATOM     10  C   UNL A   1      31.561  25.991  22.283  1.00  0.00     0.034 C 
ATOM     11  C   UNL A   1      29.807  26.371  24.026  1.00  0.00     0.034 C 
ATOM     12  C   UNL A   1      30.655  24.088  23.499  1.00  0.00     0.034 C 
ENDBRANCH   8   9
BRANCH   8  13
ATOM     13  C   UNL A   1      33.053  24.808  25.173  1.00  0.00     0.130 A 
ATOM     14  C   UNL A   1      33.016  24.151  26.401  1.00  0.00     0.047 A 
ATOM     15  N   UNL A   1      34.016  24.460  24.294  1.00  0.00    -0.220 NA
ATOM     16  C   UNL A   1      33.961  23.178  26.741  1.00  0.00     0.007 A 
ATOM     17  C   UNL A   1      34.917  23.494  24.611  1.00  0.00     0.142 A 
ATOM     18  C   UNL A   1      34.938  22.837  25.827  1.00  0.00     0.040 A 
BRANCH  17  19
ATOM     19  C   UNL A   1      35.877  23.156  23.595  1.00  0.00     0.120 C 
ATOM     20  N   UNL A   1      36.649  22.954  22.751  1.00  0.00    -0.191 NA
ENDBRANCH  17  19
ENDBRANCH   8  13
ENDBRANCH   7   8
ENDBRANCH   4   7
ENDBRANCH   2   3
ENDBRANCH   1   2
BRANCH   1  21
ATOM     21  C   UNL A   1      31.561  32.101  26.611  1.00  0.00     0.023 C 
BRANCH  21  22
ATOM     22  C   UNL A   1      32.725  32.833  27.266  1.00  0.00     0.116 C 
BRANCH  22  23
ATOM     23  N   UNL A   1      32.416  34.213  27.626  1.00  0.00    -0.352 N 
ATOM     24  C   UNL A   1      32.988  34.995  28.602  1.00  0.00     0.251 C 
ATOM     25  H   UNL A   1      31.705  34.643  27.099  1.00  0.00     0.163 HD
ATOM     26  O   UNL A   1      32.527  36.098  28.874  1.00  0.00    -0.269 OA
BRANCH  24  27
ATOM     27  C   UNL A   1      34.145  34.464  29.350  1.00  0.00     0.039 A 
ATOM     28  C   UNL A   1      33.923  33.791  30.552  1.00  0.00     0.014 A 
ATOM     29  C   UNL A   1      35.431  34.562  28.816  1.00  0.00     0.014 A 
ATOM     30  C   UNL A   1      34.989  33.142  31.175  1.00  0.00     0.010 A 
ATOM     31  C   UNL A   1      36.465  33.825  29.379  1.00  0.00     0.010 A 
ATOM     32  C   UNL A   1      36.256  33.109  30.567  1.00  0.00    -0.014 A 
BRANCH  32  33
ATOM     33  C   UNL A   1      37.371  32.326  31.159  1.00  0.00     0.031 A 
ATOM     34  C   UNL A   1      37.878  32.661  32.536  1.00  0.00     0.074 A 
ATOM     35  C   UNL A   1      37.964  31.357  30.434  1.00  0.00     0.049 A 
ATOM     36  N   UNL A   1      38.869  32.127  33.203  1.00  0.00    -0.248 NA
ATOM     37  C   UNL A   1      37.202  33.757  33.249  1.00  0.00     0.031 C 
ATOM     38  C   UNL A   1      37.604  30.982  29.065  1.00  0.00     0.029 A 
ATOM     39  N   UNL A   1      39.004  30.514  30.742  1.00  0.00    -0.354 N 
ATOM     40  C   UNL A   1      38.944  32.830  34.397  1.00  0.00     0.074 A 
ATOM     41  C   UNL A   1      37.935  33.864  34.347  1.00  0.00     0.031 C 
ATOM     42  C   UNL A   1      38.389  29.971  28.662  1.00  0.00     0.029 A 
ATOM     43  C   UNL A   1      39.343  29.658  29.721  1.00  0.00     0.049 A 
ATOM     44  H   UNL A   1      39.465  30.522  31.612  1.00  0.00     0.167 HD
ATOM     45  C   UNL A   1      39.767  32.617  35.450  1.00  0.00     0.037 A 
ATOM     46  C   UNL A   1      40.326  28.741  29.639  1.00  0.00     0.037 A 
ATOM     47  C   UNL A   1      40.750  31.569  35.505  1.00  0.00     0.049 A 
ATOM     48  C   UNL A   1      41.231  28.535  30.827  1.00  0.00     0.074 A 
ATOM     49  C   UNL A   1      41.574  31.220  36.560  1.00  0.00     0.029 A 
ATOM     50  N   UNL A   1      41.053  30.710  34.459  1.00  0.00    -0.354 N 
ATOM     51  N   UNL A   1      41.224  29.141  31.990  1.00  0.00    -0.248 NA
ATOM     52  C   UNL A   1      42.275  27.508  30.696  1.00  0.00     0.031 C 
ATOM     53  C   UNL A   1      42.433  30.207  36.126  1.00  0.00     0.029 A 
ATOM     54  C   UNL A   1      42.083  29.862  34.831  1.00  0.00     0.049 A 
ATOM     55  H   UNL A   1      40.603  30.705  33.583  1.00  0.00     0.167 HD
ATOM     56  C   UNL A   1      42.236  28.549  32.735  1.00  0.00     0.074 A 
ATOM     57  C   UNL A   1      42.819  27.520  31.903  1.00  0.00     0.031 C 
ATOM     58  C   UNL A   1      42.648  28.834  33.995  1.00  0.00     0.037 A 
BRANCH  45  59
ATOM     59  C   UNL A   1      39.657  33.535  36.633  1.00  0.00     0.064 A 
ATOM     60  C   UNL A   1      40.296  34.783  36.667  1.00  0.00     0.173 A 
ATOM     61  C   UNL A   1      38.827  33.194  37.713  1.00  0.00     0.173 A 
ATOM     62  F   UNL A   1      41.110  35.154  35.668  1.00  0.00    -0.203 F 
ATOM     63  C   UNL A   1      40.120  35.649  37.744  1.00  0.00     0.198 A 
ATOM     64  C   UNL A   1      38.625  34.075  38.771  1.00  0.00     0.198 A 
ATOM     65  F   UNL A   1      38.190  32.014  37.729  1.00  0.00    -0.203 F 
ATOM     66  F   UNL A   1      40.769  36.821  37.773  1.00  0.00    -0.200 F 
ATOM     67  C   UNL A   1      39.275  35.301  38.787  1.00  0.00     0.200 A 
ATOM     68  F   UNL A   1      37.795  33.744  39.767  1.00  0.00    -0.200 F 
ATOM     69  F   UNL A   1      39.086  36.146  39.810  1.00  0.00    -0.200 F 
ENDBRANCH  45  59
BRANCH  46  70
ATOM     70  C   UNL A   1      40.526  27.955  28.389  1.00  0.00     0.064 A 
ATOM     71  C   UNL A   1      39.988  26.669  28.241  1.00  0.00     0.173 A 
ATOM     72  C   UNL A   1      41.308  28.455  27.336  1.00  0.00     0.173 A 
ATOM     73  F   UNL A   1      39.246  26.136  29.224  1.00  0.00    -0.203 F 
ATOM     74  C   UNL A   1      40.261  25.897  27.113  1.00  0.00     0.198 A 
ATOM     75  C   UNL A   1      41.546  27.700  26.190  1.00  0.00     0.198 A 
ATOM     76  F   UNL A   1      41.843  29.682  27.420  1.00  0.00    -0.203 F 
ATOM     77  F   UNL A   1      39.800  24.642  27.036  1.00  0.00    -0.200 F 
ATOM     78  C   UNL A   1      41.038  26.414  26.087  1.00  0.00     0.200 A 
ATOM     79  F   UNL A   1      42.280  28.211  25.193  1.00  0.00    -0.200 F 
ATOM     80  F   UNL A   1      41.307  25.669  25.007  1.00  0.00    -0.200 F 
ENDBRANCH  46  70
BRANCH  58  81
ATOM     81  C   UNL A   1      43.751  27.991  34.571  1.00  0.00     0.064 A 
ATOM     82  C   UNL A   1      43.496  26.769  35.210  1.00  0.00     0.173 A 
ATOM     83  C   UNL A   1      45.089  28.398  34.449  1.00  0.00     0.173 A 
ATOM     84  F   UNL A   1      42.234  26.336  35.364  1.00  0.00    -0.203 F 
ATOM     85  C   UNL A   1      44.534  26.005  35.737  1.00  0.00     0.198 A 
ATOM     86  C   UNL A   1      46.127  27.612  34.939  1.00  0.00     0.198 A 
ATOM     87  F   UNL A   1      45.392  29.553  33.837  1.00  0.00    -0.203 F 
ATOM     88  F   UNL A   1      44.260  24.873  36.399  1.00  0.00    -0.200 F 
ATOM     89  C   UNL A   1      45.849  26.423  35.594  1.00  0.00     0.200 A 
ATOM     90  F   UNL A   1      47.397  28.007  34.778  1.00  0.00    -0.200 F 
ATOM     91  F   UNL A   1      46.847  25.682  36.093  1.00  0.00    -0.200 F 
ENDBRANCH  58  81
ENDBRANCH  32  33
ENDBRANCH  24  27
ENDBRANCH  22  23
ENDBRANCH  21  22
ENDBRANCH   1  21
TORSDOF 15
ENDMDL
