MODEL 1
REMARK VINA RESULT:      -9.6      0.000      0.000
REMARK SMILES CN(C)S(=O)(=O)c1cccc(-c2cc(Cl)cc(C(=O)NCCCCNC(=O)c3ccc(-c4c5nc(c(-c6c(F)c(F)c(F)c(F)c6F)c6ccc([nH]6)c(-c6c(F)c(F)c(F)c(F)c6F)c6nc(c(-c7c(F)c(F)c(F)c(F)c7F)c7ccc4[nH]7)C=C6)C=C5)cc3)c2)c1
REMARK SMILES IDX 22 1 21 2 20 3 18 4 19 5 17 7 12 8 13 9 91 10 14 11 15 12
REMARK SMILES IDX 16 13 11 14 7 15 8 16 92 17 9 18 10 19 4 20 5 21 6 22 2 23
REMARK SMILES IDX 1 24 3 25 23 26 24 27 25 28 26 29 27 31 28 32 29 33 90 34
REMARK SMILES IDX 30 35 89 36 31 37 32 38 33 39 83 40 34 41 88 42 82 43 84 44
REMARK SMILES IDX 35 45 87 46 81 47 80 48 36 50 68 51 48 52 67 53 49 54 52 55
REMARK SMILES IDX 66 56 85 57 50 58 51 59 65 61 86 62 53 63 37 64 38 65 46 66
REMARK SMILES IDX 39 67 40 68 44 69 47 70 41 71 42 72 45 73 43 74 69 75 70 76
REMARK SMILES IDX 78 77 71 78 72 79 76 80 79 81 73 82 74 83 77 84 75 85 54 86
REMARK SMILES IDX 55 87 63 88 56 89 57 90 61 91 64 92 58 93 59 94 62 95 60 96
REMARK H PARENT 20 6 25 30 84 49 52 60
REMARK Flexibility Score: inf
ROOT
ATOM      1  C   UNL A   1      42.655  23.180  28.463  1.00  0.00     0.023 C 
ENDROOT
BRANCH   1   2
ATOM      2  C   UNL A   1      44.167  23.092  28.615  1.00  0.00     0.116 C 
BRANCH   2   3
ATOM      3  N   UNL A   1      44.886  22.665  27.423  1.00  0.00    -0.352 N 
ATOM      4  C   UNL A   1      45.895  23.284  26.712  1.00  0.00     0.251 C 
ATOM      5  O   UNL A   1      46.347  22.735  25.711  1.00  0.00    -0.269 OA
ATOM      6  H   UNL A   1      44.607  21.790  27.066  1.00  0.00     0.163 HD
BRANCH   4   7
ATOM      7  C   UNL A   1      46.398  24.629  27.094  1.00  0.00     0.041 A 
ATOM      8  C   UNL A   1      46.007  27.029  27.272  1.00  0.00    -0.016 A 
ATOM      9  C   UNL A   1      47.389  27.225  27.370  1.00  0.00     0.029 A 
ATOM     10  C   UNL A   1      45.530  25.707  27.260  1.00  0.00     0.022 A 
ATOM     11  C   UNL A   1      48.259  26.130  27.373  1.00  0.00     0.042 A 
ATOM     12  Cl  UNL A   1      49.956  26.396  27.483  1.00  0.00    -0.084 Cl
ATOM     13  C   UNL A   1      47.773  24.834  27.203  1.00  0.00     0.034 A 
BRANCH   8  14
ATOM     14  C   UNL A   1      45.059  28.112  26.946  1.00  0.00    -0.017 A 
ATOM     15  C   UNL A   1      44.094  30.278  27.477  1.00  0.00     0.083 A 
ATOM     16  C   UNL A   1      42.925  29.955  26.783  1.00  0.00     0.022 A 
ATOM     17  C   UNL A   1      45.168  29.382  27.533  1.00  0.00     0.030 A 
ATOM     18  C   UNL A   1      42.834  28.730  26.133  1.00  0.00     0.002 A 
ATOM     19  C   UNL A   1      43.887  27.815  26.221  1.00  0.00     0.009 A 
BRANCH  15  20
ATOM     20  S   UNL A   1      44.157  31.804  28.383  1.00  0.00     0.242 S 
ATOM     21  O   UNL A   1      45.451  31.872  29.037  1.00  0.00    -0.207 OA
ATOM     22  O   UNL A   1      42.925  31.892  29.128  1.00  0.00    -0.207 OA
BRANCH  20  23
ATOM     23  N   UNL A   1      44.153  33.027  27.175  1.00  0.00    -0.204 NA
ATOM     24  C   UNL A   1      43.713  34.341  27.710  1.00  0.00     0.124 C 
ATOM     25  C   UNL A   1      45.413  33.170  26.410  1.00  0.00     0.124 C 
ENDBRANCH  20  23
ENDBRANCH  15  20
ENDBRANCH   8  14
ENDBRANCH   4   7
ENDBRANCH   2   3
ENDBRANCH   1   2
BRANCH   1  26
ATOM     26  C   UNL A   1      41.979  22.054  27.691  1.00  0.00     0.023 C 
BRANCH  26  27
ATOM     27  C   UNL A   1      41.658  22.335  26.228  1.00  0.00     0.116 C 
BRANCH  27  28
ATOM     28  N   UNL A   1      40.253  22.177  25.886  1.00  0.00    -0.352 N 
ATOM     29  C   UNL A   1      39.191  23.023  26.118  1.00  0.00     0.251 C 
ATOM     30  H   UNL A   1      40.027  21.342  25.418  1.00  0.00     0.163 HD
ATOM     31  O   UNL A   1      38.060  22.688  25.777  1.00  0.00    -0.269 OA
BRANCH  29  32
ATOM     32  C   UNL A   1      39.397  24.308  26.820  1.00  0.00     0.039 A 
ATOM     33  C   UNL A   1      38.960  24.428  28.143  1.00  0.00     0.014 A 
ATOM     34  C   UNL A   1      40.041  25.378  26.197  1.00  0.00     0.014 A 
ATOM     35  C   UNL A   1      39.251  25.586  28.869  1.00  0.00     0.010 A 
ATOM     36  C   UNL A   1      40.401  26.497  26.944  1.00  0.00     0.010 A 
ATOM     37  C   UNL A   1      40.016  26.611  28.290  1.00  0.00    -0.014 A 
BRANCH  37  38
ATOM     38  C   UNL A   1      40.426  27.808  29.067  1.00  0.00     0.031 A 
ATOM     39  C   UNL A   1      41.799  27.877  29.675  1.00  0.00     0.074 A 
ATOM     40  C   UNL A   1      39.541  28.798  29.291  1.00  0.00     0.049 A 
ATOM     41  N   UNL A   1      42.315  28.790  30.459  1.00  0.00    -0.248 NA
ATOM     42  C   UNL A   1      42.702  26.753  29.387  1.00  0.00     0.031 C 
ATOM     43  C   UNL A   1      38.165  28.833  28.796  1.00  0.00     0.029 A 
ATOM     44  N   UNL A   1      39.667  29.965  30.003  1.00  0.00    -0.354 N 
ATOM     45  C   UNL A   1      43.590  28.340  30.773  1.00  0.00     0.074 A 
ATOM     46  C   UNL A   1      43.750  27.048  30.140  1.00  0.00     0.031 C 
ATOM     47  C   UNL A   1      37.583  29.975  29.193  1.00  0.00     0.029 A 
ATOM     48  C   UNL A   1      38.532  30.737  30.000  1.00  0.00     0.049 A 
ATOM     49  H   UNL A   1      40.494  30.224  30.472  1.00  0.00     0.167 HD
ATOM     50  C   UNL A   1      44.551  28.957  31.500  1.00  0.00     0.037 A 
ATOM     51  C   UNL A   1      38.285  31.927  30.582  1.00  0.00     0.037 A 
ATOM     52  C   UNL A   1      44.403  30.255  32.105  1.00  0.00     0.049 A 
ATOM     53  C   UNL A   1      39.368  32.595  31.383  1.00  0.00     0.074 A 
ATOM     54  C   UNL A   1      45.335  30.988  32.818  1.00  0.00     0.029 A 
ATOM     55  N   UNL A   1      43.244  31.015  32.061  1.00  0.00    -0.354 N 
ATOM     56  N   UNL A   1      40.588  32.184  31.628  1.00  0.00    -0.248 NA
ATOM     57  C   UNL A   1      39.039  33.894  31.986  1.00  0.00     0.031 C 
ATOM     58  C   UNL A   1      44.729  32.179  33.235  1.00  0.00     0.029 A 
ATOM     59  C   UNL A   1      43.433  32.206  32.745  1.00  0.00     0.049 A 
ATOM     60  H   UNL A   1      42.411  30.749  31.610  1.00  0.00     0.167 HD
ATOM     61  C   UNL A   1      41.183  33.186  32.384  1.00  0.00     0.074 A 
ATOM     62  C   UNL A   1      40.191  34.228  32.551  1.00  0.00     0.031 C 
ATOM     63  C   UNL A   1      42.439  33.238  32.890  1.00  0.00     0.037 A 
BRANCH  50  64
ATOM     64  C   UNL A   1      45.853  28.228  31.675  1.00  0.00     0.064 A 
ATOM     65  C   UNL A   1      46.013  27.238  32.658  1.00  0.00     0.173 A 
ATOM     66  C   UNL A   1      46.950  28.521  30.854  1.00  0.00     0.173 A 
ATOM     67  F   UNL A   1      44.997  26.933  33.478  1.00  0.00    -0.203 F 
ATOM     68  C   UNL A   1      47.235  26.598  32.837  1.00  0.00     0.198 A 
ATOM     69  C   UNL A   1      48.163  27.855  31.016  1.00  0.00     0.198 A 
ATOM     70  F   UNL A   1      46.851  29.455  29.896  1.00  0.00    -0.203 F 
ATOM     71  F   UNL A   1      47.381  25.701  33.822  1.00  0.00    -0.200 F 
ATOM     72  C   UNL A   1      48.308  26.903  32.013  1.00  0.00     0.200 A 
ATOM     73  F   UNL A   1      49.197  28.143  30.213  1.00  0.00    -0.200 F 
ATOM     74  F   UNL A   1      49.485  26.287  32.189  1.00  0.00    -0.200 F 
ENDBRANCH  50  64
BRANCH  51  75
ATOM     75  C   UNL A   1      36.969  32.589  30.383  1.00  0.00     0.064 A 
ATOM     76  C   UNL A   1      35.969  32.490  31.361  1.00  0.00     0.173 A 
ATOM     77  C   UNL A   1      36.685  33.330  29.229  1.00  0.00     0.173 A 
ATOM     78  F   UNL A   1      36.190  31.773  32.472  1.00  0.00    -0.203 F 
ATOM     79  C   UNL A   1      34.728  33.098  31.185  1.00  0.00     0.198 A 
ATOM     80  C   UNL A   1      35.452  33.958  29.065  1.00  0.00     0.198 A 
ATOM     81  F   UNL A   1      37.611  33.457  28.266  1.00  0.00    -0.203 F 
ATOM     82  F   UNL A   1      33.778  32.959  32.119  1.00  0.00    -0.200 F 
ATOM     83  C   UNL A   1      34.473  33.837  30.040  1.00  0.00     0.200 A 
ATOM     84  F   UNL A   1      35.211  34.681  27.961  1.00  0.00    -0.200 F 
ATOM     85  F   UNL A   1      33.281  34.426  29.873  1.00  0.00    -0.200 F 
ENDBRANCH  51  75
BRANCH  63  86
ATOM     86  C   UNL A   1      42.827  34.481  33.635  1.00  0.00     0.064 A 
ATOM     87  C   UNL A   1      43.319  35.614  32.971  1.00  0.00     0.173 A 
ATOM     88  C   UNL A   1      42.668  34.550  35.028  1.00  0.00     0.173 A 
ATOM     89  F   UNL A   1      43.504  35.591  31.643  1.00  0.00    -0.203 F 
ATOM     90  C   UNL A   1      43.660  36.765  33.679  1.00  0.00     0.198 A 
ATOM     91  C   UNL A   1      42.986  35.710  35.728  1.00  0.00     0.198 A 
ATOM     92  F   UNL A   1      42.196  33.494  35.707  1.00  0.00    -0.203 F 
ATOM     93  F   UNL A   1      44.170  37.821  33.031  1.00  0.00    -0.200 F 
ATOM     94  C   UNL A   1      43.487  36.813  35.054  1.00  0.00     0.200 A 
ATOM     95  F   UNL A   1      42.807  35.760  37.056  1.00  0.00    -0.200 F 
ATOM     96  F   UNL A   1      43.811  37.923  35.732  1.00  0.00    -0.200 F 
ENDBRANCH  63  86
ENDBRANCH  37  38
ENDBRANCH  29  32
ENDBRANCH  27  28
ENDBRANCH  26  27
ENDBRANCH   1  26
TORSDOF 14
ENDMDL
MODEL 2
REMARK VINA RESULT:      -9.5      5.764     10.898
REMARK SMILES CN(C)S(=O)(=O)c1cccc(-c2cc(Cl)cc(C(=O)NCCCCNC(=O)c3ccc(-c4c5nc(c(-c6c(F)c(F)c(F)c(F)c6F)c6ccc([nH]6)c(-c6c(F)c(F)c(F)c(F)c6F)c6nc(c(-c7c(F)c(F)c(F)c(F)c7F)c7ccc4[nH]7)C=C6)C=C5)cc3)c2)c1
REMARK SMILES IDX 22 1 21 2 20 3 18 4 19 5 17 7 12 8 13 9 91 10 14 11 15 12
REMARK SMILES IDX 16 13 11 14 7 15 8 16 92 17 9 18 10 19 4 20 5 21 6 22 2 23
REMARK SMILES IDX 1 24 3 25 23 26 24 27 25 28 26 29 27 31 28 32 29 33 90 34
REMARK SMILES IDX 30 35 89 36 31 37 32 38 33 39 83 40 34 41 88 42 82 43 84 44
REMARK SMILES IDX 35 45 87 46 81 47 80 48 36 50 68 51 48 52 67 53 49 54 52 55
REMARK SMILES IDX 66 56 85 57 50 58 51 59 65 61 86 62 53 63 37 64 38 65 46 66
REMARK SMILES IDX 39 67 40 68 44 69 47 70 41 71 42 72 45 73 43 74 69 75 70 76
REMARK SMILES IDX 78 77 71 78 72 79 76 80 79 81 73 82 74 83 77 84 75 85 54 86
REMARK SMILES IDX 55 87 63 88 56 89 57 90 61 91 64 92 58 93 59 94 62 95 60 96
REMARK H PARENT 20 6 25 30 84 49 52 60
REMARK Flexibility Score: inf
ROOT
ATOM      1  C   UNL A   1      31.819  30.472  26.876  1.00  0.00     0.023 C 
ENDROOT
BRANCH   1   2
ATOM      2  C   UNL A   1      33.217  29.922  26.627  1.00  0.00     0.116 C 
BRANCH   2   3
ATOM      3  N   UNL A   1      33.601  29.819  25.226  1.00  0.00    -0.352 N 
ATOM      4  C   UNL A   1      33.004  29.145  24.178  1.00  0.00     0.251 C 
ATOM      5  O   UNL A   1      33.523  29.187  23.066  1.00  0.00    -0.269 OA
ATOM      6  H   UNL A   1      34.420  30.311  24.987  1.00  0.00     0.163 HD
BRANCH   4   7
ATOM      7  C   UNL A   1      31.788  28.318  24.382  1.00  0.00     0.041 A 
ATOM      8  C   UNL A   1      30.799  26.188  25.038  1.00  0.00    -0.016 A 
ATOM      9  C   UNL A   1      29.618  26.559  24.383  1.00  0.00     0.029 A 
ATOM     10  C   UNL A   1      31.827  27.141  25.129  1.00  0.00     0.022 A 
ATOM     11  C   UNL A   1      29.514  27.813  23.774  1.00  0.00     0.042 A 
ATOM     12  Cl  UNL A   1      28.056  28.243  22.965  1.00  0.00    -0.084 Cl
ATOM     13  C   UNL A   1      30.603  28.683  23.741  1.00  0.00     0.034 A 
BRANCH   8  14
ATOM     14  C   UNL A   1      31.106  24.797  25.422  1.00  0.00    -0.017 A 
ATOM     15  C   UNL A   1      32.080  22.641  24.867  1.00  0.00     0.083 A 
ATOM     16  C   UNL A   1      31.237  21.998  25.777  1.00  0.00     0.022 A 
ATOM     17  C   UNL A   1      32.043  24.031  24.711  1.00  0.00     0.030 A 
ATOM     18  C   UNL A   1      30.356  22.754  26.542  1.00  0.00     0.002 A 
ATOM     19  C   UNL A   1      30.286  24.137  26.360  1.00  0.00     0.009 A 
BRANCH  15  20
ATOM     20  S   UNL A   1      33.129  21.654  23.828  1.00  0.00     0.242 S 
ATOM     21  O   UNL A   1      34.155  22.526  23.286  1.00  0.00    -0.207 OA
ATOM     22  O   UNL A   1      32.257  20.886  22.973  1.00  0.00    -0.207 OA
BRANCH  20  23
ATOM     23  N   UNL A   1      33.921  20.577  24.909  1.00  0.00    -0.204 NA
ATOM     24  C   UNL A   1      33.561  19.160  24.651  1.00  0.00     0.124 C 
ATOM     25  C   UNL A   1      35.392  20.734  25.000  1.00  0.00     0.124 C 
ENDBRANCH  20  23
ENDBRANCH  15  20
ENDBRANCH   8  14
ENDBRANCH   4   7
ENDBRANCH   2   3
ENDBRANCH   1   2
BRANCH   1  26
ATOM     26  C   UNL A   1      31.651  31.982  26.766  1.00  0.00     0.023 C 
BRANCH  26  27
ATOM     27  C   UNL A   1      32.811  32.831  27.271  1.00  0.00     0.116 C 
BRANCH  27  28
ATOM     28  N   UNL A   1      32.434  34.176  27.675  1.00  0.00    -0.352 N 
ATOM     29  C   UNL A   1      33.005  35.006  28.614  1.00  0.00     0.251 C 
ATOM     30  H   UNL A   1      31.653  34.551  27.207  1.00  0.00     0.163 HD
ATOM     31  O   UNL A   1      32.510  36.107  28.836  1.00  0.00    -0.269 OA
BRANCH  29  32
ATOM     32  C   UNL A   1      34.181  34.557  29.393  1.00  0.00     0.039 A 
ATOM     33  C   UNL A   1      33.974  34.004  30.661  1.00  0.00     0.014 A 
ATOM     34  C   UNL A   1      35.472  34.650  28.872  1.00  0.00     0.014 A 
ATOM     35  C   UNL A   1      35.053  33.461  31.365  1.00  0.00     0.010 A 
ATOM     36  C   UNL A   1      36.530  34.037  29.537  1.00  0.00     0.010 A 
ATOM     37  C   UNL A   1      36.331  33.430  30.788  1.00  0.00    -0.014 A 
BRANCH  37  38
ATOM     38  C   UNL A   1      37.475  32.770  31.468  1.00  0.00     0.031 A 
ATOM     39  C   UNL A   1      38.192  31.630  30.801  1.00  0.00     0.074 A 
ATOM     40  C   UNL A   1      37.820  33.144  32.716  1.00  0.00     0.049 A 
ATOM     41  N   UNL A   1      39.151  30.868  31.265  1.00  0.00    -0.248 NA
ATOM     42  C   UNL A   1      37.750  31.281  29.444  1.00  0.00     0.031 C 
ATOM     43  C   UNL A   1      37.176  34.205  33.491  1.00  0.00     0.029 A 
ATOM     44  N   UNL A   1      38.796  32.666  33.555  1.00  0.00    -0.354 N 
ATOM     45  C   UNL A   1      39.410  29.940  30.266  1.00  0.00     0.074 A 
ATOM     46  C   UNL A   1      38.472  30.199  29.195  1.00  0.00     0.031 C 
ATOM     47  C   UNL A   1      37.792  34.318  34.679  1.00  0.00     0.029 A 
ATOM     48  C   UNL A   1      38.849  33.314  34.764  1.00  0.00     0.049 A 
ATOM     49  H   UNL A   1      39.400  31.926  33.312  1.00  0.00     0.167 HD
ATOM     50  C   UNL A   1      40.360  28.975  30.231  1.00  0.00     0.037 A 
ATOM     51  C   UNL A   1      39.661  33.122  35.821  1.00  0.00     0.037 A 
ATOM     52  C   UNL A   1      41.313  28.736  31.283  1.00  0.00     0.049 A 
ATOM     53  C   UNL A   1      40.709  32.045  35.759  1.00  0.00     0.074 A 
ATOM     54  C   UNL A   1      42.346  27.817  31.322  1.00  0.00     0.029 A 
ATOM     55  N   UNL A   1      41.347  29.429  32.484  1.00  0.00    -0.354 N 
ATOM     56  N   UNL A   1      40.980  31.209  34.787  1.00  0.00    -0.248 NA
ATOM     57  C   UNL A   1      41.568  31.891  36.942  1.00  0.00     0.031 C 
ATOM     58  C   UNL A   1      42.987  27.931  32.562  1.00  0.00     0.029 A 
ATOM     59  C   UNL A   1      42.379  28.950  33.277  1.00  0.00     0.049 A 
ATOM     60  H   UNL A   1      40.732  30.154  32.736  1.00  0.00     0.167 HD
ATOM     61  C   UNL A   1      42.059  30.452  35.225  1.00  0.00     0.074 A 
ATOM     62  C   UNL A   1      42.397  30.934  36.549  1.00  0.00     0.031 C 
ATOM     63  C   UNL A   1      42.710  29.450  34.586  1.00  0.00     0.037 A 
BRANCH  50  64
ATOM     64  C   UNL A   1      40.412  28.108  29.006  1.00  0.00     0.064 A 
ATOM     65  C   UNL A   1      41.176  28.469  27.884  1.00  0.00     0.173 A 
ATOM     66  C   UNL A   1      39.693  26.906  28.950  1.00  0.00     0.173 A 
ATOM     67  F   UNL A   1      41.870  29.618  27.883  1.00  0.00    -0.203 F 
ATOM     68  C   UNL A   1      41.185  27.679  26.739  1.00  0.00     0.198 A 
ATOM     69  C   UNL A   1      39.730  26.102  27.814  1.00  0.00     0.198 A 
ATOM     70  F   UNL A   1      38.950  26.511  29.995  1.00  0.00    -0.203 F 
ATOM     71  F   UNL A   1      41.873  28.076  25.659  1.00  0.00    -0.200 F 
ATOM     72  C   UNL A   1      40.467  26.494  26.706  1.00  0.00     0.200 A 
ATOM     73  F   UNL A   1      39.043  24.952  27.785  1.00  0.00    -0.200 F 
ATOM     74  F   UNL A   1      40.474  25.735  25.601  1.00  0.00    -0.200 F 
ENDBRANCH  50  64
BRANCH  51  75
ATOM     75  C   UNL A   1      39.547  34.004  37.011  1.00  0.00     0.064 A 
ATOM     76  C   UNL A   1      38.778  33.610  38.116  1.00  0.00     0.173 A 
ATOM     77  C   UNL A   1      40.198  35.242  37.074  1.00  0.00     0.173 A 
ATOM     78  F   UNL A   1      38.120  32.443  38.091  1.00  0.00    -0.203 F 
ATOM     79  C   UNL A   1      38.656  34.431  39.236  1.00  0.00     0.198 A 
ATOM     80  C   UNL A   1      40.094  36.051  38.204  1.00  0.00     0.198 A 
ATOM     81  F   UNL A   1      40.948  35.661  36.044  1.00  0.00    -0.203 F 
ATOM     82  F   UNL A   1      37.888  34.046  40.264  1.00  0.00    -0.200 F 
ATOM     83  C   UNL A   1      39.319  35.647  39.282  1.00  0.00     0.200 A 
ATOM     84  F   UNL A   1      40.745  37.222  38.251  1.00  0.00    -0.200 F 
ATOM     85  F   UNL A   1      39.205  36.433  40.360  1.00  0.00    -0.200 F 
ENDBRANCH  51  75
BRANCH  63  86
ATOM     86  C   UNL A   1      43.884  28.837  35.291  1.00  0.00     0.064 A 
ATOM     87  C   UNL A   1      43.738  27.730  36.140  1.00  0.00     0.173 A 
ATOM     88  C   UNL A   1      45.177  29.343  35.084  1.00  0.00     0.173 A 
ATOM     89  F   UNL A   1      42.520  27.221  36.381  1.00  0.00    -0.203 F 
ATOM     90  C   UNL A   1      44.842  27.165  36.774  1.00  0.00     0.198 A 
ATOM     91  C   UNL A   1      46.281  28.759  35.700  1.00  0.00     0.198 A 
ATOM     92  F   UNL A   1      45.369  30.397  34.278  1.00  0.00    -0.203 F 
ATOM     93  F   UNL A   1      44.675  26.135  37.614  1.00  0.00    -0.200 F 
ATOM     94  C   UNL A   1      46.112  27.676  36.548  1.00  0.00     0.200 A 
ATOM     95  F   UNL A   1      47.509  29.247  35.472  1.00  0.00    -0.200 F 
ATOM     96  F   UNL A   1      47.173  27.128  37.156  1.00  0.00    -0.200 F 
ENDBRANCH  63  86
ENDBRANCH  37  38
ENDBRANCH  29  32
ENDBRANCH  27  28
ENDBRANCH  26  27
ENDBRANCH   1  26
TORSDOF 14
ENDMDL
MODEL 3
REMARK VINA RESULT:      -9.5      5.500     10.454
REMARK SMILES CN(C)S(=O)(=O)c1cccc(-c2cc(Cl)cc(C(=O)NCCCCNC(=O)c3ccc(-c4c5nc(c(-c6c(F)c(F)c(F)c(F)c6F)c6ccc([nH]6)c(-c6c(F)c(F)c(F)c(F)c6F)c6nc(c(-c7c(F)c(F)c(F)c(F)c7F)c7ccc4[nH]7)C=C6)C=C5)cc3)c2)c1
REMARK SMILES IDX 22 1 21 2 20 3 18 4 19 5 17 7 12 8 13 9 91 10 14 11 15 12
REMARK SMILES IDX 16 13 11 14 7 15 8 16 92 17 9 18 10 19 4 20 5 21 6 22 2 23
REMARK SMILES IDX 1 24 3 25 23 26 24 27 25 28 26 29 27 31 28 32 29 33 90 34
REMARK SMILES IDX 30 35 89 36 31 37 32 38 33 39 83 40 34 41 88 42 82 43 84 44
REMARK SMILES IDX 35 45 87 46 81 47 80 48 36 50 68 51 48 52 67 53 49 54 52 55
REMARK SMILES IDX 66 56 85 57 50 58 51 59 65 61 86 62 53 63 37 64 38 65 46 66
REMARK SMILES IDX 39 67 40 68 44 69 47 70 41 71 42 72 45 73 43 74 69 75 70 76
REMARK SMILES IDX 78 77 71 78 72 79 76 80 79 81 73 82 74 83 77 84 75 85 54 86
REMARK SMILES IDX 55 87 63 88 56 89 57 90 61 91 64 92 58 93 59 94 62 95 60 96
REMARK H PARENT 20 6 25 30 84 49 52 60
REMARK Flexibility Score: inf
ROOT
ATOM      1  C   UNL A   1      31.734  30.364  26.921  1.00  0.00     0.023 C 
ENDROOT
BRANCH   1   2
ATOM      2  C   UNL A   1      33.049  29.669  26.599  1.00  0.00     0.116 C 
BRANCH   2   3
ATOM      3  N   UNL A   1      33.460  29.736  25.204  1.00  0.00    -0.352 N 
ATOM      4  C   UNL A   1      32.982  29.069  24.093  1.00  0.00     0.251 C 
ATOM      5  O   UNL A   1      33.502  29.275  23.000  1.00  0.00    -0.269 OA
ATOM      6  H   UNL A   1      34.200  30.361  25.023  1.00  0.00     0.163 HD
BRANCH   4   7
ATOM      7  C   UNL A   1      31.899  28.058  24.204  1.00  0.00     0.041 A 
ATOM      8  C   UNL A   1      31.239  25.715  24.345  1.00  0.00    -0.016 A 
ATOM      9  C   UNL A   1      29.939  26.082  23.976  1.00  0.00     0.029 A 
ATOM     10  C   UNL A   1      32.171  26.741  24.573  1.00  0.00     0.022 A 
ATOM     11  C   UNL A   1      29.617  27.427  23.768  1.00  0.00     0.042 A 
ATOM     12  Cl  UNL A   1      28.015  27.854  23.305  1.00  0.00    -0.084 Cl
ATOM     13  C   UNL A   1      30.598  28.415  23.848  1.00  0.00     0.034 A 
BRANCH   8  14
ATOM     14  C   UNL A   1      31.736  24.328  24.274  1.00  0.00    -0.017 A 
ATOM     15  C   UNL A   1      33.517  22.722  24.664  1.00  0.00     0.083 A 
ATOM     16  C   UNL A   1      33.013  21.883  23.667  1.00  0.00     0.022 A 
ATOM     17  C   UNL A   1      32.870  23.918  24.992  1.00  0.00     0.030 A 
ATOM     18  C   UNL A   1      31.847  22.240  23.000  1.00  0.00     0.002 A 
ATOM     19  C   UNL A   1      31.221  23.454  23.295  1.00  0.00     0.009 A 
BRANCH  15  20
ATOM     20  S   UNL A   1      35.059  22.300  25.438  1.00  0.00     0.242 S 
ATOM     21  O   UNL A   1      35.376  20.932  25.068  1.00  0.00    -0.207 OA
ATOM     22  O   UNL A   1      34.953  22.708  26.818  1.00  0.00    -0.207 OA
BRANCH  20  23
ATOM     23  N   UNL A   1      36.223  23.300  24.662  1.00  0.00    -0.204 NA
ATOM     24  C   UNL A   1      37.451  23.468  25.480  1.00  0.00     0.124 C 
ATOM     25  C   UNL A   1      36.568  22.915  23.273  1.00  0.00     0.124 C 
ENDBRANCH  20  23
ENDBRANCH  15  20
ENDBRANCH   8  14
ENDBRANCH   4   7
ENDBRANCH   2   3
ENDBRANCH   1   2
BRANCH   1  26
ATOM     26  C   UNL A   1      31.669  31.861  26.651  1.00  0.00     0.023 C 
BRANCH  26  27
ATOM     27  C   UNL A   1      32.811  32.700  27.211  1.00  0.00     0.116 C 
BRANCH  27  28
ATOM     28  N   UNL A   1      32.422  34.043  27.612  1.00  0.00    -0.352 N 
ATOM     29  C   UNL A   1      32.984  34.879  28.551  1.00  0.00     0.251 C 
ATOM     30  H   UNL A   1      31.639  34.411  27.142  1.00  0.00     0.163 HD
ATOM     31  O   UNL A   1      32.480  35.977  28.770  1.00  0.00    -0.269 OA
BRANCH  29  32
ATOM     32  C   UNL A   1      34.162  34.441  29.333  1.00  0.00     0.039 A 
ATOM     33  C   UNL A   1      33.953  33.827  30.572  1.00  0.00     0.014 A 
ATOM     34  C   UNL A   1      35.458  34.603  28.842  1.00  0.00     0.014 A 
ATOM     35  C   UNL A   1      35.038  33.295  31.274  1.00  0.00     0.010 A 
ATOM     36  C   UNL A   1      36.526  34.001  29.501  1.00  0.00     0.010 A 
ATOM     37  C   UNL A   1      36.328  33.335  30.721  1.00  0.00    -0.014 A 
BRANCH  37  38
ATOM     38  C   UNL A   1      37.483  32.689  31.396  1.00  0.00     0.031 A 
ATOM     39  C   UNL A   1      38.207  31.554  30.728  1.00  0.00     0.074 A 
ATOM     40  C   UNL A   1      37.833  33.071  32.640  1.00  0.00     0.049 A 
ATOM     41  N   UNL A   1      39.176  30.803  31.187  1.00  0.00    -0.248 NA
ATOM     42  C   UNL A   1      37.759  31.195  29.374  1.00  0.00     0.031 C 
ATOM     43  C   UNL A   1      37.184  34.128  33.415  1.00  0.00     0.029 A 
ATOM     44  N   UNL A   1      38.819  32.605  33.473  1.00  0.00    -0.354 N 
ATOM     45  C   UNL A   1      39.438  29.874  30.189  1.00  0.00     0.074 A 
ATOM     46  C   UNL A   1      38.489  30.120  29.124  1.00  0.00     0.031 C 
ATOM     47  C   UNL A   1      37.806  34.251  34.599  1.00  0.00     0.029 A 
ATOM     48  C   UNL A   1      38.874  33.258  34.680  1.00  0.00     0.049 A 
ATOM     49  H   UNL A   1      39.429  31.871  33.229  1.00  0.00     0.167 HD
ATOM     50  C   UNL A   1      40.397  28.919  30.151  1.00  0.00     0.037 A 
ATOM     51  C   UNL A   1      39.695  33.077  35.732  1.00  0.00     0.037 A 
ATOM     52  C   UNL A   1      41.360  28.694  31.197  1.00  0.00     0.049 A 
ATOM     53  C   UNL A   1      40.754  32.012  35.666  1.00  0.00     0.074 A 
ATOM     54  C   UNL A   1      42.402  27.785  31.232  1.00  0.00     0.029 A 
ATOM     55  N   UNL A   1      41.396  29.391  32.396  1.00  0.00    -0.354 N 
ATOM     56  N   UNL A   1      41.027  31.175  34.695  1.00  0.00    -0.248 NA
ATOM     57  C   UNL A   1      41.623  31.870  36.843  1.00  0.00     0.031 C 
ATOM     58  C   UNL A   1      43.051  27.910  32.466  1.00  0.00     0.029 A 
ATOM     59  C   UNL A   1      42.437  28.925  33.182  1.00  0.00     0.049 A 
ATOM     60  H   UNL A   1      40.775  30.111  32.650  1.00  0.00     0.167 HD
ATOM     61  C   UNL A   1      42.116  30.430  35.128  1.00  0.00     0.074 A 
ATOM     62  C   UNL A   1      42.458  30.920  36.448  1.00  0.00     0.031 C 
ATOM     63  C   UNL A   1      42.773  29.433  34.488  1.00  0.00     0.037 A 
BRANCH  50  64
ATOM     64  C   UNL A   1      40.449  28.049  28.928  1.00  0.00     0.064 A 
ATOM     65  C   UNL A   1      39.760  26.827  28.867  1.00  0.00     0.173 A 
ATOM     66  C   UNL A   1      41.194  28.439  27.806  1.00  0.00     0.173 A 
ATOM     67  F   UNL A   1      39.046  26.403  29.920  1.00  0.00    -0.203 F 
ATOM     68  C   UNL A   1      39.849  26.010  27.744  1.00  0.00     0.198 A 
ATOM     69  C   UNL A   1      41.254  27.633  26.672  1.00  0.00     0.198 A 
ATOM     70  F   UNL A   1      41.868  29.599  27.809  1.00  0.00    -0.203 F 
ATOM     71  F   UNL A   1      39.233  24.819  27.734  1.00  0.00    -0.200 F 
ATOM     72  C   UNL A   1      40.591  26.415  26.645  1.00  0.00     0.200 A 
ATOM     73  F   UNL A   1      41.965  28.029  25.606  1.00  0.00    -0.200 F 
ATOM     74  F   UNL A   1      40.678  25.626  25.566  1.00  0.00    -0.200 F 
ENDBRANCH  50  64
BRANCH  51  75
ATOM     75  C   UNL A   1      39.581  33.962  36.920  1.00  0.00     0.064 A 
ATOM     76  C   UNL A   1      40.255  35.191  36.959  1.00  0.00     0.173 A 
ATOM     77  C   UNL A   1      38.802  33.608  38.029  1.00  0.00     0.173 A 
ATOM     78  F   UNL A   1      41.029  35.561  35.929  1.00  0.00    -0.203 F 
ATOM     79  C   UNL A   1      40.164  36.027  38.069  1.00  0.00     0.198 A 
ATOM     80  C   UNL A   1      38.692  34.456  39.129  1.00  0.00     0.198 A 
ATOM     81  F   UNL A   1      38.135  32.444  38.038  1.00  0.00    -0.203 F 
ATOM     82  F   UNL A   1      40.845  37.180  38.095  1.00  0.00    -0.200 F 
ATOM     83  C   UNL A   1      39.377  35.662  39.151  1.00  0.00     0.200 A 
ATOM     84  F   UNL A   1      37.922  34.105  40.169  1.00  0.00    -0.200 F 
ATOM     85  F   UNL A   1      39.285  36.468  40.217  1.00  0.00    -0.200 F 
ENDBRANCH  51  75
BRANCH  63  86
ATOM     86  C   UNL A   1      43.958  28.834  35.186  1.00  0.00     0.064 A 
ATOM     87  C   UNL A   1      45.254  29.338  35.002  1.00  0.00     0.173 A 
ATOM     88  C   UNL A   1      43.787  27.765  36.080  1.00  0.00     0.173 A 
ATOM     89  F   UNL A   1      45.470  30.348  34.146  1.00  0.00    -0.203 F 
ATOM     90  C   UNL A   1      46.340  28.778  35.671  1.00  0.00     0.198 A 
ATOM     91  C   UNL A   1      44.871  27.225  36.766  1.00  0.00     0.198 A 
ATOM     92  F   UNL A   1      42.567  27.252  36.293  1.00  0.00    -0.203 F 
ATOM     93  F   UNL A   1      47.575  29.247  35.448  1.00  0.00    -0.200 F 
ATOM     94  C   UNL A   1      46.147  27.727  36.556  1.00  0.00     0.200 A 
ATOM     95  F   UNL A   1      44.682  26.218  37.629  1.00  0.00    -0.200 F 
ATOM     96  F   UNL A   1      47.192  27.194  37.202  1.00  0.00    -0.200 F 
ENDBRANCH  63  86
ENDBRANCH  37  38
ENDBRANCH  29  32
ENDBRANCH  27  28
ENDBRANCH  26  27
ENDBRANCH   1  26
TORSDOF 14
ENDMDL
