MODEL 1
REMARK VINA RESULT:     -13.2      0.000      0.000
REMARK SMILES Cc1nc(-c2ccc(S(=O)(=O)N3CC[NH2+][C@H](C(=O)NCCCCNC(=O)c4ccc(-c5c6nc(c(-c7c(F)c(F)c(F)c(F)c7F)c7ccc([nH]7)c(-c7c(F)c(F)c(F)c(F)c7F)c7nc(c(-c8c(F)c(F)c(F)c(F)c8F)c8ccc5[nH]8)C=C7)C=C6)cc4)C3)s2)cs1
REMARK SMILES IDX 21 1 20 2 19 3 17 4 18 5 16 7 12 8 13 9 90 10 14 11 15 12
REMARK SMILES IDX 9 15 10 16 11 17 8 18 5 19 6 20 91 21 7 22 4 23 1 24 2 25
REMARK SMILES IDX 3 26 93 27 92 28 22 29 23 30 24 31 25 32 26 34 27 35 28 36
REMARK SMILES IDX 89 37 29 38 88 39 30 40 31 41 32 42 82 43 33 44 87 45 81 46
REMARK SMILES IDX 83 47 34 48 86 49 80 50 79 51 35 53 67 54 47 55 66 56 48 57
REMARK SMILES IDX 51 58 65 59 84 60 49 61 50 62 64 64 85 65 52 66 36 67 37 68
REMARK SMILES IDX 45 69 38 70 39 71 43 72 46 73 40 74 41 75 44 76 42 77 68 78
REMARK SMILES IDX 69 79 77 80 70 81 71 82 75 83 78 84 72 85 73 86 76 87 74 88
REMARK SMILES IDX 53 89 54 90 62 91 55 92 56 93 60 94 63 95 57 96 58 97 61 98
REMARK SMILES IDX 59 99
REMARK H PARENT 19 6 15 13 15 14 24 33 83 52 51 63
REMARK Flexibility Score: inf
ROOT
ATOM      1  C   UNL A   1      31.238  31.302  25.739  1.00  0.00     0.023 C 
ENDROOT
BRANCH   1   2
ATOM      2  C   UNL A   1      32.138  30.066  25.624  1.00  0.00     0.116 C 
BRANCH   2   3
ATOM      3  N   UNL A   1      32.097  29.329  26.867  1.00  0.00    -0.351 N 
ATOM      4  C   UNL A   1      31.811  28.016  27.092  1.00  0.00     0.279 C 
ATOM      5  O   UNL A   1      31.340  27.757  28.205  1.00  0.00    -0.268 OA
ATOM      6  H   UNL A   1      32.306  29.854  27.673  1.00  0.00     0.163 HD
BRANCH   4   7
ATOM      7  C   UNL A   1      32.184  26.883  26.090  1.00  0.00     0.287 C 
ATOM      8  N   UNL A   1      31.885  24.667  25.066  1.00  0.00    -0.185 NA
ATOM      9  C   UNL A   1      33.283  24.248  25.252  1.00  0.00     0.164 C 
ATOM     10  C   UNL A   1      31.435  25.558  26.163  1.00  0.00     0.178 C 
ATOM     11  C   UNL A   1      34.211  25.438  25.566  1.00  0.00     0.278 C 
ATOM     12  N   UNL A   1      33.664  26.659  26.180  1.00  0.00    -0.334 N 
ATOM     13  H   UNL A   1      34.119  27.455  25.733  1.00  0.00     0.347 HD
ATOM     14  H   UNL A   1      33.848  26.550  27.177  1.00  0.00     0.347 HD
BRANCH   8  15
ATOM     15  S   UNL A   1      31.233  24.849  23.512  1.00  0.00     0.253 S 
ATOM     16  O   UNL A   1      30.449  23.654  23.253  1.00  0.00    -0.206 OA
ATOM     17  O   UNL A   1      32.313  25.250  22.641  1.00  0.00    -0.206 OA
BRANCH  15  18
ATOM     18  C   UNL A   1      30.054  26.193  23.384  1.00  0.00     0.135 A 
ATOM     19  C   UNL A   1      29.184  28.464  22.890  1.00  0.00     0.055 A 
ATOM     20  C   UNL A   1      28.272  27.695  23.570  1.00  0.00     0.023 A 
ATOM     21  S   UNL A   1      30.603  27.593  22.526  1.00  0.00    -0.121 S 
ATOM     22  C   UNL A   1      28.766  26.397  23.834  1.00  0.00     0.034 A 
BRANCH  19  23
ATOM     23  C   UNL A   1      28.884  29.897  22.594  1.00  0.00     0.091 A 
ATOM     24  C   UNL A   1      27.939  32.204  19.940  1.00  0.00     0.079 C 
ATOM     25  C   UNL A   1      28.338  31.534  21.208  1.00  0.00     0.090 A 
ATOM     26  N   UNL A   1      28.698  30.275  21.274  1.00  0.00    -0.241 NA
ATOM     27  S   UNL A   1      28.348  32.376  22.705  1.00  0.00    -0.127 S 
ATOM     28  C   UNL A   1      28.750  30.912  23.516  1.00  0.00     0.096 A 
ENDBRANCH  19  23
ENDBRANCH  15  18
ENDBRANCH   8  15
ENDBRANCH   4   7
ENDBRANCH   2   3
ENDBRANCH   1   2
BRANCH   1  29
ATOM     29  C   UNL A   1      31.381  32.036  27.080  1.00  0.00     0.023 C 
BRANCH  29  30
ATOM     30  C   UNL A   1      32.639  32.887  27.191  1.00  0.00     0.116 C 
BRANCH  30  31
ATOM     31  N   UNL A   1      32.361  34.239  27.645  1.00  0.00    -0.352 N 
ATOM     32  C   UNL A   1      33.000  34.956  28.624  1.00  0.00     0.251 C 
ATOM     33  H   UNL A   1      31.620  34.699  27.190  1.00  0.00     0.163 HD
ATOM     34  O   UNL A   1      32.567  36.047  28.979  1.00  0.00    -0.269 OA
BRANCH  32  35
ATOM     35  C   UNL A   1      34.185  34.378  29.284  1.00  0.00     0.039 A 
ATOM     36  C   UNL A   1      33.991  33.557  30.397  1.00  0.00     0.014 A 
ATOM     37  C   UNL A   1      35.472  34.623  28.798  1.00  0.00     0.014 A 
ATOM     38  C   UNL A   1      35.088  32.938  30.994  1.00  0.00     0.010 A 
ATOM     39  C   UNL A   1      36.558  33.954  29.352  1.00  0.00     0.010 A 
ATOM     40  C   UNL A   1      36.375  33.111  30.458  1.00  0.00    -0.014 A 
BRANCH  40  41
ATOM     41  C   UNL A   1      37.537  32.409  31.052  1.00  0.00     0.031 A 
ATOM     42  C   UNL A   1      38.018  32.773  32.428  1.00  0.00     0.074 A 
ATOM     43  C   UNL A   1      38.183  31.474  30.331  1.00  0.00     0.049 A 
ATOM     44  N   UNL A   1      39.010  32.268  33.116  1.00  0.00    -0.248 NA
ATOM     45  C   UNL A   1      37.308  33.866  33.110  1.00  0.00     0.031 C 
ATOM     46  C   UNL A   1      37.849  31.086  28.959  1.00  0.00     0.029 A 
ATOM     47  N   UNL A   1      39.253  30.679  30.651  1.00  0.00    -0.354 N 
ATOM     48  C   UNL A   1      39.049  32.988  34.303  1.00  0.00     0.074 A 
ATOM     49  C   UNL A   1      38.020  34.000  34.219  1.00  0.00     0.031 C 
ATOM     50  C   UNL A   1      38.678  30.106  28.566  1.00  0.00     0.029 A 
ATOM     51  C   UNL A   1      39.612  29.812  29.648  1.00  0.00     0.049 A 
ATOM     52  H   UNL A   1      39.720  30.726  31.515  1.00  0.00     0.167 HD
ATOM     53  C   UNL A   1      39.855  32.803  35.376  1.00  0.00     0.037 A 
ATOM     54  C   UNL A   1      40.577  28.875  29.616  1.00  0.00     0.037 A 
ATOM     55  C   UNL A   1      40.859  31.775  35.464  1.00  0.00     0.049 A 
ATOM     56  C   UNL A   1      41.428  28.659  30.837  1.00  0.00     0.074 A 
ATOM     57  C   UNL A   1      41.691  31.467  36.526  1.00  0.00     0.029 A 
ATOM     58  N   UNL A   1      41.163  30.884  34.445  1.00  0.00    -0.354 N 
ATOM     59  N   UNL A   1      41.405  29.292  31.984  1.00  0.00    -0.248 NA
ATOM     60  C   UNL A   1      42.427  27.585  30.765  1.00  0.00     0.031 C 
ATOM     61  C   UNL A   1      42.521  30.410  36.139  1.00  0.00     0.029 A 
ATOM     62  C   UNL A   1      42.177  30.030  34.852  1.00  0.00     0.049 A 
ATOM     63  H   UNL A   1      40.724  30.861  33.564  1.00  0.00     0.167 HD
ATOM     64  C   UNL A   1      42.359  28.675  32.781  1.00  0.00     0.074 A 
ATOM     65  C   UNL A   1      42.935  27.608  31.989  1.00  0.00     0.031 C 
ATOM     66  C   UNL A   1      42.726  28.965  34.053  1.00  0.00     0.037 A 
BRANCH  53  67
ATOM     67  C   UNL A   1      39.672  33.726  36.545  1.00  0.00     0.064 A 
ATOM     68  C   UNL A   1      38.857  33.378  37.633  1.00  0.00     0.173 A 
ATOM     69  C   UNL A   1      40.336  34.960  36.592  1.00  0.00     0.173 A 
ATOM     70  F   UNL A   1      38.188  32.214  37.631  1.00  0.00    -0.203 F 
ATOM     71  C   UNL A   1      38.691  34.243  38.710  1.00  0.00     0.198 A 
ATOM     72  C   UNL A   1      40.192  35.810  37.684  1.00  0.00     0.198 A 
ATOM     73  F   UNL A   1      41.131  35.340  35.579  1.00  0.00    -0.203 F 
ATOM     74  F   UNL A   1      37.867  33.911  39.715  1.00  0.00    -0.200 F 
ATOM     75  C   UNL A   1      39.363  35.455  38.739  1.00  0.00     0.200 A 
ATOM     76  F   UNL A   1      40.850  36.977  37.715  1.00  0.00    -0.200 F 
ATOM     77  F   UNL A   1      39.206  36.286  39.779  1.00  0.00    -0.200 F 
ENDBRANCH  53  67
BRANCH  54  78
ATOM     78  C   UNL A   1      40.750  28.030  28.406  1.00  0.00     0.064 A 
ATOM     79  C   UNL A   1      41.564  28.453  27.346  1.00  0.00     0.173 A 
ATOM     80  C   UNL A   1      40.111  26.788  28.286  1.00  0.00     0.173 A 
ATOM     81  F   UNL A   1      42.181  29.642  27.410  1.00  0.00    -0.203 F 
ATOM     82  C   UNL A   1      41.715  27.676  26.200  1.00  0.00     0.198 A 
ATOM     83  C   UNL A   1      40.284  25.998  27.151  1.00  0.00     0.198 A 
ATOM     84  F   UNL A   1      39.330  26.335  29.277  1.00  0.00    -0.203 F 
ATOM     85  F   UNL A   1      42.464  28.123  25.184  1.00  0.00    -0.200 F 
ATOM     86  C   UNL A   1      41.080  26.447  26.105  1.00  0.00     0.200 A 
ATOM     87  F   UNL A   1      39.680  24.806  27.068  1.00  0.00    -0.200 F 
ATOM     88  F   UNL A   1      41.227  25.698  25.004  1.00  0.00    -0.200 F 
ENDBRANCH  54  78
BRANCH  66  89
ATOM     89  C   UNL A   1      43.767  28.087  34.680  1.00  0.00     0.064 A 
ATOM     90  C   UNL A   1      45.122  28.451  34.701  1.00  0.00     0.173 A 
ATOM     91  C   UNL A   1      43.401  26.879  35.291  1.00  0.00     0.173 A 
ATOM     92  F   UNL A   1      45.524  29.590  34.117  1.00  0.00    -0.203 F 
ATOM     93  C   UNL A   1      46.076  27.621  35.283  1.00  0.00     0.198 A 
ATOM     94  C   UNL A   1      44.353  26.065  35.897  1.00  0.00     0.198 A 
ATOM     95  F   UNL A   1      42.117  26.490  35.303  1.00  0.00    -0.203 F 
ATOM     96  F   UNL A   1      47.371  27.963  35.247  1.00  0.00    -0.200 F 
ATOM     97  C   UNL A   1      45.690  26.433  35.885  1.00  0.00     0.200 A 
ATOM     98  F   UNL A   1      43.978  24.923  36.488  1.00  0.00    -0.200 F 
ATOM     99  F   UNL A   1      46.609  25.635  36.447  1.00  0.00    -0.200 F 
ENDBRANCH  66  89
ENDBRANCH  40  41
ENDBRANCH  32  35
ENDBRANCH  30  31
ENDBRANCH  29  30
ENDBRANCH   1  29
TORSDOF 14
ENDMDL
MODEL 2
REMARK VINA RESULT:     -13.1      2.359      4.766
REMARK SMILES Cc1nc(-c2ccc(S(=O)(=O)N3CC[NH2+][C@H](C(=O)NCCCCNC(=O)c4ccc(-c5c6nc(c(-c7c(F)c(F)c(F)c(F)c7F)c7ccc([nH]7)c(-c7c(F)c(F)c(F)c(F)c7F)c7nc(c(-c8c(F)c(F)c(F)c(F)c8F)c8ccc5[nH]8)C=C7)C=C6)cc4)C3)s2)cs1
REMARK SMILES IDX 21 1 20 2 19 3 17 4 18 5 16 7 12 8 13 9 90 10 14 11 15 12
REMARK SMILES IDX 9 15 10 16 11 17 8 18 5 19 6 20 91 21 7 22 4 23 1 24 2 25
REMARK SMILES IDX 3 26 93 27 92 28 22 29 23 30 24 31 25 32 26 34 27 35 28 36
REMARK SMILES IDX 89 37 29 38 88 39 30 40 31 41 32 42 82 43 33 44 87 45 81 46
REMARK SMILES IDX 83 47 34 48 86 49 80 50 79 51 35 53 67 54 47 55 66 56 48 57
REMARK SMILES IDX 51 58 65 59 84 60 49 61 50 62 64 64 85 65 52 66 36 67 37 68
REMARK SMILES IDX 45 69 38 70 39 71 43 72 46 73 40 74 41 75 44 76 42 77 68 78
REMARK SMILES IDX 69 79 77 80 70 81 71 82 75 83 78 84 72 85 73 86 76 87 74 88
REMARK SMILES IDX 53 89 54 90 62 91 55 92 56 93 60 94 63 95 57 96 58 97 61 98
REMARK SMILES IDX 59 99
REMARK H PARENT 19 6 15 13 15 14 24 33 83 52 51 63
REMARK Flexibility Score: inf
ROOT
ATOM      1  C   UNL A   1      31.494  30.387  26.485  1.00  0.00     0.023 C 
ENDROOT
BRANCH   1   2
ATOM      2  C   UNL A   1      32.856  29.809  26.083  1.00  0.00     0.116 C 
BRANCH   2   3
ATOM      3  N   UNL A   1      32.957  29.785  24.641  1.00  0.00    -0.351 N 
ATOM      4  C   UNL A   1      33.016  28.724  23.789  1.00  0.00     0.279 C 
ATOM      5  O   UNL A   1      33.604  28.931  22.722  1.00  0.00    -0.268 OA
ATOM      6  H   UNL A   1      32.989  30.669  24.210  1.00  0.00     0.163 HD
BRANCH   4   7
ATOM      7  C   UNL A   1      32.272  27.382  24.054  1.00  0.00     0.287 C 
ATOM      8  N   UNL A   1      31.738  25.031  23.566  1.00  0.00    -0.185 NA
ATOM      9  C   UNL A   1      30.281  25.231  23.545  1.00  0.00     0.164 C 
ATOM     10  C   UNL A   1      32.458  26.230  23.073  1.00  0.00     0.178 C 
ATOM     11  C   UNL A   1      29.867  26.568  24.189  1.00  0.00     0.278 C 
ATOM     12  N   UNL A   1      30.817  27.691  24.237  1.00  0.00    -0.334 N 
ATOM     13  H   UNL A   1      30.714  28.140  25.147  1.00  0.00     0.347 HD
ATOM     14  H   UNL A   1      30.574  28.268  23.432  1.00  0.00     0.347 HD
BRANCH   8  15
ATOM     15  S   UNL A   1      32.460  24.036  24.734  1.00  0.00     0.253 S 
ATOM     16  O   UNL A   1      31.609  24.099  25.910  1.00  0.00    -0.206 OA
ATOM     17  O   UNL A   1      33.858  24.391  24.792  1.00  0.00    -0.206 OA
BRANCH  15  18
ATOM     18  C   UNL A   1      32.473  22.301  24.285  1.00  0.00     0.135 A 
ATOM     19  C   UNL A   1      32.925  19.868  24.478  1.00  0.00     0.055 A 
ATOM     20  C   UNL A   1      32.448  20.212  23.237  1.00  0.00     0.023 A 
ATOM     21  S   UNL A   1      32.984  21.208  25.528  1.00  0.00    -0.121 S 
ATOM     22  C   UNL A   1      32.177  21.595  23.138  1.00  0.00     0.034 A 
BRANCH  19  23
ATOM     23  C   UNL A   1      33.355  18.465  24.754  1.00  0.00     0.091 A 
ATOM     24  C   UNL A   1      32.152  15.177  25.758  1.00  0.00     0.079 C 
ATOM     25  C   UNL A   1      32.938  16.375  25.355  1.00  0.00     0.090 A 
ATOM     26  N   UNL A   1      32.426  17.579  25.280  1.00  0.00    -0.241 NA
ATOM     27  S   UNL A   1      34.602  16.262  24.945  1.00  0.00    -0.127 S 
ATOM     28  C   UNL A   1      34.603  17.930  24.522  1.00  0.00     0.096 A 
ENDBRANCH  19  23
ENDBRANCH  15  18
ENDBRANCH   8  15
ENDBRANCH   4   7
ENDBRANCH   2   3
ENDBRANCH   1   2
BRANCH   1  29
ATOM     29  C   UNL A   1      31.466  31.922  26.501  1.00  0.00     0.023 C 
BRANCH  29  30
ATOM     30  C   UNL A   1      32.650  32.558  27.218  1.00  0.00     0.116 C 
BRANCH  30  31
ATOM     31  N   UNL A   1      32.387  33.928  27.624  1.00  0.00    -0.352 N 
ATOM     32  C   UNL A   1      33.039  34.675  28.572  1.00  0.00     0.251 C 
ATOM     33  H   UNL A   1      31.646  34.378  27.159  1.00  0.00     0.163 HD
ATOM     34  O   UNL A   1      32.619  35.782  28.889  1.00  0.00    -0.269 OA
BRANCH  32  35
ATOM     35  C   UNL A   1      34.225  34.110  29.243  1.00  0.00     0.039 A 
ATOM     36  C   UNL A   1      34.028  33.192  30.277  1.00  0.00     0.014 A 
ATOM     37  C   UNL A   1      35.517  34.465  28.844  1.00  0.00     0.014 A 
ATOM     38  C   UNL A   1      35.131  32.588  30.878  1.00  0.00     0.010 A 
ATOM     39  C   UNL A   1      36.613  33.812  29.398  1.00  0.00     0.010 A 
ATOM     40  C   UNL A   1      36.429  32.873  30.424  1.00  0.00    -0.014 A 
BRANCH  40  41
ATOM     41  C   UNL A   1      37.601  32.190  31.020  1.00  0.00     0.031 A 
ATOM     42  C   UNL A   1      38.071  32.557  32.398  1.00  0.00     0.074 A 
ATOM     43  C   UNL A   1      38.265  31.269  30.297  1.00  0.00     0.049 A 
ATOM     44  N   UNL A   1      39.070  32.068  33.088  1.00  0.00    -0.248 NA
ATOM     45  C   UNL A   1      37.340  33.636  33.082  1.00  0.00     0.031 C 
ATOM     46  C   UNL A   1      37.943  30.880  28.923  1.00  0.00     0.029 A 
ATOM     47  N   UNL A   1      39.348  30.492  30.618  1.00  0.00    -0.354 N 
ATOM     48  C   UNL A   1      39.092  32.784  34.277  1.00  0.00     0.074 A 
ATOM     49  C   UNL A   1      38.046  33.779  34.193  1.00  0.00     0.031 C 
ATOM     50  C   UNL A   1      38.790  29.916  28.529  1.00  0.00     0.029 A 
ATOM     51  C   UNL A   1      39.725  29.634  29.613  1.00  0.00     0.049 A 
ATOM     52  H   UNL A   1      39.812  30.544  31.484  1.00  0.00     0.167 HD
ATOM     53  C   UNL A   1      39.898  32.610  35.352  1.00  0.00     0.037 A 
ATOM     54  C   UNL A   1      40.707  28.714  29.581  1.00  0.00     0.037 A 
ATOM     55  C   UNL A   1      40.920  31.600  35.439  1.00  0.00     0.049 A 
ATOM     56  C   UNL A   1      41.558  28.509  30.804  1.00  0.00     0.074 A 
ATOM     57  C   UNL A   1      41.754  31.303  36.503  1.00  0.00     0.029 A 
ATOM     58  N   UNL A   1      41.243  30.717  34.419  1.00  0.00    -0.354 N 
ATOM     59  N   UNL A   1      41.520  29.139  31.954  1.00  0.00    -0.248 NA
ATOM     60  C   UNL A   1      42.576  27.453  30.731  1.00  0.00     0.031 C 
ATOM     61  C   UNL A   1      42.604  30.262  36.115  1.00  0.00     0.029 A 
ATOM     62  C   UNL A   1      42.270  29.880  34.825  1.00  0.00     0.049 A 
ATOM     63  H   UNL A   1      40.807  30.690  33.536  1.00  0.00     0.167 HD
ATOM     64  C   UNL A   1      42.483  28.535  32.751  1.00  0.00     0.074 A 
ATOM     65  C   UNL A   1      43.079  27.481  31.957  1.00  0.00     0.031 C 
ATOM     66  C   UNL A   1      42.840  28.827  34.025  1.00  0.00     0.037 A 
BRANCH  53  67
ATOM     67  C   UNL A   1      39.695  33.526  36.523  1.00  0.00     0.064 A 
ATOM     68  C   UNL A   1      40.331  34.775  36.596  1.00  0.00     0.173 A 
ATOM     69  C   UNL A   1      38.837  33.165  37.572  1.00  0.00     0.173 A 
ATOM     70  F   UNL A   1      41.173  35.162  35.625  1.00  0.00    -0.203 F 
ATOM     71  C   UNL A   1      40.138  35.615  37.688  1.00  0.00     0.198 A 
ATOM     72  C   UNL A   1      38.622  34.021  38.649  1.00  0.00     0.198 A 
ATOM     73  F   UNL A   1      38.201  31.984  37.550  1.00  0.00    -0.203 F 
ATOM     74  F   UNL A   1      40.796  36.782  37.759  1.00  0.00    -0.200 F 
ATOM     75  C   UNL A   1      39.279  35.242  38.710  1.00  0.00     0.200 A 
ATOM     76  F   UNL A   1      37.784  33.663  39.631  1.00  0.00    -0.200 F 
ATOM     77  F   UNL A   1      39.091  36.054  39.760  1.00  0.00    -0.200 F 
ENDBRANCH  53  67
BRANCH  54  78
ATOM     78  C   UNL A   1      40.898  27.877  28.369  1.00  0.00     0.064 A 
ATOM     79  C   UNL A   1      40.227  26.654  28.229  1.00  0.00     0.173 A 
ATOM     80  C   UNL A   1      41.746  28.281  27.329  1.00  0.00     0.173 A 
ATOM     81  F   UNL A   1      39.417  26.220  29.206  1.00  0.00    -0.203 F 
ATOM     82  C   UNL A   1      40.415  25.854  27.105  1.00  0.00     0.198 A 
ATOM     83  C   UNL A   1      41.914  27.492  26.192  1.00  0.00     0.198 A 
ATOM     84  F   UNL A   1      42.403  29.447  27.411  1.00  0.00    -0.203 F 
ATOM     85  F   UNL A   1      39.795  24.670  27.017  1.00  0.00    -0.200 F 
ATOM     86  C   UNL A   1      41.254  26.276  26.085  1.00  0.00     0.200 A 
ATOM     87  F   UNL A   1      42.715  27.909  25.202  1.00  0.00    -0.200 F 
ATOM     88  F   UNL A   1      41.434  25.507  25.002  1.00  0.00    -0.200 F 
ENDBRANCH  54  78
BRANCH  66  89
ATOM     89  C   UNL A   1      43.895  27.966  34.653  1.00  0.00     0.064 A 
ATOM     90  C   UNL A   1      45.253  28.318  34.613  1.00  0.00     0.173 A 
ATOM     91  C   UNL A   1      43.540  26.787  35.324  1.00  0.00     0.173 A 
ATOM     92  F   UNL A   1      45.644  29.428  33.970  1.00  0.00    -0.203 F 
ATOM     93  C   UNL A   1      46.218  27.503  35.197  1.00  0.00     0.198 A 
ATOM     94  C   UNL A   1      44.504  25.990  35.931  1.00  0.00     0.198 A 
ATOM     95  F   UNL A   1      42.253  26.412  35.396  1.00  0.00    -0.203 F 
ATOM     96  F   UNL A   1      47.515  27.830  35.103  1.00  0.00    -0.200 F 
ATOM     97  C   UNL A   1      45.844  26.344  35.860  1.00  0.00     0.200 A 
ATOM     98  F   UNL A   1      44.140  24.877  36.581  1.00  0.00    -0.200 F 
ATOM     99  F   UNL A   1      46.775  25.561  36.423  1.00  0.00    -0.200 F 
ENDBRANCH  66  89
ENDBRANCH  40  41
ENDBRANCH  32  35
ENDBRANCH  30  31
ENDBRANCH  29  30
ENDBRANCH   1  29
TORSDOF 14
ENDMDL
MODEL 3
REMARK VINA RESULT:     -13.0      2.382      4.652
REMARK SMILES Cc1nc(-c2ccc(S(=O)(=O)N3CC[NH2+][C@H](C(=O)NCCCCNC(=O)c4ccc(-c5c6nc(c(-c7c(F)c(F)c(F)c(F)c7F)c7ccc([nH]7)c(-c7c(F)c(F)c(F)c(F)c7F)c7nc(c(-c8c(F)c(F)c(F)c(F)c8F)c8ccc5[nH]8)C=C7)C=C6)cc4)C3)s2)cs1
REMARK SMILES IDX 21 1 20 2 19 3 17 4 18 5 16 7 12 8 13 9 90 10 14 11 15 12
REMARK SMILES IDX 9 15 10 16 11 17 8 18 5 19 6 20 91 21 7 22 4 23 1 24 2 25
REMARK SMILES IDX 3 26 93 27 92 28 22 29 23 30 24 31 25 32 26 34 27 35 28 36
REMARK SMILES IDX 89 37 29 38 88 39 30 40 31 41 32 42 82 43 33 44 87 45 81 46
REMARK SMILES IDX 83 47 34 48 86 49 80 50 79 51 35 53 67 54 47 55 66 56 48 57
REMARK SMILES IDX 51 58 65 59 84 60 49 61 50 62 64 64 85 65 52 66 36 67 37 68
REMARK SMILES IDX 45 69 38 70 39 71 43 72 46 73 40 74 41 75 44 76 42 77 68 78
REMARK SMILES IDX 69 79 77 80 70 81 71 82 75 83 78 84 72 85 73 86 76 87 74 88
REMARK SMILES IDX 53 89 54 90 62 91 55 92 56 93 60 94 63 95 57 96 58 97 61 98
REMARK SMILES IDX 59 99
REMARK H PARENT 19 6 15 13 15 14 24 33 83 52 51 63
REMARK Flexibility Score: inf
ROOT
ATOM      1  C   UNL A   1      31.779  30.232  26.739  1.00  0.00     0.023 C 
ENDROOT
BRANCH   1   2
ATOM      2  C   UNL A   1      33.068  29.710  26.093  1.00  0.00     0.116 C 
BRANCH   2   3
ATOM      3  N   UNL A   1      32.937  29.769  24.654  1.00  0.00    -0.351 N 
ATOM      4  C   UNL A   1      32.914  28.759  23.740  1.00  0.00     0.279 C 
ATOM      5  O   UNL A   1      33.312  29.057  22.608  1.00  0.00    -0.268 OA
ATOM      6  H   UNL A   1      32.853  30.674  24.278  1.00  0.00     0.163 HD
BRANCH   4   7
ATOM      7  C   UNL A   1      32.292  27.362  24.035  1.00  0.00     0.287 C 
ATOM      8  N   UNL A   1      31.857  24.996  23.521  1.00  0.00    -0.185 NA
ATOM      9  C   UNL A   1      30.397  25.098  23.672  1.00  0.00     0.164 C 
ATOM     10  C   UNL A   1      32.437  26.256  22.996  1.00  0.00     0.178 C 
ATOM     11  C   UNL A   1      29.975  26.383  24.409  1.00  0.00     0.278 C 
ATOM     12  N   UNL A   1      30.851  27.566  24.392  1.00  0.00    -0.334 N 
ATOM     13  H   UNL A   1      30.824  27.978  25.325  1.00  0.00     0.347 HD
ATOM     14  H   UNL A   1      30.481  28.150  23.643  1.00  0.00     0.347 HD
BRANCH   8  15
ATOM     15  S   UNL A   1      32.770  24.017  24.561  1.00  0.00     0.253 S 
ATOM     16  O   UNL A   1      32.179  24.157  25.881  1.00  0.00    -0.206 OA
ATOM     17  O   UNL A   1      34.162  24.318  24.319  1.00  0.00    -0.206 OA
BRANCH  15  18
ATOM     18  C   UNL A   1      32.637  22.268  24.196  1.00  0.00     0.135 A 
ATOM     19  C   UNL A   1      32.987  19.823  24.442  1.00  0.00     0.055 A 
ATOM     20  C   UNL A   1      32.368  20.143  23.259  1.00  0.00     0.023 A 
ATOM     21  S   UNL A   1      33.252  21.198  25.412  1.00  0.00    -0.121 S 
ATOM     22  C   UNL A   1      32.156  21.534  23.131  1.00  0.00     0.034 A 
BRANCH  19  23
ATOM     23  C   UNL A   1      33.378  18.410  24.725  1.00  0.00     0.091 A 
ATOM     24  C   UNL A   1      32.091  15.168  25.769  1.00  0.00     0.079 C 
ATOM     25  C   UNL A   1      32.907  16.338  25.349  1.00  0.00     0.090 A 
ATOM     26  N   UNL A   1      32.430  17.557  25.268  1.00  0.00    -0.241 NA
ATOM     27  S   UNL A   1      34.562  16.173  24.922  1.00  0.00    -0.127 S 
ATOM     28  C   UNL A   1      34.607  17.837  24.484  1.00  0.00     0.096 A 
ENDBRANCH  19  23
ENDBRANCH  15  18
ENDBRANCH   8  15
ENDBRANCH   4   7
ENDBRANCH   2   3
ENDBRANCH   1   2
BRANCH   1  29
ATOM     29  C   UNL A   1      31.610  31.754  26.616  1.00  0.00     0.023 C 
BRANCH  29  30
ATOM     30  C   UNL A   1      32.827  32.552  27.066  1.00  0.00     0.116 C 
BRANCH  30  31
ATOM     31  N   UNL A   1      32.481  33.883  27.533  1.00  0.00    -0.352 N 
ATOM     32  C   UNL A   1      33.064  34.612  28.538  1.00  0.00     0.251 C 
ATOM     33  H   UNL A   1      31.731  34.319  27.067  1.00  0.00     0.163 HD
ATOM     34  O   UNL A   1      32.576  35.678  28.898  1.00  0.00    -0.269 OA
BRANCH  32  35
ATOM     35  C   UNL A   1      34.257  34.074  29.218  1.00  0.00     0.039 A 
ATOM     36  C   UNL A   1      34.075  33.137  30.237  1.00  0.00     0.014 A 
ATOM     37  C   UNL A   1      35.543  34.473  28.841  1.00  0.00     0.014 A 
ATOM     38  C   UNL A   1      35.187  32.558  30.845  1.00  0.00     0.010 A 
ATOM     39  C   UNL A   1      36.650  33.846  29.401  1.00  0.00     0.010 A 
ATOM     40  C   UNL A   1      36.482  32.889  30.411  1.00  0.00    -0.014 A 
BRANCH  40  41
ATOM     41  C   UNL A   1      37.667  32.233  31.014  1.00  0.00     0.031 A 
ATOM     42  C   UNL A   1      38.137  32.631  32.384  1.00  0.00     0.074 A 
ATOM     43  C   UNL A   1      38.342  31.310  30.304  1.00  0.00     0.049 A 
ATOM     44  N   UNL A   1      39.145  32.168  33.078  1.00  0.00    -0.248 NA
ATOM     45  C   UNL A   1      37.392  33.709  33.053  1.00  0.00     0.031 C 
ATOM     46  C   UNL A   1      38.020  30.893  28.938  1.00  0.00     0.029 A 
ATOM     47  N   UNL A   1      39.438  30.555  30.633  1.00  0.00    -0.354 N 
ATOM     48  C   UNL A   1      39.161  32.904  34.255  1.00  0.00     0.074 A 
ATOM     49  C   UNL A   1      38.099  33.881  34.159  1.00  0.00     0.031 C 
ATOM     50  C   UNL A   1      38.880  29.936  28.557  1.00  0.00     0.029 A 
ATOM     51  C   UNL A   1      39.824  29.687  29.642  1.00  0.00     0.049 A 
ATOM     52  H   UNL A   1      39.904  30.629  31.497  1.00  0.00     0.167 HD
ATOM     53  C   UNL A   1      39.973  32.760  35.330  1.00  0.00     0.037 A 
ATOM     54  C   UNL A   1      40.819  28.781  29.621  1.00  0.00     0.037 A 
ATOM     55  C   UNL A   1      41.010  31.767  35.430  1.00  0.00     0.049 A 
ATOM     56  C   UNL A   1      41.678  28.609  30.844  1.00  0.00     0.074 A 
ATOM     57  C   UNL A   1      41.853  31.500  36.495  1.00  0.00     0.029 A 
ATOM     58  N   UNL A   1      41.343  30.872  34.423  1.00  0.00    -0.354 N 
ATOM     59  N   UNL A   1      41.634  29.257  31.983  1.00  0.00    -0.248 NA
ATOM     60  C   UNL A   1      42.711  27.567  30.785  1.00  0.00     0.031 C 
ATOM     61  C   UNL A   1      42.717  30.465  36.121  1.00  0.00     0.029 A 
ATOM     62  C   UNL A   1      42.384  30.058  34.839  1.00  0.00     0.049 A 
ATOM     63  H   UNL A   1      40.904  30.824  33.542  1.00  0.00     0.167 HD
ATOM     64  C   UNL A   1      42.609  28.682  32.786  1.00  0.00     0.074 A 
ATOM     65  C   UNL A   1      43.218  27.623  32.008  1.00  0.00     0.031 C 
ATOM     66  C   UNL A   1      42.967  29.000  34.054  1.00  0.00     0.037 A 
BRANCH  53  67
ATOM     67  C   UNL A   1      39.761  33.692  36.486  1.00  0.00     0.064 A 
ATOM     68  C   UNL A   1      38.914  33.355  37.554  1.00  0.00     0.173 A 
ATOM     69  C   UNL A   1      40.429  34.924  36.543  1.00  0.00     0.173 A 
ATOM     70  F   UNL A   1      38.241  32.194  37.541  1.00  0.00    -0.203 F 
ATOM     71  C   UNL A   1      38.722  34.228  38.619  1.00  0.00     0.198 A 
ATOM     72  C   UNL A   1      40.257  35.783  37.625  1.00  0.00     0.198 A 
ATOM     73  F   UNL A   1      41.253  35.293  35.550  1.00  0.00    -0.203 F 
ATOM     74  F   UNL A   1      37.869  33.906  39.603  1.00  0.00    -0.200 F 
ATOM     75  C   UNL A   1      39.398  35.438  38.658  1.00  0.00     0.200 A 
ATOM     76  F   UNL A   1      40.919  36.947  37.666  1.00  0.00    -0.200 F 
ATOM     77  F   UNL A   1      39.215  36.277  39.688  1.00  0.00    -0.200 F 
ENDBRANCH  53  67
BRANCH  54  78
ATOM     78  C   UNL A   1      41.018  27.927  28.422  1.00  0.00     0.064 A 
ATOM     79  C   UNL A   1      41.870  28.332  27.385  1.00  0.00     0.173 A 
ATOM     80  C   UNL A   1      40.368  26.691  28.290  1.00  0.00     0.173 A 
ATOM     81  F   UNL A   1      42.500  29.514  27.461  1.00  0.00    -0.203 F 
ATOM     82  C   UNL A   1      42.047  27.546  26.250  1.00  0.00     0.198 A 
ATOM     83  C   UNL A   1      40.566  25.893  27.165  1.00  0.00     0.198 A 
ATOM     84  F   UNL A   1      39.551  26.255  29.259  1.00  0.00    -0.203 F 
ATOM     85  F   UNL A   1      42.833  27.977  25.255  1.00  0.00    -0.200 F 
ATOM     86  C   UNL A   1      41.399  26.324  26.142  1.00  0.00     0.200 A 
ATOM     87  F   UNL A   1      39.950  24.707  27.071  1.00  0.00    -0.200 F 
ATOM     88  F   UNL A   1      41.571  25.566  25.051  1.00  0.00    -0.200 F 
ENDBRANCH  54  78
BRANCH  66  89
ATOM     89  C   UNL A   1      44.037  28.166  34.692  1.00  0.00     0.064 A 
ATOM     90  C   UNL A   1      43.737  26.976  35.371  1.00  0.00     0.173 A 
ATOM     91  C   UNL A   1      45.383  28.549  34.599  1.00  0.00     0.173 A 
ATOM     92  F   UNL A   1      42.463  26.575  35.500  1.00  0.00    -0.203 F 
ATOM     93  C   UNL A   1      44.744  26.217  35.961  1.00  0.00     0.198 A 
ATOM     94  C   UNL A   1      46.390  27.773  35.166  1.00  0.00     0.198 A 
ATOM     95  F   UNL A   1      45.722  29.676  33.953  1.00  0.00    -0.203 F 
ATOM     96  F   UNL A   1      44.430  25.111  36.650  1.00  0.00    -0.200 F 
ATOM     97  C   UNL A   1      46.068  26.613  35.854  1.00  0.00     0.200 A 
ATOM     98  F   UNL A   1      47.670  28.151  35.051  1.00  0.00    -0.200 F 
ATOM     99  F   UNL A   1      47.036  25.880  36.421  1.00  0.00    -0.200 F 
ENDBRANCH  66  89
ENDBRANCH  40  41
ENDBRANCH  32  35
ENDBRANCH  30  31
ENDBRANCH  29  30
ENDBRANCH   1  29
TORSDOF 14
ENDMDL
