MODEL 1
REMARK VINA RESULT:     -12.0      0.000      0.000
REMARK SMILES O=C(C[N@@H+](C[C@@H]1COc2ccccc2O1)CC(F)(F)F)NCCCCNC(=O)c1ccc(-c2c3nc(c(-c4c(F)c(F)c(F)c(F)c4F)c4ccc([nH]4)c(-c4c(F)c(F)c(F)c(F)c4F)c4nc(c(-c5c(F)c(F)c(F)c(F)c5F)c5ccc2[nH]5)C=C4)C=C3)cc1
REMARK SMILES IDX 23 1 22 2 21 3 1 4 2 5 3 7 4 8 5 10 6 11 7 12 15 13 8 14
REMARK SMILES IDX 14 15 9 16 13 17 10 18 12 19 11 20 16 21 17 22 18 23 19 24
REMARK SMILES IDX 20 25 24 26 25 27 26 28 27 29 28 31 29 32 30 33 91 34 31 35
REMARK SMILES IDX 90 36 32 37 33 38 34 39 84 40 35 41 89 42 83 43 85 44 36 45
REMARK SMILES IDX 88 46 82 47 81 48 37 50 69 51 49 52 68 53 50 54 53 55 67 56
REMARK SMILES IDX 86 57 51 58 52 59 66 61 87 62 54 63 38 64 39 65 47 66 40 67
REMARK SMILES IDX 41 68 45 69 48 70 42 71 43 72 46 73 44 74 70 75 71 76 79 77
REMARK SMILES IDX 72 78 73 79 77 80 80 81 74 82 75 83 78 84 76 85 55 86 56 87
REMARK SMILES IDX 64 88 57 89 58 90 62 91 65 92 59 93 60 94 63 95 61 96
REMARK H PARENT 21 6 4 9 26 30 85 49 53 60
REMARK Flexibility Score: inf
ROOT
ATOM      1  C   UNL A   1      31.418  30.671  26.834  1.00  0.00     0.023 C 
ENDROOT
BRANCH   1   2
ATOM      2  C   UNL A   1      32.666  29.839  26.554  1.00  0.00     0.116 C 
BRANCH   2   3
ATOM      3  N   UNL A   1      32.320  28.556  25.993  1.00  0.00    -0.351 N 
ATOM      4  O   UNL A   1      31.373  27.724  27.905  1.00  0.00    -0.269 OA
ATOM      5  C   UNL A   1      31.842  27.541  26.785  1.00  0.00     0.275 C 
ATOM      6  H   UNL A   1      32.429  28.405  25.026  1.00  0.00     0.163 HD
BRANCH   5   7
ATOM      7  C   UNL A   1      32.060  26.152  26.195  1.00  0.00     0.363 C 
BRANCH   7   8
ATOM      8  N   UNL A   1      30.834  25.421  25.859  1.00  0.00    -0.316 N 
ATOM      9  H   UNL A   1      30.352  25.248  26.741  1.00  0.00     0.348 HD
BRANCH   8  10
ATOM     10  C   UNL A   1      29.869  26.246  25.100  1.00  0.00     0.312 C 
BRANCH  10  11
ATOM     11  C   UNL A   1      29.799  26.444  23.540  1.00  0.00     0.265 C 
ATOM     12  C   UNL A   1      30.893  27.201  22.797  1.00  0.00     0.281 C 
ATOM     13  O   UNL A   1      28.529  27.078  23.196  1.00  0.00    -0.477 OA
ATOM     14  O   UNL A   1      31.019  28.547  23.251  1.00  0.00    -0.486 OA
ATOM     15  C   UNL A   1      28.596  28.453  23.247  1.00  0.00     0.162 A 
ATOM     16  C   UNL A   1      29.800  29.148  23.372  1.00  0.00     0.161 A 
ATOM     17  C   UNL A   1      27.405  29.171  23.185  1.00  0.00     0.050 A 
ATOM     18  C   UNL A   1      29.815  30.518  23.619  1.00  0.00     0.050 A 
ATOM     19  C   UNL A   1      27.420  30.561  23.356  1.00  0.00     0.004 A 
ATOM     20  C   UNL A   1      28.618  31.226  23.621  1.00  0.00     0.004 A 
ENDBRANCH  10  11
ENDBRANCH   8  10
BRANCH   8  21
ATOM     21  C   UNL A   1      31.049  24.033  25.388  1.00  0.00     0.379 C 
BRANCH  21  22
ATOM     22  C   UNL A   1      30.968  22.810  26.323  1.00  0.00     0.438 C 
ATOM     23  F   UNL A   1      29.706  22.467  26.644  1.00  0.00    -0.165 F 
ATOM     24  F   UNL A   1      31.557  21.730  25.760  1.00  0.00    -0.165 F 
ATOM     25  F   UNL A   1      31.628  23.066  27.479  1.00  0.00    -0.165 F 
ENDBRANCH  21  22
ENDBRANCH   8  21
ENDBRANCH   7   8
ENDBRANCH   5   7
ENDBRANCH   2   3
ENDBRANCH   1   2
BRANCH   1  26
ATOM     26  C   UNL A   1      31.570  32.166  26.546  1.00  0.00     0.023 C 
BRANCH  26  27
ATOM     27  C   UNL A   1      32.698  32.852  27.303  1.00  0.00     0.116 C 
BRANCH  27  28
ATOM     28  N   UNL A   1      32.383  34.226  27.654  1.00  0.00    -0.352 N 
ATOM     29  C   UNL A   1      32.965  35.028  28.607  1.00  0.00     0.251 C 
ATOM     30  H   UNL A   1      31.654  34.640  27.137  1.00  0.00     0.163 HD
ATOM     31  O   UNL A   1      32.502  36.126  28.864  1.00  0.00    -0.269 OA
BRANCH  29  32
ATOM     32  C   UNL A   1      34.137  34.520  29.350  1.00  0.00     0.039 A 
ATOM     33  C   UNL A   1      33.928  33.910  30.589  1.00  0.00     0.014 A 
ATOM     34  C   UNL A   1      35.425  34.619  28.816  1.00  0.00     0.014 A 
ATOM     35  C   UNL A   1      35.008  33.341  31.265  1.00  0.00     0.010 A 
ATOM     36  C   UNL A   1      36.487  33.989  29.456  1.00  0.00     0.010 A 
ATOM     37  C   UNL A   1      36.288  33.345  30.687  1.00  0.00    -0.014 A 
BRANCH  37  38
ATOM     38  C   UNL A   1      37.431  32.681  31.361  1.00  0.00     0.031 A 
ATOM     39  C   UNL A   1      38.138  31.536  30.691  1.00  0.00     0.074 A 
ATOM     40  C   UNL A   1      37.794  33.072  32.597  1.00  0.00     0.049 A 
ATOM     41  N   UNL A   1      39.119  30.793  31.139  1.00  0.00    -0.248 NA
ATOM     42  C   UNL A   1      37.663  31.158  29.351  1.00  0.00     0.031 C 
ATOM     43  C   UNL A   1      37.156  34.140  33.368  1.00  0.00     0.029 A 
ATOM     44  N   UNL A   1      38.785  32.611  33.428  1.00  0.00    -0.354 N 
ATOM     45  C   UNL A   1      39.364  29.855  30.145  1.00  0.00     0.074 A 
ATOM     46  C   UNL A   1      38.398  30.088  29.094  1.00  0.00     0.031 C 
ATOM     47  C   UNL A   1      37.786  34.269  34.546  1.00  0.00     0.029 A 
ATOM     48  C   UNL A   1      38.847  33.271  34.631  1.00  0.00     0.049 A 
ATOM     49  H   UNL A   1      39.394  31.877  33.184  1.00  0.00     0.167 HD
ATOM     50  C   UNL A   1      40.325  28.902  30.104  1.00  0.00     0.037 A 
ATOM     51  C   UNL A   1      39.664  33.085  35.684  1.00  0.00     0.037 A 
ATOM     52  C   UNL A   1      41.302  28.694  31.140  1.00  0.00     0.049 A 
ATOM     53  C   UNL A   1      40.719  32.015  35.614  1.00  0.00     0.074 A 
ATOM     54  C   UNL A   1      42.358  27.799  31.163  1.00  0.00     0.029 A 
ATOM     55  N   UNL A   1      41.342  29.391  32.339  1.00  0.00    -0.354 N 
ATOM     56  N   UNL A   1      40.991  31.182  34.638  1.00  0.00    -0.248 NA
ATOM     57  C   UNL A   1      41.587  31.862  36.791  1.00  0.00     0.031 C 
ATOM     58  C   UNL A   1      43.007  27.921  32.396  1.00  0.00     0.029 A 
ATOM     59  C   UNL A   1      42.389  28.927  33.120  1.00  0.00     0.049 A 
ATOM     60  H   UNL A   1      40.718  30.107  32.597  1.00  0.00     0.167 HD
ATOM     61  C   UNL A   1      42.075  30.431  35.068  1.00  0.00     0.074 A 
ATOM     62  C   UNL A   1      42.422  30.915  36.388  1.00  0.00     0.031 C 
ATOM     63  C   UNL A   1      42.727  29.429  34.427  1.00  0.00     0.037 A 
BRANCH  50  64
ATOM     64  C   UNL A   1      40.368  28.009  28.898  1.00  0.00     0.064 A 
ATOM     65  C   UNL A   1      41.123  28.341  27.763  1.00  0.00     0.173 A 
ATOM     66  C   UNL A   1      39.679  26.787  28.894  1.00  0.00     0.173 A 
ATOM     67  F   UNL A   1      41.791  29.502  27.713  1.00  0.00    -0.203 F 
ATOM     68  C   UNL A   1      41.164  27.495  26.658  1.00  0.00     0.198 A 
ATOM     69  C   UNL A   1      39.747  25.929  27.798  1.00  0.00     0.198 A 
ATOM     70  F   UNL A   1      38.945  26.419  29.955  1.00  0.00    -0.203 F 
ATOM     71  F   UNL A   1      41.853  27.855  25.566  1.00  0.00    -0.200 F 
ATOM     72  C   UNL A   1      40.483  26.288  26.678  1.00  0.00     0.200 A 
ATOM     73  F   UNL A   1      39.098  24.757  27.826  1.00  0.00    -0.200 F 
ATOM     74  F   UNL A   1      40.530  25.471  25.618  1.00  0.00    -0.200 F 
ENDBRANCH  50  64
BRANCH  51  75
ATOM     75  C   UNL A   1      39.537  33.949  36.888  1.00  0.00     0.064 A 
ATOM     76  C   UNL A   1      40.176  35.196  36.948  1.00  0.00     0.173 A 
ATOM     77  C   UNL A   1      38.790  33.545  38.004  1.00  0.00     0.173 A 
ATOM     78  F   UNL A   1      40.919  35.617  35.914  1.00  0.00    -0.203 F 
ATOM     79  C   UNL A   1      40.091  35.994  38.087  1.00  0.00     0.198 A 
ATOM     80  C   UNL A   1      38.683  34.357  39.130  1.00  0.00     0.198 A 
ATOM     81  F   UNL A   1      38.156  32.363  37.995  1.00  0.00    -0.203 F 
ATOM     82  F   UNL A   1      40.753  37.158  38.135  1.00  0.00    -0.200 F 
ATOM     83  C   UNL A   1      39.341  35.577  39.175  1.00  0.00     0.200 A 
ATOM     84  F   UNL A   1      37.944  33.956  40.174  1.00  0.00    -0.200 F 
ATOM     85  F   UNL A   1      39.259  36.345  40.270  1.00  0.00    -0.200 F 
ENDBRANCH  51  75
BRANCH  63  86
ATOM     86  C   UNL A   1      43.905  28.816  35.127  1.00  0.00     0.064 A 
ATOM     87  C   UNL A   1      43.765  27.708  35.975  1.00  0.00     0.173 A 
ATOM     88  C   UNL A   1      45.197  29.320  34.911  1.00  0.00     0.173 A 
ATOM     89  F   UNL A   1      42.549  27.199  36.225  1.00  0.00    -0.203 F 
ATOM     90  C   UNL A   1      44.872  27.144  36.603  1.00  0.00     0.198 A 
ATOM     91  C   UNL A   1      46.305  28.733  35.516  1.00  0.00     0.198 A 
ATOM     92  F   UNL A   1      45.387  30.374  34.104  1.00  0.00    -0.203 F 
ATOM     93  F   UNL A   1      44.709  26.116  37.447  1.00  0.00    -0.200 F 
ATOM     94  C   UNL A   1      46.141  27.650  36.367  1.00  0.00     0.200 A 
ATOM     95  F   UNL A   1      47.532  29.216  35.276  1.00  0.00    -0.200 F 
ATOM     96  F   UNL A   1      47.206  27.100  36.966  1.00  0.00    -0.200 F 
ENDBRANCH  63  86
ENDBRANCH  37  38
ENDBRANCH  29  32
ENDBRANCH  27  28
ENDBRANCH  26  27
ENDBRANCH   1  26
TORSDOF 16
ENDMDL
MODEL 2
REMARK VINA RESULT:     -12.0      1.786      2.972
REMARK SMILES O=C(C[N@@H+](C[C@@H]1COc2ccccc2O1)CC(F)(F)F)NCCCCNC(=O)c1ccc(-c2c3nc(c(-c4c(F)c(F)c(F)c(F)c4F)c4ccc([nH]4)c(-c4c(F)c(F)c(F)c(F)c4F)c4nc(c(-c5c(F)c(F)c(F)c(F)c5F)c5ccc2[nH]5)C=C4)C=C3)cc1
REMARK SMILES IDX 23 1 22 2 21 3 1 4 2 5 3 7 4 8 5 10 6 11 7 12 15 13 8 14
REMARK SMILES IDX 14 15 9 16 13 17 10 18 12 19 11 20 16 21 17 22 18 23 19 24
REMARK SMILES IDX 20 25 24 26 25 27 26 28 27 29 28 31 29 32 30 33 91 34 31 35
REMARK SMILES IDX 90 36 32 37 33 38 34 39 84 40 35 41 89 42 83 43 85 44 36 45
REMARK SMILES IDX 88 46 82 47 81 48 37 50 69 51 49 52 68 53 50 54 53 55 67 56
REMARK SMILES IDX 86 57 51 58 52 59 66 61 87 62 54 63 38 64 39 65 47 66 40 67
REMARK SMILES IDX 41 68 45 69 48 70 42 71 43 72 46 73 44 74 70 75 71 76 79 77
REMARK SMILES IDX 72 78 73 79 77 80 80 81 74 82 75 83 78 84 76 85 55 86 56 87
REMARK SMILES IDX 64 88 57 89 58 90 62 91 65 92 59 93 60 94 63 95 61 96
REMARK H PARENT 21 6 4 9 26 30 85 49 53 60
REMARK Flexibility Score: inf
ROOT
ATOM      1  C   UNL A   1      31.658  30.609  26.790  1.00  0.00     0.023 C 
ENDROOT
BRANCH   1   2
ATOM      2  C   UNL A   1      32.176  29.903  25.541  1.00  0.00     0.116 C 
BRANCH   2   3
ATOM      3  N   UNL A   1      31.165  29.047  24.970  1.00  0.00    -0.351 N 
ATOM      4  O   UNL A   1      31.437  27.343  26.477  1.00  0.00    -0.269 OA
ATOM      5  C   UNL A   1      31.002  27.754  25.404  1.00  0.00     0.275 C 
ATOM      6  H   UNL A   1      30.582  29.395  24.256  1.00  0.00     0.163 HD
BRANCH   5   7
ATOM      7  C   UNL A   1      30.336  26.845  24.378  1.00  0.00     0.363 C 
BRANCH   7   8
ATOM      8  N   UNL A   1      31.231  25.880  23.731  1.00  0.00    -0.316 N 
ATOM      9  H   UNL A   1      32.011  25.738  24.372  1.00  0.00     0.348 HD
BRANCH   8  10
ATOM     10  C   UNL A   1      30.631  24.533  23.619  1.00  0.00     0.312 C 
BRANCH  10  11
ATOM     11  C   UNL A   1      30.953  23.267  24.497  1.00  0.00     0.265 C 
ATOM     12  C   UNL A   1      31.285  23.405  25.978  1.00  0.00     0.281 C 
ATOM     13  O   UNL A   1      32.046  22.522  23.879  1.00  0.00    -0.477 OA
ATOM     14  O   UNL A   1      32.445  24.206  26.195  1.00  0.00    -0.486 OA
ATOM     15  C   UNL A   1      33.284  22.970  24.286  1.00  0.00     0.162 A 
ATOM     16  C   UNL A   1      33.456  23.861  25.346  1.00  0.00     0.161 A 
ATOM     17  C   UNL A   1      34.404  22.519  23.594  1.00  0.00     0.050 A 
ATOM     18  C   UNL A   1      34.694  24.443  25.600  1.00  0.00     0.050 A 
ATOM     19  C   UNL A   1      35.667  23.045  23.897  1.00  0.00     0.004 A 
ATOM     20  C   UNL A   1      35.804  24.040  24.866  1.00  0.00     0.004 A 
ENDBRANCH  10  11
ENDBRANCH   8  10
BRANCH   8  21
ATOM     21  C   UNL A   1      31.947  26.399  22.541  1.00  0.00     0.379 C 
BRANCH  21  22
ATOM     22  C   UNL A   1      33.467  26.658  22.527  1.00  0.00     0.438 C 
ATOM     23  F   UNL A   1      34.192  25.563  22.228  1.00  0.00    -0.165 F 
ATOM     24  F   UNL A   1      33.785  27.619  21.630  1.00  0.00    -0.165 F 
ATOM     25  F   UNL A   1      33.874  27.098  23.743  1.00  0.00    -0.165 F 
ENDBRANCH  21  22
ENDBRANCH   8  21
ENDBRANCH   7   8
ENDBRANCH   5   7
ENDBRANCH   2   3
ENDBRANCH   1   2
BRANCH   1  26
ATOM     26  C   UNL A   1      31.570  32.132  26.670  1.00  0.00     0.023 C 
BRANCH  26  27
ATOM     27  C   UNL A   1      32.754  32.889  27.255  1.00  0.00     0.116 C 
BRANCH  27  28
ATOM     28  N   UNL A   1      32.418  34.251  27.630  1.00  0.00    -0.352 N 
ATOM     29  C   UNL A   1      32.977  35.040  28.608  1.00  0.00     0.251 C 
ATOM     30  H   UNL A   1      31.691  34.668  27.113  1.00  0.00     0.163 HD
ATOM     31  O   UNL A   1      32.499  36.127  28.882  1.00  0.00    -0.269 OA
BRANCH  29  32
ATOM     32  C   UNL A   1      34.146  34.530  29.356  1.00  0.00     0.039 A 
ATOM     33  C   UNL A   1      33.928  33.902  30.585  1.00  0.00     0.014 A 
ATOM     34  C   UNL A   1      35.438  34.644  28.837  1.00  0.00     0.014 A 
ATOM     35  C   UNL A   1      35.005  33.331  31.264  1.00  0.00     0.010 A 
ATOM     36  C   UNL A   1      36.498  34.012  29.480  1.00  0.00     0.010 A 
ATOM     37  C   UNL A   1      36.290  33.351  30.699  1.00  0.00    -0.014 A 
BRANCH  37  38
ATOM     38  C   UNL A   1      37.431  32.685  31.376  1.00  0.00     0.031 A 
ATOM     39  C   UNL A   1      38.132  31.535  30.712  1.00  0.00     0.074 A 
ATOM     40  C   UNL A   1      37.796  33.082  32.610  1.00  0.00     0.049 A 
ATOM     41  N   UNL A   1      39.110  30.789  31.164  1.00  0.00    -0.248 NA
ATOM     42  C   UNL A   1      37.655  31.152  29.374  1.00  0.00     0.031 C 
ATOM     43  C   UNL A   1      37.163  34.156  33.376  1.00  0.00     0.029 A 
ATOM     44  N   UNL A   1      38.785  32.621  33.443  1.00  0.00    -0.354 N 
ATOM     45  C   UNL A   1      39.351  29.846  30.174  1.00  0.00     0.074 A 
ATOM     46  C   UNL A   1      38.386  30.077  29.123  1.00  0.00     0.031 C 
ATOM     47  C   UNL A   1      37.794  34.289  34.554  1.00  0.00     0.029 A 
ATOM     48  C   UNL A   1      38.851  33.286  34.643  1.00  0.00     0.049 A 
ATOM     49  H   UNL A   1      39.391  31.883  33.203  1.00  0.00     0.167 HD
ATOM     50  C   UNL A   1      40.308  28.888  30.138  1.00  0.00     0.037 A 
ATOM     51  C   UNL A   1      39.668  33.102  35.697  1.00  0.00     0.037 A 
ATOM     52  C   UNL A   1      41.285  28.681  31.174  1.00  0.00     0.049 A 
ATOM     53  C   UNL A   1      40.718  32.027  35.631  1.00  0.00     0.074 A 
ATOM     54  C   UNL A   1      42.337  27.782  31.201  1.00  0.00     0.029 A 
ATOM     55  N   UNL A   1      41.328  29.384  32.370  1.00  0.00    -0.354 N 
ATOM     56  N   UNL A   1      40.986  31.188  34.659  1.00  0.00    -0.248 NA
ATOM     57  C   UNL A   1      41.586  31.876  36.809  1.00  0.00     0.031 C 
ATOM     58  C   UNL A   1      42.987  27.907  32.434  1.00  0.00     0.029 A 
ATOM     59  C   UNL A   1      42.374  28.920  33.152  1.00  0.00     0.049 A 
ATOM     60  H   UNL A   1      40.707  30.104  32.625  1.00  0.00     0.167 HD
ATOM     61  C   UNL A   1      42.067  30.435  35.093  1.00  0.00     0.074 A 
ATOM     62  C   UNL A   1      42.416  30.924  36.411  1.00  0.00     0.031 C 
ATOM     63  C   UNL A   1      42.714  29.426  34.457  1.00  0.00     0.037 A 
BRANCH  50  64
ATOM     64  C   UNL A   1      40.347  27.988  28.936  1.00  0.00     0.064 A 
ATOM     65  C   UNL A   1      41.112  28.305  27.804  1.00  0.00     0.173 A 
ATOM     66  C   UNL A   1      39.642  26.775  28.934  1.00  0.00     0.173 A 
ATOM     67  F   UNL A   1      41.795  29.458  27.752  1.00  0.00    -0.203 F 
ATOM     68  C   UNL A   1      41.149  27.453  26.703  1.00  0.00     0.198 A 
ATOM     69  C   UNL A   1      39.705  25.912  27.843  1.00  0.00     0.198 A 
ATOM     70  F   UNL A   1      38.898  26.422  29.993  1.00  0.00    -0.203 F 
ATOM     71  F   UNL A   1      41.849  27.800  25.614  1.00  0.00    -0.200 F 
ATOM     72  C   UNL A   1      40.452  26.255  26.726  1.00  0.00     0.200 A 
ATOM     73  F   UNL A   1      39.042  24.747  27.873  1.00  0.00    -0.200 F 
ATOM     74  F   UNL A   1      40.496  25.433  25.669  1.00  0.00    -0.200 F 
ENDBRANCH  50  64
BRANCH  51  75
ATOM     75  C   UNL A   1      39.545  33.973  36.896  1.00  0.00     0.064 A 
ATOM     76  C   UNL A   1      40.203  35.210  36.956  1.00  0.00     0.173 A 
ATOM     77  C   UNL A   1      38.784  33.585  38.008  1.00  0.00     0.173 A 
ATOM     78  F   UNL A   1      40.959  35.616  35.926  1.00  0.00    -0.203 F 
ATOM     79  C   UNL A   1      40.121  36.015  38.091  1.00  0.00     0.198 A 
ATOM     80  C   UNL A   1      38.680  34.403  39.130  1.00  0.00     0.198 A 
ATOM     81  F   UNL A   1      38.131  32.413  37.999  1.00  0.00    -0.203 F 
ATOM     82  F   UNL A   1      40.800  37.168  38.140  1.00  0.00    -0.200 F 
ATOM     83  C   UNL A   1      39.357  35.613  39.175  1.00  0.00     0.200 A 
ATOM     84  F   UNL A   1      37.928  34.018  40.170  1.00  0.00    -0.200 F 
ATOM     85  F   UNL A   1      39.278  36.387  40.266  1.00  0.00    -0.200 F 
ENDBRANCH  51  75
BRANCH  63  86
ATOM     86  C   UNL A   1      43.890  28.813  35.159  1.00  0.00     0.064 A 
ATOM     87  C   UNL A   1      43.746  27.704  36.006  1.00  0.00     0.173 A 
ATOM     88  C   UNL A   1      45.183  29.315  34.947  1.00  0.00     0.173 A 
ATOM     89  F   UNL A   1      42.529  27.197  36.254  1.00  0.00    -0.203 F 
ATOM     90  C   UNL A   1      44.852  27.139  36.637  1.00  0.00     0.198 A 
ATOM     91  C   UNL A   1      46.289  28.727  35.555  1.00  0.00     0.198 A 
ATOM     92  F   UNL A   1      45.376  30.369  34.140  1.00  0.00    -0.203 F 
ATOM     93  F   UNL A   1      44.685  26.111  37.481  1.00  0.00    -0.200 F 
ATOM     94  C   UNL A   1      46.122  27.644  36.405  1.00  0.00     0.200 A 
ATOM     95  F   UNL A   1      47.517  29.208  35.317  1.00  0.00    -0.200 F 
ATOM     96  F   UNL A   1      47.185  27.092  37.006  1.00  0.00    -0.200 F 
ENDBRANCH  63  86
ENDBRANCH  37  38
ENDBRANCH  29  32
ENDBRANCH  27  28
ENDBRANCH  26  27
ENDBRANCH   1  26
TORSDOF 16
ENDMDL
MODEL 3
REMARK VINA RESULT:     -12.0      2.122      7.995
REMARK SMILES O=C(C[N@@H+](C[C@@H]1COc2ccccc2O1)CC(F)(F)F)NCCCCNC(=O)c1ccc(-c2c3nc(c(-c4c(F)c(F)c(F)c(F)c4F)c4ccc([nH]4)c(-c4c(F)c(F)c(F)c(F)c4F)c4nc(c(-c5c(F)c(F)c(F)c(F)c5F)c5ccc2[nH]5)C=C4)C=C3)cc1
REMARK SMILES IDX 23 1 22 2 21 3 1 4 2 5 3 7 4 8 5 10 6 11 7 12 15 13 8 14
REMARK SMILES IDX 14 15 9 16 13 17 10 18 12 19 11 20 16 21 17 22 18 23 19 24
REMARK SMILES IDX 20 25 24 26 25 27 26 28 27 29 28 31 29 32 30 33 91 34 31 35
REMARK SMILES IDX 90 36 32 37 33 38 34 39 84 40 35 41 89 42 83 43 85 44 36 45
REMARK SMILES IDX 88 46 82 47 81 48 37 50 69 51 49 52 68 53 50 54 53 55 67 56
REMARK SMILES IDX 86 57 51 58 52 59 66 61 87 62 54 63 38 64 39 65 47 66 40 67
REMARK SMILES IDX 41 68 45 69 48 70 42 71 43 72 46 73 44 74 70 75 71 76 79 77
REMARK SMILES IDX 72 78 73 79 77 80 80 81 74 82 75 83 78 84 76 85 55 86 56 87
REMARK SMILES IDX 64 88 57 89 58 90 62 91 65 92 59 93 60 94 63 95 61 96
REMARK H PARENT 21 6 4 9 26 30 85 49 53 60
REMARK Flexibility Score: inf
ROOT
ATOM      1  C   UNL A   1      31.571  30.928  26.117  1.00  0.00     0.023 C 
ENDROOT
BRANCH   1   2
ATOM      2  C   UNL A   1      32.533  29.946  26.779  1.00  0.00     0.116 C 
BRANCH   2   3
ATOM      3  N   UNL A   1      32.384  28.621  26.227  1.00  0.00    -0.351 N 
ATOM      4  O   UNL A   1      31.048  27.826  27.909  1.00  0.00    -0.269 OA
ATOM      5  C   UNL A   1      31.776  27.618  26.943  1.00  0.00     0.275 C 
ATOM      6  H   UNL A   1      32.725  28.432  25.323  1.00  0.00     0.163 HD
BRANCH   5   7
ATOM      7  C   UNL A   1      32.187  26.218  26.500  1.00  0.00     0.363 C 
BRANCH   7   8
ATOM      8  N   UNL A   1      32.200  26.005  25.049  1.00  0.00    -0.316 N 
ATOM      9  H   UNL A   1      32.422  26.907  24.629  1.00  0.00     0.348 HD
BRANCH   8  10
ATOM     10  C   UNL A   1      33.316  25.140  24.611  1.00  0.00     0.312 C 
BRANCH  10  11
ATOM     11  C   UNL A   1      33.400  24.280  23.296  1.00  0.00     0.265 C 
ATOM     12  C   UNL A   1      32.694  22.933  23.195  1.00  0.00     0.281 C 
ATOM     13  O   UNL A   1      34.804  24.055  22.961  1.00  0.00    -0.477 OA
ATOM     14  O   UNL A   1      33.162  22.007  24.174  1.00  0.00    -0.486 OA
ATOM     15  C   UNL A   1      35.321  22.938  23.581  1.00  0.00     0.162 A 
ATOM     16  C   UNL A   1      34.524  22.006  24.248  1.00  0.00     0.161 A 
ATOM     17  C   UNL A   1      36.699  22.749  23.548  1.00  0.00     0.050 A 
ATOM     18  C   UNL A   1      35.094  21.004  25.028  1.00  0.00     0.050 A 
ATOM     19  C   UNL A   1      37.274  21.695  24.269  1.00  0.00     0.004 A 
ATOM     20  C   UNL A   1      36.477  20.853  25.046  1.00  0.00     0.004 A 
ENDBRANCH  10  11
ENDBRANCH   8  10
BRANCH   8  21
ATOM     21  C   UNL A   1      30.870  25.745  24.449  1.00  0.00     0.379 C 
BRANCH  21  22
ATOM     22  C   UNL A   1      30.105  26.797  23.622  1.00  0.00     0.438 C 
ATOM     23  F   UNL A   1      30.256  28.052  24.086  1.00  0.00    -0.165 F 
ATOM     24  F   UNL A   1      30.507  26.785  22.331  1.00  0.00    -0.165 F 
ATOM     25  F   UNL A   1      28.778  26.516  23.629  1.00  0.00    -0.165 F 
ENDBRANCH  21  22
ENDBRANCH   8  21
ENDBRANCH   7   8
ENDBRANCH   5   7
ENDBRANCH   2   3
ENDBRANCH   1   2
BRANCH   1  26
ATOM     26  C   UNL A   1      31.373  32.239  26.882  1.00  0.00     0.023 C 
BRANCH  26  27
ATOM     27  C   UNL A   1      32.659  32.968  27.245  1.00  0.00     0.116 C 
BRANCH  27  28
ATOM     28  N   UNL A   1      32.427  34.339  27.663  1.00  0.00    -0.352 N 
ATOM     29  C   UNL A   1      33.073  35.066  28.635  1.00  0.00     0.251 C 
ATOM     30  H   UNL A   1      31.709  34.814  27.184  1.00  0.00     0.163 HD
ATOM     31  O   UNL A   1      32.677  36.175  28.952  1.00  0.00    -0.269 OA
BRANCH  29  32
ATOM     32  C   UNL A   1      34.234  34.465  29.325  1.00  0.00     0.039 A 
ATOM     33  C   UNL A   1      34.005  33.701  30.472  1.00  0.00     0.014 A 
ATOM     34  C   UNL A   1      35.529  34.628  28.828  1.00  0.00     0.014 A 
ATOM     35  C   UNL A   1      35.074  33.047  31.085  1.00  0.00     0.010 A 
ATOM     36  C   UNL A   1      36.581  33.918  29.398  1.00  0.00     0.010 A 
ATOM     37  C   UNL A   1      36.363  33.122  30.533  1.00  0.00    -0.014 A 
BRANCH  37  38
ATOM     38  C   UNL A   1      37.495  32.374  31.133  1.00  0.00     0.031 A 
ATOM     39  C   UNL A   1      37.989  32.731  32.506  1.00  0.00     0.074 A 
ATOM     40  C   UNL A   1      38.111  31.413  30.419  1.00  0.00     0.049 A 
ATOM     41  N   UNL A   1      38.997  32.233  33.178  1.00  0.00    -0.248 NA
ATOM     42  C   UNL A   1      37.274  33.808  33.208  1.00  0.00     0.031 C 
ATOM     43  C   UNL A   1      37.751  31.008  29.059  1.00  0.00     0.029 A 
ATOM     44  N   UNL A   1      39.176  30.606  30.734  1.00  0.00    -0.354 N 
ATOM     45  C   UNL A   1      39.043  32.946  34.369  1.00  0.00     0.074 A 
ATOM     46  C   UNL A   1      37.999  33.944  34.308  1.00  0.00     0.031 C 
ATOM     47  C   UNL A   1      38.564  30.014  28.667  1.00  0.00     0.029 A 
ATOM     48  C   UNL A   1      39.524  29.736  29.730  1.00  0.00     0.049 A 
ATOM     49  H   UNL A   1      39.646  30.648  31.598  1.00  0.00     0.167 HD
ATOM     50  C   UNL A   1      39.870  32.767  35.427  1.00  0.00     0.037 A 
ATOM     51  C   UNL A   1      40.511  28.822  29.674  1.00  0.00     0.037 A 
ATOM     52  C   UNL A   1      40.888  31.753  35.495  1.00  0.00     0.049 A 
ATOM     53  C   UNL A   1      41.418  28.648  30.862  1.00  0.00     0.074 A 
ATOM     54  C   UNL A   1      41.732  31.447  36.549  1.00  0.00     0.029 A 
ATOM     55  N   UNL A   1      41.204  30.880  34.464  1.00  0.00    -0.354 N 
ATOM     56  N   UNL A   1      41.405  29.277  32.013  1.00  0.00    -0.248 NA
ATOM     57  C   UNL A   1      42.473  27.632  30.747  1.00  0.00     0.031 C 
ATOM     58  C   UNL A   1      42.590  30.422  36.138  1.00  0.00     0.029 A 
ATOM     59  C   UNL A   1      42.247  30.053  34.847  1.00  0.00     0.049 A 
ATOM     60  H   UNL A   1      40.754  30.855  33.588  1.00  0.00     0.167 HD
ATOM     61  C   UNL A   1      42.426  28.714  32.767  1.00  0.00     0.074 A 
ATOM     62  C   UNL A   1      43.028  27.682  31.948  1.00  0.00     0.031 C 
ATOM     63  C   UNL A   1      42.827  29.023  34.024  1.00  0.00     0.037 A 
BRANCH  50  64
ATOM     64  C   UNL A   1      39.705  33.688  36.602  1.00  0.00     0.064 A 
ATOM     65  C   UNL A   1      40.349  34.933  36.657  1.00  0.00     0.173 A 
ATOM     66  C   UNL A   1      38.861  33.338  37.666  1.00  0.00     0.173 A 
ATOM     67  F   UNL A   1      41.175  35.311  35.670  1.00  0.00    -0.203 F 
ATOM     68  C   UNL A   1      40.175  35.782  37.747  1.00  0.00     0.198 A 
ATOM     69  C   UNL A   1      38.665  34.202  38.740  1.00  0.00     0.198 A 
ATOM     70  F   UNL A   1      38.218  32.161  37.661  1.00  0.00    -0.203 F 
ATOM     71  F   UNL A   1      40.838  36.945  37.800  1.00  0.00    -0.200 F 
ATOM     72  C   UNL A   1      39.329  35.420  38.784  1.00  0.00     0.200 A 
ATOM     73  F   UNL A   1      37.836  33.856  39.734  1.00  0.00    -0.200 F 
ATOM     74  F   UNL A   1      39.155  36.241  39.828  1.00  0.00    -0.200 F 
ENDBRANCH  50  64
BRANCH  51  75
ATOM     75  C   UNL A   1      40.680  27.981  28.460  1.00  0.00     0.064 A 
ATOM     76  C   UNL A   1      41.440  28.433  27.372  1.00  0.00     0.173 A 
ATOM     77  C   UNL A   1      40.077  26.719  28.354  1.00  0.00     0.173 A 
ATOM     78  F   UNL A   1      42.019  29.642  27.418  1.00  0.00    -0.203 F 
ATOM     79  C   UNL A   1      41.573  27.666  26.217  1.00  0.00     0.198 A 
ATOM     80  C   UNL A   1      40.234  25.941  27.210  1.00  0.00     0.198 A 
ATOM     81  F   UNL A   1      39.343  26.238  29.368  1.00  0.00    -0.203 F 
ATOM     82  F   UNL A   1      42.264  28.144  25.174  1.00  0.00    -0.200 F 
ATOM     83  C   UNL A   1      40.974  26.418  26.138  1.00  0.00     0.200 A 
ATOM     84  F   UNL A   1      39.665  24.729  27.143  1.00  0.00    -0.200 F 
ATOM     85  F   UNL A   1      41.101  25.680  25.027  1.00  0.00    -0.200 F 
ENDBRANCH  51  75
BRANCH  63  86
ATOM     86  C   UNL A   1      43.946  28.210  34.609  1.00  0.00     0.064 A 
ATOM     87  C   UNL A   1      45.280  28.636  34.541  1.00  0.00     0.173 A 
ATOM     88  C   UNL A   1      43.672  27.010  35.282  1.00  0.00     0.173 A 
ATOM     89  F   UNL A   1      45.595  29.769  33.895  1.00  0.00    -0.203 F 
ATOM     90  C   UNL A   1      46.303  27.876  35.102  1.00  0.00     0.198 A 
ATOM     91  C   UNL A   1      44.694  26.269  35.870  1.00  0.00     0.198 A 
ATOM     92  F   UNL A   1      42.412  26.562  35.382  1.00  0.00    -0.203 F 
ATOM     93  F   UNL A   1      47.576  28.278  34.983  1.00  0.00    -0.200 F 
ATOM     94  C   UNL A   1      46.009  26.699  35.773  1.00  0.00     0.200 A 
ATOM     95  F   UNL A   1      44.406  25.138  36.530  1.00  0.00    -0.200 F 
ATOM     96  F   UNL A   1      46.994  25.973  36.321  1.00  0.00    -0.200 F 
ENDBRANCH  63  86
ENDBRANCH  37  38
ENDBRANCH  29  32
ENDBRANCH  27  28
ENDBRANCH  26  27
ENDBRANCH   1  26
TORSDOF 16
ENDMDL
