MODEL 1
REMARK VINA RESULT:     -12.5      0.000      0.000
REMARK SMILES C[C@@](NC(=O)[C@H]1COc2ccccc21)(C(=O)NCCCCNC(=O)c1ccc(-c2c3nc(c(-c4c(F)c(F)c(F)c(F)c4F)c4ccc([nH]4)c(-c4c(F)c(F)c(F)c(F)c4F)c4nc(c(-c5c(F)c(F)c(F)c(F)c5F)c5ccc2[nH]5)C=C4)C=C3)cc1)C(F)(F)F
REMARK SMILES IDX 19 1 18 2 17 3 15 4 16 5 2 7 1 8 3 9 4 10 5 12 6 13 7 14
REMARK SMILES IDX 14 15 8 16 9 17 13 18 10 19 12 20 11 21 88 22 89 23 90 24
REMARK SMILES IDX 91 25 20 26 21 27 22 28 23 29 24 31 25 32 26 33 87 34 27 35
REMARK SMILES IDX 86 36 28 37 29 38 30 39 80 40 31 41 85 42 79 43 81 44 32 45
REMARK SMILES IDX 84 46 78 47 77 48 33 50 65 51 45 52 64 53 46 54 49 55 63 56
REMARK SMILES IDX 82 57 47 58 48 59 62 61 83 62 50 63 34 64 35 65 43 66 36 67
REMARK SMILES IDX 37 68 41 69 44 70 38 71 39 72 42 73 40 74 66 75 67 76 75 77
REMARK SMILES IDX 68 78 69 79 73 80 76 81 70 82 71 83 74 84 72 85 51 86 52 87
REMARK SMILES IDX 60 88 53 89 54 90 58 91 61 92 55 93 56 94 59 95 57 96
REMARK H PARENT 17 6 3 11 22 30 81 49 49 60
REMARK Flexibility Score: inf
ROOT
ATOM      1  C   UNL A   1      37.352  21.295  24.763  1.00  0.00     0.023 C 
ENDROOT
BRANCH   1   2
ATOM      2  C   UNL A   1      36.049  21.331  25.557  1.00  0.00     0.116 C 
BRANCH   2   3
ATOM      3  N   UNL A   1      34.990  20.592  24.882  1.00  0.00    -0.354 N 
ATOM      4  C   UNL A   1      33.797  20.992  24.328  1.00  0.00     0.254 C 
ATOM      5  O   UNL A   1      33.026  20.092  23.994  1.00  0.00    -0.272 OA
ATOM      6  H   UNL A   1      35.161  19.626  24.807  1.00  0.00     0.163 HD
BRANCH   4   7
ATOM      7  C   UNL A   1      33.379  22.465  24.339  1.00  0.00     0.212 C 
ATOM      8  C   UNL A   1      32.162  22.529  23.368  1.00  0.00     0.056 C 
BRANCH   7   9
ATOM      9  N   UNL A   1      32.950  22.916  25.709  1.00  0.00    -0.334 N 
ATOM     10  C   UNL A   1      32.211  23.933  26.218  1.00  0.00     0.232 C 
ATOM     11  H   UNL A   1      33.294  22.321  26.416  1.00  0.00     0.164 HD
ATOM     12  O   UNL A   1      31.859  23.722  27.392  1.00  0.00    -0.274 OA
BRANCH  10  13
ATOM     13  C   UNL A   1      31.895  25.318  25.655  1.00  0.00     0.150 C 
ATOM     14  C   UNL A   1      30.454  25.742  25.963  1.00  0.00     0.248 C 
ATOM     15  C   UNL A   1      32.577  26.550  26.099  1.00  0.00     0.010 A 
ATOM     16  O   UNL A   1      30.465  26.756  27.002  1.00  0.00    -0.492 OA
ATOM     17  C   UNL A   1      31.716  27.309  26.878  1.00  0.00     0.123 A 
ATOM     18  C   UNL A   1      33.826  27.037  25.763  1.00  0.00     0.008 A 
ATOM     19  C   UNL A   1      32.117  28.487  27.475  1.00  0.00     0.047 A 
ATOM     20  C   UNL A   1      34.259  28.224  26.357  1.00  0.00     0.001 A 
ATOM     21  C   UNL A   1      33.418  28.932  27.227  1.00  0.00     0.004 A 
ENDBRANCH  10  13
ENDBRANCH   7   9
BRANCH   7  22
ATOM     22  C   UNL A   1      34.426  23.393  23.675  1.00  0.00     0.420 C 
ATOM     23  F   UNL A   1      35.183  22.787  22.737  1.00  0.00    -0.168 F 
ATOM     24  F   UNL A   1      33.777  24.407  23.028  1.00  0.00    -0.168 F 
ATOM     25  F   UNL A   1      35.241  24.009  24.543  1.00  0.00    -0.168 F 
ENDBRANCH   7  22
ENDBRANCH   4   7
ENDBRANCH   2   3
ENDBRANCH   1   2
BRANCH   1  26
ATOM     26  C   UNL A   1      38.183  20.025  24.970  1.00  0.00     0.023 C 
BRANCH  26  27
ATOM     27  C   UNL A   1      39.190  20.084  26.114  1.00  0.00     0.116 C 
BRANCH  27  28
ATOM     28  N   UNL A   1      40.264  19.112  25.980  1.00  0.00    -0.352 N 
ATOM     29  C   UNL A   1      41.623  19.297  26.012  1.00  0.00     0.251 C 
ATOM     30  H   UNL A   1      39.971  18.182  25.845  1.00  0.00     0.163 HD
ATOM     31  O   UNL A   1      42.376  18.366  25.738  1.00  0.00    -0.269 OA
BRANCH  29  32
ATOM     32  C   UNL A   1      42.187  20.620  26.347  1.00  0.00     0.039 A 
ATOM     33  C   UNL A   1      42.632  21.440  25.306  1.00  0.00     0.014 A 
ATOM     34  C   UNL A   1      42.291  21.051  27.673  1.00  0.00     0.014 A 
ATOM     35  C   UNL A   1      43.119  22.716  25.590  1.00  0.00     0.010 A 
ATOM     36  C   UNL A   1      42.712  22.351  27.948  1.00  0.00     0.010 A 
ATOM     37  C   UNL A   1      43.130  23.197  26.910  1.00  0.00    -0.014 A 
BRANCH  37  38
ATOM     38  C   UNL A   1      43.571  24.585  27.207  1.00  0.00     0.031 A 
ATOM     39  C   UNL A   1      42.594  25.601  27.727  1.00  0.00     0.074 A 
ATOM     40  C   UNL A   1      44.850  24.939  26.972  1.00  0.00     0.049 A 
ATOM     41  N   UNL A   1      42.788  26.863  28.019  1.00  0.00    -0.248 NA
ATOM     42  C   UNL A   1      41.209  25.147  27.926  1.00  0.00     0.031 C 
ATOM     43  C   UNL A   1      45.885  24.058  26.430  1.00  0.00     0.029 A 
ATOM     44  N   UNL A   1      45.498  26.137  27.156  1.00  0.00    -0.354 N 
ATOM     45  C   UNL A   1      41.556  27.351  28.433  1.00  0.00     0.074 A 
ATOM     46  C   UNL A   1      40.607  26.267  28.298  1.00  0.00     0.031 C 
ATOM     47  C   UNL A   1      47.041  24.735  26.349  1.00  0.00     0.029 A 
ATOM     48  C   UNL A   1      46.822  26.109  26.792  1.00  0.00     0.049 A 
ATOM     49  H   UNL A   1      45.055  26.940  27.514  1.00  0.00     0.167 HD
ATOM     50  C   UNL A   1      41.248  28.583  28.904  1.00  0.00     0.037 A 
ATOM     51  C   UNL A   1      47.753  27.082  26.803  1.00  0.00     0.037 A 
ATOM     52  C   UNL A   1      42.198  29.657  29.045  1.00  0.00     0.049 A 
ATOM     53  C   UNL A   1      47.376  28.451  27.303  1.00  0.00     0.074 A 
ATOM     54  C   UNL A   1      41.993  30.926  29.558  1.00  0.00     0.029 A 
ATOM     55  N   UNL A   1      43.531  29.591  28.665  1.00  0.00    -0.354 N 
ATOM     56  N   UNL A   1      46.224  28.879  27.759  1.00  0.00    -0.248 NA
ATOM     57  C   UNL A   1      48.434  29.473  27.297  1.00  0.00     0.031 C 
ATOM     58  C   UNL A   1      43.185  31.647  29.432  1.00  0.00     0.029 A 
ATOM     59  C   UNL A   1      44.152  30.808  28.904  1.00  0.00     0.049 A 
ATOM     60  H   UNL A   1      43.969  28.798  28.281  1.00  0.00     0.167 HD
ATOM     61  C   UNL A   1      46.425  30.205  28.123  1.00  0.00     0.074 A 
ATOM     62  C   UNL A   1      47.815  30.505  27.851  1.00  0.00     0.031 C 
ATOM     63  C   UNL A   1      45.539  31.093  28.636  1.00  0.00     0.037 A 
BRANCH  50  64
ATOM     64  C   UNL A   1      39.823  28.842  29.301  1.00  0.00     0.064 A 
ATOM     65  C   UNL A   1      38.873  29.310  28.379  1.00  0.00     0.173 A 
ATOM     66  C   UNL A   1      39.388  28.576  30.609  1.00  0.00     0.173 A 
ATOM     67  F   UNL A   1      39.237  29.589  27.118  1.00  0.00    -0.203 F 
ATOM     68  C   UNL A   1      37.551  29.528  28.758  1.00  0.00     0.198 A 
ATOM     69  C   UNL A   1      38.057  28.764  30.975  1.00  0.00     0.198 A 
ATOM     70  F   UNL A   1      40.250  28.120  31.530  1.00  0.00    -0.203 F 
ATOM     71  F   UNL A   1      36.675  30.023  27.873  1.00  0.00    -0.200 F 
ATOM     72  C   UNL A   1      37.142  29.247  30.053  1.00  0.00     0.200 A 
ATOM     73  F   UNL A   1      37.660  28.475  32.222  1.00  0.00    -0.200 F 
ATOM     74  F   UNL A   1      35.868  29.448  30.413  1.00  0.00    -0.200 F 
ENDBRANCH  50  64
BRANCH  51  75
ATOM     75  C   UNL A   1      49.136  26.797  26.336  1.00  0.00     0.064 A 
ATOM     76  C   UNL A   1      49.513  27.028  25.005  1.00  0.00     0.173 A 
ATOM     77  C   UNL A   1      50.104  26.270  27.204  1.00  0.00     0.173 A 
ATOM     78  F   UNL A   1      48.619  27.511  24.131  1.00  0.00    -0.203 F 
ATOM     79  C   UNL A   1      50.795  26.715  24.555  1.00  0.00     0.198 A 
ATOM     80  C   UNL A   1      51.395  25.991  26.761  1.00  0.00     0.198 A 
ATOM     81  F   UNL A   1      49.798  26.035  28.489  1.00  0.00    -0.203 F 
ATOM     82  F   UNL A   1      51.110  26.893  23.265  1.00  0.00    -0.200 F 
ATOM     83  C   UNL A   1      51.735  26.203  25.434  1.00  0.00     0.200 A 
ATOM     84  F   UNL A   1      52.306  25.511  27.618  1.00  0.00    -0.200 F 
ATOM     85  F   UNL A   1      52.968  25.905  25.001  1.00  0.00    -0.200 F 
ENDBRANCH  51  75
BRANCH  63  86
ATOM     86  C   UNL A   1      46.051  32.463  28.979  1.00  0.00     0.064 A 
ATOM     87  C   UNL A   1      46.613  32.752  30.232  1.00  0.00     0.173 A 
ATOM     88  C   UNL A   1      46.014  33.492  28.025  1.00  0.00     0.173 A 
ATOM     89  F   UNL A   1      46.660  31.807  31.184  1.00  0.00    -0.203 F 
ATOM     90  C   UNL A   1      47.090  34.026  30.527  1.00  0.00     0.198 A 
ATOM     91  C   UNL A   1      46.524  34.755  28.311  1.00  0.00     0.198 A 
ATOM     92  F   UNL A   1      45.495  33.269  26.809  1.00  0.00    -0.203 F 
ATOM     93  F   UNL A   1      47.573  34.292  31.748  1.00  0.00    -0.200 F 
ATOM     94  C   UNL A   1      47.054  35.024  29.564  1.00  0.00     0.200 A 
ATOM     95  F   UNL A   1      46.504  35.713  27.374  1.00  0.00    -0.200 F 
ATOM     96  F   UNL A   1      47.522  36.248  29.847  1.00  0.00    -0.200 F 
ENDBRANCH  63  86
ENDBRANCH  37  38
ENDBRANCH  29  32
ENDBRANCH  27  28
ENDBRANCH  26  27
ENDBRANCH   1  26
TORSDOF 14
ENDMDL
MODEL 2
REMARK VINA RESULT:     -12.5      0.841      7.241
REMARK SMILES C[C@@](NC(=O)[C@H]1COc2ccccc21)(C(=O)NCCCCNC(=O)c1ccc(-c2c3nc(c(-c4c(F)c(F)c(F)c(F)c4F)c4ccc([nH]4)c(-c4c(F)c(F)c(F)c(F)c4F)c4nc(c(-c5c(F)c(F)c(F)c(F)c5F)c5ccc2[nH]5)C=C4)C=C3)cc1)C(F)(F)F
REMARK SMILES IDX 19 1 18 2 17 3 15 4 16 5 2 7 1 8 3 9 4 10 5 12 6 13 7 14
REMARK SMILES IDX 14 15 8 16 9 17 13 18 10 19 12 20 11 21 88 22 89 23 90 24
REMARK SMILES IDX 91 25 20 26 21 27 22 28 23 29 24 31 25 32 26 33 87 34 27 35
REMARK SMILES IDX 86 36 28 37 29 38 30 39 80 40 31 41 85 42 79 43 81 44 32 45
REMARK SMILES IDX 84 46 78 47 77 48 33 50 65 51 45 52 64 53 46 54 49 55 63 56
REMARK SMILES IDX 82 57 47 58 48 59 62 61 83 62 50 63 34 64 35 65 43 66 36 67
REMARK SMILES IDX 37 68 41 69 44 70 38 71 39 72 42 73 40 74 66 75 67 76 75 77
REMARK SMILES IDX 68 78 69 79 73 80 76 81 70 82 71 83 74 84 72 85 51 86 52 87
REMARK SMILES IDX 60 88 53 89 54 90 58 91 61 92 55 93 56 94 59 95 57 96
REMARK H PARENT 17 6 3 11 22 30 81 49 49 60
REMARK Flexibility Score: inf
ROOT
ATOM      1  C   UNL A   1      37.544  21.370  24.871  1.00  0.00     0.023 C 
ENDROOT
BRANCH   1   2
ATOM      2  C   UNL A   1      36.236  21.349  25.658  1.00  0.00     0.116 C 
BRANCH   2   3
ATOM      3  N   UNL A   1      35.251  20.474  25.036  1.00  0.00    -0.354 N 
ATOM      4  C   UNL A   1      34.021  20.724  24.477  1.00  0.00     0.254 C 
ATOM      5  O   UNL A   1      33.341  19.735  24.201  1.00  0.00    -0.272 OA
ATOM      6  H   UNL A   1      35.517  19.526  25.012  1.00  0.00     0.163 HD
BRANCH   4   7
ATOM      7  C   UNL A   1      33.460  22.146  24.413  1.00  0.00     0.212 C 
ATOM      8  C   UNL A   1      32.174  22.017  23.541  1.00  0.00     0.056 C 
BRANCH   7   9
ATOM      9  N   UNL A   1      33.089  22.664  25.777  1.00  0.00    -0.334 N 
ATOM     10  C   UNL A   1      32.355  23.695  26.266  1.00  0.00     0.232 C 
ATOM     11  H   UNL A   1      33.479  22.115  26.497  1.00  0.00     0.164 HD
ATOM     12  O   UNL A   1      32.065  23.542  27.466  1.00  0.00    -0.274 OA
BRANCH  10  13
ATOM     13  C   UNL A   1      31.984  25.041  25.646  1.00  0.00     0.150 C 
ATOM     14  C   UNL A   1      30.500  25.370  25.847  1.00  0.00     0.248 C 
ATOM     15  C   UNL A   1      32.548  26.327  26.100  1.00  0.00     0.010 A 
ATOM     16  O   UNL A   1      30.371  26.405  26.856  1.00  0.00    -0.492 OA
ATOM     17  C   UNL A   1      31.587  27.041  26.799  1.00  0.00     0.123 A 
ATOM     18  C   UNL A   1      33.781  26.893  25.834  1.00  0.00     0.008 A 
ATOM     19  C   UNL A   1      31.865  28.258  27.390  1.00  0.00     0.047 A 
ATOM     20  C   UNL A   1      34.091  28.120  26.423  1.00  0.00     0.001 A 
ATOM     21  C   UNL A   1      33.146  28.788  27.216  1.00  0.00     0.004 A 
ENDBRANCH  10  13
ENDBRANCH   7   9
BRANCH   7  22
ATOM     22  C   UNL A   1      34.356  23.113  23.601  1.00  0.00     0.420 C 
ATOM     23  F   UNL A   1      33.670  24.001  22.852  1.00  0.00    -0.168 F 
ATOM     24  F   UNL A   1      35.107  23.859  24.465  1.00  0.00    -0.168 F 
ATOM     25  F   UNL A   1      35.250  22.499  22.813  1.00  0.00    -0.168 F 
ENDBRANCH   7  22
ENDBRANCH   4   7
ENDBRANCH   2   3
ENDBRANCH   1   2
BRANCH   1  26
ATOM     26  C   UNL A   1      38.361  20.079  24.972  1.00  0.00     0.023 C 
BRANCH  26  27
ATOM     27  C   UNL A   1      39.303  19.995  26.169  1.00  0.00     0.116 C 
BRANCH  27  28
ATOM     28  N   UNL A   1      40.438  19.114  25.942  1.00  0.00    -0.352 N 
ATOM     29  C   UNL A   1      41.782  19.390  25.962  1.00  0.00     0.251 C 
ATOM     30  H   UNL A   1      40.207  18.178  25.743  1.00  0.00     0.163 HD
ATOM     31  O   UNL A   1      42.590  18.537  25.605  1.00  0.00    -0.269 OA
BRANCH  29  32
ATOM     32  C   UNL A   1      42.262  20.721  26.385  1.00  0.00     0.039 A 
ATOM     33  C   UNL A   1      42.628  21.643  25.402  1.00  0.00     0.014 A 
ATOM     34  C   UNL A   1      42.363  21.061  27.738  1.00  0.00     0.014 A 
ATOM     35  C   UNL A   1      43.034  22.926  25.772  1.00  0.00     0.010 A 
ATOM     36  C   UNL A   1      42.700  22.363  28.102  1.00  0.00     0.010 A 
ATOM     37  C   UNL A   1      43.039  23.309  27.123  1.00  0.00    -0.014 A 
BRANCH  37  38
ATOM     38  C   UNL A   1      43.391  24.699  27.516  1.00  0.00     0.031 A 
ATOM     39  C   UNL A   1      44.829  25.127  27.600  1.00  0.00     0.074 A 
ATOM     40  C   UNL A   1      42.410  25.567  27.833  1.00  0.00     0.049 A 
ATOM     41  N   UNL A   1      45.329  26.287  27.947  1.00  0.00    -0.248 NA
ATOM     42  C   UNL A   1      45.842  24.114  27.271  1.00  0.00     0.031 C 
ATOM     43  C   UNL A   1      40.979  25.263  27.830  1.00  0.00     0.029 A 
ATOM     44  N   UNL A   1      42.468  26.883  28.222  1.00  0.00    -0.354 N 
ATOM     45  C   UNL A   1      46.708  26.142  27.881  1.00  0.00     0.074 A 
ATOM     46  C   UNL A   1      46.969  24.766  27.518  1.00  0.00     0.031 C 
ATOM     47  C   UNL A   1      40.294  26.364  28.175  1.00  0.00     0.029 A 
ATOM     48  C   UNL A   1      41.235  27.441  28.464  1.00  0.00     0.049 A 
ATOM     49  H   UNL A   1      43.312  27.380  28.320  1.00  0.00     0.167 HD
ATOM     50  C   UNL A   1      47.668  27.076  28.081  1.00  0.00     0.037 A 
ATOM     51  C   UNL A   1      40.902  28.677  28.883  1.00  0.00     0.037 A 
ATOM     52  C   UNL A   1      47.403  28.447  28.434  1.00  0.00     0.049 A 
ATOM     53  C   UNL A   1      41.992  29.687  29.127  1.00  0.00     0.074 A 
ATOM     54  C   UNL A   1      48.307  29.481  28.610  1.00  0.00     0.029 A 
ATOM     55  N   UNL A   1      46.142  28.975  28.671  1.00  0.00    -0.354 N 
ATOM     56  N   UNL A   1      43.289  29.557  28.990  1.00  0.00    -0.248 NA
ATOM     57  C   UNL A   1      41.568  31.021  29.578  1.00  0.00     0.031 C 
ATOM     58  C   UNL A   1      47.598  30.618  29.014  1.00  0.00     0.029 A 
ATOM     59  C   UNL A   1      46.247  30.312  29.023  1.00  0.00     0.049 A 
ATOM     60  H   UNL A   1      45.298  28.474  28.602  1.00  0.00     0.167 HD
ATOM     61  C   UNL A   1      43.833  30.796  29.305  1.00  0.00     0.074 A 
ATOM     62  C   UNL A   1      42.723  31.670  29.623  1.00  0.00     0.031 C 
ATOM     63  C   UNL A   1      45.134  31.175  29.330  1.00  0.00     0.037 A 
BRANCH  50  64
ATOM     64  C   UNL A   1      49.100  26.649  27.926  1.00  0.00     0.064 A 
ATOM     65  C   UNL A   1      49.704  26.538  26.664  1.00  0.00     0.173 A 
ATOM     66  C   UNL A   1      49.892  26.389  29.055  1.00  0.00     0.173 A 
ATOM     67  F   UNL A   1      48.991  26.765  25.552  1.00  0.00    -0.203 F 
ATOM     68  C   UNL A   1      51.038  26.157  26.538  1.00  0.00     0.198 A 
ATOM     69  C   UNL A   1      51.235  26.042  28.926  1.00  0.00     0.198 A 
ATOM     70  F   UNL A   1      49.369  26.487  30.287  1.00  0.00    -0.203 F 
ATOM     71  F   UNL A   1      51.578  26.010  25.321  1.00  0.00    -0.200 F 
ATOM     72  C   UNL A   1      51.804  25.918  27.669  1.00  0.00     0.200 A 
ATOM     73  F   UNL A   1      51.978  25.827  30.021  1.00  0.00    -0.200 F 
ATOM     74  F   UNL A   1      53.089  25.561  27.545  1.00  0.00    -0.200 F 
ENDBRANCH  50  64
BRANCH  51  75
ATOM     75  C   UNL A   1      39.473  29.036  29.086  1.00  0.00     0.064 A 
ATOM     76  C   UNL A   1      38.875  28.934  30.351  1.00  0.00     0.173 A 
ATOM     77  C   UNL A   1      38.671  29.467  28.021  1.00  0.00     0.173 A 
ATOM     78  F   UNL A   1      39.594  28.506  31.399  1.00  0.00    -0.203 F 
ATOM     79  C   UNL A   1      37.524  29.223  30.534  1.00  0.00     0.198 A 
ATOM     80  C   UNL A   1      37.329  29.789  28.212  1.00  0.00     0.198 A 
ATOM     81  F   UNL A   1      39.194  29.587  26.791  1.00  0.00    -0.203 F 
ATOM     82  F   UNL A   1      36.965  29.063  31.742  1.00  0.00    -0.200 F 
ATOM     83  C   UNL A   1      36.754  29.655  29.466  1.00  0.00     0.200 A 
ATOM     84  F   UNL A   1      36.593  30.222  27.180  1.00  0.00    -0.200 F 
ATOM     85  F   UNL A   1      35.455  29.935  29.643  1.00  0.00    -0.200 F 
ENDBRANCH  51  75
BRANCH  63  86
ATOM     86  C   UNL A   1      45.431  32.608  29.670  1.00  0.00     0.064 A 
ATOM     87  C   UNL A   1      45.709  33.015  30.985  1.00  0.00     0.173 A 
ATOM     88  C   UNL A   1      45.477  33.581  28.660  1.00  0.00     0.173 A 
ATOM     89  F   UNL A   1      45.665  32.127  31.989  1.00  0.00    -0.203 F 
ATOM     90  C   UNL A   1      45.991  34.346  31.278  1.00  0.00     0.198 A 
ATOM     91  C   UNL A   1      45.794  34.905  28.952  1.00  0.00     0.198 A 
ATOM     92  F   UNL A   1      45.227  33.246  27.386  1.00  0.00    -0.203 F 
ATOM     93  F   UNL A   1      46.199  34.721  32.547  1.00  0.00    -0.200 F 
ATOM     94  C   UNL A   1      46.042  35.288  30.261  1.00  0.00     0.200 A 
ATOM     95  F   UNL A   1      45.860  35.810  27.966  1.00  0.00    -0.200 F 
ATOM     96  F   UNL A   1      46.322  36.568  30.544  1.00  0.00    -0.200 F 
ENDBRANCH  63  86
ENDBRANCH  37  38
ENDBRANCH  29  32
ENDBRANCH  27  28
ENDBRANCH  26  27
ENDBRANCH   1  26
TORSDOF 14
ENDMDL
MODEL 3
REMARK VINA RESULT:     -12.4      4.453      8.021
REMARK SMILES C[C@@](NC(=O)[C@H]1COc2ccccc21)(C(=O)NCCCCNC(=O)c1ccc(-c2c3nc(c(-c4c(F)c(F)c(F)c(F)c4F)c4ccc([nH]4)c(-c4c(F)c(F)c(F)c(F)c4F)c4nc(c(-c5c(F)c(F)c(F)c(F)c5F)c5ccc2[nH]5)C=C4)C=C3)cc1)C(F)(F)F
REMARK SMILES IDX 19 1 18 2 17 3 15 4 16 5 2 7 1 8 3 9 4 10 5 12 6 13 7 14
REMARK SMILES IDX 14 15 8 16 9 17 13 18 10 19 12 20 11 21 88 22 89 23 90 24
REMARK SMILES IDX 91 25 20 26 21 27 22 28 23 29 24 31 25 32 26 33 87 34 27 35
REMARK SMILES IDX 86 36 28 37 29 38 30 39 80 40 31 41 85 42 79 43 81 44 32 45
REMARK SMILES IDX 84 46 78 47 77 48 33 50 65 51 45 52 64 53 46 54 49 55 63 56
REMARK SMILES IDX 82 57 47 58 48 59 62 61 83 62 50 63 34 64 35 65 43 66 36 67
REMARK SMILES IDX 37 68 41 69 44 70 38 71 39 72 42 73 40 74 66 75 67 76 75 77
REMARK SMILES IDX 68 78 69 79 73 80 76 81 70 82 71 83 74 84 72 85 51 86 52 87
REMARK SMILES IDX 60 88 53 89 54 90 58 91 61 92 55 93 56 94 59 95 57 96
REMARK H PARENT 17 6 3 11 22 30 81 49 49 60
REMARK Flexibility Score: inf
ROOT
ATOM      1  C   UNL A   1      33.815  28.478  22.819  1.00  0.00     0.023 C 
ENDROOT
BRANCH   1   2
ATOM      2  C   UNL A   1      33.685  27.007  22.429  1.00  0.00     0.116 C 
BRANCH   2   3
ATOM      3  N   UNL A   1      32.319  26.529  22.594  1.00  0.00    -0.354 N 
ATOM      4  C   UNL A   1      31.782  25.525  23.364  1.00  0.00     0.254 C 
ATOM      5  O   UNL A   1      30.604  25.240  23.139  1.00  0.00    -0.272 OA
ATOM      6  H   UNL A   1      31.656  27.016  22.053  1.00  0.00     0.163 HD
BRANCH   4   7
ATOM      7  C   UNL A   1      32.667  24.677  24.280  1.00  0.00     0.212 C 
ATOM      8  C   UNL A   1      31.784  23.444  24.640  1.00  0.00     0.056 C 
BRANCH   7   9
ATOM      9  N   UNL A   1      33.915  24.211  23.580  1.00  0.00    -0.334 N 
ATOM     10  C   UNL A   1      34.901  23.314  23.831  1.00  0.00     0.232 C 
ATOM     11  H   UNL A   1      34.050  24.676  22.722  1.00  0.00     0.164 HD
ATOM     12  O   UNL A   1      35.561  23.038  22.812  1.00  0.00    -0.274 OA
BRANCH  10  13
ATOM     13  C   UNL A   1      35.416  22.735  25.148  1.00  0.00     0.150 C 
ATOM     14  C   UNL A   1      35.453  21.203  25.121  1.00  0.00     0.248 C 
ATOM     15  C   UNL A   1      36.780  22.970  25.659  1.00  0.00     0.010 A 
ATOM     16  O   UNL A   1      36.829  20.759  25.007  1.00  0.00    -0.492 OA
ATOM     17  C   UNL A   1      37.536  21.815  25.529  1.00  0.00     0.123 A 
ATOM     18  C   UNL A   1      37.306  24.079  26.296  1.00  0.00     0.008 A 
ATOM     19  C   UNL A   1      38.872  21.772  25.875  1.00  0.00     0.047 A 
ATOM     20  C   UNL A   1      38.656  24.065  26.652  1.00  0.00     0.001 A 
ATOM     21  C   UNL A   1      39.440  22.925  26.420  1.00  0.00     0.004 A 
ENDBRANCH  10  13
ENDBRANCH   7   9
BRANCH   7  22
ATOM     22  C   UNL A   1      32.933  25.347  25.650  1.00  0.00     0.420 C 
ATOM     23  F   UNL A   1      33.074  24.476  26.671  1.00  0.00    -0.168 F 
ATOM     24  F   UNL A   1      34.111  26.039  25.589  1.00  0.00    -0.168 F 
ATOM     25  F   UNL A   1      32.018  26.262  25.999  1.00  0.00    -0.168 F 
ENDBRANCH   7  22
ENDBRANCH   4   7
ENDBRANCH   2   3
ENDBRANCH   1   2
BRANCH   1  26
ATOM     26  C   UNL A   1      32.767  28.958  23.827  1.00  0.00     0.023 C 
BRANCH  26  27
ATOM     27  C   UNL A   1      33.286  29.198  25.242  1.00  0.00     0.116 C 
BRANCH  27  28
ATOM     28  N   UNL A   1      32.799  30.438  25.826  1.00  0.00    -0.352 N 
ATOM     29  C   UNL A   1      33.278  31.152  26.895  1.00  0.00     0.251 C 
ATOM     30  H   UNL A   1      32.004  30.821  25.389  1.00  0.00     0.163 HD
ATOM     31  O   UNL A   1      32.643  32.110  27.328  1.00  0.00    -0.269 OA
BRANCH  29  32
ATOM     32  C   UNL A   1      34.543  30.759  27.546  1.00  0.00     0.039 A 
ATOM     33  C   UNL A   1      35.533  31.729  27.725  1.00  0.00     0.014 A 
ATOM     34  C   UNL A   1      34.764  29.445  27.971  1.00  0.00     0.014 A 
ATOM     35  C   UNL A   1      36.717  31.397  28.386  1.00  0.00     0.010 A 
ATOM     36  C   UNL A   1      35.915  29.134  28.693  1.00  0.00     0.010 A 
ATOM     37  C   UNL A   1      36.903  30.106  28.908  1.00  0.00    -0.014 A 
BRANCH  37  38
ATOM     38  C   UNL A   1      38.126  29.772  29.684  1.00  0.00     0.031 A 
ATOM     39  C   UNL A   1      38.334  30.338  31.061  1.00  0.00     0.074 A 
ATOM     40  C   UNL A   1      39.069  28.985  29.131  1.00  0.00     0.049 A 
ATOM     41  N   UNL A   1      39.345  30.179  31.878  1.00  0.00    -0.248 NA
ATOM     42  C   UNL A   1      37.275  31.215  31.584  1.00  0.00     0.031 C 
ATOM     43  C   UNL A   1      39.005  28.407  27.788  1.00  0.00     0.029 A 
ATOM     44  N   UNL A   1      40.269  28.537  29.627  1.00  0.00    -0.354 N 
ATOM     45  C   UNL A   1      39.047  30.935  33.003  1.00  0.00     0.074 A 
ATOM     46  C   UNL A   1      37.788  31.600  32.743  1.00  0.00     0.031 C 
ATOM     47  C   UNL A   1      40.102  27.663  27.576  1.00  0.00     0.029 A 
ATOM     48  C   UNL A   1      40.966  27.742  28.750  1.00  0.00     0.049 A 
ATOM     49  H   UNL A   1      40.599  28.764  30.527  1.00  0.00     0.167 HD
ATOM     50  C   UNL A   1      39.746  31.046  34.158  1.00  0.00     0.037 A 
ATOM     51  C   UNL A   1      42.172  27.154  28.871  1.00  0.00     0.037 A 
ATOM     52  C   UNL A   1      40.995  30.375  34.417  1.00  0.00     0.049 A 
ATOM     53  C   UNL A   1      42.942  27.319  30.155  1.00  0.00     0.074 A 
ATOM     54  C   UNL A   1      41.754  30.387  35.574  1.00  0.00     0.029 A 
ATOM     55  N   UNL A   1      41.671  29.580  33.503  1.00  0.00    -0.354 N 
ATOM     56  N   UNL A   1      42.614  27.978  31.239  1.00  0.00    -0.248 NA
ATOM     57  C   UNL A   1      44.249  26.650  30.233  1.00  0.00     0.031 C 
ATOM     58  C   UNL A   1      42.919  29.648  35.340  1.00  0.00     0.029 A 
ATOM     59  C   UNL A   1      42.854  29.120  34.061  1.00  0.00     0.049 A 
ATOM     60  H   UNL A   1      41.357  29.374  32.594  1.00  0.00     0.167 HD
ATOM     61  C   UNL A   1      43.655  27.778  32.138  1.00  0.00     0.074 A 
ATOM     62  C   UNL A   1      44.617  26.921  31.477  1.00  0.00     0.031 C 
ATOM     63  C   UNL A   1      43.801  28.260  33.396  1.00  0.00     0.037 A 
BRANCH  50  64
ATOM     64  C   UNL A   1      39.180  31.929  35.234  1.00  0.00     0.064 A 
ATOM     65  C   UNL A   1      38.422  31.406  36.294  1.00  0.00     0.173 A 
ATOM     66  C   UNL A   1      39.436  33.309  35.232  1.00  0.00     0.173 A 
ATOM     67  F   UNL A   1      38.139  30.096  36.340  1.00  0.00    -0.203 F 
ATOM     68  C   UNL A   1      37.918  32.236  37.293  1.00  0.00     0.198 A 
ATOM     69  C   UNL A   1      38.960  34.129  36.252  1.00  0.00     0.198 A 
ATOM     70  F   UNL A   1      40.162  33.861  34.248  1.00  0.00    -0.203 F 
ATOM     71  F   UNL A   1      37.155  31.721  38.267  1.00  0.00    -0.200 F 
ATOM     72  C   UNL A   1      38.195  33.594  37.276  1.00  0.00     0.200 A 
ATOM     73  F   UNL A   1      39.243  35.439  36.242  1.00  0.00    -0.200 F 
ATOM     74  F   UNL A   1      37.718  34.388  38.244  1.00  0.00    -0.200 F 
ENDBRANCH  50  64
BRANCH  51  75
ATOM     75  C   UNL A   1      42.723  26.343  27.753  1.00  0.00     0.064 A 
ATOM     76  C   UNL A   1      43.522  26.928  26.760  1.00  0.00     0.173 A 
ATOM     77  C   UNL A   1      42.446  24.973  27.641  1.00  0.00     0.173 A 
ATOM     78  F   UNL A   1      43.799  28.239  26.810  1.00  0.00    -0.203 F 
ATOM     79  C   UNL A   1      43.999  26.180  25.685  1.00  0.00     0.198 A 
ATOM     80  C   UNL A   1      42.952  24.219  26.584  1.00  0.00     0.198 A 
ATOM     81  F   UNL A   1      41.690  24.362  28.566  1.00  0.00    -0.203 F 
ATOM     82  F   UNL A   1      44.713  26.777  24.721  1.00  0.00    -0.200 F 
ATOM     83  C   UNL A   1      43.718  24.826  25.601  1.00  0.00     0.200 A 
ATOM     84  F   UNL A   1      42.692  22.906  26.516  1.00  0.00    -0.200 F 
ATOM     85  F   UNL A   1      44.178  24.107  24.568  1.00  0.00    -0.200 F 
ENDBRANCH  51  75
BRANCH  63  86
ATOM     86  C   UNL A   1      45.024  27.840  34.161  1.00  0.00     0.064 A 
ATOM     87  C   UNL A   1      46.220  28.572  34.105  1.00  0.00     0.173 A 
ATOM     88  C   UNL A   1      44.986  26.710  34.993  1.00  0.00     0.173 A 
ATOM     89  F   UNL A   1      46.314  29.652  33.314  1.00  0.00    -0.203 F 
ATOM     90  C   UNL A   1      47.340  28.171  34.829  1.00  0.00     0.198 A 
ATOM     91  C   UNL A   1      46.096  26.333  35.743  1.00  0.00     0.198 A 
ATOM     92  F   UNL A   1      43.865  25.980  35.090  1.00  0.00    -0.203 F 
ATOM     93  F   UNL A   1      48.487  28.853  34.717  1.00  0.00    -0.200 F 
ATOM     94  C   UNL A   1      47.274  27.057  35.654  1.00  0.00     0.200 A 
ATOM     95  F   UNL A   1      46.025  25.267  36.552  1.00  0.00    -0.200 F 
ATOM     96  F   UNL A   1      48.351  26.678  36.356  1.00  0.00    -0.200 F 
ENDBRANCH  63  86
ENDBRANCH  37  38
ENDBRANCH  29  32
ENDBRANCH  27  28
ENDBRANCH  26  27
ENDBRANCH   1  26
TORSDOF 14
ENDMDL
