MODEL 1
REMARK VINA RESULT:     -11.2      0.000      0.000
REMARK SMILES Cc1oc2c(C)c3oc(=O)c(CCC(=O)N[C@H](Cc4ccc(Cl)cc4)C(=O)NCCCCNC(=O)c4ccc(-c5c6nc(c(-c7c(F)c(F)c(F)c(F)c7F)c7ccc([nH]7)c(-c7c(F)c(F)c(F)c(F)c7F)c7nc(c(-c8c(F)c(F)c(F)c(F)c8F)c8ccc5[nH]8)C=C7)C=C6)cc4)c(C)c3cc2c1C
REMARK SMILES IDX 29 1 28 2 26 3 27 4 17 6 16 7 14 8 15 9 13 11 12 12 11 13
REMARK SMILES IDX 1 14 2 15 3 16 104 17 4 18 103 19 105 20 5 21 102 22 6 23
REMARK SMILES IDX 7 24 101 25 8 26 99 27 9 28 100 29 10 30 18 31 19 32 20 33
REMARK SMILES IDX 25 34 21 35 24 36 22 37 23 38 30 39 31 40 32 41 33 42 34 43
REMARK SMILES IDX 35 45 36 46 37 47 98 48 38 49 97 50 39 51 40 52 41 53 91 54
REMARK SMILES IDX 42 55 96 56 90 57 92 58 43 59 95 60 89 61 88 62 44 64 76 65
REMARK SMILES IDX 56 66 75 67 57 68 60 69 74 70 93 71 58 72 59 73 73 75 94 76
REMARK SMILES IDX 61 77 45 78 46 79 54 80 47 81 48 82 52 83 55 84 49 85 50 86
REMARK SMILES IDX 53 87 51 88 77 89 78 90 86 91 79 92 80 93 84 94 87 95 81 96
REMARK SMILES IDX 82 97 85 98 83 99 62 100 63 101 71 102 64 103 65 104 69 105
REMARK SMILES IDX 72 106 66 107 67 108 70 109 68 110
REMARK H PARENT 28 5 16 10 33 44 92 63 60 74
REMARK Flexibility Score: inf
ROOT
ATOM      1  C   UNL A   1      37.820  29.564  27.980  1.00  0.00     0.116 C 
ENDROOT
BRANCH   1   2
ATOM      2  N   UNL A   1      38.270  28.341  28.712  1.00  0.00    -0.354 N 
ATOM      3  C   UNL A   1      39.247  27.219  28.557  1.00  0.00     0.242 C 
ATOM      4  O   UNL A   1      39.459  27.063  29.809  1.00  0.00    -0.273 OA
ATOM      5  H   UNL A   1      37.772  28.245  29.556  1.00  0.00     0.163 HD
BRANCH   3   6
ATOM      6  C   UNL A   1      40.039  26.064  26.874  1.00  0.00     0.175 C 
BRANCH   6   7
ATOM      7  N   UNL A   1      39.711  24.445  26.400  1.00  0.00    -0.344 N 
ATOM      8  C   UNL A   1      39.981  23.188  26.863  1.00  0.00     0.220 C 
ATOM      9  O   UNL A   1      39.624  22.232  26.171  1.00  0.00    -0.275 OA
ATOM     10  H   UNL A   1      39.187  24.415  25.567  1.00  0.00     0.164 HD
BRANCH   8  11
ATOM     11  C   UNL A   1      40.792  22.973  28.126  1.00  0.00     0.105 C 
BRANCH  11  12
ATOM     12  C   UNL A   1      41.947  21.996  27.943  1.00  0.00     0.053 C 
BRANCH  12  13
ATOM     13  C   UNL A   1      43.155  22.816  27.651  1.00  0.00     0.042 A 
ATOM     14  C   UNL A   1      49.898  28.552  26.732  1.00  0.00     0.088 C 
ATOM     15  C   UNL A   1      49.077  27.362  27.054  1.00  0.00     0.105 A 
ATOM     16  O   UNL A   1      48.561  26.692  26.003  1.00  0.00    -0.461 OA
ATOM     17  C   UNL A   1      48.684  26.768  28.238  1.00  0.00    -0.002 A 
ATOM     18  C   UNL A   1      47.763  25.694  26.483  1.00  0.00     0.141 A 
ATOM     19  C   UNL A   1      47.723  25.735  27.904  1.00  0.00     0.025 A 
ATOM     20  C   UNL A   1      49.133  27.180  29.583  1.00  0.00     0.049 C 
ATOM     21  C   UNL A   1      47.127  24.819  25.598  1.00  0.00     0.036 A 
ATOM     22  C   UNL A   1      46.857  24.878  28.747  1.00  0.00     0.024 A 
ATOM     23  C   UNL A   1      47.244  24.799  24.117  1.00  0.00     0.052 C 
ATOM     24  C   UNL A   1      46.297  24.055  26.386  1.00  0.00     0.145 A 
ATOM     25  C   UNL A   1      45.925  24.087  28.110  1.00  0.00     0.022 A 
ATOM     26  O   UNL A   1      45.104  23.151  25.386  1.00  0.00    -0.422 OA
ATOM     27  C   UNL A   1      44.193  23.415  28.703  1.00  0.00    -0.030 A 
ATOM     28  C   UNL A   1      43.506  22.560  25.799  1.00  0.00     0.339 A 
ATOM     29  C   UNL A   1      43.779  23.312  30.171  1.00  0.00     0.046 C 
ATOM     30  O   UNL A   1      42.847  21.889  25.021  1.00  0.00    -0.246 OA
ENDBRANCH  12  13
ENDBRANCH  11  12
ENDBRANCH   8  11
ENDBRANCH   6   7
BRANCH   6  31
ATOM     31  C   UNL A   1      41.731  25.915  26.208  1.00  0.00     0.070 C 
BRANCH  31  32
ATOM     32  C   UNL A   1      43.008  26.647  26.705  1.00  0.00    -0.045 A 
ATOM     33  C   UNL A   1      43.298  26.942  28.051  1.00  0.00     0.005 A 
ATOM     34  C   UNL A   1      43.937  27.103  25.744  1.00  0.00     0.005 A 
ATOM     35  C   UNL A   1      44.391  27.765  28.400  1.00  0.00     0.021 A 
ATOM     36  C   UNL A   1      45.005  27.950  26.086  1.00  0.00     0.021 A 
ATOM     37  C   UNL A   1      45.218  28.291  27.414  1.00  0.00     0.041 A 
ATOM     38  Cl  UNL A   1      46.486  29.378  27.835  1.00  0.00    -0.084 Cl
ENDBRANCH  31  32
ENDBRANCH   6  31
ENDBRANCH   3   6
ENDBRANCH   1   2
BRANCH   1  39
ATOM     39  C   UNL A   1      36.498  29.700  27.264  1.00  0.00     0.023 C 
BRANCH  39  40
ATOM     40  C   UNL A   1      35.336  30.293  28.000  1.00  0.00     0.023 C 
BRANCH  40  41
ATOM     41  C   UNL A   1      35.583  31.788  28.041  1.00  0.00     0.116 C 
BRANCH  41  42
ATOM     42  N   UNL A   1      34.936  32.423  29.194  1.00  0.00    -0.352 N 
ATOM     43  C   UNL A   1      35.152  32.179  30.521  1.00  0.00     0.251 C 
ATOM     44  H   UNL A   1      34.262  33.110  28.986  1.00  0.00     0.163 HD
ATOM     45  O   UNL A   1      34.328  32.483  31.375  1.00  0.00    -0.269 OA
BRANCH  43  46
ATOM     46  C   UNL A   1      36.439  31.589  30.895  1.00  0.00     0.039 A 
ATOM     47  C   UNL A   1      36.488  30.317  31.461  1.00  0.00     0.014 A 
ATOM     48  C   UNL A   1      37.593  32.357  30.715  1.00  0.00     0.014 A 
ATOM     49  C   UNL A   1      37.724  29.791  31.799  1.00  0.00     0.010 A 
ATOM     50  C   UNL A   1      38.818  31.807  30.964  1.00  0.00     0.010 A 
ATOM     51  C   UNL A   1      38.880  30.530  31.518  1.00  0.00    -0.014 A 
BRANCH  51  52
ATOM     52  C   UNL A   1      40.186  29.946  31.814  1.00  0.00     0.031 A 
ATOM     53  C   UNL A   1      41.245  30.543  30.903  1.00  0.00     0.074 A 
ATOM     54  C   UNL A   1      40.469  29.831  33.129  1.00  0.00     0.049 A 
ATOM     55  N   UNL A   1      41.830  31.698  31.047  1.00  0.00    -0.248 NA
ATOM     56  C   UNL A   1      41.469  29.947  29.580  1.00  0.00     0.031 C 
ATOM     57  C   UNL A   1      40.085  30.720  34.230  1.00  0.00     0.029 A 
ATOM     58  N   UNL A   1      40.993  28.707  33.755  1.00  0.00    -0.354 N 
ATOM     59  C   UNL A   1      42.525  31.968  29.873  1.00  0.00     0.074 A 
ATOM     60  C   UNL A   1      42.250  30.862  28.985  1.00  0.00     0.031 C 
ATOM     61  C   UNL A   1      40.606  30.246  35.374  1.00  0.00     0.029 A 
ATOM     62  C   UNL A   1      41.298  28.990  35.104  1.00  0.00     0.049 A 
ATOM     63  H   UNL A   1      41.131  27.835  33.319  1.00  0.00     0.167 HD
ATOM     64  C   UNL A   1      43.322  33.060  29.710  1.00  0.00     0.037 A 
ATOM     65  C   UNL A   1      42.538  28.665  35.577  1.00  0.00     0.037 A 
ATOM     66  C   UNL A   1      43.383  33.942  30.836  1.00  0.00     0.049 A 
ATOM     67  C   UNL A   1      43.375  29.807  35.017  1.00  0.00     0.074 A 
ATOM     68  C   UNL A   1      42.934  35.191  31.202  1.00  0.00     0.029 A 
ATOM     69  N   UNL A   1      44.106  33.506  31.919  1.00  0.00    -0.354 N 
ATOM     70  N   UNL A   1      43.384  31.045  35.449  1.00  0.00    -0.248 NA
ATOM     71  C   UNL A   1      43.906  29.640  33.662  1.00  0.00     0.031 C 
ATOM     72  C   UNL A   1      42.998  35.204  32.633  1.00  0.00     0.029 A 
ATOM     73  C   UNL A   1      43.477  33.959  33.044  1.00  0.00     0.049 A 
ATOM     74  H   UNL A   1      44.928  32.965  31.890  1.00  0.00     0.167 HD
ATOM     75  C   UNL A   1      43.665  31.835  34.328  1.00  0.00     0.074 A 
ATOM     76  C   UNL A   1      43.997  30.904  33.270  1.00  0.00     0.031 C 
ATOM     77  C   UNL A   1      43.439  33.181  34.262  1.00  0.00     0.037 A 
BRANCH  64  78
ATOM     78  C   UNL A   1      44.337  33.230  28.644  1.00  0.00     0.064 A 
ATOM     79  C   UNL A   1      45.597  32.652  28.884  1.00  0.00     0.173 A 
ATOM     80  C   UNL A   1      44.218  34.117  27.572  1.00  0.00     0.173 A 
ATOM     81  F   UNL A   1      45.756  31.800  29.911  1.00  0.00    -0.203 F 
ATOM     82  C   UNL A   1      46.710  32.993  28.128  1.00  0.00     0.198 A 
ATOM     83  C   UNL A   1      45.337  34.440  26.795  1.00  0.00     0.198 A 
ATOM     84  F   UNL A   1      43.046  34.711  27.308  1.00  0.00    -0.203 F 
ATOM     85  F   UNL A   1      47.908  32.481  28.441  1.00  0.00    -0.200 F 
ATOM     86  C   UNL A   1      46.582  33.895  27.086  1.00  0.00     0.200 A 
ATOM     87  F   UNL A   1      45.222  35.314  25.784  1.00  0.00    -0.200 F 
ATOM     88  F   UNL A   1      47.661  34.251  26.377  1.00  0.00    -0.200 F 
ENDBRANCH  64  78
BRANCH  65  89
ATOM     89  C   UNL A   1      42.842  27.202  35.391  1.00  0.00     0.064 A 
ATOM     90  C   UNL A   1      42.023  26.260  36.059  1.00  0.00     0.173 A 
ATOM     91  C   UNL A   1      43.797  26.670  34.517  1.00  0.00     0.173 A 
ATOM     92  F   UNL A   1      41.153  26.667  36.999  1.00  0.00    -0.203 F 
ATOM     93  C   UNL A   1      42.023  24.909  35.725  1.00  0.00     0.198 A 
ATOM     94  C   UNL A   1      43.791  25.313  34.173  1.00  0.00     0.198 A 
ATOM     95  F   UNL A   1      44.722  27.451  33.945  1.00  0.00    -0.203 F 
ATOM     96  F   UNL A   1      41.147  24.079  36.308  1.00  0.00    -0.200 F 
ATOM     97  C   UNL A   1      42.881  24.442  34.751  1.00  0.00     0.200 A 
ATOM     98  F   UNL A   1      44.641  24.861  33.240  1.00  0.00    -0.200 F 
ATOM     99  F   UNL A   1      42.828  23.161  34.363  1.00  0.00    -0.200 F 
ENDBRANCH  65  89
BRANCH  77 100
ATOM    100  C   UNL A   1      42.953  33.830  35.512  1.00  0.00     0.064 A 
ATOM    101  C   UNL A   1      43.864  34.265  36.479  1.00  0.00     0.173 A 
ATOM    102  C   UNL A   1      41.589  34.104  35.717  1.00  0.00     0.173 A 
ATOM    103  F   UNL A   1      45.179  34.049  36.318  1.00  0.00    -0.203 F 
ATOM    104  C   UNL A   1      43.434  34.969  37.599  1.00  0.00     0.198 A 
ATOM    105  C   UNL A   1      41.167  34.842  36.819  1.00  0.00     0.198 A 
ATOM    106  F   UNL A   1      40.663  33.693  34.836  1.00  0.00    -0.203 F 
ATOM    107  F   UNL A   1      44.325  35.382  38.509  1.00  0.00    -0.200 F 
ATOM    108  C   UNL A   1      42.089  35.274  37.757  1.00  0.00     0.200 A 
ATOM    109  F   UNL A   1      39.871  35.158  36.956  1.00  0.00    -0.200 F 
ATOM    110  F   UNL A   1      41.686  36.001  38.808  1.00  0.00    -0.200 F 
ENDBRANCH  77 100
ENDBRANCH  51  52
ENDBRANCH  43  46
ENDBRANCH  41  42
ENDBRANCH  40  41
ENDBRANCH  39  40
ENDBRANCH   1  39
TORSDOF 17
ENDMDL
MODEL 2
REMARK VINA RESULT:     -11.1      3.137      8.061
REMARK SMILES Cc1oc2c(C)c3oc(=O)c(CCC(=O)N[C@H](Cc4ccc(Cl)cc4)C(=O)NCCCCNC(=O)c4ccc(-c5c6nc(c(-c7c(F)c(F)c(F)c(F)c7F)c7ccc([nH]7)c(-c7c(F)c(F)c(F)c(F)c7F)c7nc(c(-c8c(F)c(F)c(F)c(F)c8F)c8ccc5[nH]8)C=C7)C=C6)cc4)c(C)c3cc2c1C
REMARK SMILES IDX 29 1 28 2 26 3 27 4 17 6 16 7 14 8 15 9 13 11 12 12 11 13
REMARK SMILES IDX 1 14 2 15 3 16 104 17 4 18 103 19 105 20 5 21 102 22 6 23
REMARK SMILES IDX 7 24 101 25 8 26 99 27 9 28 100 29 10 30 18 31 19 32 20 33
REMARK SMILES IDX 25 34 21 35 24 36 22 37 23 38 30 39 31 40 32 41 33 42 34 43
REMARK SMILES IDX 35 45 36 46 37 47 98 48 38 49 97 50 39 51 40 52 41 53 91 54
REMARK SMILES IDX 42 55 96 56 90 57 92 58 43 59 95 60 89 61 88 62 44 64 76 65
REMARK SMILES IDX 56 66 75 67 57 68 60 69 74 70 93 71 58 72 59 73 73 75 94 76
REMARK SMILES IDX 61 77 45 78 46 79 54 80 47 81 48 82 52 83 55 84 49 85 50 86
REMARK SMILES IDX 53 87 51 88 77 89 78 90 86 91 79 92 80 93 84 94 87 95 81 96
REMARK SMILES IDX 82 97 85 98 83 99 62 100 63 101 71 102 64 103 65 104 69 105
REMARK SMILES IDX 72 106 66 107 67 108 70 109 68 110
REMARK H PARENT 28 5 16 10 33 44 92 63 60 74
REMARK Flexibility Score: inf
ROOT
ATOM      1  C   UNL A   1      49.831  31.479  28.495  1.00  0.00     0.116 C 
ENDROOT
BRANCH   1   2
ATOM      2  N   UNL A   1      49.087  30.810  27.385  1.00  0.00    -0.354 N 
ATOM      3  C   UNL A   1      48.022  29.778  27.191  1.00  0.00     0.242 C 
ATOM      4  O   UNL A   1      47.546  30.289  26.119  1.00  0.00    -0.273 OA
ATOM      5  H   UNL A   1      49.390  31.155  26.514  1.00  0.00     0.163 HD
BRANCH   3   6
ATOM      6  C   UNL A   1      47.438  27.932  28.213  1.00  0.00     0.175 C 
BRANCH   6   7
ATOM      7  N   UNL A   1      48.081  26.345  28.070  1.00  0.00    -0.344 N 
ATOM      8  C   UNL A   1      48.508  25.519  27.068  1.00  0.00     0.220 C 
ATOM      9  O   UNL A   1      48.844  24.373  27.372  1.00  0.00    -0.275 OA
ATOM     10  H   UNL A   1      48.164  25.911  28.950  1.00  0.00     0.164 HD
BRANCH   8  11
ATOM     11  C   UNL A   1      48.463  25.957  25.616  1.00  0.00     0.105 C 
BRANCH  11  12
ATOM     12  C   UNL A   1      47.489  25.144  24.771  1.00  0.00     0.053 C 
BRANCH  12  13
ATOM     13  C   UNL A   1      46.161  25.250  25.436  1.00  0.00     0.042 A 
ATOM     14  C   UNL A   1      38.654  26.958  29.902  1.00  0.00     0.088 C 
ATOM     15  C   UNL A   1      39.653  26.740  28.830  1.00  0.00     0.105 A 
ATOM     16  O   UNL A   1      40.156  25.492  28.730  1.00  0.00    -0.461 OA
ATOM     17  C   UNL A   1      40.228  27.564  27.882  1.00  0.00    -0.002 A 
ATOM     18  C   UNL A   1      41.121  25.498  27.764  1.00  0.00     0.141 A 
ATOM     19  C   UNL A   1      41.285  26.809  27.237  1.00  0.00     0.025 A 
ATOM     20  C   UNL A   1      39.853  28.972  27.641  1.00  0.00     0.049 C 
ATOM     21  C   UNL A   1      41.785  24.314  27.432  1.00  0.00     0.036 A 
ATOM     22  C   UNL A   1      42.331  27.201  26.264  1.00  0.00     0.024 A 
ATOM     23  C   UNL A   1      41.538  22.959  27.990  1.00  0.00     0.052 C 
ATOM     24  C   UNL A   1      42.778  24.695  26.559  1.00  0.00     0.145 A 
ATOM     25  C   UNL A   1      43.298  26.268  25.955  1.00  0.00     0.022 A 
ATOM     26  O   UNL A   1      43.986  23.379  26.335  1.00  0.00    -0.422 OA
ATOM     27  C   UNL A   1      45.152  26.484  25.387  1.00  0.00    -0.030 A 
ATOM     28  C   UNL A   1      45.679  23.467  25.891  1.00  0.00     0.339 A 
ATOM     29  C   UNL A   1      45.708  27.768  24.772  1.00  0.00     0.046 C 
ATOM     30  O   UNL A   1      46.349  22.463  25.704  1.00  0.00    -0.246 OA
ENDBRANCH  12  13
ENDBRANCH  11  12
ENDBRANCH   8  11
ENDBRANCH   6   7
BRANCH   6  31
ATOM     31  C   UNL A   1      45.795  27.231  28.582  1.00  0.00     0.070 C 
BRANCH  31  32
ATOM     32  C   UNL A   1      45.457  26.098  29.590  1.00  0.00    -0.045 A 
ATOM     33  C   UNL A   1      44.956  24.829  29.241  1.00  0.00     0.005 A 
ATOM     34  C   UNL A   1      45.611  26.359  30.970  1.00  0.00     0.005 A 
ATOM     35  C   UNL A   1      44.510  23.923  30.228  1.00  0.00     0.021 A 
ATOM     36  C   UNL A   1      45.135  25.473  31.951  1.00  0.00     0.021 A 
ATOM     37  C   UNL A   1      44.570  24.263  31.575  1.00  0.00     0.041 A 
ATOM     38  Cl  UNL A   1      43.928  23.200  32.767  1.00  0.00    -0.084 Cl
ENDBRANCH  31  32
ENDBRANCH   6  31
ENDBRANCH   3   6
ENDBRANCH   1   2
BRANCH   1  39
ATOM     39  C   UNL A   1      49.676  32.931  28.881  1.00  0.00     0.023 C 
BRANCH  39  40
ATOM     40  C   UNL A   1      48.570  33.729  28.261  1.00  0.00     0.023 C 
BRANCH  40  41
ATOM     41  C   UNL A   1      47.407  33.661  29.231  1.00  0.00     0.116 C 
BRANCH  41  42
ATOM     42  N   UNL A   1      47.099  34.969  29.818  1.00  0.00    -0.352 N 
ATOM     43  C   UNL A   1      45.872  35.489  30.118  1.00  0.00     0.251 C 
ATOM     44  H   UNL A   1      47.872  35.543  30.021  1.00  0.00     0.163 HD
ATOM     45  O   UNL A   1      45.698  36.693  30.257  1.00  0.00    -0.269 OA
BRANCH  43  46
ATOM     46  C   UNL A   1      44.774  34.543  30.327  1.00  0.00     0.039 A 
ATOM     47  C   UNL A   1      44.684  33.826  31.519  1.00  0.00     0.014 A 
ATOM     48  C   UNL A   1      43.863  34.349  29.284  1.00  0.00     0.014 A 
ATOM     49  C   UNL A   1      43.630  32.943  31.681  1.00  0.00     0.010 A 
ATOM     50  C   UNL A   1      42.775  33.547  29.476  1.00  0.00     0.010 A 
ATOM     51  C   UNL A   1      42.667  32.835  30.669  1.00  0.00    -0.014 A 
BRANCH  51  52
ATOM     52  C   UNL A   1      41.521  31.952  30.870  1.00  0.00     0.031 A 
ATOM     53  C   UNL A   1      41.955  30.687  31.590  1.00  0.00     0.074 A 
ATOM     54  C   UNL A   1      40.398  32.571  31.291  1.00  0.00     0.049 A 
ATOM     55  N   UNL A   1      42.165  30.557  32.870  1.00  0.00    -0.248 NA
ATOM     56  C   UNL A   1      42.470  29.558  30.807  1.00  0.00     0.031 C 
ATOM     57  C   UNL A   1      40.268  33.729  32.180  1.00  0.00     0.029 A 
ATOM     58  N   UNL A   1      39.121  32.383  30.775  1.00  0.00    -0.354 N 
ATOM     59  C   UNL A   1      42.792  29.332  33.071  1.00  0.00     0.074 A 
ATOM     60  C   UNL A   1      42.981  28.762  31.758  1.00  0.00     0.031 C 
ATOM     61  C   UNL A   1      38.963  33.995  32.361  1.00  0.00     0.029 A 
ATOM     62  C   UNL A   1      38.168  33.080  31.549  1.00  0.00     0.049 A 
ATOM     63  H   UNL A   1      38.911  31.840  29.981  1.00  0.00     0.167 HD
ATOM     64  C   UNL A   1      43.082  28.835  34.306  1.00  0.00     0.037 A 
ATOM     65  C   UNL A   1      37.063  32.407  31.989  1.00  0.00     0.037 A 
ATOM     66  C   UNL A   1      42.714  29.678  35.403  1.00  0.00     0.049 A 
ATOM     67  C   UNL A   1      37.639  31.633  33.166  1.00  0.00     0.074 A 
ATOM     68  C   UNL A   1      43.319  30.474  36.349  1.00  0.00     0.029 A 
ATOM     69  N   UNL A   1      41.374  29.763  35.690  1.00  0.00    -0.354 N 
ATOM     70  N   UNL A   1      37.969  32.130  34.334  1.00  0.00    -0.248 NA
ATOM     71  C   UNL A   1      38.248  30.333  32.874  1.00  0.00     0.031 C 
ATOM     72  C   UNL A   1      42.286  31.354  36.809  1.00  0.00     0.029 A 
ATOM     73  C   UNL A   1      41.121  31.038  36.109  1.00  0.00     0.049 A 
ATOM     74  H   UNL A   1      40.714  29.036  35.608  1.00  0.00     0.167 HD
ATOM     75  C   UNL A   1      39.029  31.341  34.795  1.00  0.00     0.074 A 
ATOM     76  C   UNL A   1      39.132  30.243  33.858  1.00  0.00     0.031 C 
ATOM     77  C   UNL A   1      39.880  31.711  35.798  1.00  0.00     0.037 A 
BRANCH  64  78
ATOM     78  C   UNL A   1      43.425  27.425  34.603  1.00  0.00     0.064 A 
ATOM     79  C   UNL A   1      42.347  26.526  34.700  1.00  0.00     0.173 A 
ATOM     80  C   UNL A   1      44.679  26.991  35.040  1.00  0.00     0.173 A 
ATOM     81  F   UNL A   1      41.123  26.907  34.298  1.00  0.00    -0.203 F 
ATOM     82  C   UNL A   1      42.496  25.269  35.269  1.00  0.00     0.198 A 
ATOM     83  C   UNL A   1      44.832  25.713  35.591  1.00  0.00     0.198 A 
ATOM     84  F   UNL A   1      45.738  27.811  34.989  1.00  0.00    -0.203 F 
ATOM     85  F   UNL A   1      41.427  24.475  35.415  1.00  0.00    -0.200 F 
ATOM     86  C   UNL A   1      43.739  24.864  35.723  1.00  0.00     0.200 A 
ATOM     87  F   UNL A   1      46.033  25.313  36.033  1.00  0.00    -0.200 F 
ATOM     88  F   UNL A   1      43.878  23.664  36.302  1.00  0.00    -0.200 F 
ENDBRANCH  64  78
BRANCH  65  89
ATOM     89  C   UNL A   1      36.291  31.795  30.849  1.00  0.00     0.064 A 
ATOM     90  C   UNL A   1      35.201  32.524  30.315  1.00  0.00     0.173 A 
ATOM     91  C   UNL A   1      36.622  30.612  30.179  1.00  0.00     0.173 A 
ATOM     92  F   UNL A   1      34.739  33.613  30.951  1.00  0.00    -0.203 F 
ATOM     93  C   UNL A   1      34.621  32.199  29.091  1.00  0.00     0.198 A 
ATOM     94  C   UNL A   1      36.047  30.290  28.945  1.00  0.00     0.198 A 
ATOM     95  F   UNL A   1      37.534  29.767  30.678  1.00  0.00    -0.203 F 
ATOM     96  F   UNL A   1      33.669  32.988  28.575  1.00  0.00    -0.200 F 
ATOM     97  C   UNL A   1      35.074  31.103  28.386  1.00  0.00     0.200 A 
ATOM     98  F   UNL A   1      36.475  29.212  28.273  1.00  0.00    -0.200 F 
ATOM     99  F   UNL A   1      34.581  30.834  27.170  1.00  0.00    -0.200 F 
ENDBRANCH  65  89
BRANCH  77 100
ATOM    100  C   UNL A   1      39.571  32.997  36.484  1.00  0.00     0.064 A 
ATOM    101  C   UNL A   1      38.728  33.015  37.599  1.00  0.00     0.173 A 
ATOM    102  C   UNL A   1      40.179  34.204  36.095  1.00  0.00     0.173 A 
ATOM    103  F   UNL A   1      38.142  31.885  38.025  1.00  0.00    -0.203 F 
ATOM    104  C   UNL A   1      38.517  34.189  38.315  1.00  0.00     0.198 A 
ATOM    105  C   UNL A   1      39.996  35.367  36.836  1.00  0.00     0.198 A 
ATOM    106  F   UNL A   1      40.982  34.256  35.020  1.00  0.00    -0.203 F 
ATOM    107  F   UNL A   1      37.710  34.181  39.384  1.00  0.00    -0.200 F 
ATOM    108  C   UNL A   1      39.167  35.358  37.945  1.00  0.00     0.200 A 
ATOM    109  F   UNL A   1      40.646  36.488  36.494  1.00  0.00    -0.200 F 
ATOM    110  F   UNL A   1      39.005  36.473  38.672  1.00  0.00    -0.200 F 
ENDBRANCH  77 100
ENDBRANCH  51  52
ENDBRANCH  43  46
ENDBRANCH  41  42
ENDBRANCH  40  41
ENDBRANCH  39  40
ENDBRANCH   1  39
TORSDOF 17
ENDMDL
MODEL 3
REMARK VINA RESULT:     -11.0      4.108     11.100
REMARK SMILES Cc1oc2c(C)c3oc(=O)c(CCC(=O)N[C@H](Cc4ccc(Cl)cc4)C(=O)NCCCCNC(=O)c4ccc(-c5c6nc(c(-c7c(F)c(F)c(F)c(F)c7F)c7ccc([nH]7)c(-c7c(F)c(F)c(F)c(F)c7F)c7nc(c(-c8c(F)c(F)c(F)c(F)c8F)c8ccc5[nH]8)C=C7)C=C6)cc4)c(C)c3cc2c1C
REMARK SMILES IDX 29 1 28 2 26 3 27 4 17 6 16 7 14 8 15 9 13 11 12 12 11 13
REMARK SMILES IDX 1 14 2 15 3 16 104 17 4 18 103 19 105 20 5 21 102 22 6 23
REMARK SMILES IDX 7 24 101 25 8 26 99 27 9 28 100 29 10 30 18 31 19 32 20 33
REMARK SMILES IDX 25 34 21 35 24 36 22 37 23 38 30 39 31 40 32 41 33 42 34 43
REMARK SMILES IDX 35 45 36 46 37 47 98 48 38 49 97 50 39 51 40 52 41 53 91 54
REMARK SMILES IDX 42 55 96 56 90 57 92 58 43 59 95 60 89 61 88 62 44 64 76 65
REMARK SMILES IDX 56 66 75 67 57 68 60 69 74 70 93 71 58 72 59 73 73 75 94 76
REMARK SMILES IDX 61 77 45 78 46 79 54 80 47 81 48 82 52 83 55 84 49 85 50 86
REMARK SMILES IDX 53 87 51 88 77 89 78 90 86 91 79 92 80 93 84 94 87 95 81 96
REMARK SMILES IDX 82 97 85 98 83 99 62 100 63 101 71 102 64 103 65 104 69 105
REMARK SMILES IDX 72 106 66 107 67 108 70 109 68 110
REMARK H PARENT 28 5 16 10 33 44 92 63 60 74
REMARK Flexibility Score: inf
ROOT
ATOM      1  C   UNL A   1      44.277  34.096  35.483  1.00  0.00     0.116 C 
ENDROOT
BRANCH   1   2
ATOM      2  N   UNL A   1      43.464  35.070  34.693  1.00  0.00    -0.354 N 
ATOM      3  C   UNL A   1      42.154  35.138  33.974  1.00  0.00     0.242 C 
ATOM      4  O   UNL A   1      41.954  36.382  34.192  1.00  0.00    -0.273 OA
ATOM      5  H   UNL A   1      43.934  35.933  34.627  1.00  0.00     0.163 HD
BRANCH   3   6
ATOM      6  C   UNL A   1      40.941  33.733  32.811  1.00  0.00     0.175 C 
BRANCH   6   7
ATOM      7  N   UNL A   1      40.800  32.026  32.950  1.00  0.00    -0.344 N 
ATOM      8  C   UNL A   1      40.285  31.129  33.843  1.00  0.00     0.220 C 
ATOM      9  O   UNL A   1      40.453  29.929  33.615  1.00  0.00    -0.275 OA
ATOM     10  H   UNL A   1      41.200  31.569  32.175  1.00  0.00     0.164 HD
BRANCH   8  11
ATOM     11  C   UNL A   1      39.629  31.591  35.131  1.00  0.00     0.105 C 
BRANCH  11  12
ATOM     12  C   UNL A   1      38.199  31.091  35.292  1.00  0.00     0.053 C 
BRANCH  12  13
ATOM     13  C   UNL A   1      37.340  31.991  34.475  1.00  0.00     0.042 A 
ATOM     14  C   UNL A   1      32.965  37.075  28.623  1.00  0.00     0.088 C 
ATOM     15  C   UNL A   1      33.336  36.014  29.588  1.00  0.00     0.105 A 
ATOM     16  O   UNL A   1      33.553  36.413  30.858  1.00  0.00    -0.461 OA
ATOM     17  C   UNL A   1      33.538  34.652  29.475  1.00  0.00    -0.002 A 
ATOM     18  C   UNL A   1      33.973  35.332  31.579  1.00  0.00     0.141 A 
ATOM     19  C   UNL A   1      34.071  34.187  30.741  1.00  0.00     0.025 A 
ATOM     20  C   UNL A   1      33.302  33.858  28.252  1.00  0.00     0.049 C 
ATOM     21  C   UNL A   1      34.238  35.462  32.945  1.00  0.00     0.036 A 
ATOM     22  C   UNL A   1      34.615  32.876  31.165  1.00  0.00     0.024 A 
ATOM     23  C   UNL A   1      34.074  36.680  33.779  1.00  0.00     0.052 C 
ATOM     24  C   UNL A   1      34.779  34.253  33.320  1.00  0.00     0.145 A 
ATOM     25  C   UNL A   1      35.195  32.799  32.414  1.00  0.00     0.022 A 
ATOM     26  O   UNL A   1      35.553  34.364  34.942  1.00  0.00    -0.422 OA
ATOM     27  C   UNL A   1      36.607  31.643  33.102  1.00  0.00    -0.030 A 
ATOM     28  C   UNL A   1      36.861  33.423  35.632  1.00  0.00     0.339 A 
ATOM     29  C   UNL A   1      37.008  30.316  32.458  1.00  0.00     0.046 C 
ATOM     30  O   UNL A   1      37.222  33.574  36.788  1.00  0.00    -0.246 OA
ENDBRANCH  12  13
ENDBRANCH  11  12
ENDBRANCH   8  11
ENDBRANCH   6   7
BRANCH   6  31
ATOM     31  C   UNL A   1      40.632  33.611  31.017  1.00  0.00     0.070 C 
BRANCH  31  32
ATOM     32  C   UNL A   1      39.369  33.043  30.314  1.00  0.00    -0.045 A 
ATOM     33  C   UNL A   1      39.166  31.688  29.989  1.00  0.00     0.005 A 
ATOM     34  C   UNL A   1      38.357  33.946  29.919  1.00  0.00     0.005 A 
ATOM     35  C   UNL A   1      38.072  31.284  29.194  1.00  0.00     0.021 A 
ATOM     36  C   UNL A   1      37.287  33.550  29.100  1.00  0.00     0.021 A 
ATOM     37  C   UNL A   1      37.157  32.221  28.726  1.00  0.00     0.041 A 
ATOM     38  Cl  UNL A   1      35.885  31.738  27.671  1.00  0.00    -0.084 Cl
ENDBRANCH  31  32
ENDBRANCH   6  31
ENDBRANCH   3   6
ENDBRANCH   1   2
BRANCH   1  39
ATOM     39  C   UNL A   1      44.934  32.863  34.912  1.00  0.00     0.023 C 
BRANCH  39  40
ATOM     40  C   UNL A   1      45.592  31.896  35.849  1.00  0.00     0.023 C 
BRANCH  40  41
ATOM     41  C   UNL A   1      44.785  30.615  35.764  1.00  0.00     0.116 C 
BRANCH  41  42
ATOM     42  N   UNL A   1      45.556  29.447  36.205  1.00  0.00    -0.352 N 
ATOM     43  C   UNL A   1      45.488  28.167  35.732  1.00  0.00     0.251 C 
ATOM     44  H   UNL A   1      46.201  29.605  36.931  1.00  0.00     0.163 HD
ATOM     45  O   UNL A   1      45.889  27.214  36.389  1.00  0.00    -0.269 OA
BRANCH  43  46
ATOM     46  C   UNL A   1      44.969  27.978  34.376  1.00  0.00     0.039 A 
ATOM     47  C   UNL A   1      43.760  27.314  34.174  1.00  0.00     0.014 A 
ATOM     48  C   UNL A   1      45.742  28.433  33.304  1.00  0.00     0.014 A 
ATOM     49  C   UNL A   1      43.299  27.158  32.878  1.00  0.00     0.010 A 
ATOM     50  C   UNL A   1      45.249  28.359  32.033  1.00  0.00     0.010 A 
ATOM     51  C   UNL A   1      44.034  27.710  31.821  1.00  0.00    -0.014 A 
BRANCH  51  52
ATOM     52  C   UNL A   1      43.513  27.602  30.460  1.00  0.00     0.031 A 
ATOM     53  C   UNL A   1      43.501  28.967  29.795  1.00  0.00     0.074 A 
ATOM     54  C   UNL A   1      43.989  26.554  29.755  1.00  0.00     0.049 A 
ATOM     55  N   UNL A   1      44.519  29.578  29.259  1.00  0.00    -0.248 NA
ATOM     56  C   UNL A   1      42.341  29.846  29.986  1.00  0.00     0.031 C 
ATOM     57  C   UNL A   1      45.322  25.945  29.804  1.00  0.00     0.029 A 
ATOM     58  N   UNL A   1      43.230  25.672  28.994  1.00  0.00    -0.354 N 
ATOM     59  C   UNL A   1      44.137  30.890  29.004  1.00  0.00     0.074 A 
ATOM     60  C   UNL A   1      42.784  31.013  29.496  1.00  0.00     0.031 C 
ATOM     61  C   UNL A   1      45.376  24.943  28.910  1.00  0.00     0.029 A 
ATOM     62  C   UNL A   1      44.070  24.791  28.278  1.00  0.00     0.049 A 
ATOM     63  H   UNL A   1      42.247  25.664  28.960  1.00  0.00     0.167 HD
ATOM     64  C   UNL A   1      44.936  31.791  28.367  1.00  0.00     0.037 A 
ATOM     65  C   UNL A   1      43.866  24.638  26.936  1.00  0.00     0.037 A 
ATOM     66  C   UNL A   1      46.226  31.299  27.987  1.00  0.00     0.049 A 
ATOM     67  C   UNL A   1      44.520  25.902  26.393  1.00  0.00     0.074 A 
ATOM     68  C   UNL A   1      47.543  31.446  28.357  1.00  0.00     0.029 A 
ATOM     69  N   UNL A   1      46.262  30.429  26.926  1.00  0.00    -0.354 N 
ATOM     70  N   UNL A   1      45.808  26.133  26.310  1.00  0.00    -0.248 NA
ATOM     71  C   UNL A   1      43.688  27.106  26.329  1.00  0.00     0.031 C 
ATOM     72  C   UNL A   1      48.209  30.293  27.827  1.00  0.00     0.029 A 
ATOM     73  C   UNL A   1      47.250  29.518  27.172  1.00  0.00     0.049 A 
ATOM     74  H   UNL A   1      45.682  30.456  26.130  1.00  0.00     0.167 HD
ATOM     75  C   UNL A   1      45.954  27.517  26.457  1.00  0.00     0.074 A 
ATOM     76  C   UNL A   1      44.609  28.053  26.442  1.00  0.00     0.031 C 
ATOM     77  C   UNL A   1      47.133  28.135  26.765  1.00  0.00     0.037 A 
BRANCH  64  78
ATOM     78  C   UNL A   1      44.481  33.068  27.769  1.00  0.00     0.064 A 
ATOM     79  C   UNL A   1      44.124  34.087  28.670  1.00  0.00     0.173 A 
ATOM     80  C   UNL A   1      44.143  33.236  26.425  1.00  0.00     0.173 A 
ATOM     81  F   UNL A   1      44.423  33.961  29.974  1.00  0.00    -0.203 F 
ATOM     82  C   UNL A   1      43.401  35.199  28.262  1.00  0.00     0.198 A 
ATOM     83  C   UNL A   1      43.435  34.371  26.010  1.00  0.00     0.198 A 
ATOM     84  F   UNL A   1      44.442  32.289  25.524  1.00  0.00    -0.203 F 
ATOM     85  F   UNL A   1      43.011  36.108  29.167  1.00  0.00    -0.200 F 
ATOM     86  C   UNL A   1      43.048  35.339  26.931  1.00  0.00     0.200 A 
ATOM     87  F   UNL A   1      43.090  34.513  24.722  1.00  0.00    -0.200 F 
ATOM     88  F   UNL A   1      42.322  36.394  26.541  1.00  0.00    -0.200 F 
ENDBRANCH  64  78
BRANCH  65  89
ATOM     89  C   UNL A   1      42.459  24.196  26.630  1.00  0.00     0.064 A 
ATOM     90  C   UNL A   1      42.252  22.853  26.233  1.00  0.00     0.173 A 
ATOM     91  C   UNL A   1      41.302  24.963  26.816  1.00  0.00     0.173 A 
ATOM     92  F   UNL A   1      43.300  22.071  25.924  1.00  0.00    -0.203 F 
ATOM     93  C   UNL A   1      40.988  22.270  26.221  1.00  0.00     0.198 A 
ATOM     94  C   UNL A   1      40.032  24.375  26.814  1.00  0.00     0.198 A 
ATOM     95  F   UNL A   1      41.376  26.281  27.046  1.00  0.00    -0.203 F 
ATOM     96  F   UNL A   1      40.861  20.964  25.948  1.00  0.00    -0.200 F 
ATOM     97  C   UNL A   1      39.880  23.023  26.552  1.00  0.00     0.200 A 
ATOM     98  F   UNL A   1      38.957  25.116  27.116  1.00  0.00    -0.200 F 
ATOM     99  F   UNL A   1      38.673  22.448  26.626  1.00  0.00    -0.200 F 
ENDBRANCH  65  89
BRANCH  77 100
ATOM    100  C   UNL A   1      48.335  27.259  26.848  1.00  0.00     0.064 A 
ATOM    101  C   UNL A   1      49.078  26.974  25.698  1.00  0.00     0.173 A 
ATOM    102  C   UNL A   1      48.807  26.771  28.079  1.00  0.00     0.173 A 
ATOM    103  F   UNL A   1      48.681  27.437  24.502  1.00  0.00    -0.203 F 
ATOM    104  C   UNL A   1      50.262  26.249  25.777  1.00  0.00     0.198 A 
ATOM    105  C   UNL A   1      50.012  26.080  28.158  1.00  0.00     0.198 A 
ATOM    106  F   UNL A   1      48.127  26.993  29.216  1.00  0.00    -0.203 F 
ATOM    107  F   UNL A   1      50.961  25.993  24.663  1.00  0.00    -0.200 F 
ATOM    108  C   UNL A   1      50.738  25.820  27.008  1.00  0.00     0.200 A 
ATOM    109  F   UNL A   1      50.483  25.690  29.352  1.00  0.00    -0.200 F 
ATOM    110  F   UNL A   1      51.908  25.171  27.085  1.00  0.00    -0.200 F 
ENDBRANCH  77 100
ENDBRANCH  51  52
ENDBRANCH  43  46
ENDBRANCH  41  42
ENDBRANCH  40  41
ENDBRANCH  39  40
ENDBRANCH   1  39
TORSDOF 17
ENDMDL
