MODEL 1
REMARK VINA RESULT:     -14.5      0.000      0.000
REMARK SMILES O=C(NCCCCNC(=O)c1nccnc1C(=O)Nc1n[nH]c2ncccc12)c1ccc(-c2c3nc(c(-c4c(F)c(F)c(F)c(F)c4F)c4ccc([nH]4)c(-c4c(F)c(F)c(F)c(F)c4F)c4nc(c(-c5c(F)c(F)c(F)c(F)c5F)c5ccc2[nH]5)C=C4)C=C3)cc1
REMARK SMILES IDX 5 1 4 2 3 3 1 4 2 5 29 7 30 8 91 9 31 10 90 11 32 12 33 13
REMARK SMILES IDX 34 14 84 15 35 16 89 17 83 18 85 19 36 20 88 21 82 22 81 23
REMARK SMILES IDX 37 25 69 26 49 27 68 28 50 29 53 30 67 31 86 32 51 33 52 34
REMARK SMILES IDX 66 36 87 37 54 38 38 39 39 40 47 41 40 42 41 43 45 44 48 45
REMARK SMILES IDX 42 46 43 47 46 48 44 49 70 50 71 51 79 52 72 53 73 54 77 55
REMARK SMILES IDX 80 56 74 57 75 58 78 59 76 60 55 61 56 62 64 63 57 64 58 65
REMARK SMILES IDX 62 66 65 67 59 68 60 69 63 70 61 71 6 72 7 73 8 74 9 75
REMARK SMILES IDX 10 77 11 78 12 79 16 80 13 81 15 82 14 83 17 84 18 85 19 86
REMARK SMILES IDX 20 88 21 89 28 90 22 91 23 92 27 93 24 95 26 96 25 97
REMARK H PARENT 3 6 85 24 53 35 8 76 19 87 22 94
REMARK Flexibility Score: inf
ROOT
ATOM      1  C   UNL A   1      31.820  28.736  25.953  1.00  0.00     0.023 C 
ENDROOT
BRANCH   1   2
ATOM      2  C   UNL A   1      32.897  29.801  26.114  1.00  0.00     0.116 C 
BRANCH   2   3
ATOM      3  N   UNL A   1      32.510  31.071  26.714  1.00  0.00    -0.352 N 
ATOM      4  O   UNL A   1      32.997  33.043  27.755  1.00  0.00    -0.269 OA
ATOM      5  C   UNL A   1      33.362  31.940  27.371  1.00  0.00     0.251 C 
ATOM      6  H   UNL A   1      31.564  31.333  26.646  1.00  0.00     0.163 HD
BRANCH   5   7
ATOM      7  C   UNL A   1      34.705  31.420  27.698  1.00  0.00     0.039 A 
ATOM      8  C   UNL A   1      34.849  30.091  28.090  1.00  0.00     0.014 A 
ATOM      9  C   UNL A   1      35.729  32.347  27.902  1.00  0.00     0.014 A 
ATOM     10  C   UNL A   1      35.919  29.750  28.905  1.00  0.00     0.010 A 
ATOM     11  C   UNL A   1      36.878  31.954  28.588  1.00  0.00     0.010 A 
ATOM     12  C   UNL A   1      36.960  30.667  29.143  1.00  0.00    -0.014 A 
BRANCH  12  13
ATOM     13  C   UNL A   1      38.158  30.225  29.899  1.00  0.00     0.031 A 
ATOM     14  C   UNL A   1      39.170  29.278  29.312  1.00  0.00     0.074 A 
ATOM     15  C   UNL A   1      38.316  30.700  31.148  1.00  0.00     0.049 A 
ATOM     16  N   UNL A   1      40.239  28.767  29.871  1.00  0.00    -0.248 NA
ATOM     17  C   UNL A   1      38.950  28.832  27.928  1.00  0.00     0.031 C 
ATOM     18  C   UNL A   1      37.392  31.619  31.820  1.00  0.00     0.029 A 
ATOM     19  N   UNL A   1      39.305  30.495  32.072  1.00  0.00    -0.354 N 
ATOM     20  C   UNL A   1      40.803  27.921  28.924  1.00  0.00     0.074 A 
ATOM     21  C   UNL A   1      39.940  27.965  27.761  1.00  0.00     0.031 C 
ATOM     22  C   UNL A   1      37.887  31.949  33.017  1.00  0.00     0.029 A 
ATOM     23  C   UNL A   1      39.104  31.182  33.243  1.00  0.00     0.049 A 
ATOM     24  H   UNL A   1      40.083  29.912  31.913  1.00  0.00     0.167 HD
ATOM     25  C   UNL A   1      41.937  27.181  29.022  1.00  0.00     0.037 A 
ATOM     26  C   UNL A   1      39.796  31.170  34.394  1.00  0.00     0.037 A 
ATOM     27  C   UNL A   1      42.781  27.151  30.192  1.00  0.00     0.049 A 
ATOM     28  C   UNL A   1      41.009  30.295  34.490  1.00  0.00     0.074 A 
ATOM     29  C   UNL A   1      43.967  26.464  30.385  1.00  0.00     0.029 A 
ATOM     30  N   UNL A   1      42.521  27.829  31.377  1.00  0.00    -0.354 N 
ATOM     31  N   UNL A   1      41.551  29.526  33.578  1.00  0.00    -0.248 NA
ATOM     32  C   UNL A   1      41.705  30.286  35.781  1.00  0.00     0.031 C 
ATOM     33  C   UNL A   1      44.381  26.660  31.707  1.00  0.00     0.029 A 
ATOM     34  C   UNL A   1      43.503  27.543  32.315  1.00  0.00     0.049 A 
ATOM     35  H   UNL A   1      41.752  28.424  31.529  1.00  0.00     0.167 HD
ATOM     36  C   UNL A   1      42.671  28.965  34.171  1.00  0.00     0.074 A 
ATOM     37  C   UNL A   1      42.740  29.503  35.516  1.00  0.00     0.031 C 
ATOM     38  C   UNL A   1      43.562  28.087  33.649  1.00  0.00     0.037 A 
BRANCH  25  39
ATOM     39  C   UNL A   1      42.314  26.310  27.851  1.00  0.00     0.064 A 
ATOM     40  C   UNL A   1      41.756  25.036  27.657  1.00  0.00     0.173 A 
ATOM     41  C   UNL A   1      43.222  26.774  26.885  1.00  0.00     0.173 A 
ATOM     42  F   UNL A   1      40.884  24.538  28.546  1.00  0.00    -0.203 F 
ATOM     43  C   UNL A   1      42.124  24.249  26.567  1.00  0.00     0.198 A 
ATOM     44  C   UNL A   1      43.556  26.000  25.776  1.00  0.00     0.198 A 
ATOM     45  F   UNL A   1      43.779  27.989  27.007  1.00  0.00    -0.203 F 
ATOM     46  F   UNL A   1      41.624  23.011  26.440  1.00  0.00    -0.200 F 
ATOM     47  C   UNL A   1      43.018  24.733  25.625  1.00  0.00     0.200 A 
ATOM     48  F   UNL A   1      44.404  26.480  24.856  1.00  0.00    -0.200 F 
ATOM     49  F   UNL A   1      43.366  23.975  24.576  1.00  0.00    -0.200 F 
ENDBRANCH  25  39
BRANCH  26  50
ATOM     50  C   UNL A   1      39.345  32.004  35.538  1.00  0.00     0.064 A 
ATOM     51  C   UNL A   1      39.766  33.334  35.665  1.00  0.00     0.173 A 
ATOM     52  C   UNL A   1      38.479  31.497  36.518  1.00  0.00     0.173 A 
ATOM     53  F   UNL A   1      40.601  33.861  34.757  1.00  0.00    -0.203 F 
ATOM     54  C   UNL A   1      39.364  34.114  36.746  1.00  0.00     0.198 A 
ATOM     55  C   UNL A   1      38.044  32.290  37.575  1.00  0.00     0.198 A 
ATOM     56  F   UNL A   1      38.032  30.234  36.435  1.00  0.00    -0.203 F 
ATOM     57  F   UNL A   1      39.829  35.364  36.874  1.00  0.00    -0.200 F 
ATOM     58  C   UNL A   1      38.498  33.595  37.696  1.00  0.00     0.200 A 
ATOM     59  F   UNL A   1      37.184  31.793  38.474  1.00  0.00    -0.200 F 
ATOM     60  F   UNL A   1      38.106  34.349  38.732  1.00  0.00    -0.200 F 
ENDBRANCH  26  50
BRANCH  38  61
ATOM     61  C   UNL A   1      44.723  27.698  34.522  1.00  0.00     0.064 A 
ATOM     62  C   UNL A   1      45.920  28.429  34.541  1.00  0.00     0.173 A 
ATOM     63  C   UNL A   1      44.630  26.576  35.360  1.00  0.00     0.173 A 
ATOM     64  F   UNL A   1      46.070  29.501  33.747  1.00  0.00    -0.203 F 
ATOM     65  C   UNL A   1      46.994  28.026  35.330  1.00  0.00     0.198 A 
ATOM     66  C   UNL A   1      45.689  26.201  36.181  1.00  0.00     0.198 A 
ATOM     67  F   UNL A   1      43.506  25.842  35.387  1.00  0.00    -0.203 F 
ATOM     68  F   UNL A   1      48.153  28.696  35.273  1.00  0.00    -0.200 F 
ATOM     69  C   UNL A   1      46.875  26.918  36.155  1.00  0.00     0.200 A 
ATOM     70  F   UNL A   1      45.563  25.142  36.992  1.00  0.00    -0.200 F 
ATOM     71  F   UNL A   1      47.907  26.534  36.917  1.00  0.00    -0.200 F 
ENDBRANCH  38  61
ENDBRANCH  12  13
ENDBRANCH   5   7
ENDBRANCH   2   3
ENDBRANCH   1   2
BRANCH   1  72
ATOM     72  C   UNL A   1      31.804  27.301  26.898  1.00  0.00     0.023 C 
BRANCH  72  73
ATOM     73  C   UNL A   1      32.081  25.164  26.451  1.00  0.00     0.116 C 
BRANCH  73  74
ATOM     74  N   UNL A   1      31.059  23.923  26.398  1.00  0.00    -0.351 N 
ATOM     75  C   UNL A   1      31.268  22.624  25.974  1.00  0.00     0.272 C 
ATOM     76  H   UNL A   1      30.148  24.118  26.715  1.00  0.00     0.163 HD
ATOM     77  O   UNL A   1      30.346  21.828  25.848  1.00  0.00    -0.267 OA
BRANCH  75  78
ATOM     78  C   UNL A   1      32.660  22.228  25.700  1.00  0.00     0.159 A 
ATOM     79  N   UNL A   1      33.426  22.150  26.839  1.00  0.00    -0.247 NA
ATOM     80  C   UNL A   1      33.186  22.088  24.422  1.00  0.00     0.159 A 
ATOM     81  C   UNL A   1      34.734  21.899  26.654  1.00  0.00     0.132 A 
ATOM     82  N   UNL A   1      34.529  21.850  24.263  1.00  0.00    -0.247 NA
ATOM     83  C   UNL A   1      35.274  21.750  25.393  1.00  0.00     0.132 A 
BRANCH  80  84
ATOM     84  C   UNL A   1      32.420  22.106  23.139  1.00  0.00     0.277 C 
ATOM     85  O   UNL A   1      32.103  21.016  22.649  1.00  0.00    -0.267 OA
ATOM     86  N   UNL A   1      32.011  23.244  22.481  1.00  0.00    -0.303 N 
ATOM     87  H   UNL A   1      31.394  23.088  21.730  1.00  0.00     0.172 HD
BRANCH  86  88
ATOM     88  C   UNL A   1      32.324  24.559  22.698  1.00  0.00     0.164 A 
ATOM     89  N   UNL A   1      33.589  24.951  22.462  1.00  0.00    -0.155 NA
ATOM     90  C   UNL A   1      31.456  25.620  23.030  1.00  0.00     0.063 A 
ATOM     91  N   UNL A   1      33.605  26.291  22.207  1.00  0.00    -0.259 N 
ATOM     92  C   UNL A   1      32.432  26.939  22.474  1.00  0.00     0.157 A 
ATOM     93  C   UNL A   1      29.789  25.975  23.578  1.00  0.00     0.017 A 
ATOM     94  H   UNL A   1      34.401  26.755  21.857  1.00  0.00     0.192 HD
ATOM     95  N   UNL A   1      31.846  28.561  22.275  1.00  0.00    -0.237 NA
ATOM     96  C   UNL A   1      29.116  27.621  23.456  1.00  0.00     0.021 A 
ATOM     97  C   UNL A   1      30.176  28.876  22.838  1.00  0.00     0.113 A 
ENDBRANCH  86  88
ENDBRANCH  80  84
ENDBRANCH  75  78
ENDBRANCH  73  74
ENDBRANCH  72  73
ENDBRANCH   1  72
TORSDOF 13
ENDMDL
MODEL 2
REMARK VINA RESULT:     -14.5      0.162      1.583
REMARK SMILES O=C(NCCCCNC(=O)c1nccnc1C(=O)Nc1n[nH]c2ncccc12)c1ccc(-c2c3nc(c(-c4c(F)c(F)c(F)c(F)c4F)c4ccc([nH]4)c(-c4c(F)c(F)c(F)c(F)c4F)c4nc(c(-c5c(F)c(F)c(F)c(F)c5F)c5ccc2[nH]5)C=C4)C=C3)cc1
REMARK SMILES IDX 5 1 4 2 3 3 1 4 2 5 29 7 30 8 91 9 31 10 90 11 32 12 33 13
REMARK SMILES IDX 34 14 84 15 35 16 89 17 83 18 85 19 36 20 88 21 82 22 81 23
REMARK SMILES IDX 37 25 69 26 49 27 68 28 50 29 53 30 67 31 86 32 51 33 52 34
REMARK SMILES IDX 66 36 87 37 54 38 38 39 39 40 47 41 40 42 41 43 45 44 48 45
REMARK SMILES IDX 42 46 43 47 46 48 44 49 70 50 71 51 79 52 72 53 73 54 77 55
REMARK SMILES IDX 80 56 74 57 75 58 78 59 76 60 55 61 56 62 64 63 57 64 58 65
REMARK SMILES IDX 62 66 65 67 59 68 60 69 63 70 61 71 6 72 7 73 8 74 9 75
REMARK SMILES IDX 10 77 11 78 12 79 16 80 13 81 15 82 14 83 17 84 18 85 19 86
REMARK SMILES IDX 20 88 21 89 28 90 22 91 23 92 27 93 24 95 26 96 25 97
REMARK H PARENT 3 6 85 24 53 35 8 76 19 87 22 94
REMARK Flexibility Score: inf
ROOT
ATOM      1  C   UNL A   1      31.779  28.879  26.006  1.00  0.00     0.023 C 
ENDROOT
BRANCH   1   2
ATOM      2  C   UNL A   1      32.877  29.921  26.179  1.00  0.00     0.116 C 
BRANCH   2   3
ATOM      3  N   UNL A   1      32.512  31.198  26.780  1.00  0.00    -0.352 N 
ATOM      4  O   UNL A   1      33.035  33.165  27.812  1.00  0.00    -0.269 OA
ATOM      5  C   UNL A   1      33.381  32.056  27.427  1.00  0.00     0.251 C 
ATOM      6  H   UNL A   1      31.569  31.472  26.719  1.00  0.00     0.163 HD
BRANCH   5   7
ATOM      7  C   UNL A   1      34.720  31.519  27.744  1.00  0.00     0.039 A 
ATOM      8  C   UNL A   1      34.850  30.188  28.136  1.00  0.00     0.014 A 
ATOM      9  C   UNL A   1      35.758  32.432  27.939  1.00  0.00     0.014 A 
ATOM     10  C   UNL A   1      35.922  29.834  28.942  1.00  0.00     0.010 A 
ATOM     11  C   UNL A   1      36.907  32.024  28.616  1.00  0.00     0.010 A 
ATOM     12  C   UNL A   1      36.976  30.737  29.172  1.00  0.00    -0.014 A 
BRANCH  12  13
ATOM     13  C   UNL A   1      38.174  30.280  29.919  1.00  0.00     0.031 A 
ATOM     14  C   UNL A   1      39.173  29.324  29.323  1.00  0.00     0.074 A 
ATOM     15  C   UNL A   1      38.345  30.748  31.169  1.00  0.00     0.049 A 
ATOM     16  N   UNL A   1      40.240  28.800  29.873  1.00  0.00    -0.248 NA
ATOM     17  C   UNL A   1      38.940  28.886  27.938  1.00  0.00     0.031 C 
ATOM     18  C   UNL A   1      37.434  31.674  31.850  1.00  0.00     0.029 A 
ATOM     19  N   UNL A   1      39.337  30.529  32.086  1.00  0.00    -0.354 N 
ATOM     20  C   UNL A   1      40.790  27.952  28.919  1.00  0.00     0.074 A 
ATOM     21  C   UNL A   1      39.920  28.010  27.762  1.00  0.00     0.031 C 
ATOM     22  C   UNL A   1      37.941  31.994  33.045  1.00  0.00     0.029 A 
ATOM     23  C   UNL A   1      39.151  31.214  33.261  1.00  0.00     0.049 A 
ATOM     24  H   UNL A   1      40.108  29.939  31.920  1.00  0.00     0.167 HD
ATOM     25  C   UNL A   1      41.916  27.200  29.007  1.00  0.00     0.037 A 
ATOM     26  C   UNL A   1      39.850  31.190  34.407  1.00  0.00     0.037 A 
ATOM     27  C   UNL A   1      42.767  27.157  30.171  1.00  0.00     0.049 A 
ATOM     28  C   UNL A   1      41.054  30.302  34.493  1.00  0.00     0.074 A 
ATOM     29  C   UNL A   1      43.947  26.456  30.355  1.00  0.00     0.029 A 
ATOM     30  N   UNL A   1      42.521  27.832  31.361  1.00  0.00    -0.354 N 
ATOM     31  N   UNL A   1      41.582  29.531  33.574  1.00  0.00    -0.248 NA
ATOM     32  C   UNL A   1      41.758  30.281  35.779  1.00  0.00     0.031 C 
ATOM     33  C   UNL A   1      44.371  26.644  31.675  1.00  0.00     0.029 A 
ATOM     34  C   UNL A   1      43.506  27.533  32.292  1.00  0.00     0.049 A 
ATOM     35  H   UNL A   1      41.759  28.435  31.520  1.00  0.00     0.167 HD
ATOM     36  C   UNL A   1      42.700  28.956  34.158  1.00  0.00     0.074 A 
ATOM     37  C   UNL A   1      42.783  29.488  35.505  1.00  0.00     0.031 C 
ATOM     38  C   UNL A   1      43.578  28.071  33.628  1.00  0.00     0.037 A 
BRANCH  25  39
ATOM     39  C   UNL A   1      42.277  26.330  27.831  1.00  0.00     0.064 A 
ATOM     40  C   UNL A   1      43.216  26.728  26.866  1.00  0.00     0.173 A 
ATOM     41  C   UNL A   1      41.700  25.056  27.686  1.00  0.00     0.173 A 
ATOM     42  F   UNL A   1      43.799  27.934  26.950  1.00  0.00    -0.203 F 
ATOM     43  C   UNL A   1      43.530  25.907  25.785  1.00  0.00     0.198 A 
ATOM     44  C   UNL A   1      42.047  24.222  26.626  1.00  0.00     0.198 A 
ATOM     45  F   UNL A   1      40.806  24.612  28.583  1.00  0.00    -0.203 F 
ATOM     46  F   UNL A   1      44.383  26.338  24.845  1.00  0.00    -0.200 F 
ATOM     47  C   UNL A   1      42.952  24.652  25.669  1.00  0.00     0.200 A 
ATOM     48  F   UNL A   1      41.502  23.001  26.529  1.00  0.00    -0.200 F 
ATOM     49  F   UNL A   1      43.259  23.863  24.631  1.00  0.00    -0.200 F 
ENDBRANCH  25  39
BRANCH  26  50
ATOM     50  C   UNL A   1      39.414  32.025  35.557  1.00  0.00     0.064 A 
ATOM     51  C   UNL A   1      38.540  31.513  36.523  1.00  0.00     0.173 A 
ATOM     52  C   UNL A   1      39.869  33.342  35.720  1.00  0.00     0.173 A 
ATOM     53  F   UNL A   1      38.071  30.261  36.407  1.00  0.00    -0.203 F 
ATOM     54  C   UNL A   1      38.111  32.297  37.591  1.00  0.00     0.198 A 
ATOM     55  C   UNL A   1      39.474  34.111  36.810  1.00  0.00     0.198 A 
ATOM     56  F   UNL A   1      40.722  33.876  34.832  1.00  0.00    -0.203 F 
ATOM     57  F   UNL A   1      37.229  31.801  38.469  1.00  0.00    -0.200 F 
ATOM     58  C   UNL A   1      38.584  33.592  37.739  1.00  0.00     0.200 A 
ATOM     59  F   UNL A   1      39.956  35.351  36.963  1.00  0.00    -0.200 F 
ATOM     60  F   UNL A   1      38.177  34.343  38.770  1.00  0.00    -0.200 F 
ENDBRANCH  26  50
BRANCH  38  61
ATOM     61  C   UNL A   1      44.741  27.667  34.492  1.00  0.00     0.064 A 
ATOM     62  C   UNL A   1      45.942  28.391  34.513  1.00  0.00     0.173 A 
ATOM     63  C   UNL A   1      44.645  26.536  35.319  1.00  0.00     0.173 A 
ATOM     64  F   UNL A   1      46.095  29.470  33.730  1.00  0.00    -0.203 F 
ATOM     65  C   UNL A   1      47.017  27.974  35.294  1.00  0.00     0.198 A 
ATOM     66  C   UNL A   1      45.705  26.148  36.132  1.00  0.00     0.198 A 
ATOM     67  F   UNL A   1      43.517  25.809  35.342  1.00  0.00    -0.203 F 
ATOM     68  F   UNL A   1      48.180  28.638  35.239  1.00  0.00    -0.200 F 
ATOM     69  C   UNL A   1      46.894  26.858  36.109  1.00  0.00     0.200 A 
ATOM     70  F   UNL A   1      45.577  25.081  36.932  1.00  0.00    -0.200 F 
ATOM     71  F   UNL A   1      47.928  26.461  36.862  1.00  0.00    -0.200 F 
ENDBRANCH  38  61
ENDBRANCH  12  13
ENDBRANCH   5   7
ENDBRANCH   2   3
ENDBRANCH   1   2
BRANCH   1  72
ATOM     72  C   UNL A   1      31.757  27.414  26.903  1.00  0.00     0.023 C 
BRANCH  72  73
ATOM     73  C   UNL A   1      32.099  25.299  26.400  1.00  0.00     0.116 C 
BRANCH  73  74
ATOM     74  N   UNL A   1      31.126  24.020  26.361  1.00  0.00    -0.351 N 
ATOM     75  C   UNL A   1      31.371  22.737  25.908  1.00  0.00     0.272 C 
ATOM     76  H   UNL A   1      30.219  24.173  26.712  1.00  0.00     0.163 HD
ATOM     77  O   UNL A   1      30.477  21.907  25.800  1.00  0.00    -0.267 OA
BRANCH  75  78
ATOM     78  C   UNL A   1      32.767  22.401  25.579  1.00  0.00     0.159 A 
ATOM     79  N   UNL A   1      33.565  22.291  26.693  1.00  0.00    -0.247 NA
ATOM     80  C   UNL A   1      33.263  22.343  24.283  1.00  0.00     0.159 A 
ATOM     81  C   UNL A   1      34.875  22.092  26.464  1.00  0.00     0.132 A 
ATOM     82  N   UNL A   1      34.608  22.157  24.080  1.00  0.00    -0.247 NA
ATOM     83  C   UNL A   1      35.385  22.025  25.184  1.00  0.00     0.132 A 
BRANCH  80  84
ATOM     84  C   UNL A   1      32.463  22.400  23.022  1.00  0.00     0.277 C 
ATOM     85  O   UNL A   1      32.133  21.326  22.507  1.00  0.00    -0.267 OA
ATOM     86  N   UNL A   1      32.037  23.559  22.411  1.00  0.00    -0.303 N 
ATOM     87  H   UNL A   1      31.400  23.425  21.673  1.00  0.00     0.172 HD
BRANCH  86  88
ATOM     88  C   UNL A   1      32.356  24.866  22.661  1.00  0.00     0.164 A 
ATOM     89  N   UNL A   1      33.627  25.253  22.455  1.00  0.00    -0.155 NA
ATOM     90  C   UNL A   1      31.490  25.926  23.000  1.00  0.00     0.063 A 
ATOM     91  N   UNL A   1      33.657  26.598  22.228  1.00  0.00    -0.259 N 
ATOM     92  C   UNL A   1      32.484  27.249  22.489  1.00  0.00     0.157 A 
ATOM     93  C   UNL A   1      29.816  26.282  23.527  1.00  0.00     0.017 A 
ATOM     94  H   UNL A   1      34.462  27.063  21.901  1.00  0.00     0.192 HD
ATOM     95  N   UNL A   1      31.913  28.879  22.314  1.00  0.00    -0.237 NA
ATOM     96  C   UNL A   1      29.157  27.935  23.429  1.00  0.00     0.021 A 
ATOM     97  C   UNL A   1      30.236  29.195  22.855  1.00  0.00     0.113 A 
ENDBRANCH  86  88
ENDBRANCH  80  84
ENDBRANCH  75  78
ENDBRANCH  73  74
ENDBRANCH  72  73
ENDBRANCH   1  72
TORSDOF 13
ENDMDL
MODEL 3
REMARK VINA RESULT:     -14.3      4.280      9.557
REMARK SMILES O=C(NCCCCNC(=O)c1nccnc1C(=O)Nc1n[nH]c2ncccc12)c1ccc(-c2c3nc(c(-c4c(F)c(F)c(F)c(F)c4F)c4ccc([nH]4)c(-c4c(F)c(F)c(F)c(F)c4F)c4nc(c(-c5c(F)c(F)c(F)c(F)c5F)c5ccc2[nH]5)C=C4)C=C3)cc1
REMARK SMILES IDX 5 1 4 2 3 3 1 4 2 5 29 7 30 8 91 9 31 10 90 11 32 12 33 13
REMARK SMILES IDX 34 14 84 15 35 16 89 17 83 18 85 19 36 20 88 21 82 22 81 23
REMARK SMILES IDX 37 25 69 26 49 27 68 28 50 29 53 30 67 31 86 32 51 33 52 34
REMARK SMILES IDX 66 36 87 37 54 38 38 39 39 40 47 41 40 42 41 43 45 44 48 45
REMARK SMILES IDX 42 46 43 47 46 48 44 49 70 50 71 51 79 52 72 53 73 54 77 55
REMARK SMILES IDX 80 56 74 57 75 58 78 59 76 60 55 61 56 62 64 63 57 64 58 65
REMARK SMILES IDX 62 66 65 67 59 68 60 69 63 70 61 71 6 72 7 73 8 74 9 75
REMARK SMILES IDX 10 77 11 78 12 79 16 80 13 81 15 82 14 83 17 84 18 85 19 86
REMARK SMILES IDX 20 88 21 89 28 90 22 91 23 92 27 93 24 95 26 96 25 97
REMARK H PARENT 3 6 85 24 53 35 8 76 19 87 22 94
REMARK Flexibility Score: inf
ROOT
ATOM      1  C   UNL A   1      36.683  22.613  23.704  1.00  0.00     0.023 C 
ENDROOT
BRANCH   1   2
ATOM      2  C   UNL A   1      37.345  22.434  25.064  1.00  0.00     0.116 C 
BRANCH   2   3
ATOM      3  N   UNL A   1      38.287  21.333  25.221  1.00  0.00    -0.352 N 
ATOM      4  O   UNL A   1      40.026  20.300  26.278  1.00  0.00    -0.269 OA
ATOM      5  C   UNL A   1      39.339  21.300  26.117  1.00  0.00     0.251 C 
ATOM      6  H   UNL A   1      38.164  20.548  24.641  1.00  0.00     0.163 HD
BRANCH   5   7
ATOM      7  C   UNL A   1      39.672  22.574  26.785  1.00  0.00     0.039 A 
ATOM      8  C   UNL A   1      39.165  23.768  26.277  1.00  0.00     0.014 A 
ATOM      9  C   UNL A   1      40.723  22.571  27.704  1.00  0.00     0.014 A 
ATOM     10  C   UNL A   1      39.871  24.941  26.503  1.00  0.00     0.010 A 
ATOM     11  C   UNL A   1      41.331  23.778  28.050  1.00  0.00     0.010 A 
ATOM     12  C   UNL A   1      40.945  24.967  27.411  1.00  0.00    -0.014 A 
BRANCH  12  13
ATOM     13  C   UNL A   1      41.587  26.265  27.739  1.00  0.00     0.031 A 
ATOM     14  C   UNL A   1      40.874  27.336  28.519  1.00  0.00     0.074 A 
ATOM     15  C   UNL A   1      42.847  26.463  27.307  1.00  0.00     0.049 A 
ATOM     16  N   UNL A   1      41.290  28.537  28.839  1.00  0.00    -0.248 NA
ATOM     17  C   UNL A   1      39.515  27.032  28.991  1.00  0.00     0.031 C 
ATOM     18  C   UNL A   1      43.631  25.495  26.535  1.00  0.00     0.029 A 
ATOM     19  N   UNL A   1      43.695  27.526  27.461  1.00  0.00    -0.354 N 
ATOM     20  C   UNL A   1      40.241  29.141  29.520  1.00  0.00     0.074 A 
ATOM     21  C   UNL A   1      39.155  28.182  29.544  1.00  0.00     0.031 C 
ATOM     22  C   UNL A   1      44.863  25.978  26.339  1.00  0.00     0.029 A 
ATOM     23  C   UNL A   1      44.920  27.331  26.873  1.00  0.00     0.049 A 
ATOM     24  H   UNL A   1      43.451  28.349  27.943  1.00  0.00     0.167 HD
ATOM     25  C   UNL A   1      40.196  30.379  30.073  1.00  0.00     0.037 A 
ATOM     26  C   UNL A   1      45.967  28.161  26.739  1.00  0.00     0.037 A 
ATOM     27  C   UNL A   1      41.290  31.319  30.036  1.00  0.00     0.049 A 
ATOM     28  C   UNL A   1      45.863  29.543  27.307  1.00  0.00     0.074 A 
ATOM     29  C   UNL A   1      41.363  32.584  30.593  1.00  0.00     0.029 A 
ATOM     30  N   UNL A   1      42.504  31.101  29.393  1.00  0.00    -0.354 N 
ATOM     31  N   UNL A   1      44.879  30.091  27.978  1.00  0.00    -0.248 NA
ATOM     32  C   UNL A   1      47.016  30.424  27.097  1.00  0.00     0.031 C 
ATOM     33  C   UNL A   1      42.582  33.161  30.220  1.00  0.00     0.029 A 
ATOM     34  C   UNL A   1      43.311  32.223  29.507  1.00  0.00     0.049 A 
ATOM     35  H   UNL A   1      42.752  30.272  28.925  1.00  0.00     0.167 HD
ATOM     36  C   UNL A   1      45.305  31.370  28.299  1.00  0.00     0.074 A 
ATOM     37  C   UNL A   1      46.647  31.505  27.768  1.00  0.00     0.031 C 
ATOM     38  C   UNL A   1      44.647  32.343  28.975  1.00  0.00     0.037 A 
BRANCH  25  39
ATOM     39  C   UNL A   1      38.911  30.811  30.732  1.00  0.00     0.064 A 
ATOM     40  C   UNL A   1      38.696  30.674  32.112  1.00  0.00     0.173 A 
ATOM     41  C   UNL A   1      37.890  31.409  29.973  1.00  0.00     0.173 A 
ATOM     42  F   UNL A   1      39.633  30.110  32.889  1.00  0.00    -0.203 F 
ATOM     43  C   UNL A   1      37.497  31.078  32.698  1.00  0.00     0.198 A 
ATOM     44  C   UNL A   1      36.710  31.848  30.569  1.00  0.00     0.198 A 
ATOM     45  F   UNL A   1      38.041  31.581  28.651  1.00  0.00    -0.203 F 
ATOM     46  F   UNL A   1      37.293  30.878  34.008  1.00  0.00    -0.200 F 
ATOM     47  C   UNL A   1      36.508  31.671  31.928  1.00  0.00     0.200 A 
ATOM     48  F   UNL A   1      35.765  32.440  29.825  1.00  0.00    -0.200 F 
ATOM     49  F   UNL A   1      35.359  32.062  32.494  1.00  0.00    -0.200 F 
ENDBRANCH  25  39
BRANCH  26  50
ATOM     50  C   UNL A   1      47.189  27.702  26.027  1.00  0.00     0.064 A 
ATOM     51  C   UNL A   1      47.269  27.763  24.631  1.00  0.00     0.173 A 
ATOM     52  C   UNL A   1      48.300  27.206  26.725  1.00  0.00     0.173 A 
ATOM     53  F   UNL A   1      46.229  28.222  23.919  1.00  0.00    -0.203 F 
ATOM     54  C   UNL A   1      48.403  27.314  23.957  1.00  0.00     0.198 A 
ATOM     55  C   UNL A   1      49.449  26.798  26.054  1.00  0.00     0.198 A 
ATOM     56  F   UNL A   1      48.282  27.143  28.065  1.00  0.00    -0.203 F 
ATOM     57  F   UNL A   1      48.430  27.329  22.618  1.00  0.00    -0.200 F 
ATOM     58  C   UNL A   1      49.494  26.839  24.668  1.00  0.00     0.200 A 
ATOM     59  F   UNL A   1      50.511  26.367  26.747  1.00  0.00    -0.200 F 
ATOM     60  F   UNL A   1      50.587  26.415  24.020  1.00  0.00    -0.200 F 
ENDBRANCH  26  50
BRANCH  38  61
ATOM     61  C   UNL A   1      45.396  33.623  29.226  1.00  0.00     0.064 A 
ATOM     62  C   UNL A   1      45.331  34.711  28.342  1.00  0.00     0.173 A 
ATOM     63  C   UNL A   1      46.189  33.761  30.376  1.00  0.00     0.173 A 
ATOM     64  F   UNL A   1      44.602  34.627  27.219  1.00  0.00    -0.203 F 
ATOM     65  C   UNL A   1      46.065  35.871  28.578  1.00  0.00     0.198 A 
ATOM     66  C   UNL A   1      46.886  34.938  30.631  1.00  0.00     0.198 A 
ATOM     67  F   UNL A   1      46.285  32.754  31.257  1.00  0.00    -0.203 F 
ATOM     68  F   UNL A   1      46.046  36.867  27.682  1.00  0.00    -0.200 F 
ATOM     69  C   UNL A   1      46.835  35.986  29.726  1.00  0.00     0.200 A 
ATOM     70  F   UNL A   1      47.613  35.054  31.750  1.00  0.00    -0.200 F 
ATOM     71  F   UNL A   1      47.537  37.104  29.953  1.00  0.00    -0.200 F 
ENDBRANCH  38  61
ENDBRANCH  12  13
ENDBRANCH   5   7
ENDBRANCH   2   3
ENDBRANCH   1   2
BRANCH   1  72
ATOM     72  C   UNL A   1      35.139  23.344  23.526  1.00  0.00     0.023 C 
BRANCH  72  73
ATOM     73  C   UNL A   1      33.402  22.970  22.226  1.00  0.00     0.116 C 
BRANCH  73  74
ATOM     74  N   UNL A   1      31.893  23.524  22.243  1.00  0.00    -0.351 N 
ATOM     75  C   UNL A   1      31.249  24.305  23.185  1.00  0.00     0.272 C 
ATOM     76  H   UNL A   1      31.345  23.270  21.466  1.00  0.00     0.163 HD
ATOM     77  O   UNL A   1      30.045  24.520  23.134  1.00  0.00    -0.267 OA
BRANCH  75  78
ATOM     78  C   UNL A   1      32.083  24.891  24.249  1.00  0.00     0.159 A 
ATOM     79  N   UNL A   1      32.854  25.939  23.806  1.00  0.00    -0.247 NA
ATOM     80  C   UNL A   1      32.194  24.356  25.526  1.00  0.00     0.159 A 
ATOM     81  C   UNL A   1      33.721  26.452  24.696  1.00  0.00     0.132 A 
ATOM     82  N   UNL A   1      33.101  24.889  26.409  1.00  0.00    -0.247 NA
ATOM     83  C   UNL A   1      33.840  25.939  25.972  1.00  0.00     0.132 A 
BRANCH  80  84
ATOM     84  C   UNL A   1      31.363  23.256  26.104  1.00  0.00     0.277 C 
ATOM     85  O   UNL A   1      30.325  23.576  26.693  1.00  0.00    -0.267 OA
ATOM     86  N   UNL A   1      31.650  21.913  26.000  1.00  0.00    -0.303 N 
ATOM     87  H   UNL A   1      30.932  21.314  26.306  1.00  0.00     0.172 HD
BRANCH  86  88
ATOM     88  C   UNL A   1      32.771  21.276  25.541  1.00  0.00     0.164 A 
ATOM     89  N   UNL A   1      33.929  21.497  26.189  1.00  0.00    -0.155 NA
ATOM     90  C   UNL A   1      32.867  20.297  24.529  1.00  0.00     0.063 A 
ATOM     91  N   UNL A   1      34.770  20.444  25.978  1.00  0.00    -0.259 N 
ATOM     92  C   UNL A   1      34.361  19.567  25.013  1.00  0.00     0.157 A 
ATOM     93  C   UNL A   1      31.943  19.531  23.200  1.00  0.00     0.017 A 
ATOM     94  H   UNL A   1      35.608  20.325  26.483  1.00  0.00     0.192 HD
ATOM     95  N   UNL A   1      34.946  18.055  24.391  1.00  0.00    -0.237 NA
ATOM     96  C   UNL A   1      32.493  18.002  22.466  1.00  0.00     0.021 A 
ATOM     97  C   UNL A   1      33.998  17.324  23.061  1.00  0.00     0.113 A 
ENDBRANCH  86  88
ENDBRANCH  80  84
ENDBRANCH  75  78
ENDBRANCH  73  74
ENDBRANCH  72  73
ENDBRANCH   1  72
TORSDOF 13
ENDMDL
