MODEL 1
REMARK VINA RESULT:     -13.9      0.000      0.000
REMARK SMILES Cc1ccc(Oc2cc(C(=O)NCCCCNC(=O)c3ccc(-c4c5nc(c(-c6c(F)c(F)c(F)c(F)c6F)c6ccc([nH]6)c(-c6c(F)c(F)c(F)c(F)c6F)c6nc(c(-c7c(F)c(F)c(F)c(F)c7F)c7ccc4[nH]7)C=C6)C=C5)cc3)nc3ccccc23)cc1
REMARK SMILES IDX 14 1 13 2 12 3 10 4 11 5 9 7 7 8 8 9 89 10 84 11 88 12 83 13
REMARK SMILES IDX 85 14 87 15 86 16 6 17 5 18 1 19 2 20 3 21 91 22 4 23 90 24
REMARK SMILES IDX 15 25 16 26 17 27 18 28 19 30 20 31 21 32 82 33 22 34 81 35
REMARK SMILES IDX 23 36 24 37 25 38 75 39 26 40 80 41 74 42 76 43 27 44 79 45
REMARK SMILES IDX 73 46 72 47 28 49 60 50 40 51 59 52 41 53 44 54 58 55 77 56
REMARK SMILES IDX 42 57 43 58 57 60 78 61 45 62 29 63 30 64 38 65 31 66 32 67
REMARK SMILES IDX 36 68 39 69 33 70 34 71 37 72 35 73 61 74 62 75 70 76 63 77
REMARK SMILES IDX 64 78 68 79 71 80 65 81 66 82 69 83 67 84 46 85 47 86 55 87
REMARK SMILES IDX 48 88 49 89 53 90 56 91 50 92 51 93 54 94 52 95
REMARK H PARENT 12 6 17 29 76 48 44 59
REMARK Flexibility Score: inf
ROOT
ATOM      1  C   UNL A   1      32.205  29.951  25.306  1.00  0.00     0.023 C 
ENDROOT
BRANCH   1   2
ATOM      2  C   UNL A   1      33.554  29.261  25.057  1.00  0.00     0.116 C 
BRANCH   2   3
ATOM      3  N   UNL A   1      33.768  28.927  23.658  1.00  0.00    -0.351 N 
ATOM      4  C   UNL A   1      33.652  27.731  22.982  1.00  0.00     0.270 C 
ATOM      5  O   UNL A   1      33.878  27.744  21.770  1.00  0.00    -0.268 OA
ATOM      6  H   UNL A   1      34.043  29.687  23.096  1.00  0.00     0.163 HD
BRANCH   4   7
ATOM      7  C   UNL A   1      33.258  26.444  23.647  1.00  0.00     0.132 A 
ATOM      8  C   UNL A   1      33.595  24.112  23.983  1.00  0.00     0.139 A 
ATOM      9  C   UNL A   1      33.997  25.303  23.385  1.00  0.00     0.082 A 
ATOM     10  C   UNL A   1      32.501  24.085  24.877  1.00  0.00     0.043 A 
ATOM     11  C   UNL A   1      31.809  25.298  25.051  1.00  0.00     0.075 A 
ATOM     12  C   UNL A   1      32.055  22.937  25.577  1.00  0.00     0.014 A 
ATOM     13  N   UNL A   1      32.180  26.445  24.465  1.00  0.00    -0.242 NA
ATOM     14  C   UNL A   1      30.676  25.317  25.852  1.00  0.00     0.029 A 
ATOM     15  C   UNL A   1      30.911  22.979  26.371  1.00  0.00     0.001 A 
ATOM     16  C   UNL A   1      30.212  24.171  26.501  1.00  0.00     0.002 A 
BRANCH   8  17
ATOM     17  O   UNL A   1      34.356  23.003  23.684  1.00  0.00    -0.457 OA
BRANCH  17  18
ATOM     18  C   UNL A   1      35.528  22.789  24.384  1.00  0.00     0.127 A 
ATOM     19  C   UNL A   1      39.322  21.835  26.194  1.00  0.00     0.044 C 
ATOM     20  C   UNL A   1      37.990  22.166  25.588  1.00  0.00    -0.051 A 
ATOM     21  C   UNL A   1      37.289  21.195  24.863  1.00  0.00     0.007 A 
ATOM     22  C   UNL A   1      37.422  23.434  25.749  1.00  0.00     0.007 A 
ATOM     23  C   UNL A   1      36.068  21.507  24.263  1.00  0.00     0.047 A 
ATOM     24  C   UNL A   1      36.190  23.741  25.163  1.00  0.00     0.047 A 
ENDBRANCH  17  18
ENDBRANCH   8  17
ENDBRANCH   4   7
ENDBRANCH   2   3
ENDBRANCH   1   2
BRANCH   1  25
ATOM     25  C   UNL A   1      32.163  30.846  26.553  1.00  0.00     0.023 C 
BRANCH  25  26
ATOM     26  C   UNL A   1      33.186  30.485  27.626  1.00  0.00     0.116 C 
BRANCH  26  27
ATOM     27  N   UNL A   1      33.974  31.598  28.139  1.00  0.00    -0.352 N 
ATOM     28  C   UNL A   1      35.229  31.599  28.735  1.00  0.00     0.251 C 
ATOM     29  H   UNL A   1      33.554  32.483  28.049  1.00  0.00     0.163 HD
ATOM     30  O   UNL A   1      35.675  32.629  29.209  1.00  0.00    -0.269 OA
BRANCH  28  31
ATOM     31  C   UNL A   1      36.091  30.386  28.665  1.00  0.00     0.039 A 
ATOM     32  C   UNL A   1      36.361  29.704  29.860  1.00  0.00     0.014 A 
ATOM     33  C   UNL A   1      36.788  30.052  27.510  1.00  0.00     0.014 A 
ATOM     34  C   UNL A   1      37.504  28.912  29.957  1.00  0.00     0.010 A 
ATOM     35  C   UNL A   1      37.979  29.365  27.630  1.00  0.00     0.010 A 
ATOM     36  C   UNL A   1      38.378  28.868  28.875  1.00  0.00    -0.014 A 
BRANCH  36  37
ATOM     37  C   UNL A   1      39.780  28.471  28.975  1.00  0.00     0.031 A 
ATOM     38  C   UNL A   1      40.208  27.100  28.630  1.00  0.00     0.074 A 
ATOM     39  C   UNL A   1      40.705  29.431  29.201  1.00  0.00     0.049 A 
ATOM     40  N   UNL A   1      41.376  26.611  28.877  1.00  0.00    -0.248 NA
ATOM     41  C   UNL A   1      39.308  26.143  28.005  1.00  0.00     0.031 C 
ATOM     42  C   UNL A   1      42.145  29.352  28.970  1.00  0.00     0.029 A 
ATOM     43  N   UNL A   1      40.531  30.641  29.895  1.00  0.00    -0.354 N 
ATOM     44  C   UNL A   1      41.484  25.409  28.213  1.00  0.00     0.074 A 
ATOM     45  C   UNL A   1      40.142  25.129  27.761  1.00  0.00     0.031 C 
ATOM     46  C   UNL A   1      42.755  30.258  29.750  1.00  0.00     0.029 A 
ATOM     47  C   UNL A   1      41.739  30.827  30.615  1.00  0.00     0.049 A 
ATOM     48  H   UNL A   1      39.743  31.231  29.884  1.00  0.00     0.167 HD
ATOM     49  C   UNL A   1      42.728  24.871  28.030  1.00  0.00     0.037 A 
ATOM     50  C   UNL A   1      41.746  30.760  31.980  1.00  0.00     0.037 A 
ATOM     51  C   UNL A   1      43.734  25.593  28.817  1.00  0.00     0.049 A 
ATOM     52  C   UNL A   1      42.585  29.640  32.560  1.00  0.00     0.074 A 
ATOM     53  C   UNL A   1      44.702  26.544  28.536  1.00  0.00     0.029 A 
ATOM     54  N   UNL A   1      43.633  25.556  30.198  1.00  0.00    -0.354 N 
ATOM     55  N   UNL A   1      43.200  28.733  31.852  1.00  0.00    -0.248 NA
ATOM     56  C   UNL A   1      42.711  29.400  33.999  1.00  0.00     0.031 C 
ATOM     57  C   UNL A   1      45.145  27.107  29.770  1.00  0.00     0.029 A 
ATOM     58  C   UNL A   1      44.452  26.493  30.797  1.00  0.00     0.049 A 
ATOM     59  H   UNL A   1      43.048  24.937  30.693  1.00  0.00     0.167 HD
ATOM     60  C   UNL A   1      43.736  27.792  32.688  1.00  0.00     0.074 A 
ATOM     61  C   UNL A   1      43.410  28.253  34.025  1.00  0.00     0.031 C 
ATOM     62  C   UNL A   1      44.374  26.677  32.236  1.00  0.00     0.037 A 
BRANCH  49  63
ATOM     63  C   UNL A   1      43.090  23.834  26.976  1.00  0.00     0.064 A 
ATOM     64  C   UNL A   1      42.748  22.475  27.165  1.00  0.00     0.173 A 
ATOM     65  C   UNL A   1      43.832  24.077  25.804  1.00  0.00     0.173 A 
ATOM     66  F   UNL A   1      41.956  22.083  28.171  1.00  0.00    -0.203 F 
ATOM     67  C   UNL A   1      43.205  21.453  26.324  1.00  0.00     0.198 A 
ATOM     68  C   UNL A   1      44.326  23.054  24.987  1.00  0.00     0.198 A 
ATOM     69  F   UNL A   1      44.061  25.311  25.353  1.00  0.00    -0.203 F 
ATOM     70  F   UNL A   1      42.855  20.182  26.570  1.00  0.00    -0.200 F 
ATOM     71  C   UNL A   1      44.024  21.739  25.253  1.00  0.00     0.200 A 
ATOM     72  F   UNL A   1      45.093  23.365  23.930  1.00  0.00    -0.200 F 
ATOM     73  F   UNL A   1      44.493  20.761  24.468  1.00  0.00    -0.200 F 
ENDBRANCH  49  63
BRANCH  50  74
ATOM     74  C   UNL A   1      40.491  31.280  32.582  1.00  0.00     0.064 A 
ATOM     75  C   UNL A   1      40.271  32.671  32.577  1.00  0.00     0.173 A 
ATOM     76  C   UNL A   1      39.385  30.449  32.795  1.00  0.00     0.173 A 
ATOM     77  F   UNL A   1      41.299  33.511  32.377  1.00  0.00    -0.203 F 
ATOM     78  C   UNL A   1      38.986  33.200  32.656  1.00  0.00     0.198 A 
ATOM     79  C   UNL A   1      38.099  30.985  32.893  1.00  0.00     0.198 A 
ATOM     80  F   UNL A   1      39.525  29.116  32.786  1.00  0.00    -0.203 F 
ATOM     81  F   UNL A   1      38.798  34.522  32.530  1.00  0.00    -0.200 F 
ATOM     82  C   UNL A   1      37.898  32.354  32.786  1.00  0.00     0.200 A 
ATOM     83  F   UNL A   1      37.044  30.163  32.989  1.00  0.00    -0.200 F 
ATOM     84  F   UNL A   1      36.653  32.850  32.765  1.00  0.00    -0.200 F 
ENDBRANCH  50  74
BRANCH  62  85
ATOM     85  C   UNL A   1      44.982  25.667  33.157  1.00  0.00     0.064 A 
ATOM     86  C   UNL A   1      46.366  25.441  33.198  1.00  0.00     0.173 A 
ATOM     87  C   UNL A   1      44.180  24.814  33.941  1.00  0.00     0.173 A 
ATOM     88  F   UNL A   1      47.202  26.181  32.454  1.00  0.00    -0.203 F 
ATOM     89  C   UNL A   1      46.917  24.438  33.997  1.00  0.00     0.198 A 
ATOM     90  C   UNL A   1      44.729  23.783  34.700  1.00  0.00     0.198 A 
ATOM     91  F   UNL A   1      42.851  24.977  34.005  1.00  0.00    -0.203 F 
ATOM     92  F   UNL A   1      48.248  24.282  34.046  1.00  0.00    -0.200 F 
ATOM     93  C   UNL A   1      46.098  23.600  34.735  1.00  0.00     0.200 A 
ATOM     94  F   UNL A   1      43.924  22.970  35.399  1.00  0.00    -0.200 F 
ATOM     95  F   UNL A   1      46.628  22.624  35.484  1.00  0.00    -0.200 F 
ENDBRANCH  62  85
ENDBRANCH  36  37
ENDBRANCH  28  31
ENDBRANCH  26  27
ENDBRANCH  25  26
ENDBRANCH   1  25
TORSDOF 13
ENDMDL
MODEL 2
REMARK VINA RESULT:     -13.8      1.689      2.612
REMARK SMILES Cc1ccc(Oc2cc(C(=O)NCCCCNC(=O)c3ccc(-c4c5nc(c(-c6c(F)c(F)c(F)c(F)c6F)c6ccc([nH]6)c(-c6c(F)c(F)c(F)c(F)c6F)c6nc(c(-c7c(F)c(F)c(F)c(F)c7F)c7ccc4[nH]7)C=C6)C=C5)cc3)nc3ccccc23)cc1
REMARK SMILES IDX 14 1 13 2 12 3 10 4 11 5 9 7 7 8 8 9 89 10 84 11 88 12 83 13
REMARK SMILES IDX 85 14 87 15 86 16 6 17 5 18 1 19 2 20 3 21 91 22 4 23 90 24
REMARK SMILES IDX 15 25 16 26 17 27 18 28 19 30 20 31 21 32 82 33 22 34 81 35
REMARK SMILES IDX 23 36 24 37 25 38 75 39 26 40 80 41 74 42 76 43 27 44 79 45
REMARK SMILES IDX 73 46 72 47 28 49 60 50 40 51 59 52 41 53 44 54 58 55 77 56
REMARK SMILES IDX 42 57 43 58 57 60 78 61 45 62 29 63 30 64 38 65 31 66 32 67
REMARK SMILES IDX 36 68 39 69 33 70 34 71 37 72 35 73 61 74 62 75 70 76 63 77
REMARK SMILES IDX 64 78 68 79 71 80 65 81 66 82 69 83 67 84 46 85 47 86 55 87
REMARK SMILES IDX 48 88 49 89 53 90 56 91 50 92 51 93 54 94 52 95
REMARK H PARENT 12 6 17 29 76 48 44 59
REMARK Flexibility Score: inf
ROOT
ATOM      1  C   UNL A   1      32.054  28.535  26.957  1.00  0.00     0.023 C 
ENDROOT
BRANCH   1   2
ATOM      2  C   UNL A   1      32.366  27.153  26.363  1.00  0.00     0.116 C 
BRANCH   2   3
ATOM      3  N   UNL A   1      31.426  26.129  26.790  1.00  0.00    -0.351 N 
ATOM      4  C   UNL A   1      31.440  24.760  26.630  1.00  0.00     0.270 C 
ATOM      5  O   UNL A   1      30.505  24.124  27.123  1.00  0.00    -0.268 OA
ATOM      6  H   UNL A   1      30.644  26.474  27.279  1.00  0.00     0.163 HD
BRANCH   4   7
ATOM      7  C   UNL A   1      32.531  24.027  25.905  1.00  0.00     0.132 A 
ATOM      8  C   UNL A   1      33.213  22.313  24.402  1.00  0.00     0.139 A 
ATOM      9  C   UNL A   1      32.186  23.004  25.037  1.00  0.00     0.082 A 
ATOM     10  C   UNL A   1      34.563  22.686  24.593  1.00  0.00     0.043 A 
ATOM     11  C   UNL A   1      34.798  23.724  25.514  1.00  0.00     0.075 A 
ATOM     12  C   UNL A   1      35.670  22.083  23.946  1.00  0.00     0.014 A 
ATOM     13  N   UNL A   1      33.814  24.382  26.143  1.00  0.00    -0.242 NA
ATOM     14  C   UNL A   1      36.107  24.080  25.806  1.00  0.00     0.029 A 
ATOM     15  C   UNL A   1      36.975  22.453  24.261  1.00  0.00     0.001 A 
ATOM     16  C   UNL A   1      37.195  23.448  25.203  1.00  0.00     0.002 A 
BRANCH   8  17
ATOM     17  O   UNL A   1      32.821  21.298  23.556  1.00  0.00    -0.457 OA
BRANCH  17  18
ATOM     18  C   UNL A   1      32.740  20.011  24.051  1.00  0.00     0.127 A 
ATOM     19  C   UNL A   1      32.721  15.852  25.186  1.00  0.00     0.044 C 
ATOM     20  C   UNL A   1      32.703  17.302  24.800  1.00  0.00    -0.051 A 
ATOM     21  C   UNL A   1      32.526  17.669  23.462  1.00  0.00     0.007 A 
ATOM     22  C   UNL A   1      32.844  18.304  25.766  1.00  0.00     0.007 A 
ATOM     23  C   UNL A   1      32.547  19.015  23.090  1.00  0.00     0.047 A 
ATOM     24  C   UNL A   1      32.848  19.652  25.396  1.00  0.00     0.047 A 
ENDBRANCH  17  18
ENDBRANCH   8  17
ENDBRANCH   4   7
ENDBRANCH   2   3
ENDBRANCH   1   2
BRANCH   1  25
ATOM     25  C   UNL A   1      33.220  29.184  27.716  1.00  0.00     0.023 C 
BRANCH  25  26
ATOM     26  C   UNL A   1      33.744  30.473  27.090  1.00  0.00     0.116 C 
BRANCH  26  27
ATOM     27  N   UNL A   1      34.365  31.412  28.014  1.00  0.00    -0.352 N 
ATOM     28  C   UNL A   1      35.439  31.234  28.876  1.00  0.00     0.251 C 
ATOM     29  H   UNL A   1      33.961  32.309  28.030  1.00  0.00     0.163 HD
ATOM     30  O   UNL A   1      35.739  32.114  29.663  1.00  0.00    -0.269 OA
BRANCH  28  31
ATOM     31  C   UNL A   1      36.317  30.037  28.739  1.00  0.00     0.039 A 
ATOM     32  C   UNL A   1      36.576  29.280  29.891  1.00  0.00     0.014 A 
ATOM     33  C   UNL A   1      37.035  29.788  27.577  1.00  0.00     0.014 A 
ATOM     34  C   UNL A   1      37.726  28.495  29.954  1.00  0.00     0.010 A 
ATOM     35  C   UNL A   1      38.232  29.107  27.670  1.00  0.00     0.010 A 
ATOM     36  C   UNL A   1      38.618  28.531  28.886  1.00  0.00    -0.014 A 
BRANCH  36  37
ATOM     37  C   UNL A   1      40.022  28.144  28.982  1.00  0.00     0.031 A 
ATOM     38  C   UNL A   1      40.467  26.797  28.571  1.00  0.00     0.074 A 
ATOM     39  C   UNL A   1      40.934  29.099  29.270  1.00  0.00     0.049 A 
ATOM     40  N   UNL A   1      41.637  26.307  28.806  1.00  0.00    -0.248 NA
ATOM     41  C   UNL A   1      39.585  25.866  27.885  1.00  0.00     0.031 C 
ATOM     42  C   UNL A   1      42.377  29.047  29.053  1.00  0.00     0.029 A 
ATOM     43  N   UNL A   1      40.740  30.269  30.023  1.00  0.00    -0.354 N 
ATOM     44  C   UNL A   1      41.766  25.143  28.081  1.00  0.00     0.074 A 
ATOM     45  C   UNL A   1      40.432  24.874  27.599  1.00  0.00     0.031 C 
ATOM     46  C   UNL A   1      42.969  29.916  29.887  1.00  0.00     0.029 A 
ATOM     47  C   UNL A   1      41.937  30.429  30.768  1.00  0.00     0.049 A 
ATOM     48  H   UNL A   1      39.946  30.851  30.034  1.00  0.00     0.167 HD
ATOM     49  C   UNL A   1      43.017  24.627  27.885  1.00  0.00     0.037 A 
ATOM     50  C   UNL A   1      41.929  30.290  32.127  1.00  0.00     0.037 A 
ATOM     51  C   UNL A   1      44.007  25.316  28.722  1.00  0.00     0.049 A 
ATOM     52  C   UNL A   1      42.772  29.149  32.657  1.00  0.00     0.074 A 
ATOM     53  C   UNL A   1      44.968  26.289  28.503  1.00  0.00     0.029 A 
ATOM     54  N   UNL A   1      43.889  25.205  30.097  1.00  0.00    -0.354 N 
ATOM     55  N   UNL A   1      43.405  28.286  31.910  1.00  0.00    -0.248 NA
ATOM     56  C   UNL A   1      42.884  28.835  34.083  1.00  0.00     0.031 C 
ATOM     57  C   UNL A   1      45.391  26.791  29.770  1.00  0.00     0.029 A 
ATOM     58  C   UNL A   1      44.692  26.118  30.755  1.00  0.00     0.049 A 
ATOM     59  H   UNL A   1      43.305  24.556  30.552  1.00  0.00     0.167 HD
ATOM     60  C   UNL A   1      43.940  27.309  32.703  1.00  0.00     0.074 A 
ATOM     61  C   UNL A   1      43.594  27.695  34.057  1.00  0.00     0.031 C 
ATOM     62  C   UNL A   1      44.596  26.225  32.201  1.00  0.00     0.037 A 
BRANCH  49  63
ATOM     63  C   UNL A   1      43.402  23.651  26.783  1.00  0.00     0.064 A 
ATOM     64  C   UNL A   1      43.002  22.296  26.858  1.00  0.00     0.173 A 
ATOM     65  C   UNL A   1      44.219  23.943  25.674  1.00  0.00     0.173 A 
ATOM     66  F   UNL A   1      42.141  21.869  27.789  1.00  0.00    -0.203 F 
ATOM     67  C   UNL A   1      43.471  21.316  25.974  1.00  0.00     0.198 A 
ATOM     68  C   UNL A   1      44.722  22.960  24.815  1.00  0.00     0.198 A 
ATOM     69  F   UNL A   1      44.516  25.195  25.322  1.00  0.00    -0.203 F 
ATOM     70  F   UNL A   1      43.062  20.047  26.111  1.00  0.00    -0.200 F 
ATOM     71  C   UNL A   1      44.359  21.642  24.972  1.00  0.00     0.200 A 
ATOM     72  F   UNL A   1      45.558  23.310  23.826  1.00  0.00    -0.200 F 
ATOM     73  F   UNL A   1      44.837  20.702  24.147  1.00  0.00    -0.200 F 
ENDBRANCH  49  63
BRANCH  50  74
ATOM     74  C   UNL A   1      40.661  30.765  32.740  1.00  0.00     0.064 A 
ATOM     75  C   UNL A   1      40.417  32.152  32.785  1.00  0.00     0.173 A 
ATOM     76  C   UNL A   1      39.569  29.908  32.915  1.00  0.00     0.173 A 
ATOM     77  F   UNL A   1      41.432  33.016  32.622  1.00  0.00    -0.203 F 
ATOM     78  C   UNL A   1      39.123  32.655  32.876  1.00  0.00     0.198 A 
ATOM     79  C   UNL A   1      38.274  30.418  33.025  1.00  0.00     0.198 A 
ATOM     80  F   UNL A   1      39.732  28.579  32.858  1.00  0.00    -0.203 F 
ATOM     81  F   UNL A   1      38.913  33.978  32.798  1.00  0.00    -0.200 F 
ATOM     82  C   UNL A   1      38.049  31.786  32.967  1.00  0.00     0.200 A 
ATOM     83  F   UNL A   1      37.233  29.575  33.083  1.00  0.00    -0.200 F 
ATOM     84  F   UNL A   1      36.796  32.262  32.957  1.00  0.00    -0.200 F 
ENDBRANCH  50  74
BRANCH  62  85
ATOM     85  C   UNL A   1      45.203  25.173  33.074  1.00  0.00     0.064 A 
ATOM     86  C   UNL A   1      46.577  25.149  33.358  1.00  0.00     0.173 A 
ATOM     87  C   UNL A   1      44.440  24.091  33.557  1.00  0.00     0.173 A 
ATOM     88  F   UNL A   1      47.385  26.120  32.906  1.00  0.00    -0.203 F 
ATOM     89  C   UNL A   1      47.148  24.117  34.104  1.00  0.00     0.198 A 
ATOM     90  C   UNL A   1      45.022  23.038  34.259  1.00  0.00     0.198 A 
ATOM     91  F   UNL A   1      43.112  24.044  33.378  1.00  0.00    -0.203 F 
ATOM     92  F   UNL A   1      48.457  24.152  34.394  1.00  0.00    -0.200 F 
ATOM     93  C   UNL A   1      46.374  23.055  34.541  1.00  0.00     0.200 A 
ATOM     94  F   UNL A   1      44.263  22.010  34.665  1.00  0.00    -0.200 F 
ATOM     95  F   UNL A   1      46.930  22.055  35.237  1.00  0.00    -0.200 F 
ENDBRANCH  62  85
ENDBRANCH  36  37
ENDBRANCH  28  31
ENDBRANCH  26  27
ENDBRANCH  25  26
ENDBRANCH   1  25
TORSDOF 13
ENDMDL
MODEL 3
REMARK VINA RESULT:     -13.8      3.372      9.738
REMARK SMILES Cc1ccc(Oc2cc(C(=O)NCCCCNC(=O)c3ccc(-c4c5nc(c(-c6c(F)c(F)c(F)c(F)c6F)c6ccc([nH]6)c(-c6c(F)c(F)c(F)c(F)c6F)c6nc(c(-c7c(F)c(F)c(F)c(F)c7F)c7ccc4[nH]7)C=C6)C=C5)cc3)nc3ccccc23)cc1
REMARK SMILES IDX 14 1 13 2 12 3 10 4 11 5 9 7 7 8 8 9 89 10 84 11 88 12 83 13
REMARK SMILES IDX 85 14 87 15 86 16 6 17 5 18 1 19 2 20 3 21 91 22 4 23 90 24
REMARK SMILES IDX 15 25 16 26 17 27 18 28 19 30 20 31 21 32 82 33 22 34 81 35
REMARK SMILES IDX 23 36 24 37 25 38 75 39 26 40 80 41 74 42 76 43 27 44 79 45
REMARK SMILES IDX 73 46 72 47 28 49 60 50 40 51 59 52 41 53 44 54 58 55 77 56
REMARK SMILES IDX 42 57 43 58 57 60 78 61 45 62 29 63 30 64 38 65 31 66 32 67
REMARK SMILES IDX 36 68 39 69 33 70 34 71 37 72 35 73 61 74 62 75 70 76 63 77
REMARK SMILES IDX 64 78 68 79 71 80 65 81 66 82 69 83 67 84 46 85 47 86 55 87
REMARK SMILES IDX 48 88 49 89 53 90 56 91 50 92 51 93 54 94 52 95
REMARK H PARENT 12 6 17 29 76 48 44 59
REMARK Flexibility Score: inf
ROOT
ATOM      1  C   UNL A   1      37.849  23.163  25.372  1.00  0.00     0.023 C 
ENDROOT
BRANCH   1   2
ATOM      2  C   UNL A   1      36.669  23.424  26.319  1.00  0.00     0.116 C 
BRANCH   2   3
ATOM      3  N   UNL A   1      35.706  22.335  26.335  1.00  0.00    -0.351 N 
ATOM      4  C   UNL A   1      34.402  22.269  25.890  1.00  0.00     0.270 C 
ATOM      5  O   UNL A   1      33.818  21.190  26.013  1.00  0.00    -0.268 OA
ATOM      6  H   UNL A   1      36.043  21.500  26.732  1.00  0.00     0.163 HD
BRANCH   4   7
ATOM      7  C   UNL A   1      33.687  23.430  25.264  1.00  0.00     0.132 A 
ATOM      8  C   UNL A   1      32.407  25.425  25.488  1.00  0.00     0.139 A 
ATOM      9  C   UNL A   1      33.097  24.375  26.087  1.00  0.00     0.082 A 
ATOM     10  C   UNL A   1      32.364  25.552  24.080  1.00  0.00     0.043 A 
ATOM     11  C   UNL A   1      32.978  24.523  23.343  1.00  0.00     0.075 A 
ATOM     12  C   UNL A   1      31.740  26.615  23.382  1.00  0.00     0.014 A 
ATOM     13  N   UNL A   1      33.629  23.500  23.914  1.00  0.00    -0.242 NA
ATOM     14  C   UNL A   1      32.899  24.549  21.958  1.00  0.00     0.029 A 
ATOM     15  C   UNL A   1      31.667  26.616  21.991  1.00  0.00     0.001 A 
ATOM     16  C   UNL A   1      32.239  25.573  21.276  1.00  0.00     0.002 A 
BRANCH   8  17
ATOM     17  O   UNL A   1      31.829  26.333  26.348  1.00  0.00    -0.457 OA
BRANCH  17  18
ATOM     18  C   UNL A   1      32.467  27.537  26.574  1.00  0.00     0.127 A 
ATOM     19  C   UNL A   1      34.126  31.373  27.633  1.00  0.00     0.044 C 
ATOM     20  C   UNL A   1      33.553  30.043  27.239  1.00  0.00    -0.051 A 
ATOM     21  C   UNL A   1      32.168  29.842  27.261  1.00  0.00     0.007 A 
ATOM     22  C   UNL A   1      34.385  28.996  26.829  1.00  0.00     0.007 A 
ATOM     23  C   UNL A   1      31.630  28.596  26.933  1.00  0.00     0.047 A 
ATOM     24  C   UNL A   1      33.845  27.753  26.485  1.00  0.00     0.047 A 
ENDBRANCH  17  18
ENDBRANCH   8  17
ENDBRANCH   4   7
ENDBRANCH   2   3
ENDBRANCH   1   2
BRANCH   1  25
ATOM     25  C   UNL A   1      38.725  21.961  25.755  1.00  0.00     0.023 C 
BRANCH  25  26
ATOM     26  C   UNL A   1      39.727  22.238  26.871  1.00  0.00     0.116 C 
BRANCH  26  27
ATOM     27  N   UNL A   1      41.051  22.660  26.434  1.00  0.00    -0.352 N 
ATOM     28  C   UNL A   1      41.541  23.935  26.183  1.00  0.00     0.251 C 
ATOM     29  H   UNL A   1      41.696  21.930  26.296  1.00  0.00     0.163 HD
ATOM     30  O   UNL A   1      42.654  24.075  25.706  1.00  0.00    -0.269 OA
BRANCH  28  31
ATOM     31  C   UNL A   1      40.775  25.132  26.630  1.00  0.00     0.039 A 
ATOM     32  C   UNL A   1      40.927  26.318  25.898  1.00  0.00     0.014 A 
ATOM     33  C   UNL A   1      40.102  25.157  27.845  1.00  0.00     0.014 A 
ATOM     34  C   UNL A   1      40.666  27.543  26.510  1.00  0.00     0.010 A 
ATOM     35  C   UNL A   1      39.952  26.364  28.497  1.00  0.00     0.010 A 
ATOM     36  C   UNL A   1      40.315  27.554  27.857  1.00  0.00    -0.014 A 
BRANCH  36  37
ATOM     37  C   UNL A   1      40.448  28.721  28.725  1.00  0.00     0.031 A 
ATOM     38  C   UNL A   1      39.374  29.730  28.809  1.00  0.00     0.074 A 
ATOM     39  C   UNL A   1      41.483  28.760  29.594  1.00  0.00     0.049 A 
ATOM     40  N   UNL A   1      39.489  30.878  29.387  1.00  0.00    -0.248 NA
ATOM     41  C   UNL A   1      38.073  29.530  28.190  1.00  0.00     0.031 C 
ATOM     42  C   UNL A   1      41.615  29.597  30.783  1.00  0.00     0.029 A 
ATOM     43  N   UNL A   1      42.747  28.164  29.448  1.00  0.00    -0.354 N 
ATOM     44  C   UNL A   1      38.234  31.441  29.470  1.00  0.00     0.074 A 
ATOM     45  C   UNL A   1      37.410  30.600  28.635  1.00  0.00     0.031 C 
ATOM     46  C   UNL A   1      42.919  29.721  31.079  1.00  0.00     0.029 A 
ATOM     47  C   UNL A   1      43.660  29.102  29.997  1.00  0.00     0.049 A 
ATOM     48  H   UNL A   1      42.956  27.288  29.050  1.00  0.00     0.167 HD
ATOM     49  C   UNL A   1      38.037  32.479  30.339  1.00  0.00     0.037 A 
ATOM     50  C   UNL A   1      44.554  29.748  29.191  1.00  0.00     0.037 A 
ATOM     51  C   UNL A   1      39.314  32.971  30.868  1.00  0.00     0.049 A 
ATOM     52  C   UNL A   1      44.386  31.252  29.128  1.00  0.00     0.074 A 
ATOM     53  C   UNL A   1      40.004  32.821  32.060  1.00  0.00     0.029 A 
ATOM     54  N   UNL A   1      40.214  33.537  29.981  1.00  0.00    -0.354 N 
ATOM     55  N   UNL A   1      43.425  31.915  29.711  1.00  0.00    -0.248 NA
ATOM     56  C   UNL A   1      45.242  32.118  28.314  1.00  0.00     0.031 C 
ATOM     57  C   UNL A   1      41.345  33.265  31.858  1.00  0.00     0.029 A 
ATOM     58  C   UNL A   1      41.465  33.690  30.548  1.00  0.00     0.049 A 
ATOM     59  H   UNL A   1      39.991  33.800  29.059  1.00  0.00     0.167 HD
ATOM     60  C   UNL A   1      43.485  33.227  29.330  1.00  0.00     0.074 A 
ATOM     61  C   UNL A   1      44.641  33.311  28.458  1.00  0.00     0.031 C 
ATOM     62  C   UNL A   1      42.562  34.153  29.715  1.00  0.00     0.037 A 
BRANCH  49  63
ATOM     63  C   UNL A   1      36.689  32.919  30.890  1.00  0.00     0.064 A 
ATOM     64  C   UNL A   1      35.818  33.707  30.102  1.00  0.00     0.173 A 
ATOM     65  C   UNL A   1      36.216  32.680  32.194  1.00  0.00     0.173 A 
ATOM     66  F   UNL A   1      36.063  33.943  28.806  1.00  0.00    -0.203 F 
ATOM     67  C   UNL A   1      34.650  34.289  30.610  1.00  0.00     0.198 A 
ATOM     68  C   UNL A   1      35.073  33.294  32.718  1.00  0.00     0.198 A 
ATOM     69  F   UNL A   1      36.792  31.791  33.006  1.00  0.00    -0.203 F 
ATOM     70  F   UNL A   1      33.877  35.038  29.811  1.00  0.00    -0.200 F 
ATOM     71  C   UNL A   1      34.295  34.111  31.930  1.00  0.00     0.200 A 
ATOM     72  F   UNL A   1      34.732  33.076  33.997  1.00  0.00    -0.200 F 
ATOM     73  F   UNL A   1      33.199  34.695  32.430  1.00  0.00    -0.200 F 
ENDBRANCH  49  63
BRANCH  50  74
ATOM     74  C   UNL A   1      45.024  28.899  28.065  1.00  0.00     0.064 A 
ATOM     75  C   UNL A   1      46.026  27.943  28.320  1.00  0.00     0.173 A 
ATOM     76  C   UNL A   1      44.266  28.749  26.898  1.00  0.00     0.173 A 
ATOM     77  F   UNL A   1      46.780  28.041  29.427  1.00  0.00    -0.203 F 
ATOM     78  C   UNL A   1      46.178  26.821  27.510  1.00  0.00     0.198 A 
ATOM     79  C   UNL A   1      44.435  27.632  26.078  1.00  0.00     0.198 A 
ATOM     80  F   UNL A   1      43.281  29.612  26.612  1.00  0.00    -0.203 F 
ATOM     81  F   UNL A   1      47.061  25.869  27.845  1.00  0.00    -0.200 F 
ATOM     82  C   UNL A   1      45.362  26.652  26.404  1.00  0.00     0.200 A 
ATOM     83  F   UNL A   1      43.624  27.455  25.024  1.00  0.00    -0.200 F 
ATOM     84  F   UNL A   1      45.438  25.530  25.677  1.00  0.00    -0.200 F 
ENDBRANCH  50  74
BRANCH  62  85
ATOM     85  C   UNL A   1      42.649  35.592  29.317  1.00  0.00     0.064 A 
ATOM     86  C   UNL A   1      42.165  36.049  28.082  1.00  0.00     0.173 A 
ATOM     87  C   UNL A   1      43.325  36.535  30.117  1.00  0.00     0.173 A 
ATOM     88  F   UNL A   1      41.540  35.211  27.240  1.00  0.00    -0.203 F 
ATOM     89  C   UNL A   1      42.325  37.377  27.683  1.00  0.00     0.198 A 
ATOM     90  C   UNL A   1      43.526  37.847  29.694  1.00  0.00     0.198 A 
ATOM     91  F   UNL A   1      43.785  36.209  31.333  1.00  0.00    -0.203 F 
ATOM     92  F   UNL A   1      41.808  37.787  26.515  1.00  0.00    -0.200 F 
ATOM     93  C   UNL A   1      43.018  38.270  28.481  1.00  0.00     0.200 A 
ATOM     94  F   UNL A   1      44.210  38.698  30.471  1.00  0.00    -0.200 F 
ATOM     95  F   UNL A   1      43.190  39.539  28.085  1.00  0.00    -0.200 F 
ENDBRANCH  62  85
ENDBRANCH  36  37
ENDBRANCH  28  31
ENDBRANCH  26  27
ENDBRANCH  25  26
ENDBRANCH   1  25
TORSDOF 13
ENDMDL
