MODEL 1
REMARK VINA RESULT:     -10.7      0.000      0.000
REMARK SMILES O=C(NCCCCNC(=O)c1cc(-c2ccccc2)ccc1F)c1ccc(-c2c3nc(c(-c4c(F)c(F)c(F)c(F)c4F)c4ccc([nH]4)c(-c4c(F)c(F)c(F)c(F)c4F)c4nc(c(-c5c(F)c(F)c(F)c(F)c5F)c5ccc2[nH]5)C=C4)C=C3)cc1
REMARK SMILES IDX 5 1 4 2 3 3 1 4 2 5 24 7 25 8 86 9 26 10 85 11 27 12 28 13
REMARK SMILES IDX 29 14 79 15 30 16 84 17 78 18 80 19 31 20 83 21 77 22 76 23
REMARK SMILES IDX 32 25 64 26 44 27 63 28 45 29 48 30 62 31 81 32 46 33 47 34
REMARK SMILES IDX 61 36 82 37 49 38 33 39 34 40 42 41 35 42 36 43 40 44 43 45
REMARK SMILES IDX 37 46 38 47 41 48 39 49 65 50 66 51 74 52 67 53 68 54 72 55
REMARK SMILES IDX 75 56 69 57 70 58 73 59 71 60 50 61 51 62 59 63 52 64 53 65
REMARK SMILES IDX 57 66 60 67 54 68 55 69 58 70 56 71 6 72 7 73 8 74 9 75
REMARK SMILES IDX 10 77 11 78 12 79 22 80 13 81 21 82 23 83 20 84 14 85 15 86
REMARK SMILES IDX 19 87 16 88 18 89 17 90
REMARK H PARENT 3 6 80 24 48 35 8 76
REMARK Flexibility Score: inf
ROOT
ATOM      1  C   UNL A   1      34.385  32.741  29.266  1.00  0.00     0.023 C 
ENDROOT
BRANCH   1   2
ATOM      2  C   UNL A   1      34.171  32.466  27.784  1.00  0.00     0.116 C 
BRANCH   2   3
ATOM      3  N   UNL A   1      33.567  31.168  27.528  1.00  0.00    -0.352 N 
ATOM      4  O   UNL A   1      33.514  28.949  27.113  1.00  0.00    -0.269 OA
ATOM      5  C   UNL A   1      34.157  29.928  27.479  1.00  0.00     0.251 C 
ATOM      6  H   UNL A   1      32.595  31.179  27.367  1.00  0.00     0.163 HD
BRANCH   5   7
ATOM      7  C   UNL A   1      35.582  29.779  27.843  1.00  0.00     0.039 A 
ATOM      8  C   UNL A   1      36.586  30.022  26.904  1.00  0.00     0.014 A 
ATOM      9  C   UNL A   1      35.917  29.390  29.144  1.00  0.00     0.014 A 
ATOM     10  C   UNL A   1      37.909  29.738  27.219  1.00  0.00     0.010 A 
ATOM     11  C   UNL A   1      37.257  29.190  29.486  1.00  0.00     0.010 A 
ATOM     12  C   UNL A   1      38.261  29.335  28.517  1.00  0.00    -0.014 A 
BRANCH  12  13
ATOM     13  C   UNL A   1      39.695  29.152  28.852  1.00  0.00     0.031 A 
ATOM     14  C   UNL A   1      40.442  30.164  29.671  1.00  0.00     0.074 A 
ATOM     15  C   UNL A   1      40.310  28.029  28.433  1.00  0.00     0.049 A 
ATOM     16  N   UNL A   1      41.693  30.143  30.061  1.00  0.00    -0.248 NA
ATOM     17  C   UNL A   1      39.701  31.358  30.108  1.00  0.00     0.031 C 
ATOM     18  C   UNL A   1      39.681  26.981  27.626  1.00  0.00     0.029 A 
ATOM     19  N   UNL A   1      41.583  27.567  28.642  1.00  0.00    -0.354 N 
ATOM     20  C   UNL A   1      41.890  31.318  30.774  1.00  0.00     0.074 A 
ATOM     21  C   UNL A   1      40.639  32.044  30.748  1.00  0.00     0.031 C 
ATOM     22  C   UNL A   1      40.553  25.978  27.450  1.00  0.00     0.029 A 
ATOM     23  C   UNL A   1      41.820  26.339  28.077  1.00  0.00     0.049 A 
ATOM     24  H   UNL A   1      42.263  28.068  29.149  1.00  0.00     0.167 HD
ATOM     25  C   UNL A   1      43.016  31.741  31.397  1.00  0.00     0.037 A 
ATOM     26  C   UNL A   1      42.937  25.589  28.048  1.00  0.00     0.037 A 
ATOM     27  C   UNL A   1      44.251  31.000  31.439  1.00  0.00     0.049 A 
ATOM     28  C   UNL A   1      44.172  26.097  28.730  1.00  0.00     0.074 A 
ATOM     29  C   UNL A   1      45.432  31.333  32.079  1.00  0.00     0.029 A 
ATOM     30  N   UNL A   1      44.463  29.778  30.819  1.00  0.00    -0.354 N 
ATOM     31  N   UNL A   1      44.340  27.202  29.415  1.00  0.00    -0.248 NA
ATOM     32  C   UNL A   1      45.378  25.262  28.628  1.00  0.00     0.031 C 
ATOM     33  C   UNL A   1      46.372  30.334  31.812  1.00  0.00     0.029 A 
ATOM     34  C   UNL A   1      45.764  29.355  31.043  1.00  0.00     0.049 A 
ATOM     35  H   UNL A   1      43.790  29.284  30.298  1.00  0.00     0.167 HD
ATOM     36  C   UNL A   1      45.663  27.194  29.830  1.00  0.00     0.074 A 
ATOM     37  C   UNL A   1      46.249  25.964  29.341  1.00  0.00     0.031 C 
ATOM     38  C   UNL A   1      46.331  28.130  30.545  1.00  0.00     0.037 A 
BRANCH  25  39
ATOM     39  C   UNL A   1      42.986  33.069  32.094  1.00  0.00     0.064 A 
ATOM     40  C   UNL A   1      42.556  33.160  33.427  1.00  0.00     0.173 A 
ATOM     41  C   UNL A   1      43.268  34.260  31.411  1.00  0.00     0.173 A 
ATOM     42  F   UNL A   1      42.266  32.049  34.121  1.00  0.00    -0.203 F 
ATOM     43  C   UNL A   1      42.388  34.397  34.043  1.00  0.00     0.198 A 
ATOM     44  C   UNL A   1      43.119  35.496  32.037  1.00  0.00     0.198 A 
ATOM     45  F   UNL A   1      43.688  34.224  30.138  1.00  0.00    -0.203 F 
ATOM     46  F   UNL A   1      41.939  34.462  35.304  1.00  0.00    -0.200 F 
ATOM     47  C   UNL A   1      42.668  35.564  33.347  1.00  0.00     0.200 A 
ATOM     48  F   UNL A   1      43.403  36.622  31.368  1.00  0.00    -0.200 F 
ATOM     49  F   UNL A   1      42.501  36.755  33.938  1.00  0.00    -0.200 F 
ENDBRANCH  25  39
BRANCH  26  50
ATOM     50  C   UNL A   1      42.924  24.283  27.341  1.00  0.00     0.064 A 
ATOM     51  C   UNL A   1      42.564  23.102  28.007  1.00  0.00     0.173 A 
ATOM     52  C   UNL A   1      43.306  24.186  25.998  1.00  0.00     0.173 A 
ATOM     53  F   UNL A   1      42.195  23.143  29.296  1.00  0.00    -0.203 F 
ATOM     54  C   UNL A   1      42.612  21.869  27.362  1.00  0.00     0.198 A 
ATOM     55  C   UNL A   1      43.326  22.956  25.345  1.00  0.00     0.198 A 
ATOM     56  F   UNL A   1      43.641  25.291  25.315  1.00  0.00    -0.203 F 
ATOM     57  F   UNL A   1      42.303  20.752  28.033  1.00  0.00    -0.200 F 
ATOM     58  C   UNL A   1      42.989  21.797  26.030  1.00  0.00     0.200 A 
ATOM     59  F   UNL A   1      43.668  22.892  24.051  1.00  0.00    -0.200 F 
ATOM     60  F   UNL A   1      43.023  20.612  25.405  1.00  0.00    -0.200 F 
ENDBRANCH  26  50
BRANCH  38  61
ATOM     61  C   UNL A   1      47.775  27.861  30.849  1.00  0.00     0.064 A 
ATOM     62  C   UNL A   1      48.777  28.247  29.946  1.00  0.00     0.173 A 
ATOM     63  C   UNL A   1      48.157  27.163  32.003  1.00  0.00     0.173 A 
ATOM     64  F   UNL A   1      48.458  28.910  28.825  1.00  0.00    -0.203 F 
ATOM     65  C   UNL A   1      50.111  27.931  30.183  1.00  0.00     0.198 A 
ATOM     66  C   UNL A   1      49.496  26.870  32.248  1.00  0.00     0.198 A 
ATOM     67  F   UNL A   1      47.235  26.787  32.900  1.00  0.00    -0.203 F 
ATOM     68  F   UNL A   1      51.050  28.284  29.294  1.00  0.00    -0.200 F 
ATOM     69  C   UNL A   1      50.469  27.247  31.335  1.00  0.00     0.200 A 
ATOM     70  F   UNL A   1      49.844  26.230  33.372  1.00  0.00    -0.200 F 
ATOM     71  F   UNL A   1      51.756  26.952  31.567  1.00  0.00    -0.200 F 
ENDBRANCH  38  61
ENDBRANCH  12  13
ENDBRANCH   5   7
ENDBRANCH   2   3
ENDBRANCH   1   2
BRANCH   1  72
ATOM     72  C   UNL A   1      35.574  33.640  29.595  1.00  0.00     0.023 C 
BRANCH  72  73
ATOM     73  C   UNL A   1      35.492  34.357  30.939  1.00  0.00     0.116 C 
BRANCH  73  74
ATOM     74  N   UNL A   1      34.313  33.979  31.701  1.00  0.00    -0.352 N 
ATOM     75  C   UNL A   1      34.244  33.345  32.916  1.00  0.00     0.254 C 
ATOM     76  H   UNL A   1      33.449  34.211  31.291  1.00  0.00     0.163 HD
ATOM     77  O   UNL A   1      33.159  33.014  33.383  1.00  0.00    -0.269 OA
BRANCH  75  78
ATOM     78  C   UNL A   1      35.480  33.003  33.633  1.00  0.00     0.076 A 
ATOM     79  C   UNL A   1      36.207  31.880  33.222  1.00  0.00     0.025 A 
ATOM     80  C   UNL A   1      35.924  33.773  34.706  1.00  0.00     0.135 A 
ATOM     81  C   UNL A   1      37.418  31.550  33.850  1.00  0.00    -0.017 A 
ATOM     82  C   UNL A   1      37.129  33.475  35.327  1.00  0.00     0.041 A 
ATOM     83  F   UNL A   1      35.221  34.829  35.136  1.00  0.00    -0.206 F 
ATOM     84  C   UNL A   1      37.875  32.376  34.895  1.00  0.00     0.012 A 
BRANCH  81  85
ATOM     85  C   UNL A   1      38.182  30.360  33.446  1.00  0.00    -0.018 A 
ATOM     86  C   UNL A   1      37.559  29.255  32.847  1.00  0.00     0.009 A 
ATOM     87  C   UNL A   1      39.570  30.300  33.662  1.00  0.00     0.009 A 
ATOM     88  C   UNL A   1      38.298  28.129  32.472  1.00  0.00     0.001 A 
ATOM     89  C   UNL A   1      40.309  29.176  33.289  1.00  0.00     0.001 A 
ATOM     90  C   UNL A   1      39.673  28.090  32.693  1.00  0.00     0.000 A 
ENDBRANCH  81  85
ENDBRANCH  75  78
ENDBRANCH  73  74
ENDBRANCH  72  73
ENDBRANCH   1  72
TORSDOF 12
ENDMDL
MODEL 2
REMARK VINA RESULT:     -10.6      4.397     10.094
REMARK SMILES O=C(NCCCCNC(=O)c1cc(-c2ccccc2)ccc1F)c1ccc(-c2c3nc(c(-c4c(F)c(F)c(F)c(F)c4F)c4ccc([nH]4)c(-c4c(F)c(F)c(F)c(F)c4F)c4nc(c(-c5c(F)c(F)c(F)c(F)c5F)c5ccc2[nH]5)C=C4)C=C3)cc1
REMARK SMILES IDX 5 1 4 2 3 3 1 4 2 5 24 7 25 8 86 9 26 10 85 11 27 12 28 13
REMARK SMILES IDX 29 14 79 15 30 16 84 17 78 18 80 19 31 20 83 21 77 22 76 23
REMARK SMILES IDX 32 25 64 26 44 27 63 28 45 29 48 30 62 31 81 32 46 33 47 34
REMARK SMILES IDX 61 36 82 37 49 38 33 39 34 40 42 41 35 42 36 43 40 44 43 45
REMARK SMILES IDX 37 46 38 47 41 48 39 49 65 50 66 51 74 52 67 53 68 54 72 55
REMARK SMILES IDX 75 56 69 57 70 58 73 59 71 60 50 61 51 62 59 63 52 64 53 65
REMARK SMILES IDX 57 66 60 67 54 68 55 69 58 70 56 71 6 72 7 73 8 74 9 75
REMARK SMILES IDX 10 77 11 78 12 79 22 80 13 81 21 82 23 83 20 84 14 85 15 86
REMARK SMILES IDX 19 87 16 88 18 89 17 90
REMARK H PARENT 3 6 80 24 48 35 8 76
REMARK Flexibility Score: inf
ROOT
ATOM      1  C   UNL A   1      38.092  19.880  24.921  1.00  0.00     0.023 C 
ENDROOT
BRANCH   1   2
ATOM      2  C   UNL A   1      39.125  20.120  26.014  1.00  0.00     0.116 C 
BRANCH   2   3
ATOM      3  N   UNL A   1      40.245  19.193  25.951  1.00  0.00    -0.352 N 
ATOM      4  O   UNL A   1      42.408  18.556  25.835  1.00  0.00    -0.269 OA
ATOM      5  C   UNL A   1      41.591  19.447  26.048  1.00  0.00     0.251 C 
ATOM      6  H   UNL A   1      40.002  18.247  25.820  1.00  0.00     0.163 HD
BRANCH   5   7
ATOM      7  C   UNL A   1      42.058  20.809  26.385  1.00  0.00     0.039 A 
ATOM      8  C   UNL A   1      42.303  21.169  27.712  1.00  0.00     0.014 A 
ATOM      9  C   UNL A   1      42.251  21.738  25.358  1.00  0.00     0.014 A 
ATOM     10  C   UNL A   1      42.600  22.490  28.024  1.00  0.00     0.010 A 
ATOM     11  C   UNL A   1      42.635  23.046  25.667  1.00  0.00     0.010 A 
ATOM     12  C   UNL A   1      42.785  23.439  27.006  1.00  0.00    -0.014 A 
BRANCH  12  13
ATOM     13  C   UNL A   1      43.214  24.812  27.367  1.00  0.00     0.031 A 
ATOM     14  C   UNL A   1      44.614  25.288  27.108  1.00  0.00     0.074 A 
ATOM     15  C   UNL A   1      42.302  25.645  27.906  1.00  0.00     0.049 A 
ATOM     16  N   UNL A   1      45.141  26.463  27.352  1.00  0.00    -0.248 NA
ATOM     17  C   UNL A   1      45.551  24.328  26.502  1.00  0.00     0.031 C 
ATOM     18  C   UNL A   1      40.914  25.286  28.207  1.00  0.00     0.029 A 
ATOM     19  N   UNL A   1      42.390  26.962  28.273  1.00  0.00    -0.354 N 
ATOM     20  C   UNL A   1      46.465  26.380  26.945  1.00  0.00     0.074 A 
ATOM     21  C   UNL A   1      46.674  25.035  26.455  1.00  0.00     0.031 C 
ATOM     22  C   UNL A   1      40.269  26.367  28.665  1.00  0.00     0.029 A 
ATOM     23  C   UNL A   1      41.211  27.478  28.751  1.00  0.00     0.049 A 
ATOM     24  H   UNL A   1      43.220  27.489  28.202  1.00  0.00     0.167 HD
ATOM     25  C   UNL A   1      47.412  27.348  26.973  1.00  0.00     0.037 A 
ATOM     26  C   UNL A   1      40.919  28.704  29.223  1.00  0.00     0.037 A 
ATOM     27  C   UNL A   1      47.190  28.692  27.439  1.00  0.00     0.049 A 
ATOM     28  C   UNL A   1      41.997  29.746  29.260  1.00  0.00     0.074 A 
ATOM     29  C   UNL A   1      48.081  29.751  27.469  1.00  0.00     0.029 A 
ATOM     30  N   UNL A   1      45.992  29.164  27.953  1.00  0.00    -0.354 N 
ATOM     31  N   UNL A   1      43.241  29.659  28.855  1.00  0.00    -0.248 NA
ATOM     32  C   UNL A   1      41.639  31.052  29.829  1.00  0.00     0.031 C 
ATOM     33  C   UNL A   1      47.436  30.851  28.040  1.00  0.00     0.029 A 
ATOM     34  C   UNL A   1      46.129  30.493  28.325  1.00  0.00     0.049 A 
ATOM     35  H   UNL A   1      45.167  28.635  28.041  1.00  0.00     0.167 HD
ATOM     36  C   UNL A   1      43.812  30.895  29.113  1.00  0.00     0.074 A 
ATOM     37  C   UNL A   1      42.774  31.725  29.687  1.00  0.00     0.031 C 
ATOM     38  C   UNL A   1      45.086  31.301  28.899  1.00  0.00     0.037 A 
BRANCH  25  39
ATOM     39  C   UNL A   1      48.791  27.006  26.488  1.00  0.00     0.064 A 
ATOM     40  C   UNL A   1      49.114  27.128  25.127  1.00  0.00     0.173 A 
ATOM     41  C   UNL A   1      49.751  26.449  27.344  1.00  0.00     0.173 A 
ATOM     42  F   UNL A   1      48.225  27.647  24.266  1.00  0.00    -0.203 F 
ATOM     43  C   UNL A   1      50.339  26.683  24.639  1.00  0.00     0.198 A 
ATOM     44  C   UNL A   1      50.985  26.025  26.855  1.00  0.00     0.198 A 
ATOM     45  F   UNL A   1      49.492  26.319  28.654  1.00  0.00    -0.203 F 
ATOM     46  F   UNL A   1      50.610  26.774  23.329  1.00  0.00    -0.200 F 
ATOM     47  C   UNL A   1      51.273  26.131  25.503  1.00  0.00     0.200 A 
ATOM     48  F   UNL A   1      51.891  25.505  27.693  1.00  0.00    -0.200 F 
ATOM     49  F   UNL A   1      52.450  25.698  25.031  1.00  0.00    -0.200 F 
ENDBRANCH  25  39
BRANCH  26  50
ATOM     50  C   UNL A   1      39.543  28.996  29.698  1.00  0.00     0.064 A 
ATOM     51  C   UNL A   1      38.579  29.542  28.837  1.00  0.00     0.173 A 
ATOM     52  C   UNL A   1      39.177  28.770  31.031  1.00  0.00     0.173 A 
ATOM     53  F   UNL A   1      38.884  29.781  27.553  1.00  0.00    -0.203 F 
ATOM     54  C   UNL A   1      37.309  29.875  29.299  1.00  0.00     0.198 A 
ATOM     55  C   UNL A   1      37.897  29.077  31.485  1.00  0.00     0.198 A 
ATOM     56  F   UNL A   1      40.060  28.233  31.886  1.00  0.00    -0.203 F 
ATOM     57  F   UNL A   1      36.420  30.433  28.466  1.00  0.00    -0.200 F 
ATOM     58  C   UNL A   1      36.966  29.638  30.621  1.00  0.00     0.200 A 
ATOM     59  F   UNL A   1      37.561  28.825  32.757  1.00  0.00    -0.200 F 
ATOM     60  F   UNL A   1      35.739  29.946  31.063  1.00  0.00    -0.200 F 
ENDBRANCH  26  50
BRANCH  38  61
ATOM     61  C   UNL A   1      45.432  32.708  29.284  1.00  0.00     0.064 A 
ATOM     62  C   UNL A   1      45.285  33.756  28.363  1.00  0.00     0.173 A 
ATOM     63  C   UNL A   1      45.971  33.006  30.544  1.00  0.00     0.173 A 
ATOM     64  F   UNL A   1      44.780  33.518  27.143  1.00  0.00    -0.203 F 
ATOM     65  C   UNL A   1      45.679  35.051  28.686  1.00  0.00     0.198 A 
ATOM     66  C   UNL A   1      46.341  34.307  30.872  1.00  0.00     0.198 A 
ATOM     67  F   UNL A   1      46.117  32.038  31.460  1.00  0.00    -0.203 F 
ATOM     68  F   UNL A   1      45.556  36.033  27.783  1.00  0.00    -0.200 F 
ATOM     69  C   UNL A   1      46.202  35.325  29.941  1.00  0.00     0.200 A 
ATOM     70  F   UNL A   1      46.825  34.576  32.092  1.00  0.00    -0.200 F 
ATOM     71  F   UNL A   1      46.571  36.575  30.255  1.00  0.00    -0.200 F 
ENDBRANCH  38  61
ENDBRANCH  12  13
ENDBRANCH   5   7
ENDBRANCH   2   3
ENDBRANCH   1   2
BRANCH   1  72
ATOM     72  C   UNL A   1      37.272  21.104  24.524  1.00  0.00     0.023 C 
BRANCH  72  73
ATOM     73  C   UNL A   1      36.820  21.986  25.684  1.00  0.00     0.116 C 
BRANCH  73  74
ATOM     74  N   UNL A   1      35.680  21.431  26.395  1.00  0.00    -0.352 N 
ATOM     75  C   UNL A   1      34.380  21.869  26.407  1.00  0.00     0.254 C 
ATOM     76  H   UNL A   1      35.866  20.631  26.939  1.00  0.00     0.163 HD
ATOM     77  O   UNL A   1      33.551  21.337  27.139  1.00  0.00    -0.269 OA
BRANCH  75  78
ATOM     78  C   UNL A   1      33.990  23.023  25.585  1.00  0.00     0.076 A 
ATOM     79  C   UNL A   1      33.721  24.241  26.222  1.00  0.00     0.025 A 
ATOM     80  C   UNL A   1      33.883  22.917  24.201  1.00  0.00     0.135 A 
ATOM     81  C   UNL A   1      33.394  25.379  25.468  1.00  0.00    -0.017 A 
ATOM     82  C   UNL A   1      33.581  24.034  23.436  1.00  0.00     0.041 A 
ATOM     83  F   UNL A   1      34.101  21.749  23.580  1.00  0.00    -0.206 F 
ATOM     84  C   UNL A   1      33.348  25.259  24.065  1.00  0.00     0.012 A 
BRANCH  81  85
ATOM     85  C   UNL A   1      33.085  26.659  26.122  1.00  0.00    -0.018 A 
ATOM     86  C   UNL A   1      31.832  26.904  26.704  1.00  0.00     0.009 A 
ATOM     87  C   UNL A   1      34.048  27.682  26.172  1.00  0.00     0.009 A 
ATOM     88  C   UNL A   1      31.551  28.128  27.317  1.00  0.00     0.001 A 
ATOM     89  C   UNL A   1      33.769  28.905  26.784  1.00  0.00     0.001 A 
ATOM     90  C   UNL A   1      32.520  29.128  27.357  1.00  0.00     0.000 A 
ENDBRANCH  81  85
ENDBRANCH  75  78
ENDBRANCH  73  74
ENDBRANCH  72  73
ENDBRANCH   1  72
TORSDOF 12
ENDMDL
MODEL 3
REMARK VINA RESULT:     -10.5      3.789      6.769
REMARK SMILES O=C(NCCCCNC(=O)c1cc(-c2ccccc2)ccc1F)c1ccc(-c2c3nc(c(-c4c(F)c(F)c(F)c(F)c4F)c4ccc([nH]4)c(-c4c(F)c(F)c(F)c(F)c4F)c4nc(c(-c5c(F)c(F)c(F)c(F)c5F)c5ccc2[nH]5)C=C4)C=C3)cc1
REMARK SMILES IDX 5 1 4 2 3 3 1 4 2 5 24 7 25 8 86 9 26 10 85 11 27 12 28 13
REMARK SMILES IDX 29 14 79 15 30 16 84 17 78 18 80 19 31 20 83 21 77 22 76 23
REMARK SMILES IDX 32 25 64 26 44 27 63 28 45 29 48 30 62 31 81 32 46 33 47 34
REMARK SMILES IDX 61 36 82 37 49 38 33 39 34 40 42 41 35 42 36 43 40 44 43 45
REMARK SMILES IDX 37 46 38 47 41 48 39 49 65 50 66 51 74 52 67 53 68 54 72 55
REMARK SMILES IDX 75 56 69 57 70 58 73 59 71 60 50 61 51 62 59 63 52 64 53 65
REMARK SMILES IDX 57 66 60 67 54 68 55 69 58 70 56 71 6 72 7 73 8 74 9 75
REMARK SMILES IDX 10 77 11 78 12 79 22 80 13 81 21 82 23 83 20 84 14 85 15 86
REMARK SMILES IDX 19 87 16 88 18 89 17 90
REMARK H PARENT 3 6 80 24 48 35 8 76
REMARK Flexibility Score: inf
ROOT
ATOM      1  C   UNL A   1      31.502  31.744  26.634  1.00  0.00     0.023 C 
ENDROOT
BRANCH   1   2
ATOM      2  C   UNL A   1      32.765  32.529  26.957  1.00  0.00     0.116 C 
BRANCH   2   3
ATOM      3  N   UNL A   1      32.489  33.857  27.485  1.00  0.00    -0.352 N 
ATOM      4  O   UNL A   1      32.639  35.591  28.924  1.00  0.00    -0.269 OA
ATOM      5  C   UNL A   1      33.093  34.523  28.524  1.00  0.00     0.251 C 
ATOM      6  H   UNL A   1      31.766  34.349  27.032  1.00  0.00     0.163 HD
BRANCH   5   7
ATOM      7  C   UNL A   1      34.280  33.935  29.180  1.00  0.00     0.039 A 
ATOM      8  C   UNL A   1      35.566  34.356  28.835  1.00  0.00     0.014 A 
ATOM      9  C   UNL A   1      34.102  32.948  30.155  1.00  0.00     0.014 A 
ATOM     10  C   UNL A   1      36.671  33.694  29.355  1.00  0.00     0.010 A 
ATOM     11  C   UNL A   1      35.216  32.342  30.741  1.00  0.00     0.010 A 
ATOM     12  C   UNL A   1      36.510  32.691  30.325  1.00  0.00    -0.014 A 
BRANCH  12  13
ATOM     13  C   UNL A   1      37.714  32.085  30.943  1.00  0.00     0.031 A 
ATOM     14  C   UNL A   1      38.159  32.463  32.326  1.00  0.00     0.074 A 
ATOM     15  C   UNL A   1      38.388  31.149  30.245  1.00  0.00     0.049 A 
ATOM     16  N   UNL A   1      39.180  32.013  33.013  1.00  0.00    -0.248 NA
ATOM     17  C   UNL A   1      37.364  33.479  33.035  1.00  0.00     0.031 C 
ATOM     18  C   UNL A   1      38.048  30.709  28.890  1.00  0.00     0.029 A 
ATOM     19  N   UNL A   1      39.476  30.386  30.579  1.00  0.00    -0.354 N 
ATOM     20  C   UNL A   1      39.159  32.696  34.221  1.00  0.00     0.074 A 
ATOM     21  C   UNL A   1      38.036  33.608  34.172  1.00  0.00     0.031 C 
ATOM     22  C   UNL A   1      38.877  29.721  28.528  1.00  0.00     0.029 A 
ATOM     23  C   UNL A   1      39.846  29.501  29.596  1.00  0.00     0.049 A 
ATOM     24  H   UNL A   1      39.948  30.464  31.440  1.00  0.00     0.167 HD
ATOM     25  C   UNL A   1      39.999  32.562  35.274  1.00  0.00     0.037 A 
ATOM     26  C   UNL A   1      40.862  28.621  29.549  1.00  0.00     0.037 A 
ATOM     27  C   UNL A   1      41.099  31.634  35.325  1.00  0.00     0.049 A 
ATOM     28  C   UNL A   1      41.787  28.512  30.724  1.00  0.00     0.074 A 
ATOM     29  C   UNL A   1      41.982  31.402  36.366  1.00  0.00     0.029 A 
ATOM     30  N   UNL A   1      41.467  30.784  34.294  1.00  0.00    -0.354 N 
ATOM     31  N   UNL A   1      41.745  29.152  31.867  1.00  0.00    -0.248 NA
ATOM     32  C   UNL A   1      42.908  27.570  30.602  1.00  0.00     0.031 C 
ATOM     33  C   UNL A   1      42.908  30.442  35.950  1.00  0.00     0.029 A 
ATOM     34  C   UNL A   1      42.577  30.042  34.666  1.00  0.00     0.049 A 
ATOM     35  H   UNL A   1      41.006  30.716  33.426  1.00  0.00     0.167 HD
ATOM     36  C   UNL A   1      42.825  28.689  32.602  1.00  0.00     0.074 A 
ATOM     37  C   UNL A   1      43.492  27.695  31.787  1.00  0.00     0.031 C 
ATOM     38  C   UNL A   1      43.230  29.061  33.840  1.00  0.00     0.037 A 
BRANCH  25  39
ATOM     39  C   UNL A   1      39.779  33.435  36.475  1.00  0.00     0.064 A 
ATOM     40  C   UNL A   1      38.892  33.036  37.488  1.00  0.00     0.173 A 
ATOM     41  C   UNL A   1      40.350  34.711  36.567  1.00  0.00     0.173 A 
ATOM     42  F   UNL A   1      38.313  31.827  37.440  1.00  0.00    -0.203 F 
ATOM     43  C   UNL A   1      38.568  33.893  38.536  1.00  0.00     0.198 A 
ATOM     44  C   UNL A   1      40.041  35.559  37.629  1.00  0.00     0.198 A 
ATOM     45  F   UNL A   1      41.209  35.135  35.628  1.00  0.00    -0.203 F 
ATOM     46  F   UNL A   1      37.689  33.506  39.470  1.00  0.00    -0.200 F 
ATOM     47  C   UNL A   1      39.142  35.154  38.605  1.00  0.00     0.200 A 
ATOM     48  F   UNL A   1      40.606  36.771  37.702  1.00  0.00    -0.200 F 
ATOM     49  F   UNL A   1      38.826  35.981  39.611  1.00  0.00    -0.200 F 
ENDBRANCH  25  39
BRANCH  26  50
ATOM     50  C   UNL A   1      41.047  27.781  28.338  1.00  0.00     0.064 A 
ATOM     51  C   UNL A   1      40.450  26.516  28.235  1.00  0.00     0.173 A 
ATOM     52  C   UNL A   1      41.853  28.212  27.277  1.00  0.00     0.173 A 
ATOM     53  F   UNL A   1      39.673  26.057  29.227  1.00  0.00    -0.203 F 
ATOM     54  C   UNL A   1      40.675  25.703  27.127  1.00  0.00     0.198 A 
ATOM     55  C   UNL A   1      42.054  27.410  26.157  1.00  0.00     0.198 A 
ATOM     56  F   UNL A   1      42.430  29.422  27.323  1.00  0.00    -0.203 F 
ATOM     57  F   UNL A   1      40.126  24.482  27.072  1.00  0.00    -0.200 F 
ATOM     58  C   UNL A   1      41.472  26.152  26.086  1.00  0.00     0.200 A 
ATOM     59  F   UNL A   1      42.806  27.856  25.142  1.00  0.00    -0.200 F 
ATOM     60  F   UNL A   1      41.679  25.375  25.014  1.00  0.00    -0.200 F 
ENDBRANCH  26  50
BRANCH  38  61
ATOM     61  C   UNL A   1      44.451  28.390  34.394  1.00  0.00     0.064 A 
ATOM     62  C   UNL A   1      44.338  27.208  35.139  1.00  0.00     0.173 A 
ATOM     63  C   UNL A   1      45.725  28.956  34.240  1.00  0.00     0.173 A 
ATOM     64  F   UNL A   1      43.140  26.633  35.319  1.00  0.00    -0.203 F 
ATOM     65  C   UNL A   1      45.458  26.622  35.723  1.00  0.00     0.198 A 
ATOM     66  C   UNL A   1      46.845  28.355  34.804  1.00  0.00     0.198 A 
ATOM     67  F   UNL A   1      45.881  30.079  33.523  1.00  0.00    -0.203 F 
ATOM     68  F   UNL A   1      45.325  25.508  36.456  1.00  0.00    -0.200 F 
ATOM     69  C   UNL A   1      46.710  27.194  35.552  1.00  0.00     0.200 A 
ATOM     70  F   UNL A   1      48.057  28.894  34.620  1.00  0.00    -0.200 F 
ATOM     71  F   UNL A   1      47.789  26.624  36.106  1.00  0.00    -0.200 F 
ENDBRANCH  38  61
ENDBRANCH  12  13
ENDBRANCH   5   7
ENDBRANCH   2   3
ENDBRANCH   1   2
BRANCH   1  72
ATOM     72  C   UNL A   1      31.680  30.230  26.560  1.00  0.00     0.023 C 
BRANCH  72  73
ATOM     73  C   UNL A   1      33.008  29.761  25.976  1.00  0.00     0.116 C 
BRANCH  73  74
ATOM     74  N   UNL A   1      33.008  29.760  24.522  1.00  0.00    -0.352 N 
ATOM     75  C   UNL A   1      32.943  28.690  23.665  1.00  0.00     0.254 C 
ATOM     76  H   UNL A   1      33.061  30.646  24.095  1.00  0.00     0.163 HD
ATOM     77  O   UNL A   1      33.048  28.857  22.454  1.00  0.00    -0.269 OA
BRANCH  75  78
ATOM     78  C   UNL A   1      32.810  27.330  24.203  1.00  0.00     0.076 A 
ATOM     79  C   UNL A   1      33.919  26.478  24.158  1.00  0.00     0.025 A 
ATOM     80  C   UNL A   1      31.606  26.886  24.744  1.00  0.00     0.135 A 
ATOM     81  C   UNL A   1      33.846  25.188  24.707  1.00  0.00    -0.017 A 
ATOM     82  C   UNL A   1      31.518  25.622  25.310  1.00  0.00     0.041 A 
ATOM     83  F   UNL A   1      30.524  27.676  24.761  1.00  0.00    -0.206 F 
ATOM     84  C   UNL A   1      32.635  24.782  25.299  1.00  0.00     0.012 A 
BRANCH  81  85
ATOM     85  C   UNL A   1      34.995  24.272  24.647  1.00  0.00    -0.018 A 
ATOM     86  C   UNL A   1      35.839  24.079  25.752  1.00  0.00     0.009 A 
ATOM     87  C   UNL A   1      35.281  23.566  23.465  1.00  0.00     0.009 A 
ATOM     88  C   UNL A   1      36.930  23.208  25.678  1.00  0.00     0.001 A 
ATOM     89  C   UNL A   1      36.370  22.696  23.391  1.00  0.00     0.001 A 
ATOM     90  C   UNL A   1      37.195  22.517  24.498  1.00  0.00     0.000 A 
ENDBRANCH  81  85
ENDBRANCH  75  78
ENDBRANCH  73  74
ENDBRANCH  72  73
ENDBRANCH   1  72
TORSDOF 12
ENDMDL
