MODEL 1
REMARK VINA RESULT:     -10.0      0.000      0.000
REMARK SMILES O=C(CCCOc1ccccc1)NCCCCNC(=O)c1ccc(-c2c3nc(c(-c4c(F)c(F)c(F)c(F)c4F)c4ccc([nH]4)c(-c4c(F)c(F)c(F)c(F)c4F)c4nc(c(-c5c(F)c(F)c(F)c(F)c5F)c5ccc2[nH]5)C=C4)C=C3)cc1
REMARK SMILES IDX 14 1 13 2 1 3 2 4 3 6 4 7 5 8 6 9 7 10 8 11 12 12 9 13 11 14
REMARK SMILES IDX 10 15 15 16 16 17 17 18 18 19 19 20 20 22 21 23 22 24 83 25
REMARK SMILES IDX 23 26 82 27 24 28 25 29 26 30 76 31 27 32 81 33 75 34 77 35
REMARK SMILES IDX 28 36 80 37 74 38 73 39 29 41 61 42 41 43 60 44 42 45 45 46
REMARK SMILES IDX 59 47 78 48 43 49 44 50 58 52 79 53 46 54 30 55 31 56 39 57
REMARK SMILES IDX 32 58 33 59 37 60 40 61 34 62 35 63 38 64 36 65 62 66 63 67
REMARK SMILES IDX 71 68 64 69 65 70 69 71 72 72 66 73 67 74 70 75 68 76 47 77
REMARK SMILES IDX 48 78 56 79 49 80 50 81 54 82 57 83 51 84 52 85 55 86 53 87
REMARK H PARENT 13 5 18 21 77 40 45 51
REMARK Flexibility Score: inf
ROOT
ATOM      1  C   UNL A   1      33.361  35.780  29.451  1.00  0.00     0.116 C 
ENDROOT
BRANCH   1   2
ATOM      2  N   UNL A   1      34.014  35.804  30.743  1.00  0.00    -0.356 N 
ATOM      3  O   UNL A   1      32.523  37.283  31.666  1.00  0.00    -0.275 OA
ATOM      4  C   UNL A   1      33.511  36.566  31.774  1.00  0.00     0.220 C 
ATOM      5  H   UNL A   1      34.826  35.268  30.886  1.00  0.00     0.163 HD
BRANCH   4   6
ATOM      6  C   UNL A   1      34.286  36.455  33.068  1.00  0.00     0.103 C 
BRANCH   6   7
ATOM      7  C   UNL A   1      34.665  35.021  33.450  1.00  0.00     0.051 C 
BRANCH   7   8
ATOM      8  C   UNL A   1      36.154  34.641  33.422  1.00  0.00     0.230 C 
BRANCH   8   9
ATOM      9  O   UNL A   1      36.435  33.466  32.644  1.00  0.00    -0.494 OA
BRANCH   9  10
ATOM     10  C   UNL A   1      37.155  33.721  31.514  1.00  0.00     0.119 A 
ATOM     11  C   UNL A   1      36.845  33.101  30.307  1.00  0.00     0.046 A 
ATOM     12  C   UNL A   1      38.275  34.542  31.614  1.00  0.00     0.046 A 
ATOM     13  C   UNL A   1      37.606  33.388  29.171  1.00  0.00     0.004 A 
ATOM     14  C   UNL A   1      39.012  34.857  30.474  1.00  0.00     0.004 A 
ATOM     15  C   UNL A   1      38.673  34.287  29.250  1.00  0.00     0.000 A 
ENDBRANCH   9  10
ENDBRANCH   8   9
ENDBRANCH   7   8
ENDBRANCH   6   7
ENDBRANCH   4   6
ENDBRANCH   1   2
BRANCH   1  16
ATOM     16  C   UNL A   1      34.155  35.009  28.401  1.00  0.00     0.023 C 
BRANCH  16  17
ATOM     17  C   UNL A   1      33.552  33.667  27.983  1.00  0.00     0.023 C 
BRANCH  17  18
ATOM     18  C   UNL A   1      34.189  32.426  28.599  1.00  0.00     0.116 C 
BRANCH  18  19
ATOM     19  N   UNL A   1      33.702  31.189  28.011  1.00  0.00    -0.352 N 
ATOM     20  C   UNL A   1      34.370  30.027  27.720  1.00  0.00     0.251 C 
ATOM     21  H   UNL A   1      32.743  31.185  27.788  1.00  0.00     0.163 HD
ATOM     22  O   UNL A   1      33.801  29.143  27.078  1.00  0.00    -0.269 OA
BRANCH  20  23
ATOM     23  C   UNL A   1      35.776  29.832  28.138  1.00  0.00     0.039 A 
ATOM     24  C   UNL A   1      36.034  29.386  29.439  1.00  0.00     0.014 A 
ATOM     25  C   UNL A   1      36.840  30.103  27.275  1.00  0.00     0.014 A 
ATOM     26  C   UNL A   1      37.348  29.145  29.847  1.00  0.00     0.010 A 
ATOM     27  C   UNL A   1      38.145  29.789  27.657  1.00  0.00     0.010 A 
ATOM     28  C   UNL A   1      38.414  29.305  28.946  1.00  0.00    -0.014 A 
BRANCH  28  29
ATOM     29  C   UNL A   1      39.808  28.959  29.333  1.00  0.00     0.031 A 
ATOM     30  C   UNL A   1      40.613  29.888  30.199  1.00  0.00     0.074 A 
ATOM     31  C   UNL A   1      40.372  27.833  28.854  1.00  0.00     0.049 A 
ATOM     32  N   UNL A   1      41.861  29.788  30.586  1.00  0.00    -0.248 NA
ATOM     33  C   UNL A   1      39.934  31.105  30.673  1.00  0.00     0.031 C 
ATOM     34  C   UNL A   1      39.714  26.865  27.973  1.00  0.00     0.029 A 
ATOM     35  N   UNL A   1      41.632  27.313  29.031  1.00  0.00    -0.354 N 
ATOM     36  C   UNL A   1      42.118  30.931  31.333  1.00  0.00     0.074 A 
ATOM     37  C   UNL A   1      40.916  31.734  31.303  1.00  0.00     0.031 C 
ATOM     38  C   UNL A   1      40.563  25.861  27.708  1.00  0.00     0.029 A 
ATOM     39  C   UNL A   1      41.841  26.132  28.360  1.00  0.00     0.049 A 
ATOM     40  H   UNL A   1      42.320  27.746  29.585  1.00  0.00     0.167 HD
ATOM     41  C   UNL A   1      43.248  31.268  32.001  1.00  0.00     0.037 A 
ATOM     42  C   UNL A   1      42.941  25.360  28.271  1.00  0.00     0.037 A 
ATOM     43  C   UNL A   1      44.437  30.457  32.047  1.00  0.00     0.049 A 
ATOM     44  C   UNL A   1      44.191  25.772  29.004  1.00  0.00     0.074 A 
ATOM     45  C   UNL A   1      45.609  30.683  32.749  1.00  0.00     0.029 A 
ATOM     46  N   UNL A   1      44.609  29.265  31.358  1.00  0.00    -0.354 N 
ATOM     47  N   UNL A   1      44.397  26.817  29.768  1.00  0.00    -0.248 NA
ATOM     48  C   UNL A   1      45.359  24.892  28.865  1.00  0.00     0.031 C 
ATOM     49  C   UNL A   1      46.511  29.662  32.437  1.00  0.00     0.029 A 
ATOM     50  C   UNL A   1      45.879  28.763  31.593  1.00  0.00     0.049 A 
ATOM     51  H   UNL A   1      43.929  28.840  30.786  1.00  0.00     0.167 HD
ATOM     52  C   UNL A   1      45.703  26.701  30.227  1.00  0.00     0.074 A 
ATOM     53  C   UNL A   1      46.235  25.478  29.668  1.00  0.00     0.031 C 
ATOM     54  C   UNL A   1      46.397  27.537  31.040  1.00  0.00     0.037 A 
BRANCH  41  55
ATOM     55  C   UNL A   1      43.259  32.579  32.737  1.00  0.00     0.064 A 
ATOM     56  C   UNL A   1      43.670  33.770  32.118  1.00  0.00     0.173 A 
ATOM     57  C   UNL A   1      42.807  32.654  34.063  1.00  0.00     0.173 A 
ATOM     58  F   UNL A   1      44.119  33.754  30.854  1.00  0.00    -0.203 F 
ATOM     59  C   UNL A   1      43.656  34.979  32.808  1.00  0.00     0.198 A 
ATOM     60  C   UNL A   1      42.762  33.870  34.739  1.00  0.00     0.198 A 
ATOM     61  F   UNL A   1      42.394  31.548  34.701  1.00  0.00    -0.203 F 
ATOM     62  F   UNL A   1      44.100  36.094  32.212  1.00  0.00    -0.200 F 
ATOM     63  C   UNL A   1      43.195  35.030  34.115  1.00  0.00     0.200 A 
ATOM     64  F   UNL A   1      42.300  33.920  35.996  1.00  0.00    -0.200 F 
ATOM     65  F   UNL A   1      43.171  36.197  34.774  1.00  0.00    -0.200 F 
ENDBRANCH  41  55
BRANCH  42  66
ATOM     66  C   UNL A   1      42.911  24.106  27.471  1.00  0.00     0.064 A 
ATOM     67  C   UNL A   1      42.513  22.893  28.051  1.00  0.00     0.173 A 
ATOM     68  C   UNL A   1      43.296  24.088  26.123  1.00  0.00     0.173 A 
ATOM     69  F   UNL A   1      42.156  22.854  29.342  1.00  0.00    -0.203 F 
ATOM     70  C   UNL A   1      42.527  21.707  27.320  1.00  0.00     0.198 A 
ATOM     71  C   UNL A   1      43.278  22.907  25.383  1.00  0.00     0.198 A 
ATOM     72  F   UNL A   1      43.681  25.221  25.519  1.00  0.00    -0.203 F 
ATOM     73  F   UNL A   1      42.193  20.552  27.915  1.00  0.00    -0.200 F 
ATOM     74  C   UNL A   1      42.903  21.715  25.986  1.00  0.00     0.200 A 
ATOM     75  F   UNL A   1      43.627  22.923  24.091  1.00  0.00    -0.200 F 
ATOM     76  F   UNL A   1      42.914  20.575  25.283  1.00  0.00    -0.200 F 
ENDBRANCH  42  66
BRANCH  54  77
ATOM     77  C   UNL A   1      47.795  27.133  31.413  1.00  0.00     0.064 A 
ATOM     78  C   UNL A   1      48.056  26.290  32.504  1.00  0.00     0.173 A 
ATOM     79  C   UNL A   1      48.887  27.565  30.643  1.00  0.00     0.173 A 
ATOM     80  F   UNL A   1      47.051  25.860  33.282  1.00  0.00    -0.203 F 
ATOM     81  C   UNL A   1      49.360  25.920  32.828  1.00  0.00     0.198 A 
ATOM     82  C   UNL A   1      50.184  27.165  30.948  1.00  0.00     0.198 A 
ATOM     83  F   UNL A   1      48.693  28.366  29.585  1.00  0.00    -0.203 F 
ATOM     84  F   UNL A   1      49.590  25.159  33.906  1.00  0.00    -0.200 F 
ATOM     85  C   UNL A   1      50.421  26.350  32.045  1.00  0.00     0.200 A 
ATOM     86  F   UNL A   1      51.206  27.568  30.180  1.00  0.00    -0.200 F 
ATOM     87  F   UNL A   1      51.673  25.986  32.352  1.00  0.00    -0.200 F 
ENDBRANCH  54  77
ENDBRANCH  28  29
ENDBRANCH  20  23
ENDBRANCH  18  19
ENDBRANCH  17  18
ENDBRANCH  16  17
ENDBRANCH   1  16
TORSDOF 15
ENDMDL
MODEL 2
REMARK VINA RESULT:      -9.8      3.877     11.454
REMARK SMILES O=C(CCCOc1ccccc1)NCCCCNC(=O)c1ccc(-c2c3nc(c(-c4c(F)c(F)c(F)c(F)c4F)c4ccc([nH]4)c(-c4c(F)c(F)c(F)c(F)c4F)c4nc(c(-c5c(F)c(F)c(F)c(F)c5F)c5ccc2[nH]5)C=C4)C=C3)cc1
REMARK SMILES IDX 14 1 13 2 1 3 2 4 3 6 4 7 5 8 6 9 7 10 8 11 12 12 9 13 11 14
REMARK SMILES IDX 10 15 15 16 16 17 17 18 18 19 19 20 20 22 21 23 22 24 83 25
REMARK SMILES IDX 23 26 82 27 24 28 25 29 26 30 76 31 27 32 81 33 75 34 77 35
REMARK SMILES IDX 28 36 80 37 74 38 73 39 29 41 61 42 41 43 60 44 42 45 45 46
REMARK SMILES IDX 59 47 78 48 43 49 44 50 58 52 79 53 46 54 30 55 31 56 39 57
REMARK SMILES IDX 32 58 33 59 37 60 40 61 34 62 35 63 38 64 36 65 62 66 63 67
REMARK SMILES IDX 71 68 64 69 65 70 69 71 72 72 66 73 67 74 70 75 68 76 47 77
REMARK SMILES IDX 48 78 56 79 49 80 50 81 54 82 57 83 51 84 52 85 55 86 53 87
REMARK H PARENT 13 5 18 21 77 40 45 51
REMARK Flexibility Score: inf
ROOT
ATOM      1  C   UNL A   1      42.670  18.355  26.568  1.00  0.00     0.116 C 
ENDROOT
BRANCH   1   2
ATOM      2  N   UNL A   1      44.110  18.489  26.521  1.00  0.00    -0.356 N 
ATOM      3  O   UNL A   1      44.217  18.434  24.230  1.00  0.00    -0.275 OA
ATOM      4  C   UNL A   1      44.776  18.535  25.317  1.00  0.00     0.220 C 
ATOM      5  H   UNL A   1      44.619  18.550  27.360  1.00  0.00     0.163 HD
BRANCH   4   6
ATOM      6  C   UNL A   1      46.273  18.713  25.437  1.00  0.00     0.103 C 
BRANCH   6   7
ATOM      7  C   UNL A   1      46.850  19.790  24.511  1.00  0.00     0.051 C 
BRANCH   7   8
ATOM      8  C   UNL A   1      46.256  21.205  24.598  1.00  0.00     0.230 C 
BRANCH   8   9
ATOM      9  O   UNL A   1      46.107  21.685  25.944  1.00  0.00    -0.494 OA
BRANCH   9  10
ATOM     10  C   UNL A   1      45.285  22.768  26.046  1.00  0.00     0.119 A 
ATOM     11  C   UNL A   1      44.957  23.310  27.286  1.00  0.00     0.046 A 
ATOM     12  C   UNL A   1      44.696  23.265  24.887  1.00  0.00     0.046 A 
ATOM     13  C   UNL A   1      44.111  24.420  27.351  1.00  0.00     0.004 A 
ATOM     14  C   UNL A   1      43.882  24.394  24.947  1.00  0.00     0.004 A 
ATOM     15  C   UNL A   1      43.595  24.977  26.178  1.00  0.00     0.000 A 
ENDBRANCH   9  10
ENDBRANCH   8   9
ENDBRANCH   7   8
ENDBRANCH   6   7
ENDBRANCH   4   6
ENDBRANCH   1   2
BRANCH   1  16
ATOM     16  C   UNL A   1      41.978  19.589  27.138  1.00  0.00     0.023 C 
BRANCH  16  17
ATOM     17  C   UNL A   1      42.099  20.855  26.287  1.00  0.00     0.023 C 
BRANCH  17  18
ATOM     18  C   UNL A   1      41.309  22.066  26.773  1.00  0.00     0.116 C 
BRANCH  18  19
ATOM     19  N   UNL A   1      40.010  22.187  26.132  1.00  0.00    -0.352 N 
ATOM     20  C   UNL A   1      39.087  23.201  26.193  1.00  0.00     0.251 C 
ATOM     21  H   UNL A   1      39.753  21.424  25.565  1.00  0.00     0.163 HD
ATOM     22  O   UNL A   1      37.973  23.040  25.692  1.00  0.00    -0.269 OA
BRANCH  20  23
ATOM     23  C   UNL A   1      39.399  24.474  26.880  1.00  0.00     0.039 A 
ATOM     24  C   UNL A   1      39.023  24.623  28.219  1.00  0.00     0.014 A 
ATOM     25  C   UNL A   1      40.034  25.526  26.217  1.00  0.00     0.014 A 
ATOM     26  C   UNL A   1      39.347  25.794  28.909  1.00  0.00     0.010 A 
ATOM     27  C   UNL A   1      40.426  26.662  26.927  1.00  0.00     0.010 A 
ATOM     28  C   UNL A   1      40.088  26.808  28.280  1.00  0.00    -0.014 A 
BRANCH  28  29
ATOM     29  C   UNL A   1      40.528  28.018  29.028  1.00  0.00     0.031 A 
ATOM     30  C   UNL A   1      41.924  28.109  29.579  1.00  0.00     0.074 A 
ATOM     31  C   UNL A   1      39.649  29.011  29.263  1.00  0.00     0.049 A 
ATOM     32  N   UNL A   1      42.468  29.051  30.309  1.00  0.00    -0.248 NA
ATOM     33  C   UNL A   1      42.824  26.980  29.293  1.00  0.00     0.031 C 
ATOM     34  C   UNL A   1      38.254  29.030  28.818  1.00  0.00     0.029 A 
ATOM     35  N   UNL A   1      39.793  30.196  29.944  1.00  0.00    -0.354 N 
ATOM     36  C   UNL A   1      43.761  28.622  30.580  1.00  0.00     0.074 A 
ATOM     37  C   UNL A   1      43.906  27.314  29.981  1.00  0.00     0.031 C 
ATOM     38  C   UNL A   1      37.679  30.176  29.214  1.00  0.00     0.029 A 
ATOM     39  C   UNL A   1      38.648  30.955  29.980  1.00  0.00     0.049 A 
ATOM     40  H   UNL A   1      40.637  30.475  30.367  1.00  0.00     0.167 HD
ATOM     41  C   UNL A   1      44.744  29.271  31.249  1.00  0.00     0.037 A 
ATOM     42  C   UNL A   1      38.402  32.140  30.572  1.00  0.00     0.037 A 
ATOM     43  C   UNL A   1      44.605  30.582  31.827  1.00  0.00     0.049 A 
ATOM     44  C   UNL A   1      39.507  32.826  31.331  1.00  0.00     0.074 A 
ATOM     45  C   UNL A   1      45.563  31.349  32.469  1.00  0.00     0.029 A 
ATOM     46  N   UNL A   1      43.431  31.322  31.840  1.00  0.00    -0.354 N 
ATOM     47  N   UNL A   1      40.747  32.445  31.515  1.00  0.00    -0.248 NA
ATOM     48  C   UNL A   1      39.177  34.114  31.958  1.00  0.00     0.031 C 
ATOM     49  C   UNL A   1      44.955  32.523  32.922  1.00  0.00     0.029 A 
ATOM     50  C   UNL A   1      43.633  32.520  32.506  1.00  0.00     0.049 A 
ATOM     51  H   UNL A   1      42.579  31.036  31.435  1.00  0.00     0.167 HD
ATOM     52  C   UNL A   1      41.353  33.457  32.248  1.00  0.00     0.074 A 
ATOM     53  C   UNL A   1      40.348  34.476  32.461  1.00  0.00     0.031 C 
ATOM     54  C   UNL A   1      42.628  33.534  32.703  1.00  0.00     0.037 A 
BRANCH  41  55
ATOM     55  C   UNL A   1      46.065  28.570  31.402  1.00  0.00     0.064 A 
ATOM     56  C   UNL A   1      46.334  27.731  32.495  1.00  0.00     0.173 A 
ATOM     57  C   UNL A   1      47.057  28.699  30.417  1.00  0.00     0.173 A 
ATOM     58  F   UNL A   1      45.425  27.578  33.469  1.00  0.00    -0.203 F 
ATOM     59  C   UNL A   1      47.557  27.074  32.611  1.00  0.00     0.198 A 
ATOM     60  C   UNL A   1      48.264  28.013  30.519  1.00  0.00     0.198 A 
ATOM     61  F   UNL A   1      46.850  29.481  29.346  1.00  0.00    -0.203 F 
ATOM     62  F   UNL A   1      47.809  26.319  33.688  1.00  0.00    -0.200 F 
ATOM     63  C   UNL A   1      48.517  27.208  31.620  1.00  0.00     0.200 A 
ATOM     64  F   UNL A   1      49.184  28.131  29.552  1.00  0.00    -0.200 F 
ATOM     65  F   UNL A   1      49.688  26.565  31.727  1.00  0.00    -0.200 F 
ENDBRANCH  41  55
BRANCH  42  66
ATOM     66  C   UNL A   1      37.058  32.766  30.460  1.00  0.00     0.064 A 
ATOM     67  C   UNL A   1      36.091  32.578  31.458  1.00  0.00     0.173 A 
ATOM     68  C   UNL A   1      36.704  33.548  29.351  1.00  0.00     0.173 A 
ATOM     69  F   UNL A   1      36.373  31.821  32.528  1.00  0.00    -0.203 F 
ATOM     70  C   UNL A   1      34.814  33.123  31.336  1.00  0.00     0.198 A 
ATOM     71  C   UNL A   1      35.438  34.121  29.246  1.00  0.00     0.198 A 
ATOM     72  F   UNL A   1      37.593  33.764  28.370  1.00  0.00    -0.203 F 
ATOM     73  F   UNL A   1      33.893  32.880  32.279  1.00  0.00    -0.200 F 
ATOM     74  C   UNL A   1      34.491  33.899  30.235  1.00  0.00     0.200 A 
ATOM     75  F   UNL A   1      35.135  34.883  28.187  1.00  0.00    -0.200 F 
ATOM     76  F   UNL A   1      33.264  34.425  30.119  1.00  0.00    -0.200 F 
ENDBRANCH  42  66
BRANCH  54  77
ATOM     77  C   UNL A   1      43.026  34.783  33.438  1.00  0.00     0.064 A 
ATOM     78  C   UNL A   1      43.415  35.948  32.761  1.00  0.00     0.173 A 
ATOM     79  C   UNL A   1      42.978  34.825  34.841  1.00  0.00     0.173 A 
ATOM     80  F   UNL A   1      43.492  35.958  31.422  1.00  0.00    -0.203 F 
ATOM     81  C   UNL A   1      43.771  37.098  33.461  1.00  0.00     0.198 A 
ATOM     82  C   UNL A   1      43.300  35.986  35.535  1.00  0.00     0.198 A 
ATOM     83  F   UNL A   1      42.605  33.741  35.538  1.00  0.00    -0.203 F 
ATOM     84  F   UNL A   1      44.192  38.182  32.795  1.00  0.00    -0.200 F 
ATOM     85  C   UNL A   1      43.705  37.119  34.846  1.00  0.00     0.200 A 
ATOM     86  F   UNL A   1      43.219  36.010  36.873  1.00  0.00    -0.200 F 
ATOM     87  F   UNL A   1      44.039  38.230  35.518  1.00  0.00    -0.200 F 
ENDBRANCH  54  77
ENDBRANCH  28  29
ENDBRANCH  20  23
ENDBRANCH  18  19
ENDBRANCH  17  18
ENDBRANCH  16  17
ENDBRANCH   1  16
TORSDOF 15
ENDMDL
MODEL 3
REMARK VINA RESULT:      -9.8      0.471      7.487
REMARK SMILES O=C(CCCOc1ccccc1)NCCCCNC(=O)c1ccc(-c2c3nc(c(-c4c(F)c(F)c(F)c(F)c4F)c4ccc([nH]4)c(-c4c(F)c(F)c(F)c(F)c4F)c4nc(c(-c5c(F)c(F)c(F)c(F)c5F)c5ccc2[nH]5)C=C4)C=C3)cc1
REMARK SMILES IDX 14 1 13 2 1 3 2 4 3 6 4 7 5 8 6 9 7 10 8 11 12 12 9 13 11 14
REMARK SMILES IDX 10 15 15 16 16 17 17 18 18 19 19 20 20 22 21 23 22 24 83 25
REMARK SMILES IDX 23 26 82 27 24 28 25 29 26 30 76 31 27 32 81 33 75 34 77 35
REMARK SMILES IDX 28 36 80 37 74 38 73 39 29 41 61 42 41 43 60 44 42 45 45 46
REMARK SMILES IDX 59 47 78 48 43 49 44 50 58 52 79 53 46 54 30 55 31 56 39 57
REMARK SMILES IDX 32 58 33 59 37 60 40 61 34 62 35 63 38 64 36 65 62 66 63 67
REMARK SMILES IDX 71 68 64 69 65 70 69 71 72 72 66 73 67 74 70 75 68 76 47 77
REMARK SMILES IDX 48 78 56 79 49 80 50 81 54 82 57 83 51 84 52 85 55 86 53 87
REMARK H PARENT 13 5 18 21 77 40 45 51
REMARK Flexibility Score: inf
ROOT
ATOM      1  C   UNL A   1      33.228  35.602  29.458  1.00  0.00     0.116 C 
ENDROOT
BRANCH   1   2
ATOM      2  N   UNL A   1      33.901  35.663  30.738  1.00  0.00    -0.356 N 
ATOM      3  O   UNL A   1      32.786  37.544  31.434  1.00  0.00    -0.275 OA
ATOM      4  C   UNL A   1      33.599  36.651  31.648  1.00  0.00     0.220 C 
ATOM      5  H   UNL A   1      34.581  34.989  30.961  1.00  0.00     0.163 HD
BRANCH   4   6
ATOM      6  C   UNL A   1      34.362  36.555  32.950  1.00  0.00     0.103 C 
BRANCH   6   7
ATOM      7  C   UNL A   1      34.613  35.120  33.425  1.00  0.00     0.051 C 
BRANCH   7   8
ATOM      8  C   UNL A   1      36.072  34.645  33.530  1.00  0.00     0.230 C 
BRANCH   8   9
ATOM      9  O   UNL A   1      36.348  33.460  32.765  1.00  0.00    -0.494 OA
BRANCH   9  10
ATOM     10  C   UNL A   1      37.068  33.700  31.632  1.00  0.00     0.119 A 
ATOM     11  C   UNL A   1      36.757  33.065  30.433  1.00  0.00     0.046 A 
ATOM     12  C   UNL A   1      38.188  34.521  31.720  1.00  0.00     0.046 A 
ATOM     13  C   UNL A   1      37.518  33.336  29.293  1.00  0.00     0.004 A 
ATOM     14  C   UNL A   1      38.925  34.821  30.576  1.00  0.00     0.004 A 
ATOM     15  C   UNL A   1      38.585  34.235  29.359  1.00  0.00     0.000 A 
ENDBRANCH   9  10
ENDBRANCH   8   9
ENDBRANCH   7   8
ENDBRANCH   6   7
ENDBRANCH   4   6
ENDBRANCH   1   2
BRANCH   1  16
ATOM     16  C   UNL A   1      34.037  34.861  28.398  1.00  0.00     0.023 C 
BRANCH  16  17
ATOM     17  C   UNL A   1      33.467  33.507  27.971  1.00  0.00     0.023 C 
BRANCH  17  18
ATOM     18  C   UNL A   1      34.098  32.281  28.620  1.00  0.00     0.116 C 
BRANCH  18  19
ATOM     19  N   UNL A   1      33.697  31.036  27.985  1.00  0.00    -0.352 N 
ATOM     20  C   UNL A   1      34.437  29.922  27.680  1.00  0.00     0.251 C 
ATOM     21  H   UNL A   1      32.746  30.984  27.737  1.00  0.00     0.163 HD
ATOM     22  O   UNL A   1      33.936  29.026  26.999  1.00  0.00    -0.269 OA
BRANCH  20  23
ATOM     23  C   UNL A   1      35.842  29.795  28.130  1.00  0.00     0.039 A 
ATOM     24  C   UNL A   1      36.091  29.385  29.444  1.00  0.00     0.014 A 
ATOM     25  C   UNL A   1      36.911  30.093  27.282  1.00  0.00     0.014 A 
ATOM     26  C   UNL A   1      37.405  29.208  29.883  1.00  0.00     0.010 A 
ATOM     27  C   UNL A   1      38.219  29.841  27.696  1.00  0.00     0.010 A 
ATOM     28  C   UNL A   1      38.482  29.395  29.000  1.00  0.00    -0.014 A 
BRANCH  28  29
ATOM     29  C   UNL A   1      39.881  29.115  29.421  1.00  0.00     0.031 A 
ATOM     30  C   UNL A   1      40.594  27.885  28.930  1.00  0.00     0.074 A 
ATOM     31  C   UNL A   1      40.490  29.939  30.296  1.00  0.00     0.049 A 
ATOM     32  N   UNL A   1      41.788  27.441  29.236  1.00  0.00    -0.248 NA
ATOM     33  C   UNL A   1      39.860  27.027  27.986  1.00  0.00     0.031 C 
ATOM     34  C   UNL A   1      39.896  31.143  30.879  1.00  0.00     0.029 A 
ATOM     35  N   UNL A   1      41.744  29.884  30.858  1.00  0.00    -0.354 N 
ATOM     36  C   UNL A   1      41.940  26.250  28.539  1.00  0.00     0.074 A 
ATOM     37  C   UNL A   1      40.700  26.013  27.833  1.00  0.00     0.031 C 
ATOM     38  C   UNL A   1      40.789  31.726  31.694  1.00  0.00     0.029 A 
ATOM     39  C   UNL A   1      42.003  30.915  31.729  1.00  0.00     0.049 A 
ATOM     40  H   UNL A   1      42.394  29.174  30.655  1.00  0.00     0.167 HD
ATOM     41  C   UNL A   1      43.024  25.439  28.475  1.00  0.00     0.037 A 
ATOM     42  C   UNL A   1      43.092  31.172  32.479  1.00  0.00     0.037 A 
ATOM     43  C   UNL A   1      44.265  25.687  29.161  1.00  0.00     0.049 A 
ATOM     44  C   UNL A   1      44.272  30.240  32.407  1.00  0.00     0.074 A 
ATOM     45  C   UNL A   1      45.440  24.958  29.108  1.00  0.00     0.029 A 
ATOM     46  N   UNL A   1      44.491  26.744  30.031  1.00  0.00    -0.354 N 
ATOM     47  N   UNL A   1      44.431  29.158  31.686  1.00  0.00    -0.248 NA
ATOM     48  C   UNL A   1      45.429  30.571  33.252  1.00  0.00     0.031 C 
ATOM     49  C   UNL A   1      46.357  25.537  29.992  1.00  0.00     0.029 A 
ATOM     50  C   UNL A   1      45.775  26.666  30.546  1.00  0.00     0.049 A 
ATOM     51  H   UNL A   1      43.835  27.445  30.251  1.00  0.00     0.167 HD
ATOM     52  C   UNL A   1      45.712  28.699  31.963  1.00  0.00     0.074 A 
ATOM     53  C   UNL A   1      46.293  29.629  32.907  1.00  0.00     0.031 C 
ATOM     54  C   UNL A   1      46.349  27.604  31.477  1.00  0.00     0.037 A 
BRANCH  41  55
ATOM     55  C   UNL A   1      42.917  24.195  27.637  1.00  0.00     0.064 A 
ATOM     56  C   UNL A   1      43.191  24.207  26.260  1.00  0.00     0.173 A 
ATOM     57  C   UNL A   1      42.585  22.966  28.227  1.00  0.00     0.173 A 
ATOM     58  F   UNL A   1      43.505  25.356  25.643  1.00  0.00    -0.203 F 
ATOM     59  C   UNL A   1      43.106  23.041  25.502  1.00  0.00     0.198 A 
ATOM     60  C   UNL A   1      42.536  21.797  27.473  1.00  0.00     0.198 A 
ATOM     61  F   UNL A   1      42.323  22.895  29.542  1.00  0.00    -0.203 F 
ATOM     62  F   UNL A   1      43.323  23.087  24.181  1.00  0.00    -0.200 F 
ATOM     63  C   UNL A   1      42.787  21.837  26.110  1.00  0.00     0.200 A 
ATOM     64  F   UNL A   1      42.244  20.631  28.065  1.00  0.00    -0.200 F 
ATOM     65  F   UNL A   1      42.718  20.714  25.381  1.00  0.00    -0.200 F 
ENDBRANCH  41  55
BRANCH  42  66
ATOM     66  C   UNL A   1      43.129  32.375  33.353  1.00  0.00     0.064 A 
ATOM     67  C   UNL A   1      42.634  32.326  34.665  1.00  0.00     0.173 A 
ATOM     68  C   UNL A   1      43.638  33.598  32.896  1.00  0.00     0.173 A 
ATOM     69  F   UNL A   1      42.116  31.186  35.142  1.00  0.00    -0.203 F 
ATOM     70  C   UNL A   1      42.623  33.461  35.473  1.00  0.00     0.198 A 
ATOM     71  C   UNL A   1      43.658  34.725  33.716  1.00  0.00     0.198 A 
ATOM     72  F   UNL A   1      44.129  33.699  31.651  1.00  0.00    -0.203 F 
ATOM     73  F   UNL A   1      42.093  33.399  36.703  1.00  0.00    -0.200 F 
ATOM     74  C   UNL A   1      43.140  34.657  35.002  1.00  0.00     0.200 A 
ATOM     75  F   UNL A   1      44.173  35.874  33.262  1.00  0.00    -0.200 F 
ATOM     76  F   UNL A   1      43.131  35.748  35.780  1.00  0.00    -0.200 F 
ENDBRANCH  42  66
BRANCH  54  77
ATOM     77  C   UNL A   1      47.766  27.376  31.921  1.00  0.00     0.064 A 
ATOM     78  C   UNL A   1      48.075  26.573  33.030  1.00  0.00     0.173 A 
ATOM     79  C   UNL A   1      48.833  27.937  31.201  1.00  0.00     0.173 A 
ATOM     80  F   UNL A   1      47.093  26.025  33.761  1.00  0.00    -0.203 F 
ATOM     81  C   UNL A   1      49.396  26.367  33.419  1.00  0.00     0.198 A 
ATOM     82  C   UNL A   1      50.153  27.700  31.572  1.00  0.00     0.198 A 
ATOM     83  F   UNL A   1      48.595  28.706  30.128  1.00  0.00    -0.203 F 
ATOM     84  F   UNL A   1      49.665  25.641  34.513  1.00  0.00    -0.200 F 
ATOM     85  C   UNL A   1      50.434  26.922  32.685  1.00  0.00     0.200 A 
ATOM     86  F   UNL A   1      51.155  28.224  30.852  1.00  0.00    -0.200 F 
ATOM     87  F   UNL A   1      51.705  26.714  33.056  1.00  0.00    -0.200 F 
ENDBRANCH  54  77
ENDBRANCH  28  29
ENDBRANCH  20  23
ENDBRANCH  18  19
ENDBRANCH  17  18
ENDBRANCH  16  17
ENDBRANCH   1  16
TORSDOF 15
ENDMDL
