MODEL 1
REMARK VINA RESULT:     -12.7      0.000      0.000
REMARK SMILES CCOc1c(Br)cc(CNc2cccc(C(=O)NCCCCNC(=O)c3ccc(-c4c5nc(c(-c6c(F)c(F)c(F)c(F)c6F)c6ccc([nH]6)c(-c6c(F)c(F)c(F)c(F)c6F)c6nc(c(-c7c(F)c(F)c(F)c(F)c7F)c7ccc4[nH]7)C=C6)C=C5)cc3)c2C)cc1OC
REMARK SMILES IDX 19 1 18 2 16 3 17 4 15 6 11 7 12 8 89 9 13 10 90 11 14 12
REMARK SMILES IDX 10 13 9 15 8 16 4 17 5 18 92 19 6 20 7 21 91 22 3 23 2 24
REMARK SMILES IDX 1 25 93 26 94 27 20 28 21 29 22 30 23 31 24 32 25 34 26 35
REMARK SMILES IDX 27 36 88 37 28 38 87 39 29 40 30 41 31 42 81 43 32 44 86 45
REMARK SMILES IDX 80 46 82 47 33 48 85 49 79 50 78 51 34 53 66 54 46 55 65 56
REMARK SMILES IDX 47 57 50 58 64 59 83 60 48 61 49 62 63 64 84 65 51 66 35 67
REMARK SMILES IDX 36 68 44 69 37 70 38 71 42 72 45 73 39 74 40 75 43 76 41 77
REMARK SMILES IDX 67 78 68 79 76 80 69 81 70 82 74 83 77 84 71 85 72 86 75 87
REMARK SMILES IDX 73 88 52 89 53 90 61 91 54 92 55 93 59 94 62 95 56 96 57 97
REMARK SMILES IDX 60 98 58 99
REMARK H PARENT 18 5 10 14 23 33 82 52 50 63
REMARK Flexibility Score: inf
ROOT
ATOM      1  C   UNL A   1      32.668  28.153  26.908  1.00  0.00     0.116 C 
ENDROOT
BRANCH   1   2
ATOM      2  N   UNL A   1      31.785  29.018  26.132  1.00  0.00    -0.352 N 
ATOM      3  C   UNL A   1      31.459  29.107  24.793  1.00  0.00     0.251 C 
ATOM      4  O   UNL A   1      30.554  29.885  24.495  1.00  0.00    -0.269 OA
ATOM      5  H   UNL A   1      31.318  29.684  26.686  1.00  0.00     0.163 HD
BRANCH   3   6
ATOM      6  C   UNL A   1      32.143  28.314  23.721  1.00  0.00     0.044 A 
ATOM      7  C   UNL A   1      32.352  26.342  22.266  1.00  0.00     0.038 A 
ATOM      8  C   UNL A   1      33.498  26.926  21.707  1.00  0.00     0.026 A 
ATOM      9  C   UNL A   1      31.620  27.076  23.241  1.00  0.00    -0.015 A 
ATOM     10  C   UNL A   1      34.027  28.108  22.206  1.00  0.00     0.003 A 
ATOM     11  C   UNL A   1      30.360  26.476  23.822  1.00  0.00     0.047 C 
ATOM     12  C   UNL A   1      33.390  28.752  23.258  1.00  0.00     0.014 A 
BRANCH   7  13
ATOM     13  N   UNL A   1      32.002  25.040  21.916  1.00  0.00    -0.381 N 
ATOM     14  H   UNL A   1      31.050  24.791  21.897  1.00  0.00     0.160 HD
BRANCH  13  15
ATOM     15  C   UNL A   1      32.999  24.034  21.575  1.00  0.00     0.149 C 
BRANCH  15  16
ATOM     16  C   UNL A   1      33.345  23.209  22.793  1.00  0.00    -0.024 A 
ATOM     17  C   UNL A   1      33.986  21.657  25.071  1.00  0.00     0.175 A 
ATOM     18  C   UNL A   1      34.997  22.166  24.237  1.00  0.00     0.064 A 
ATOM     19  C   UNL A   1      32.643  21.858  24.716  1.00  0.00     0.162 A 
ATOM     20  Br  UNL A   1      36.838  21.793  24.530  1.00  0.00    -0.047 Br
ATOM     21  C   UNL A   1      34.680  22.952  23.124  1.00  0.00     0.025 A 
ATOM     22  C   UNL A   1      32.342  22.646  23.592  1.00  0.00     0.056 A 
BRANCH  17  23
ATOM     23  O   UNL A   1      34.353  20.927  26.174  1.00  0.00    -0.489 OA
BRANCH  23  24
ATOM     24  C   UNL A   1      33.989  21.573  27.404  1.00  0.00     0.226 C 
ATOM     25  C   UNL A   1      34.412  23.031  27.401  1.00  0.00     0.049 C 
ENDBRANCH  23  24
ENDBRANCH  17  23
BRANCH  19  26
ATOM     26  O   UNL A   1      31.516  21.397  25.340  1.00  0.00    -0.493 OA
ATOM     27  C   UNL A   1      30.652  22.334  25.969  1.00  0.00     0.278 C 
ENDBRANCH  19  26
ENDBRANCH  15  16
ENDBRANCH  13  15
ENDBRANCH   7  13
ENDBRANCH   3   6
ENDBRANCH   1   2
BRANCH   1  28
ATOM     28  C   UNL A   1      34.126  28.611  26.989  1.00  0.00     0.023 C 
BRANCH  28  29
ATOM     29  C   UNL A   1      34.371  30.116  27.001  1.00  0.00     0.023 C 
BRANCH  29  30
ATOM     30  C   UNL A   1      34.361  30.779  28.374  1.00  0.00     0.116 C 
BRANCH  30  31
ATOM     31  N   UNL A   1      35.394  31.786  28.595  1.00  0.00    -0.352 N 
ATOM     32  C   UNL A   1      36.758  31.617  28.809  1.00  0.00     0.251 C 
ATOM     33  H   UNL A   1      35.079  32.719  28.592  1.00  0.00     0.163 HD
ATOM     34  O   UNL A   1      37.468  32.578  29.032  1.00  0.00    -0.269 OA
BRANCH  32  35
ATOM     35  C   UNL A   1      37.365  30.271  28.626  1.00  0.00     0.039 A 
ATOM     36  C   UNL A   1      37.511  29.456  29.757  1.00  0.00     0.014 A 
ATOM     37  C   UNL A   1      37.971  29.910  27.428  1.00  0.00     0.014 A 
ATOM     38  C   UNL A   1      38.484  28.458  29.757  1.00  0.00     0.010 A 
ATOM     39  C   UNL A   1      39.011  29.004  27.458  1.00  0.00     0.010 A 
ATOM     40  C   UNL A   1      39.318  28.338  28.648  1.00  0.00    -0.014 A 
BRANCH  40  41
ATOM     41  C   UNL A   1      40.613  27.670  28.690  1.00  0.00     0.031 A 
ATOM     42  C   UNL A   1      40.732  26.222  28.438  1.00  0.00     0.074 A 
ATOM     43  C   UNL A   1      41.724  28.429  28.834  1.00  0.00     0.049 A 
ATOM     44  N   UNL A   1      41.734  25.498  28.806  1.00  0.00    -0.248 NA
ATOM     45  C   UNL A   1      39.686  25.459  27.769  1.00  0.00     0.031 C 
ATOM     46  C   UNL A   1      43.111  28.035  28.601  1.00  0.00     0.029 A 
ATOM     47  N   UNL A   1      41.819  29.700  29.428  1.00  0.00    -0.354 N 
ATOM     48  C   UNL A   1      41.611  24.267  28.200  1.00  0.00     0.074 A 
ATOM     49  C   UNL A   1      40.287  24.274  27.621  1.00  0.00     0.031 C 
ATOM     50  C   UNL A   1      43.915  28.860  29.291  1.00  0.00     0.029 A 
ATOM     51  C   UNL A   1      43.058  29.702  30.108  1.00  0.00     0.049 A 
ATOM     52  H   UNL A   1      41.162  30.432  29.381  1.00  0.00     0.167 HD
ATOM     53  C   UNL A   1      42.698  23.442  28.146  1.00  0.00     0.037 A 
ATOM     54  C   UNL A   1      43.123  29.790  31.467  1.00  0.00     0.037 A 
ATOM     55  C   UNL A   1      43.823  24.007  28.891  1.00  0.00     0.049 A 
ATOM     56  C   UNL A   1      43.835  28.633  32.125  1.00  0.00     0.074 A 
ATOM     57  C   UNL A   1      44.952  24.710  28.498  1.00  0.00     0.029 A 
ATOM     58  N   UNL A   1      43.727  24.161  30.270  1.00  0.00    -0.354 N 
ATOM     59  N   UNL A   1      43.991  27.464  31.570  1.00  0.00    -0.248 NA
ATOM     60  C   UNL A   1      44.386  28.694  33.475  1.00  0.00     0.031 C 
ATOM     61  C   UNL A   1      45.512  25.324  29.645  1.00  0.00     0.029 A 
ATOM     62  C   UNL A   1      44.734  24.983  30.738  1.00  0.00     0.049 A 
ATOM     63  H   UNL A   1      43.039  23.742  30.835  1.00  0.00     0.167 HD
ATOM     64  C   UNL A   1      44.613  26.620  32.455  1.00  0.00     0.074 A 
ATOM     65  C   UNL A   1      44.863  27.445  33.622  1.00  0.00     0.031 C 
ATOM     66  C   UNL A   1      44.847  25.307  32.152  1.00  0.00     0.037 A 
BRANCH  53  67
ATOM     67  C   UNL A   1      42.839  22.286  27.171  1.00  0.00     0.064 A 
ATOM     68  C   UNL A   1      42.085  21.101  27.336  1.00  0.00     0.173 A 
ATOM     69  C   UNL A   1      43.748  22.248  26.098  1.00  0.00     0.173 A 
ATOM     70  F   UNL A   1      41.086  21.022  28.223  1.00  0.00    -0.203 F 
ATOM     71  C   UNL A   1      42.327  19.942  26.592  1.00  0.00     0.198 A 
ATOM     72  C   UNL A   1      44.031  21.075  25.390  1.00  0.00     0.198 A 
ATOM     73  F   UNL A   1      44.341  23.360  25.650  1.00  0.00    -0.203 F 
ATOM     74  F   UNL A   1      41.587  18.846  26.808  1.00  0.00    -0.200 F 
ATOM     75  C   UNL A   1      43.332  19.914  25.649  1.00  0.00     0.200 A 
ATOM     76  F   UNL A   1      44.988  21.081  24.450  1.00  0.00    -0.200 F 
ATOM     77  F   UNL A   1      43.600  18.792  24.970  1.00  0.00    -0.200 F 
ENDBRANCH  53  67
BRANCH  54  78
ATOM     78  C   UNL A   1      41.981  30.527  32.072  1.00  0.00     0.064 A 
ATOM     79  C   UNL A   1      41.941  31.930  31.953  1.00  0.00     0.173 A 
ATOM     80  C   UNL A   1      40.794  29.875  32.430  1.00  0.00     0.173 A 
ATOM     81  F   UNL A   1      43.050  32.605  31.606  1.00  0.00    -0.203 F 
ATOM     82  C   UNL A   1      40.746  32.635  32.076  1.00  0.00     0.198 A 
ATOM     83  C   UNL A   1      39.601  30.589  32.568  1.00  0.00     0.198 A 
ATOM     84  F   UNL A   1      40.759  28.540  32.538  1.00  0.00    -0.203 F 
ATOM     85  F   UNL A   1      40.724  33.956  31.845  1.00  0.00    -0.200 F 
ATOM     86  C   UNL A   1      39.573  31.959  32.360  1.00  0.00     0.200 A 
ATOM     87  F   UNL A   1      38.458  29.932  32.808  1.00  0.00    -0.200 F 
ATOM     88  F   UNL A   1      38.406  32.621  32.388  1.00  0.00    -0.200 F 
ENDBRANCH  54  78
BRANCH  66  89
ATOM     89  C   UNL A   1      45.288  24.230  33.116  1.00  0.00     0.064 A 
ATOM     90  C   UNL A   1      44.493  23.135  33.499  1.00  0.00     0.173 A 
ATOM     91  C   UNL A   1      46.626  24.195  33.589  1.00  0.00     0.173 A 
ATOM     92  F   UNL A   1      43.254  22.971  33.019  1.00  0.00    -0.203 F 
ATOM     93  C   UNL A   1      44.972  22.128  34.342  1.00  0.00     0.198 A 
ATOM     94  C   UNL A   1      47.117  23.157  34.378  1.00  0.00     0.198 A 
ATOM     95  F   UNL A   1      47.507  25.156  33.272  1.00  0.00    -0.203 F 
ATOM     96  F   UNL A   1      44.154  21.132  34.713  1.00  0.00    -0.200 F 
ATOM     97  C   UNL A   1      46.285  22.132  34.772  1.00  0.00     0.200 A 
ATOM     98  F   UNL A   1      48.410  23.146  34.736  1.00  0.00    -0.200 F 
ATOM     99  F   UNL A   1      46.752  21.138  35.539  1.00  0.00    -0.200 F 
ENDBRANCH  66  89
ENDBRANCH  40  41
ENDBRANCH  32  35
ENDBRANCH  30  31
ENDBRANCH  29  30
ENDBRANCH  28  29
ENDBRANCH   1  28
TORSDOF 17
ENDMDL
MODEL 2
REMARK VINA RESULT:     -12.6      3.631     10.180
REMARK SMILES CCOc1c(Br)cc(CNc2cccc(C(=O)NCCCCNC(=O)c3ccc(-c4c5nc(c(-c6c(F)c(F)c(F)c(F)c6F)c6ccc([nH]6)c(-c6c(F)c(F)c(F)c(F)c6F)c6nc(c(-c7c(F)c(F)c(F)c(F)c7F)c7ccc4[nH]7)C=C6)C=C5)cc3)c2C)cc1OC
REMARK SMILES IDX 19 1 18 2 16 3 17 4 15 6 11 7 12 8 89 9 13 10 90 11 14 12
REMARK SMILES IDX 10 13 9 15 8 16 4 17 5 18 92 19 6 20 7 21 91 22 3 23 2 24
REMARK SMILES IDX 1 25 93 26 94 27 20 28 21 29 22 30 23 31 24 32 25 34 26 35
REMARK SMILES IDX 27 36 88 37 28 38 87 39 29 40 30 41 31 42 81 43 32 44 86 45
REMARK SMILES IDX 80 46 82 47 33 48 85 49 79 50 78 51 34 53 66 54 46 55 65 56
REMARK SMILES IDX 47 57 50 58 64 59 83 60 48 61 49 62 63 64 84 65 51 66 35 67
REMARK SMILES IDX 36 68 44 69 37 70 38 71 42 72 45 73 39 74 40 75 43 76 41 77
REMARK SMILES IDX 67 78 68 79 76 80 69 81 70 82 74 83 77 84 71 85 72 86 75 87
REMARK SMILES IDX 73 88 52 89 53 90 61 91 54 92 55 93 59 94 62 95 56 96 57 97
REMARK SMILES IDX 60 98 58 99
REMARK H PARENT 18 5 10 14 23 33 82 52 50 63
REMARK Flexibility Score: inf
ROOT
ATOM      1  C   UNL A   1      36.374  23.118  24.246  1.00  0.00     0.116 C 
ENDROOT
BRANCH   1   2
ATOM      2  N   UNL A   1      36.077  21.694  24.359  1.00  0.00    -0.352 N 
ATOM      3  C   UNL A   1      35.057  20.967  24.940  1.00  0.00     0.251 C 
ATOM      4  O   UNL A   1      35.050  19.756  24.727  1.00  0.00    -0.269 OA
ATOM      5  H   UNL A   1      36.754  21.126  23.926  1.00  0.00     0.163 HD
BRANCH   3   6
ATOM      6  C   UNL A   1      33.987  21.580  25.793  1.00  0.00     0.044 A 
ATOM      7  C   UNL A   1      31.788  22.638  26.106  1.00  0.00     0.038 A 
ATOM      8  C   UNL A   1      32.059  22.697  27.481  1.00  0.00     0.026 A 
ATOM      9  C   UNL A   1      32.737  22.007  25.253  1.00  0.00    -0.015 A 
ATOM     10  C   UNL A   1      33.291  22.322  27.995  1.00  0.00     0.003 A 
ATOM     11  C   UNL A   1      32.440  21.900  23.774  1.00  0.00     0.047 C 
ATOM     12  C   UNL A   1      34.271  21.838  27.139  1.00  0.00     0.014 A 
BRANCH   7  13
ATOM     13  N   UNL A   1      30.649  23.259  25.600  1.00  0.00    -0.381 N 
ATOM     14  H   UNL A   1      30.233  22.899  24.784  1.00  0.00     0.160 HD
BRANCH  13  15
ATOM     15  C   UNL A   1      30.052  24.423  26.240  1.00  0.00     0.149 C 
BRANCH  15  16
ATOM     16  C   UNL A   1      30.617  25.692  25.646  1.00  0.00    -0.024 A 
ATOM     17  C   UNL A   1      31.666  28.073  24.533  1.00  0.00     0.175 A 
ATOM     18  C   UNL A   1      32.265  27.477  25.657  1.00  0.00     0.064 A 
ATOM     19  C   UNL A   1      30.487  27.518  24.014  1.00  0.00     0.162 A 
ATOM     20  Br  UNL A   1      33.756  28.254  26.545  1.00  0.00    -0.047 Br
ATOM     21  C   UNL A   1      31.759  26.288  26.193  1.00  0.00     0.025 A 
ATOM     22  C   UNL A   1      29.989  26.326  24.566  1.00  0.00     0.056 A 
BRANCH  17  23
ATOM     23  O   UNL A   1      32.228  29.216  24.022  1.00  0.00    -0.489 OA
BRANCH  23  24
ATOM     24  C   UNL A   1      32.780  29.016  22.711  1.00  0.00     0.226 C 
ATOM     25  C   UNL A   1      34.255  28.667  22.788  1.00  0.00     0.049 C 
ENDBRANCH  23  24
ENDBRANCH  17  23
BRANCH  19  26
ATOM     26  O   UNL A   1      29.712  27.971  22.981  1.00  0.00    -0.493 OA
ATOM     27  C   UNL A   1      28.312  28.103  23.184  1.00  0.00     0.278 C 
ENDBRANCH  19  26
ENDBRANCH  15  16
ENDBRANCH  13  15
ENDBRANCH   7  13
ENDBRANCH   3   6
ENDBRANCH   1   2
BRANCH   1  28
ATOM     28  C   UNL A   1      36.811  23.801  25.544  1.00  0.00     0.023 C 
BRANCH  28  29
ATOM     29  C   UNL A   1      37.922  23.119  26.335  1.00  0.00     0.023 C 
BRANCH  29  30
ATOM     30  C   UNL A   1      39.265  22.997  25.624  1.00  0.00     0.116 C 
BRANCH  30  31
ATOM     31  N   UNL A   1      40.437  22.956  26.491  1.00  0.00    -0.352 N 
ATOM     32  C   UNL A   1      41.000  23.969  27.261  1.00  0.00     0.251 C 
ATOM     33  H   UNL A   1      40.895  22.085  26.538  1.00  0.00     0.163 HD
ATOM     34  O   UNL A   1      42.021  23.768  27.889  1.00  0.00    -0.269 OA
BRANCH  32  35
ATOM     35  C   UNL A   1      40.269  25.255  27.424  1.00  0.00     0.039 A 
ATOM     36  C   UNL A   1      40.687  26.350  26.654  1.00  0.00     0.014 A 
ATOM     37  C   UNL A   1      39.353  25.439  28.453  1.00  0.00     0.014 A 
ATOM     38  C   UNL A   1      40.412  27.641  27.101  1.00  0.00     0.010 A 
ATOM     39  C   UNL A   1      39.175  26.709  28.962  1.00  0.00     0.010 A 
ATOM     40  C   UNL A   1      39.775  27.802  28.330  1.00  0.00    -0.014 A 
BRANCH  40  41
ATOM     41  C   UNL A   1      39.825  29.038  29.101  1.00  0.00     0.031 A 
ATOM     42  C   UNL A   1      38.804  30.087  28.925  1.00  0.00     0.074 A 
ATOM     43  C   UNL A   1      40.753  29.148  30.078  1.00  0.00     0.049 A 
ATOM     44  N   UNL A   1      38.960  31.321  29.268  1.00  0.00    -0.248 NA
ATOM     45  C   UNL A   1      37.514  29.823  28.302  1.00  0.00     0.031 C 
ATOM     46  C   UNL A   1      40.801  30.131  31.158  1.00  0.00     0.029 A 
ATOM     47  N   UNL A   1      41.985  28.475  30.167  1.00  0.00    -0.354 N 
ATOM     48  C   UNL A   1      37.736  31.943  29.177  1.00  0.00     0.074 A 
ATOM     49  C   UNL A   1      36.886  30.985  28.508  1.00  0.00     0.031 C 
ATOM     50  C   UNL A   1      42.065  30.222  31.603  1.00  0.00     0.029 A 
ATOM     51  C   UNL A   1      42.885  29.417  30.715  1.00  0.00     0.049 A 
ATOM     52  H   UNL A   1      42.179  27.547  29.902  1.00  0.00     0.167 HD
ATOM     53  C   UNL A   1      37.553  33.145  29.801  1.00  0.00     0.037 A 
ATOM     54  C   UNL A   1      43.946  29.888  29.998  1.00  0.00     0.037 A 
ATOM     55  C   UNL A   1      38.804  33.628  30.385  1.00  0.00     0.049 A 
ATOM     56  C   UNL A   1      43.954  31.388  29.827  1.00  0.00     0.074 A 
ATOM     57  C   UNL A   1      39.315  33.593  31.673  1.00  0.00     0.029 A 
ATOM     58  N   UNL A   1      39.866  33.967  29.552  1.00  0.00    -0.354 N 
ATOM     59  N   UNL A   1      42.896  32.140  29.936  1.00  0.00    -0.248 NA
ATOM     60  C   UNL A   1      45.151  32.148  29.478  1.00  0.00     0.031 C 
ATOM     61  C   UNL A   1      40.702  33.872  31.607  1.00  0.00     0.029 A 
ATOM     62  C   UNL A   1      41.033  34.092  30.280  1.00  0.00     0.049 A 
ATOM     63  H   UNL A   1      39.795  34.102  28.580  1.00  0.00     0.167 HD
ATOM     64  C   UNL A   1      43.230  33.440  29.654  1.00  0.00     0.074 A 
ATOM     65  C   UNL A   1      44.657  33.397  29.399  1.00  0.00     0.031 C 
ATOM     66  C   UNL A   1      42.291  34.434  29.635  1.00  0.00     0.037 A 
BRANCH  53  67
ATOM     67  C   UNL A   1      36.192  33.723  30.147  1.00  0.00     0.064 A 
ATOM     68  C   UNL A   1      35.326  34.197  29.135  1.00  0.00     0.173 A 
ATOM     69  C   UNL A   1      35.708  33.908  31.455  1.00  0.00     0.173 A 
ATOM     70  F   UNL A   1      35.574  33.978  27.838  1.00  0.00    -0.203 F 
ATOM     71  C   UNL A   1      34.161  34.919  29.414  1.00  0.00     0.198 A 
ATOM     72  C   UNL A   1      34.574  34.678  31.739  1.00  0.00     0.198 A 
ATOM     73  F   UNL A   1      36.274  33.294  32.499  1.00  0.00    -0.203 F 
ATOM     74  F   UNL A   1      33.391  35.355  28.408  1.00  0.00    -0.200 F 
ATOM     75  C   UNL A   1      33.809  35.200  30.717  1.00  0.00     0.200 A 
ATOM     76  F   UNL A   1      34.229  34.907  33.014  1.00  0.00    -0.200 F 
ATOM     77  F   UNL A   1      32.721  35.934  30.986  1.00  0.00    -0.200 F 
ENDBRANCH  53  67
BRANCH  54  78
ATOM     78  C   UNL A   1      44.455  28.925  28.985  1.00  0.00     0.064 A 
ATOM     79  C   UNL A   1      45.175  27.797  29.427  1.00  0.00     0.173 A 
ATOM     80  C   UNL A   1      43.956  28.900  27.678  1.00  0.00     0.173 A 
ATOM     81  F   UNL A   1      45.672  27.765  30.675  1.00  0.00    -0.203 F 
ATOM     82  C   UNL A   1      45.292  26.656  28.637  1.00  0.00     0.198 A 
ATOM     83  C   UNL A   1      44.089  27.760  26.883  1.00  0.00     0.198 A 
ATOM     84  F   UNL A   1      43.243  29.932  27.204  1.00  0.00    -0.203 F 
ATOM     85  F   UNL A   1      45.886  25.560  29.131  1.00  0.00    -0.200 F 
ATOM     86  C   UNL A   1      44.727  26.630  27.374  1.00  0.00     0.200 A 
ATOM     87  F   UNL A   1      43.512  27.720  25.674  1.00  0.00    -0.200 F 
ATOM     88  F   UNL A   1      44.757  25.503  26.647  1.00  0.00    -0.200 F 
ENDBRANCH  54  78
BRANCH  66  89
ATOM     89  C   UNL A   1      42.482  35.837  29.103  1.00  0.00     0.064 A 
ATOM     90  C   UNL A   1      41.861  36.335  27.945  1.00  0.00     0.173 A 
ATOM     91  C   UNL A   1      43.213  36.794  29.852  1.00  0.00     0.173 A 
ATOM     92  F   UNL A   1      41.034  35.577  27.214  1.00  0.00    -0.203 F 
ATOM     93  C   UNL A   1      42.016  37.661  27.530  1.00  0.00     0.198 A 
ATOM     94  C   UNL A   1      43.314  38.130  29.469  1.00  0.00     0.198 A 
ATOM     95  F   UNL A   1      43.828  36.467  30.999  1.00  0.00    -0.203 F 
ATOM     96  F   UNL A   1      41.439  38.070  26.391  1.00  0.00    -0.200 F 
ATOM     97  C   UNL A   1      42.731  38.561  28.297  1.00  0.00     0.200 A 
ATOM     98  F   UNL A   1      43.961  39.002  30.256  1.00  0.00    -0.200 F 
ATOM     99  F   UNL A   1      42.836  39.842  27.920  1.00  0.00    -0.200 F 
ENDBRANCH  66  89
ENDBRANCH  40  41
ENDBRANCH  32  35
ENDBRANCH  30  31
ENDBRANCH  29  30
ENDBRANCH  28  29
ENDBRANCH   1  28
TORSDOF 17
ENDMDL
MODEL 3
REMARK VINA RESULT:     -12.5      3.754     10.098
REMARK SMILES CCOc1c(Br)cc(CNc2cccc(C(=O)NCCCCNC(=O)c3ccc(-c4c5nc(c(-c6c(F)c(F)c(F)c(F)c6F)c6ccc([nH]6)c(-c6c(F)c(F)c(F)c(F)c6F)c6nc(c(-c7c(F)c(F)c(F)c(F)c7F)c7ccc4[nH]7)C=C6)C=C5)cc3)c2C)cc1OC
REMARK SMILES IDX 19 1 18 2 16 3 17 4 15 6 11 7 12 8 89 9 13 10 90 11 14 12
REMARK SMILES IDX 10 13 9 15 8 16 4 17 5 18 92 19 6 20 7 21 91 22 3 23 2 24
REMARK SMILES IDX 1 25 93 26 94 27 20 28 21 29 22 30 23 31 24 32 25 34 26 35
REMARK SMILES IDX 27 36 88 37 28 38 87 39 29 40 30 41 31 42 81 43 32 44 86 45
REMARK SMILES IDX 80 46 82 47 33 48 85 49 79 50 78 51 34 53 66 54 46 55 65 56
REMARK SMILES IDX 47 57 50 58 64 59 83 60 48 61 49 62 63 64 84 65 51 66 35 67
REMARK SMILES IDX 36 68 44 69 37 70 38 71 42 72 45 73 39 74 40 75 43 76 41 77
REMARK SMILES IDX 67 78 68 79 76 80 69 81 70 82 74 83 77 84 71 85 72 86 75 87
REMARK SMILES IDX 73 88 52 89 53 90 61 91 54 92 55 93 59 94 62 95 56 96 57 97
REMARK SMILES IDX 60 98 58 99
REMARK H PARENT 18 5 10 14 23 33 82 52 50 63
REMARK Flexibility Score: inf
ROOT
ATOM      1  C   UNL A   1      35.509  21.448  25.756  1.00  0.00     0.116 C 
ENDROOT
BRANCH   1   2
ATOM      2  N   UNL A   1      34.469  20.431  25.639  1.00  0.00    -0.352 N 
ATOM      3  C   UNL A   1      33.100  20.471  25.458  1.00  0.00     0.251 C 
ATOM      4  O   UNL A   1      32.536  19.395  25.265  1.00  0.00    -0.269 OA
ATOM      5  H   UNL A   1      34.820  19.514  25.703  1.00  0.00     0.163 HD
BRANCH   3   6
ATOM      6  C   UNL A   1      32.300  21.738  25.484  1.00  0.00     0.044 A 
ATOM      7  C   UNL A   1      31.129  23.600  24.383  1.00  0.00     0.038 A 
ATOM      8  C   UNL A   1      30.803  24.093  25.655  1.00  0.00     0.026 A 
ATOM      9  C   UNL A   1      31.830  22.365  24.292  1.00  0.00    -0.015 A 
ATOM     10  C   UNL A   1      31.298  23.506  26.810  1.00  0.00     0.003 A 
ATOM     11  C   UNL A   1      32.153  21.801  22.926  1.00  0.00     0.047 C 
ATOM     12  C   UNL A   1      32.103  22.380  26.713  1.00  0.00     0.014 A 
BRANCH   7  13
ATOM     13  N   UNL A   1      30.832  24.358  23.253  1.00  0.00    -0.381 N 
ATOM     14  H   UNL A   1      29.911  24.356  22.906  1.00  0.00     0.160 HD
BRANCH  13  15
ATOM     15  C   UNL A   1      31.840  25.154  22.566  1.00  0.00     0.149 C 
BRANCH  15  16
ATOM     16  C   UNL A   1      32.032  26.475  23.273  1.00  0.00    -0.024 A 
ATOM     17  C   UNL A   1      32.379  28.950  24.601  1.00  0.00     0.175 A 
ATOM     18  C   UNL A   1      33.218  27.857  24.881  1.00  0.00     0.064 A 
ATOM     19  C   UNL A   1      31.309  28.778  23.710  1.00  0.00     0.162 A 
ATOM     20  Br  UNL A   1      34.579  27.936  26.206  1.00  0.00    -0.047 Br
ATOM     21  C   UNL A   1      33.059  26.641  24.209  1.00  0.00     0.025 A 
ATOM     22  C   UNL A   1      31.161  27.548  23.046  1.00  0.00     0.056 A 
BRANCH  17  23
ATOM     23  O   UNL A   1      32.605  30.133  25.259  1.00  0.00    -0.489 OA
BRANCH  23  24
ATOM     24  C   UNL A   1      31.745  30.299  26.397  1.00  0.00     0.226 C 
ATOM     25  C   UNL A   1      31.248  31.729  26.502  1.00  0.00     0.049 C 
ENDBRANCH  23  24
ENDBRANCH  17  23
BRANCH  19  26
ATOM     26  O   UNL A   1      30.343  29.678  23.351  1.00  0.00    -0.493 OA
ATOM     27  C   UNL A   1      29.901  29.703  22.001  1.00  0.00     0.278 C 
ENDBRANCH  19  26
ENDBRANCH  15  16
ENDBRANCH  13  15
ENDBRANCH   7  13
ENDBRANCH   3   6
ENDBRANCH   1   2
BRANCH   1  28
ATOM     28  C   UNL A   1      36.676  21.304  24.776  1.00  0.00     0.023 C 
BRANCH  28  29
ATOM     29  C   UNL A   1      38.077  21.300  25.377  1.00  0.00     0.023 C 
BRANCH  29  30
ATOM     30  C   UNL A   1      38.609  22.655  25.832  1.00  0.00     0.116 C 
BRANCH  30  31
ATOM     31  N   UNL A   1      40.037  22.705  26.125  1.00  0.00    -0.352 N 
ATOM     32  C   UNL A   1      40.822  23.790  26.501  1.00  0.00     0.251 C 
ATOM     33  H   UNL A   1      40.513  21.846  26.045  1.00  0.00     0.163 HD
ATOM     34  O   UNL A   1      42.021  23.658  26.654  1.00  0.00    -0.269 OA
BRANCH  32  35
ATOM     35  C   UNL A   1      40.167  25.080  26.851  1.00  0.00     0.039 A 
ATOM     36  C   UNL A   1      40.585  26.234  26.174  1.00  0.00     0.014 A 
ATOM     37  C   UNL A   1      39.331  25.187  27.956  1.00  0.00     0.014 A 
ATOM     38  C   UNL A   1      40.403  27.479  26.775  1.00  0.00     0.010 A 
ATOM     39  C   UNL A   1      39.249  26.400  28.609  1.00  0.00     0.010 A 
ATOM     40  C   UNL A   1      39.857  27.530  28.055  1.00  0.00    -0.014 A 
BRANCH  40  41
ATOM     41  C   UNL A   1      40.018  28.671  28.948  1.00  0.00     0.031 A 
ATOM     42  C   UNL A   1      38.969  29.702  29.064  1.00  0.00     0.074 A 
ATOM     43  C   UNL A   1      41.092  28.698  29.770  1.00  0.00     0.049 A 
ATOM     44  N   UNL A   1      39.165  30.893  29.519  1.00  0.00    -0.248 NA
ATOM     45  C   UNL A   1      37.599  29.471  28.629  1.00  0.00     0.031 C 
ATOM     46  C   UNL A   1      41.304  29.552  30.936  1.00  0.00     0.029 A 
ATOM     47  N   UNL A   1      42.329  28.057  29.579  1.00  0.00    -0.354 N 
ATOM     48  C   UNL A   1      37.935  31.483  29.699  1.00  0.00     0.074 A 
ATOM     49  C   UNL A   1      36.998  30.582  29.068  1.00  0.00     0.031 C 
ATOM     50  C   UNL A   1      42.622  29.630  31.179  1.00  0.00     0.029 A 
ATOM     51  C   UNL A   1      43.296  28.958  30.083  1.00  0.00     0.049 A 
ATOM     52  H   UNL A   1      42.489  27.171  29.180  1.00  0.00     0.167 HD
ATOM     53  C   UNL A   1      37.842  32.599  30.482  1.00  0.00     0.037 A 
ATOM     54  C   UNL A   1      44.219  29.540  29.265  1.00  0.00     0.037 A 
ATOM     55  C   UNL A   1      39.166  33.051  30.910  1.00  0.00     0.049 A 
ATOM     56  C   UNL A   1      44.182  31.049  29.272  1.00  0.00     0.074 A 
ATOM     57  C   UNL A   1      39.881  32.885  32.086  1.00  0.00     0.029 A 
ATOM     58  N   UNL A   1      40.073  33.516  29.963  1.00  0.00    -0.354 N 
ATOM     59  N   UNL A   1      43.147  31.751  29.638  1.00  0.00    -0.248 NA
ATOM     60  C   UNL A   1      45.297  31.880  28.827  1.00  0.00     0.031 C 
ATOM     61  C   UNL A   1      41.235  33.213  31.831  1.00  0.00     0.029 A 
ATOM     62  C   UNL A   1      41.342  33.592  30.503  1.00  0.00     0.049 A 
ATOM     63  H   UNL A   1      39.843  33.758  29.037  1.00  0.00     0.167 HD
ATOM     64  C   UNL A   1      43.415  33.084  29.460  1.00  0.00     0.074 A 
ATOM     65  C   UNL A   1      44.782  33.114  28.976  1.00  0.00     0.031 C 
ATOM     66  C   UNL A   1      42.474  34.045  29.709  1.00  0.00     0.037 A 
BRANCH  53  67
ATOM     67  C   UNL A   1      36.550  33.093  31.108  1.00  0.00     0.064 A 
ATOM     68  C   UNL A   1      35.630  33.864  30.361  1.00  0.00     0.173 A 
ATOM     69  C   UNL A   1      36.187  32.906  32.454  1.00  0.00     0.173 A 
ATOM     70  F   UNL A   1      35.756  34.023  29.037  1.00  0.00    -0.203 F 
ATOM     71  C   UNL A   1      34.534  34.508  30.945  1.00  0.00     0.198 A 
ATOM     72  C   UNL A   1      35.125  33.594  33.053  1.00  0.00     0.198 A 
ATOM     73  F   UNL A   1      36.804  31.999  33.220  1.00  0.00    -0.203 F 
ATOM     74  F   UNL A   1      33.707  35.239  30.183  1.00  0.00    -0.200 F 
ATOM     75  C   UNL A   1      34.308  34.411  32.301  1.00  0.00     0.200 A 
ATOM     76  F   UNL A   1      34.901  33.453  34.368  1.00  0.00    -0.200 F 
ATOM     77  F   UNL A   1      33.289  35.067  32.872  1.00  0.00    -0.200 F 
ENDBRANCH  53  67
BRANCH  54  78
ATOM     78  C   UNL A   1      44.568  28.714  28.078  1.00  0.00     0.064 A 
ATOM     79  C   UNL A   1      45.375  27.574  28.260  1.00  0.00     0.173 A 
ATOM     80  C   UNL A   1      43.854  28.814  26.878  1.00  0.00     0.173 A 
ATOM     81  F   UNL A   1      46.078  27.424  29.396  1.00  0.00    -0.203 F 
ATOM     82  C   UNL A   1      45.378  26.532  27.336  1.00  0.00     0.198 A 
ATOM     83  C   UNL A   1      43.873  27.774  25.946  1.00  0.00     0.198 A 
ATOM     84  F   UNL A   1      43.051  29.863  26.651  1.00  0.00    -0.203 F 
ATOM     85  F   UNL A   1      46.069  25.412  27.595  1.00  0.00    -0.200 F 
ATOM     86  C   UNL A   1      44.607  26.623  26.191  1.00  0.00     0.200 A 
ATOM     87  F   UNL A   1      43.099  27.846  24.854  1.00  0.00    -0.200 F 
ATOM     88  F   UNL A   1      44.535  25.585  25.344  1.00  0.00    -0.200 F 
ENDBRANCH  54  78
BRANCH  66  89
ATOM     89  C   UNL A   1      42.559  35.504  29.321  1.00  0.00     0.064 A 
ATOM     90  C   UNL A   1      43.346  36.456  29.992  1.00  0.00     0.173 A 
ATOM     91  C   UNL A   1      41.936  35.967  28.134  1.00  0.00     0.173 A 
ATOM     92  F   UNL A   1      44.094  36.123  31.051  1.00  0.00    -0.203 F 
ATOM     93  C   UNL A   1      43.443  37.781  29.554  1.00  0.00     0.198 A 
ATOM     94  C   UNL A   1      42.086  37.272  27.667  1.00  0.00     0.198 A 
ATOM     95  F   UNL A   1      41.184  35.157  27.373  1.00  0.00    -0.203 F 
ATOM     96  F   UNL A   1      44.170  38.658  30.260  1.00  0.00    -0.200 F 
ATOM     97  C   UNL A   1      42.825  38.185  28.387  1.00  0.00     0.200 A 
ATOM     98  F   UNL A   1      41.528  37.630  26.501  1.00  0.00    -0.200 F 
ATOM     99  F   UNL A   1      42.962  39.442  27.946  1.00  0.00    -0.200 F 
ENDBRANCH  66  89
ENDBRANCH  40  41
ENDBRANCH  32  35
ENDBRANCH  30  31
ENDBRANCH  29  30
ENDBRANCH  28  29
ENDBRANCH   1  28
TORSDOF 17
ENDMDL
