MODEL 1
REMARK VINA RESULT:     -11.5      0.000      0.000
REMARK SMILES O=C(NCCCCNC(=O)[C@H](F)[C@H](O)C1CCOCC1)c1ccc(-c2c3nc(c(-c4c(F)c(F)c(F)c(F)c4F)c4ccc([nH]4)c(-c4c(F)c(F)c(F)c(F)c4F)c4nc(c(-c5c(F)c(F)c(F)c(F)c5F)c5ccc2[nH]5)C=C4)C=C3)cc1
REMARK SMILES IDX 5 1 4 2 3 3 1 4 2 5 21 7 22 8 83 9 23 10 82 11 24 12 25 13
REMARK SMILES IDX 26 14 76 15 27 16 81 17 75 18 77 19 28 20 80 21 74 22 73 23
REMARK SMILES IDX 29 25 61 26 41 27 60 28 42 29 45 30 59 31 78 32 43 33 44 34
REMARK SMILES IDX 58 36 79 37 46 38 30 39 31 40 39 41 32 42 33 43 37 44 40 45
REMARK SMILES IDX 34 46 35 47 38 48 36 49 62 50 63 51 71 52 64 53 65 54 69 55
REMARK SMILES IDX 72 56 66 57 67 58 70 59 68 60 47 61 48 62 56 63 49 64 50 65
REMARK SMILES IDX 54 66 57 67 51 68 52 69 55 70 53 71 6 72 7 73 8 74 9 75
REMARK SMILES IDX 10 77 11 78 12 79 13 80 15 81 16 82 20 83 17 84 19 85 18 86
REMARK SMILES IDX 14 87
REMARK H PARENT 3 6 77 24 45 35 8 76 14 88
REMARK Flexibility Score: inf
ROOT
ATOM      1  C   UNL A   1      31.201  31.893  26.537  1.00  0.00     0.023 C 
ENDROOT
BRANCH   1   2
ATOM      2  C   UNL A   1      32.522  32.522  26.946  1.00  0.00     0.116 C 
BRANCH   2   3
ATOM      3  N   UNL A   1      32.369  33.883  27.443  1.00  0.00    -0.352 N 
ATOM      4  O   UNL A   1      32.725  35.628  28.833  1.00  0.00    -0.269 OA
ATOM      5  C   UNL A   1      33.078  34.525  28.428  1.00  0.00     0.251 C 
ATOM      6  H   UNL A   1      31.661  34.415  27.015  1.00  0.00     0.163 HD
BRANCH   5   7
ATOM      7  C   UNL A   1      34.258  33.863  29.015  1.00  0.00     0.039 A 
ATOM      8  C   UNL A   1      34.097  32.792  29.898  1.00  0.00     0.014 A 
ATOM      9  C   UNL A   1      35.535  34.332  28.696  1.00  0.00     0.014 A 
ATOM     10  C   UNL A   1      35.200  32.286  30.572  1.00  0.00     0.010 A 
ATOM     11  C   UNL A   1      36.652  33.758  29.305  1.00  0.00     0.010 A 
ATOM     12  C   UNL A   1      36.490  32.748  30.267  1.00  0.00    -0.014 A 
BRANCH  12  13
ATOM     13  C   UNL A   1      37.658  32.101  30.910  1.00  0.00     0.031 A 
ATOM     14  C   UNL A   1      38.084  32.466  32.300  1.00  0.00     0.074 A 
ATOM     15  C   UNL A   1      38.319  31.154  30.217  1.00  0.00     0.049 A 
ATOM     16  N   UNL A   1      39.086  31.999  33.003  1.00  0.00    -0.248 NA
ATOM     17  C   UNL A   1      37.292  33.491  32.997  1.00  0.00     0.031 C 
ATOM     18  C   UNL A   1      37.992  30.730  28.854  1.00  0.00     0.029 A 
ATOM     19  N   UNL A   1      39.388  30.370  30.562  1.00  0.00    -0.354 N 
ATOM     20  C   UNL A   1      39.060  32.685  34.209  1.00  0.00     0.074 A 
ATOM     21  C   UNL A   1      37.952  33.615  34.140  1.00  0.00     0.031 C 
ATOM     22  C   UNL A   1      38.813  29.734  28.494  1.00  0.00     0.029 A 
ATOM     23  C   UNL A   1      39.766  29.498  29.572  1.00  0.00     0.049 A 
ATOM     24  H   UNL A   1      39.841  30.426  31.434  1.00  0.00     0.167 HD
ATOM     25  C   UNL A   1      39.884  32.542  35.275  1.00  0.00     0.037 A 
ATOM     26  C   UNL A   1      40.781  28.618  29.526  1.00  0.00     0.037 A 
ATOM     27  C   UNL A   1      40.972  31.599  35.337  1.00  0.00     0.049 A 
ATOM     28  C   UNL A   1      41.691  28.501  30.712  1.00  0.00     0.074 A 
ATOM     29  C   UNL A   1      41.837  31.347  36.388  1.00  0.00     0.029 A 
ATOM     30  N   UNL A   1      41.343  30.752  34.302  1.00  0.00    -0.354 N 
ATOM     31  N   UNL A   1      41.638  29.135  31.858  1.00  0.00    -0.248 NA
ATOM     32  C   UNL A   1      42.806  27.553  30.597  1.00  0.00     0.031 C 
ATOM     33  C   UNL A   1      42.760  30.381  35.974  1.00  0.00     0.029 A 
ATOM     34  C   UNL A   1      42.443  29.997  34.681  1.00  0.00     0.049 A 
ATOM     35  H   UNL A   1      40.894  30.697  33.429  1.00  0.00     0.167 HD
ATOM     36  C   UNL A   1      42.704  28.658  32.605  1.00  0.00     0.074 A 
ATOM     37  C   UNL A   1      43.374  27.664  31.791  1.00  0.00     0.031 C 
ATOM     38  C   UNL A   1      43.097  29.017  33.852  1.00  0.00     0.037 A 
BRANCH  25  39
ATOM     39  C   UNL A   1      39.660  33.438  36.458  1.00  0.00     0.064 A 
ATOM     40  C   UNL A   1      40.240  34.713  36.540  1.00  0.00     0.173 A 
ATOM     41  C   UNL A   1      38.806  33.037  37.498  1.00  0.00     0.173 A 
ATOM     42  F   UNL A   1      41.071  35.139  35.578  1.00  0.00    -0.203 F 
ATOM     43  C   UNL A   1      39.987  35.546  37.628  1.00  0.00     0.198 A 
ATOM     44  C   UNL A   1      38.536  33.883  38.572  1.00  0.00     0.198 A 
ATOM     45  F   UNL A   1      38.220  31.831  37.466  1.00  0.00    -0.203 F 
ATOM     46  F   UNL A   1      40.580  36.745  37.703  1.00  0.00    -0.200 F 
ATOM     47  C   UNL A   1      39.131  35.134  38.638  1.00  0.00     0.200 A 
ATOM     48  F   UNL A   1      37.700  33.488  39.541  1.00  0.00    -0.200 F 
ATOM     49  F   UNL A   1      38.882  35.941  39.679  1.00  0.00    -0.200 F 
ENDBRANCH  25  39
BRANCH  26  50
ATOM     50  C   UNL A   1      40.988  27.799  28.306  1.00  0.00     0.064 A 
ATOM     51  C   UNL A   1      41.763  28.273  27.241  1.00  0.00     0.173 A 
ATOM     52  C   UNL A   1      40.440  26.512  28.195  1.00  0.00     0.173 A 
ATOM     53  F   UNL A   1      42.292  29.504  27.295  1.00  0.00    -0.203 F 
ATOM     54  C   UNL A   1      41.975  27.495  26.105  1.00  0.00     0.198 A 
ATOM     55  C   UNL A   1      40.677  25.723  27.072  1.00  0.00     0.198 A 
ATOM     56  F   UNL A   1      39.697  26.009  29.192  1.00  0.00    -0.203 F 
ATOM     57  F   UNL A   1      42.692  27.986  25.085  1.00  0.00    -0.200 F 
ATOM     58  C   UNL A   1      41.439  26.218  26.026  1.00  0.00     0.200 A 
ATOM     59  F   UNL A   1      40.174  24.483  27.008  1.00  0.00    -0.200 F 
ATOM     60  F   UNL A   1      41.655  25.466  24.938  1.00  0.00    -0.200 F 
ENDBRANCH  26  50
BRANCH  38  61
ATOM     61  C   UNL A   1      44.297  28.314  34.411  1.00  0.00     0.064 A 
ATOM     62  C   UNL A   1      45.587  28.848  34.271  1.00  0.00     0.173 A 
ATOM     63  C   UNL A   1      44.154  27.111  35.116  1.00  0.00     0.173 A 
ATOM     64  F   UNL A   1      45.776  29.987  33.588  1.00  0.00    -0.203 F 
ATOM     65  C   UNL A   1      46.693  28.188  34.798  1.00  0.00     0.198 A 
ATOM     66  C   UNL A   1      45.259  26.468  35.664  1.00  0.00     0.198 A 
ATOM     67  F   UNL A   1      42.940  26.563  35.278  1.00  0.00    -0.203 F 
ATOM     68  F   UNL A   1      47.921  28.691  34.614  1.00  0.00    -0.200 F 
ATOM     69  C   UNL A   1      46.528  27.003  35.500  1.00  0.00     0.200 A 
ATOM     70  F   UNL A   1      45.097  25.326  36.350  1.00  0.00    -0.200 F 
ATOM     71  F   UNL A   1      47.594  26.370  36.009  1.00  0.00    -0.200 F 
ENDBRANCH  38  61
ENDBRANCH  12  13
ENDBRANCH   5   7
ENDBRANCH   2   3
ENDBRANCH   1   2
BRANCH   1  72
ATOM     72  C   UNL A   1      31.331  30.612  25.721  1.00  0.00     0.023 C 
BRANCH  72  73
ATOM     73  C   UNL A   1      32.698  29.932  25.800  1.00  0.00     0.116 C 
BRANCH  73  74
ATOM     74  N   UNL A   1      33.273  29.694  24.489  1.00  0.00    -0.353 N 
ATOM     75  C   UNL A   1      33.027  28.669  23.617  1.00  0.00     0.257 C 
ATOM     76  H   UNL A   1      33.931  30.361  24.186  1.00  0.00     0.163 HD
ATOM     77  O   UNL A   1      33.673  28.638  22.565  1.00  0.00    -0.272 OA
BRANCH  75  78
ATOM     78  C   UNL A   1      31.995  27.589  23.940  1.00  0.00     0.283 C 
ATOM     79  F   UNL A   1      32.551  26.336  23.984  1.00  0.00    -0.234 F 
BRANCH  78  80
ATOM     80  C   UNL A   1      30.808  27.549  22.957  1.00  0.00     0.161 C 
BRANCH  80  81
ATOM     81  C   UNL A   1      29.886  28.786  23.068  1.00  0.00     0.026 C 
ATOM     82  C   UNL A   1      28.415  28.333  23.103  1.00  0.00     0.035 C 
ATOM     83  C   UNL A   1      30.097  29.782  21.914  1.00  0.00     0.035 C 
ATOM     84  C   UNL A   1      27.454  29.509  23.016  1.00  0.00     0.160 C 
ATOM     85  C   UNL A   1      29.040  30.874  21.924  1.00  0.00     0.160 C 
ATOM     86  O   UNL A   1      27.735  30.302  21.867  1.00  0.00    -0.381 OA
ENDBRANCH  80  81
BRANCH  80  87
ATOM     87  O   UNL A   1      31.236  27.393  21.604  1.00  0.00    -0.389 OA
ATOM     88  H   UNL A   1      32.006  26.804  21.573  1.00  0.00     0.211 HD
ENDBRANCH  80  87
ENDBRANCH  78  80
ENDBRANCH  75  78
ENDBRANCH  73  74
ENDBRANCH  72  73
ENDBRANCH   1  72
TORSDOF 14
ENDMDL
MODEL 2
REMARK VINA RESULT:     -11.5      0.609      7.691
REMARK SMILES O=C(NCCCCNC(=O)[C@H](F)[C@H](O)C1CCOCC1)c1ccc(-c2c3nc(c(-c4c(F)c(F)c(F)c(F)c4F)c4ccc([nH]4)c(-c4c(F)c(F)c(F)c(F)c4F)c4nc(c(-c5c(F)c(F)c(F)c(F)c5F)c5ccc2[nH]5)C=C4)C=C3)cc1
REMARK SMILES IDX 5 1 4 2 3 3 1 4 2 5 21 7 22 8 83 9 23 10 82 11 24 12 25 13
REMARK SMILES IDX 26 14 76 15 27 16 81 17 75 18 77 19 28 20 80 21 74 22 73 23
REMARK SMILES IDX 29 25 61 26 41 27 60 28 42 29 45 30 59 31 78 32 43 33 44 34
REMARK SMILES IDX 58 36 79 37 46 38 30 39 31 40 39 41 32 42 33 43 37 44 40 45
REMARK SMILES IDX 34 46 35 47 38 48 36 49 62 50 63 51 71 52 64 53 65 54 69 55
REMARK SMILES IDX 72 56 66 57 67 58 70 59 68 60 47 61 48 62 56 63 49 64 50 65
REMARK SMILES IDX 54 66 57 67 51 68 52 69 55 70 53 71 6 72 7 73 8 74 9 75
REMARK SMILES IDX 10 77 11 78 12 79 13 80 15 81 16 82 20 83 17 84 19 85 18 86
REMARK SMILES IDX 14 87
REMARK H PARENT 3 6 77 24 45 35 8 76 14 88
REMARK Flexibility Score: inf
ROOT
ATOM      1  C   UNL A   1      31.376  31.942  26.895  1.00  0.00     0.023 C 
ENDROOT
BRANCH   1   2
ATOM      2  C   UNL A   1      32.646  32.776  26.939  1.00  0.00     0.116 C 
BRANCH   2   3
ATOM      3  N   UNL A   1      32.435  34.094  27.521  1.00  0.00    -0.352 N 
ATOM      4  O   UNL A   1      32.680  35.744  29.045  1.00  0.00    -0.269 OA
ATOM      5  C   UNL A   1      33.079  34.679  28.582  1.00  0.00     0.251 C 
ATOM      6  H   UNL A   1      31.735  34.639  27.096  1.00  0.00     0.163 HD
BRANCH   5   7
ATOM      7  C   UNL A   1      34.247  34.003  29.180  1.00  0.00     0.039 A 
ATOM      8  C   UNL A   1      34.065  32.918  30.040  1.00  0.00     0.014 A 
ATOM      9  C   UNL A   1      35.530  34.473  28.893  1.00  0.00     0.014 A 
ATOM     10  C   UNL A   1      35.153  32.396  30.726  1.00  0.00     0.010 A 
ATOM     11  C   UNL A   1      36.634  33.885  29.514  1.00  0.00     0.010 A 
ATOM     12  C   UNL A   1      36.451  32.859  30.454  1.00  0.00    -0.014 A 
BRANCH  12  13
ATOM     13  C   UNL A   1      37.604  32.196  31.108  1.00  0.00     0.031 A 
ATOM     14  C   UNL A   1      38.401  31.142  30.400  1.00  0.00     0.074 A 
ATOM     15  C   UNL A   1      37.933  32.582  32.356  1.00  0.00     0.049 A 
ATOM     16  N   UNL A   1      39.433  30.462  30.833  1.00  0.00    -0.248 NA
ATOM     17  C   UNL A   1      37.990  30.799  29.030  1.00  0.00     0.031 C 
ATOM     18  C   UNL A   1      37.217  33.592  33.138  1.00  0.00     0.029 A 
ATOM     19  N   UNL A   1      38.954  32.185  33.179  1.00  0.00    -0.354 N 
ATOM     20  C   UNL A   1      39.779  29.597  29.804  1.00  0.00     0.074 A 
ATOM     21  C   UNL A   1      38.838  29.825  28.727  1.00  0.00     0.031 C 
ATOM     22  C   UNL A   1      37.846  33.769  34.308  1.00  0.00     0.029 A 
ATOM     23  C   UNL A   1      38.964  32.837  34.387  1.00  0.00     0.049 A 
ATOM     24  H   UNL A   1      39.615  31.501  32.928  1.00  0.00     0.167 HD
ATOM     25  C   UNL A   1      40.796  28.702  29.766  1.00  0.00     0.037 A 
ATOM     26  C   UNL A   1      39.771  32.686  35.451  1.00  0.00     0.037 A 
ATOM     27  C   UNL A   1      41.738  28.499  30.837  1.00  0.00     0.049 A 
ATOM     28  C   UNL A   1      40.871  31.669  35.387  1.00  0.00     0.074 A 
ATOM     29  C   UNL A   1      42.828  27.648  30.879  1.00  0.00     0.029 A 
ATOM     30  N   UNL A   1      41.698  29.156  32.059  1.00  0.00    -0.354 N 
ATOM     31  N   UNL A   1      41.206  30.878  34.397  1.00  0.00    -0.248 NA
ATOM     32  C   UNL A   1      41.701  31.519  36.589  1.00  0.00     0.031 C 
ATOM     33  C   UNL A   1      43.421  27.756  32.141  1.00  0.00     0.029 A 
ATOM     34  C   UNL A   1      42.728  28.708  32.871  1.00  0.00     0.049 A 
ATOM     35  H   UNL A   1      41.035  29.837  32.312  1.00  0.00     0.167 HD
ATOM     36  C   UNL A   1      42.290  30.142  34.851  1.00  0.00     0.074 A 
ATOM     37  C   UNL A   1      42.571  30.597  36.198  1.00  0.00     0.031 C 
ATOM     38  C   UNL A   1      42.986  29.171  34.211  1.00  0.00     0.037 A 
BRANCH  25  39
ATOM     39  C   UNL A   1      40.937  27.856  28.534  1.00  0.00     0.064 A 
ATOM     40  C   UNL A   1      40.271  26.629  28.400  1.00  0.00     0.173 A 
ATOM     41  C   UNL A   1      41.705  28.307  27.449  1.00  0.00     0.173 A 
ATOM     42  F   UNL A   1      39.533  26.148  29.412  1.00  0.00    -0.203 F 
ATOM     43  C   UNL A   1      40.382  25.877  27.232  1.00  0.00     0.198 A 
ATOM     44  C   UNL A   1      41.794  27.564  26.274  1.00  0.00     0.198 A 
ATOM     45  F   UNL A   1      42.358  29.477  27.522  1.00  0.00    -0.203 F 
ATOM     46  F   UNL A   1      39.765  24.691  27.140  1.00  0.00    -0.200 F 
ATOM     47  C   UNL A   1      41.136  26.348  26.169  1.00  0.00     0.200 A 
ATOM     48  F   UNL A   1      42.514  28.026  25.243  1.00  0.00    -0.200 F 
ATOM     49  F   UNL A   1      41.234  25.627  25.043  1.00  0.00    -0.200 F 
ENDBRANCH  25  39
BRANCH  26  50
ATOM     50  C   UNL A   1      39.547  33.513  36.664  1.00  0.00     0.064 A 
ATOM     51  C   UNL A   1      38.687  33.082  37.681  1.00  0.00     0.173 A 
ATOM     52  C   UNL A   1      40.215  34.733  36.843  1.00  0.00     0.173 A 
ATOM     53  F   UNL A   1      38.014  31.930  37.546  1.00  0.00    -0.203 F 
ATOM     54  C   UNL A   1      38.495  33.848  38.830  1.00  0.00     0.198 A 
ATOM     55  C   UNL A   1      40.045  35.483  38.004  1.00  0.00     0.198 A 
ATOM     56  F   UNL A   1      41.056  35.185  35.900  1.00  0.00    -0.203 F 
ATOM     57  F   UNL A   1      37.640  33.430  39.773  1.00  0.00    -0.200 F 
ATOM     58  C   UNL A   1      39.180  35.042  38.993  1.00  0.00     0.200 A 
ATOM     59  F   UNL A   1      40.724  36.627  38.166  1.00  0.00    -0.200 F 
ATOM     60  F   UNL A   1      39.004  35.771  40.104  1.00  0.00    -0.200 F 
ENDBRANCH  26  50
BRANCH  38  61
ATOM     61  C   UNL A   1      44.127  28.551  34.959  1.00  0.00     0.064 A 
ATOM     62  C   UNL A   1      45.411  29.114  34.930  1.00  0.00     0.173 A 
ATOM     63  C   UNL A   1      43.929  27.399  35.733  1.00  0.00     0.173 A 
ATOM     64  F   UNL A   1      45.653  30.206  34.189  1.00  0.00    -0.203 F 
ATOM     65  C   UNL A   1      46.462  28.531  35.632  1.00  0.00     0.198 A 
ATOM     66  C   UNL A   1      44.976  26.834  36.455  1.00  0.00     0.198 A 
ATOM     67  F   UNL A   1      42.718  26.825  35.795  1.00  0.00    -0.203 F 
ATOM     68  F   UNL A   1      47.691  29.059  35.555  1.00  0.00    -0.200 F 
ATOM     69  C   UNL A   1      46.242  27.397  36.400  1.00  0.00     0.200 A 
ATOM     70  F   UNL A   1      44.760  25.742  37.204  1.00  0.00    -0.200 F 
ATOM     71  F   UNL A   1      47.255  26.838  37.078  1.00  0.00    -0.200 F 
ENDBRANCH  38  61
ENDBRANCH  12  13
ENDBRANCH   5   7
ENDBRANCH   2   3
ENDBRANCH   1   2
BRANCH   1  72
ATOM     72  C   UNL A   1      31.332  30.907  25.776  1.00  0.00     0.023 C 
BRANCH  72  73
ATOM     73  C   UNL A   1      32.356  29.778  25.898  1.00  0.00     0.116 C 
BRANCH  73  74
ATOM     74  N   UNL A   1      33.250  29.716  24.756  1.00  0.00    -0.353 N 
ATOM     75  C   UNL A   1      33.129  28.977  23.612  1.00  0.00     0.257 C 
ATOM     76  H   UNL A   1      34.053  30.283  24.813  1.00  0.00     0.163 HD
ATOM     77  O   UNL A   1      34.043  29.041  22.783  1.00  0.00    -0.272 OA
BRANCH  75  78
ATOM     78  C   UNL A   1      31.909  28.088  23.372  1.00  0.00     0.283 C 
ATOM     79  F   UNL A   1      32.251  26.873  22.835  1.00  0.00    -0.234 F 
BRANCH  78  80
ATOM     80  C   UNL A   1      30.843  28.729  22.462  1.00  0.00     0.161 C 
BRANCH  80  81
ATOM     81  C   UNL A   1      29.568  29.157  23.227  1.00  0.00     0.026 C 
ATOM     82  C   UNL A   1      28.406  28.215  22.864  1.00  0.00     0.035 C 
ATOM     83  C   UNL A   1      29.170  30.614  22.935  1.00  0.00     0.035 C 
ATOM     84  C   UNL A   1      27.082  28.700  23.433  1.00  0.00     0.160 C 
ATOM     85  C   UNL A   1      27.806  30.944  23.522  1.00  0.00     0.160 C 
ATOM     86  O   UNL A   1      26.821  30.040  23.027  1.00  0.00    -0.381 OA
ENDBRANCH  80  81
BRANCH  80  87
ATOM     87  O   UNL A   1      31.357  29.843  21.732  1.00  0.00    -0.389 OA
ATOM     88  H   UNL A   1      32.222  30.096  22.094  1.00  0.00     0.211 HD
ENDBRANCH  80  87
ENDBRANCH  78  80
ENDBRANCH  75  78
ENDBRANCH  73  74
ENDBRANCH  72  73
ENDBRANCH   1  72
TORSDOF 14
ENDMDL
MODEL 3
REMARK VINA RESULT:     -11.4      0.423      7.587
REMARK SMILES O=C(NCCCCNC(=O)[C@H](F)[C@H](O)C1CCOCC1)c1ccc(-c2c3nc(c(-c4c(F)c(F)c(F)c(F)c4F)c4ccc([nH]4)c(-c4c(F)c(F)c(F)c(F)c4F)c4nc(c(-c5c(F)c(F)c(F)c(F)c5F)c5ccc2[nH]5)C=C4)C=C3)cc1
REMARK SMILES IDX 5 1 4 2 3 3 1 4 2 5 21 7 22 8 83 9 23 10 82 11 24 12 25 13
REMARK SMILES IDX 26 14 76 15 27 16 81 17 75 18 77 19 28 20 80 21 74 22 73 23
REMARK SMILES IDX 29 25 61 26 41 27 60 28 42 29 45 30 59 31 78 32 43 33 44 34
REMARK SMILES IDX 58 36 79 37 46 38 30 39 31 40 39 41 32 42 33 43 37 44 40 45
REMARK SMILES IDX 34 46 35 47 38 48 36 49 62 50 63 51 71 52 64 53 65 54 69 55
REMARK SMILES IDX 72 56 66 57 67 58 70 59 68 60 47 61 48 62 56 63 49 64 50 65
REMARK SMILES IDX 54 66 57 67 51 68 52 69 55 70 53 71 6 72 7 73 8 74 9 75
REMARK SMILES IDX 10 77 11 78 12 79 13 80 15 81 16 82 20 83 17 84 19 85 18 86
REMARK SMILES IDX 14 87
REMARK H PARENT 3 6 77 24 45 35 8 76 14 88
REMARK Flexibility Score: inf
ROOT
ATOM      1  C   UNL A   1      31.296  31.965  26.553  1.00  0.00     0.023 C 
ENDROOT
BRANCH   1   2
ATOM      2  C   UNL A   1      32.631  32.587  26.924  1.00  0.00     0.116 C 
BRANCH   2   3
ATOM      3  N   UNL A   1      32.498  33.941  27.445  1.00  0.00    -0.352 N 
ATOM      4  O   UNL A   1      32.858  35.649  28.879  1.00  0.00    -0.269 OA
ATOM      5  C   UNL A   1      33.195  34.545  28.461  1.00  0.00     0.251 C 
ATOM      6  H   UNL A   1      31.815  34.498  27.008  1.00  0.00     0.163 HD
BRANCH   5   7
ATOM      7  C   UNL A   1      34.342  33.843  29.067  1.00  0.00     0.039 A 
ATOM      8  C   UNL A   1      34.132  32.736  29.893  1.00  0.00     0.014 A 
ATOM      9  C   UNL A   1      35.636  34.308  28.821  1.00  0.00     0.014 A 
ATOM     10  C   UNL A   1      35.200  32.186  30.589  1.00  0.00     0.010 A 
ATOM     11  C   UNL A   1      36.720  33.693  29.450  1.00  0.00     0.010 A 
ATOM     12  C   UNL A   1      36.507  32.644  30.359  1.00  0.00    -0.014 A 
BRANCH  12  13
ATOM     13  C   UNL A   1      37.639  31.954  31.020  1.00  0.00     0.031 A 
ATOM     14  C   UNL A   1      38.452  30.921  30.297  1.00  0.00     0.074 A 
ATOM     15  C   UNL A   1      37.935  32.294  32.289  1.00  0.00     0.049 A 
ATOM     16  N   UNL A   1      39.468  30.221  30.735  1.00  0.00    -0.248 NA
ATOM     17  C   UNL A   1      38.077  30.628  28.905  1.00  0.00     0.031 C 
ATOM     18  C   UNL A   1      37.202  33.280  33.086  1.00  0.00     0.029 A 
ATOM     19  N   UNL A   1      38.932  31.864  33.125  1.00  0.00    -0.354 N 
ATOM     20  C   UNL A   1      39.840  29.391  29.686  1.00  0.00     0.074 A 
ATOM     21  C   UNL A   1      38.929  29.661  28.593  1.00  0.00     0.031 C 
ATOM     22  C   UNL A   1      37.799  33.413  34.279  1.00  0.00     0.029 A 
ATOM     23  C   UNL A   1      38.911  32.473  34.355  1.00  0.00     0.049 A 
ATOM     24  H   UNL A   1      39.597  31.186  32.869  1.00  0.00     0.167 HD
ATOM     25  C   UNL A   1      40.854  28.493  29.644  1.00  0.00     0.037 A 
ATOM     26  C   UNL A   1      39.688  32.282  35.435  1.00  0.00     0.037 A 
ATOM     27  C   UNL A   1      41.764  28.248  30.733  1.00  0.00     0.049 A 
ATOM     28  C   UNL A   1      40.786  31.262  35.366  1.00  0.00     0.074 A 
ATOM     29  C   UNL A   1      42.851  27.391  30.775  1.00  0.00     0.029 A 
ATOM     30  N   UNL A   1      41.694  28.862  31.976  1.00  0.00    -0.354 N 
ATOM     31  N   UNL A   1      41.145  30.504  34.358  1.00  0.00    -0.248 NA
ATOM     32  C   UNL A   1      41.582  31.066  36.584  1.00  0.00     0.031 C 
ATOM     33  C   UNL A   1      43.409  27.452  32.055  1.00  0.00     0.029 A 
ATOM     34  C   UNL A   1      42.700  28.381  32.799  1.00  0.00     0.049 A 
ATOM     35  H   UNL A   1      41.027  29.538  32.234  1.00  0.00     0.167 HD
ATOM     36  C   UNL A   1      42.213  29.748  34.815  1.00  0.00     0.074 A 
ATOM     37  C   UNL A   1      42.458  30.154  36.184  1.00  0.00     0.031 C 
ATOM     38  C   UNL A   1      42.922  28.796  34.161  1.00  0.00     0.037 A 
BRANCH  25  39
ATOM     39  C   UNL A   1      41.025  27.689  28.388  1.00  0.00     0.064 A 
ATOM     40  C   UNL A   1      41.913  28.082  27.375  1.00  0.00     0.173 A 
ATOM     41  C   UNL A   1      40.333  26.479  28.221  1.00  0.00     0.173 A 
ATOM     42  F   UNL A   1      42.590  29.235  27.481  1.00  0.00    -0.203 F 
ATOM     43  C   UNL A   1      42.088  27.302  26.234  1.00  0.00     0.198 A 
ATOM     44  C   UNL A   1      40.529  25.690  27.090  1.00  0.00     0.198 A 
ATOM     45  F   UNL A   1      39.477  26.054  29.162  1.00  0.00    -0.203 F 
ATOM     46  F   UNL A   1      42.915  27.715  25.263  1.00  0.00    -0.200 F 
ATOM     47  C   UNL A   1      41.403  26.105  26.096  1.00  0.00     0.200 A 
ATOM     48  F   UNL A   1      39.875  24.528  26.963  1.00  0.00    -0.200 F 
ATOM     49  F   UNL A   1      41.581  25.351  25.001  1.00  0.00    -0.200 F 
ENDBRANCH  25  39
BRANCH  26  50
ATOM     50  C   UNL A   1      39.434  33.066  36.669  1.00  0.00     0.064 A 
ATOM     51  C   UNL A   1      40.115  34.264  36.914  1.00  0.00     0.173 A 
ATOM     52  C   UNL A   1      38.482  32.650  37.611  1.00  0.00     0.173 A 
ATOM     53  F   UNL A   1      41.047  34.694  36.051  1.00  0.00    -0.203 F 
ATOM     54  C   UNL A   1      39.860  35.013  38.062  1.00  0.00     0.198 A 
ATOM     55  C   UNL A   1      38.206  33.413  38.743  1.00  0.00     0.198 A 
ATOM     56  F   UNL A   1      37.797  31.513  37.417  1.00  0.00    -0.203 F 
ATOM     57  F   UNL A   1      40.551  36.139  38.290  1.00  0.00    -0.200 F 
ATOM     58  C   UNL A   1      38.901  34.591  38.969  1.00  0.00     0.200 A 
ATOM     59  F   UNL A   1      37.265  33.011  39.607  1.00  0.00    -0.200 F 
ATOM     60  F   UNL A   1      38.648  35.318  40.066  1.00  0.00    -0.200 F 
ENDBRANCH  26  50
BRANCH  38  61
ATOM     61  C   UNL A   1      44.040  28.145  34.918  1.00  0.00     0.064 A 
ATOM     62  C   UNL A   1      43.824  26.999  35.698  1.00  0.00     0.173 A 
ATOM     63  C   UNL A   1      45.344  28.657  34.843  1.00  0.00     0.173 A 
ATOM     64  F   UNL A   1      42.591  26.485  35.815  1.00  0.00    -0.203 F 
ATOM     65  C   UNL A   1      44.871  26.403  36.393  1.00  0.00     0.198 A 
ATOM     66  C   UNL A   1      46.393  28.041  35.519  1.00  0.00     0.198 A 
ATOM     67  F   UNL A   1      45.600  29.749  34.108  1.00  0.00    -0.203 F 
ATOM     68  F   UNL A   1      44.635  25.335  37.169  1.00  0.00    -0.200 F 
ATOM     69  C   UNL A   1      46.155  26.919  36.298  1.00  0.00     0.200 A 
ATOM     70  F   UNL A   1      47.635  28.536  35.419  1.00  0.00    -0.200 F 
ATOM     71  F   UNL A   1      47.162  26.340  36.967  1.00  0.00    -0.200 F 
ENDBRANCH  38  61
ENDBRANCH  12  13
ENDBRANCH   5   7
ENDBRANCH   2   3
ENDBRANCH   1   2
BRANCH   1  72
ATOM     72  C   UNL A   1      31.395  30.701  25.706  1.00  0.00     0.023 C 
BRANCH  72  73
ATOM     73  C   UNL A   1      32.742  29.982  25.773  1.00  0.00     0.116 C 
BRANCH  73  74
ATOM     74  N   UNL A   1      33.278  29.688  24.457  1.00  0.00    -0.353 N 
ATOM     75  C   UNL A   1      32.955  28.666  23.608  1.00  0.00     0.257 C 
ATOM     76  H   UNL A   1      33.969  30.308  24.131  1.00  0.00     0.163 HD
ATOM     77  O   UNL A   1      33.578  28.577  22.545  1.00  0.00    -0.272 OA
BRANCH  75  78
ATOM     78  C   UNL A   1      31.865  27.655  23.968  1.00  0.00     0.283 C 
ATOM     79  F   UNL A   1      32.354  26.377  24.065  1.00  0.00    -0.234 F 
BRANCH  78  80
ATOM     80  C   UNL A   1      30.682  27.640  22.981  1.00  0.00     0.161 C 
BRANCH  80  81
ATOM     81  C   UNL A   1      29.777  28.890  23.095  1.00  0.00     0.026 C 
ATOM     82  C   UNL A   1      28.300  28.459  23.127  1.00  0.00     0.035 C 
ATOM     83  C   UNL A   1      30.006  29.887  21.946  1.00  0.00     0.035 C 
ATOM     84  C   UNL A   1      27.358  29.650  23.044  1.00  0.00     0.160 C 
ATOM     85  C   UNL A   1      28.965  30.996  21.959  1.00  0.00     0.160 C 
ATOM     86  O   UNL A   1      27.651  30.444  21.898  1.00  0.00    -0.381 OA
ENDBRANCH  80  81
BRANCH  80  87
ATOM     87  O   UNL A   1      31.111  27.485  21.628  1.00  0.00    -0.389 OA
ATOM     88  H   UNL A   1      30.338  27.481  21.041  1.00  0.00     0.211 HD
ENDBRANCH  80  87
ENDBRANCH  78  80
ENDBRANCH  75  78
ENDBRANCH  73  74
ENDBRANCH  72  73
ENDBRANCH   1  72
TORSDOF 14
ENDMDL
