MODEL 1
REMARK VINA RESULT:     -10.5      0.000      0.000
REMARK SMILES CC(C)C[C@@H](CNC(=O)N(C)CCC#N)C(=O)NCCCCNC(=O)c1ccc(-c2c3nc(c(-c4c(F)c(F)c(F)c(F)c4F)c4ccc([nH]4)c(-c4c(F)c(F)c(F)c(F)c4F)c4nc(c(-c5c(F)c(F)c(F)c(F)c5F)c5ccc2[nH]5)C=C4)C=C3)cc1
REMARK SMILES IDX 16 1 17 2 18 3 5 5 4 6 2 7 1 8 3 9 6 10 7 11 8 12 9 14 10 15
REMARK SMILES IDX 11 16 12 17 13 18 14 19 15 20 19 21 20 22 21 23 22 24 23 25
REMARK SMILES IDX 24 26 25 28 26 29 27 30 88 31 28 32 87 33 29 34 30 35 31 36
REMARK SMILES IDX 81 37 32 38 86 39 80 40 82 41 33 42 85 43 79 44 78 45 34 47
REMARK SMILES IDX 66 48 46 49 65 50 47 51 50 52 64 53 83 54 48 55 49 56 63 58
REMARK SMILES IDX 84 59 51 60 35 61 36 62 44 63 37 64 38 65 42 66 45 67 39 68
REMARK SMILES IDX 40 69 43 70 41 71 67 72 68 73 76 74 69 75 70 76 74 77 77 78
REMARK SMILES IDX 71 79 72 80 75 81 73 82 52 83 53 84 61 85 54 86 55 87 59 88
REMARK SMILES IDX 62 89 56 90 57 91 60 92 58 93
REMARK H PARENT 18 4 7 13 23 27 82 46 50 57
REMARK Flexibility Score: inf
ROOT
ATOM      1  C   UNL A   1      34.471  23.015  26.139  1.00  0.00     0.224 C 
ATOM      2  O   UNL A   1      33.823  23.080  27.190  1.00  0.00    -0.275 OA
ATOM      3  N   UNL A   1      35.271  21.925  25.975  1.00  0.00    -0.356 N 
ATOM      4  H   UNL A   1      35.494  21.452  26.809  1.00  0.00     0.163 HD
ENDROOT
BRANCH   1   5
ATOM      5  C   UNL A   1      34.337  24.135  25.106  1.00  0.00     0.098 C 
BRANCH   5   6
ATOM      6  C   UNL A   1      33.595  23.715  23.820  1.00  0.00     0.018 C 
BRANCH   6   7
ATOM      7  C   UNL A   1      32.327  22.856  23.972  1.00  0.00    -0.017 C 
ATOM      8  C   UNL A   1      31.065  23.559  23.478  1.00  0.00     0.007 C 
ATOM      9  C   UNL A   1      32.517  21.544  23.198  1.00  0.00     0.007 C 
ENDBRANCH   6   7
ENDBRANCH   5   6
BRANCH   5  10
ATOM     10  C   UNL A   1      34.020  25.495  25.760  1.00  0.00     0.131 C 
BRANCH  10  11
ATOM     11  N   UNL A   1      32.624  25.752  26.041  1.00  0.00    -0.337 N 
ATOM     12  C   UNL A   1      31.861  26.850  26.029  1.00  0.00     0.317 C 
ATOM     13  H   UNL A   1      32.127  24.941  26.295  1.00  0.00     0.165 HD
ATOM     14  O   UNL A   1      31.158  26.953  27.033  1.00  0.00    -0.249 OA
BRANCH  12  15
ATOM     15  N   UNL A   1      31.742  27.735  25.001  1.00  0.00    -0.327 N 
ATOM     16  C   UNL A   1      31.660  29.182  25.082  1.00  0.00     0.148 C 
BRANCH  15  17
ATOM     17  C   UNL A   1      31.740  27.181  23.617  1.00  0.00     0.136 C 
BRANCH  17  18
ATOM     18  C   UNL A   1      33.019  27.422  22.766  1.00  0.00     0.141 C 
BRANCH  18  19
ATOM     19  C   UNL A   1      33.037  26.443  21.602  1.00  0.00     0.064 C 
ATOM     20  N   UNL A   1      33.051  25.632  20.638  1.00  0.00    -0.198 NA
ENDBRANCH  18  19
ENDBRANCH  17  18
ENDBRANCH  15  17
ENDBRANCH  12  15
ENDBRANCH  10  11
ENDBRANCH   5  10
ENDBRANCH   1   5
BRANCH   3  21
ATOM     21  C   UNL A   1      35.849  21.341  24.777  1.00  0.00     0.116 C 
BRANCH  21  22
ATOM     22  C   UNL A   1      37.362  21.496  24.680  1.00  0.00     0.023 C 
BRANCH  22  23
ATOM     23  C   UNL A   1      38.139  20.218  24.998  1.00  0.00     0.023 C 
BRANCH  23  24
ATOM     24  C   UNL A   1      39.338  20.378  25.933  1.00  0.00     0.116 C 
BRANCH  24  25
ATOM     25  N   UNL A   1      40.236  19.233  25.952  1.00  0.00    -0.352 N 
ATOM     26  C   UNL A   1      41.606  19.215  26.113  1.00  0.00     0.251 C 
ATOM     27  H   UNL A   1      39.809  18.354  25.833  1.00  0.00     0.163 HD
ATOM     28  O   UNL A   1      42.250  18.189  25.971  1.00  0.00    -0.269 OA
BRANCH  26  29
ATOM     29  C   UNL A   1      42.302  20.484  26.420  1.00  0.00     0.039 A 
ATOM     30  C   UNL A   1      42.829  21.234  25.367  1.00  0.00     0.014 A 
ATOM     31  C   UNL A   1      42.383  20.951  27.734  1.00  0.00     0.014 A 
ATOM     32  C   UNL A   1      43.357  22.501  25.623  1.00  0.00     0.010 A 
ATOM     33  C   UNL A   1      42.838  22.244  27.977  1.00  0.00     0.010 A 
ATOM     34  C   UNL A   1      43.318  23.036  26.922  1.00  0.00    -0.014 A 
BRANCH  34  35
ATOM     35  C   UNL A   1      43.754  24.430  27.193  1.00  0.00     0.031 A 
ATOM     36  C   UNL A   1      42.773  25.443  27.711  1.00  0.00     0.074 A 
ATOM     37  C   UNL A   1      45.016  24.800  26.900  1.00  0.00     0.049 A 
ATOM     38  N   UNL A   1      42.946  26.720  27.940  1.00  0.00    -0.248 NA
ATOM     39  C   UNL A   1      41.409  24.963  27.980  1.00  0.00     0.031 C 
ATOM     40  C   UNL A   1      46.046  23.926  26.338  1.00  0.00     0.029 A 
ATOM     41  N   UNL A   1      45.645  26.015  27.023  1.00  0.00    -0.354 N 
ATOM     42  C   UNL A   1      41.714  27.197  28.365  1.00  0.00     0.074 A 
ATOM     43  C   UNL A   1      40.788  26.086  28.308  1.00  0.00     0.031 C 
ATOM     44  C   UNL A   1      47.183  24.623  26.188  1.00  0.00     0.029 A 
ATOM     45  C   UNL A   1      46.954  26.003  26.607  1.00  0.00     0.049 A 
ATOM     46  H   UNL A   1      45.200  26.819  27.376  1.00  0.00     0.167 HD
ATOM     47  C   UNL A   1      41.389  28.442  28.787  1.00  0.00     0.037 A 
ATOM     48  C   UNL A   1      47.865  26.994  26.563  1.00  0.00     0.037 A 
ATOM     49  C   UNL A   1      42.317  29.538  28.868  1.00  0.00     0.049 A 
ATOM     50  C   UNL A   1      47.479  28.367  27.041  1.00  0.00     0.074 A 
ATOM     51  C   UNL A   1      42.101  30.819  29.343  1.00  0.00     0.029 A 
ATOM     52  N   UNL A   1      43.643  29.481  28.459  1.00  0.00    -0.354 N 
ATOM     53  N   UNL A   1      46.329  28.789  27.509  1.00  0.00    -0.248 NA
ATOM     54  C   UNL A   1      48.521  29.403  26.989  1.00  0.00     0.031 C 
ATOM     55  C   UNL A   1      43.282  31.552  29.179  1.00  0.00     0.029 A 
ATOM     56  C   UNL A   1      44.249  30.713  28.651  1.00  0.00     0.049 A 
ATOM     57  H   UNL A   1      44.086  28.684  28.088  1.00  0.00     0.167 HD
ATOM     58  C   UNL A   1      46.517  30.126  27.834  1.00  0.00     0.074 A 
ATOM     59  C   UNL A   1      47.894  30.443  27.521  1.00  0.00     0.031 C 
ATOM     60  C   UNL A   1      45.625  31.011  28.344  1.00  0.00     0.037 A 
BRANCH  47  61
ATOM     61  C   UNL A   1      39.965  28.683  29.201  1.00  0.00     0.064 A 
ATOM     62  C   UNL A   1      38.999  29.129  28.286  1.00  0.00     0.173 A 
ATOM     63  C   UNL A   1      39.555  28.438  30.520  1.00  0.00     0.173 A 
ATOM     64  F   UNL A   1      39.342  29.390  27.016  1.00  0.00    -0.203 F 
ATOM     65  C   UNL A   1      37.683  29.351  28.683  1.00  0.00     0.198 A 
ATOM     66  C   UNL A   1      38.231  28.630  30.906  1.00  0.00     0.198 A 
ATOM     67  F   UNL A   1      40.437  28.005  31.433  1.00  0.00    -0.203 F 
ATOM     68  F   UNL A   1      36.792  29.827  27.803  1.00  0.00    -0.200 F 
ATOM     69  C   UNL A   1      37.299  29.095  29.991  1.00  0.00     0.200 A 
ATOM     70  F   UNL A   1      37.857  28.371  32.166  1.00  0.00    -0.200 F 
ATOM     71  F   UNL A   1      36.031  29.304  30.370  1.00  0.00    -0.200 F 
ENDBRANCH  47  61
BRANCH  48  72
ATOM     72  C   UNL A   1      49.241  26.716  26.074  1.00  0.00     0.064 A 
ATOM     73  C   UNL A   1      49.605  27.004  24.750  1.00  0.00     0.173 A 
ATOM     74  C   UNL A   1      50.216  26.156  26.911  1.00  0.00     0.173 A 
ATOM     75  F   UNL A   1      48.700  27.521  23.905  1.00  0.00    -0.203 F 
ATOM     76  C   UNL A   1      50.885  26.725  24.279  1.00  0.00     0.198 A 
ATOM     77  C   UNL A   1      51.504  25.903  26.446  1.00  0.00     0.198 A 
ATOM     78  F   UNL A   1      49.919  25.866  28.186  1.00  0.00    -0.203 F 
ATOM     79  F   UNL A   1      51.193  26.967  22.998  1.00  0.00    -0.200 F 
ATOM     80  C   UNL A   1      51.836  26.179  25.128  1.00  0.00     0.200 A 
ATOM     81  F   UNL A   1      52.424  25.388  27.274  1.00  0.00    -0.200 F 
ATOM     82  F   UNL A   1      53.069  25.913  24.675  1.00  0.00    -0.200 F 
ENDBRANCH  48  72
BRANCH  60  83
ATOM     83  C   UNL A   1      46.120  32.398  28.631  1.00  0.00     0.064 A 
ATOM     84  C   UNL A   1      46.743  32.722  29.844  1.00  0.00     0.173 A 
ATOM     85  C   UNL A   1      46.005  33.406  27.662  1.00  0.00     0.173 A 
ATOM     86  F   UNL A   1      46.864  31.798  30.809  1.00  0.00    -0.203 F 
ATOM     87  C   UNL A   1      47.213  34.010  30.086  1.00  0.00     0.198 A 
ATOM     88  C   UNL A   1      46.502  34.684  27.894  1.00  0.00     0.198 A 
ATOM     89  F   UNL A   1      45.422  33.146  26.482  1.00  0.00    -0.203 F 
ATOM     90  F   UNL A   1      47.764  34.310  31.270  1.00  0.00    -0.200 F 
ATOM     91  C   UNL A   1      47.099  34.988  29.109  1.00  0.00     0.200 A 
ATOM     92  F   UNL A   1      46.404  35.625  26.944  1.00  0.00    -0.200 F 
ATOM     93  F   UNL A   1      47.559  36.226  29.340  1.00  0.00    -0.200 F 
ENDBRANCH  60  83
ENDBRANCH  34  35
ENDBRANCH  26  29
ENDBRANCH  24  25
ENDBRANCH  23  24
ENDBRANCH  22  23
ENDBRANCH  21  22
ENDBRANCH   3  21
TORSDOF 19
ENDMDL
MODEL 2
REMARK VINA RESULT:     -10.5      0.843      7.584
REMARK SMILES CC(C)C[C@@H](CNC(=O)N(C)CCC#N)C(=O)NCCCCNC(=O)c1ccc(-c2c3nc(c(-c4c(F)c(F)c(F)c(F)c4F)c4ccc([nH]4)c(-c4c(F)c(F)c(F)c(F)c4F)c4nc(c(-c5c(F)c(F)c(F)c(F)c5F)c5ccc2[nH]5)C=C4)C=C3)cc1
REMARK SMILES IDX 16 1 17 2 18 3 5 5 4 6 2 7 1 8 3 9 6 10 7 11 8 12 9 14 10 15
REMARK SMILES IDX 11 16 12 17 13 18 14 19 15 20 19 21 20 22 21 23 22 24 23 25
REMARK SMILES IDX 24 26 25 28 26 29 27 30 88 31 28 32 87 33 29 34 30 35 31 36
REMARK SMILES IDX 81 37 32 38 86 39 80 40 82 41 33 42 85 43 79 44 78 45 34 47
REMARK SMILES IDX 66 48 46 49 65 50 47 51 50 52 64 53 83 54 48 55 49 56 63 58
REMARK SMILES IDX 84 59 51 60 35 61 36 62 44 63 37 64 38 65 42 66 45 67 39 68
REMARK SMILES IDX 40 69 43 70 41 71 67 72 68 73 76 74 69 75 70 76 74 77 77 78
REMARK SMILES IDX 71 79 72 80 75 81 73 82 52 83 53 84 61 85 54 86 55 87 59 88
REMARK SMILES IDX 62 89 56 90 57 91 60 92 58 93
REMARK H PARENT 18 4 7 13 23 27 82 46 50 57
REMARK Flexibility Score: inf
ROOT
ATOM      1  C   UNL A   1      35.327  23.327  26.204  1.00  0.00     0.224 C 
ATOM      2  O   UNL A   1      34.433  23.203  27.050  1.00  0.00    -0.275 OA
ATOM      3  N   UNL A   1      36.504  22.690  26.455  1.00  0.00    -0.356 N 
ATOM      4  H   UNL A   1      36.646  22.450  27.399  1.00  0.00     0.163 HD
ENDROOT
BRANCH   1   5
ATOM      5  C   UNL A   1      35.061  24.164  24.951  1.00  0.00     0.098 C 
BRANCH   5   6
ATOM      6  C   UNL A   1      34.628  23.335  23.725  1.00  0.00     0.018 C 
BRANCH   6   7
ATOM      7  C   UNL A   1      33.285  22.587  23.802  1.00  0.00    -0.017 C 
ATOM      8  C   UNL A   1      32.527  22.580  22.477  1.00  0.00     0.007 C 
ATOM      9  C   UNL A   1      33.542  21.143  24.252  1.00  0.00     0.007 C 
ENDBRANCH   6   7
ENDBRANCH   5   6
BRANCH   5  10
ATOM     10  C   UNL A   1      34.332  25.483  25.278  1.00  0.00     0.131 C 
BRANCH  10  11
ATOM     11  N   UNL A   1      33.000  25.350  25.826  1.00  0.00    -0.337 N 
ATOM     12  C   UNL A   1      31.893  26.100  25.772  1.00  0.00     0.317 C 
ATOM     13  H   UNL A   1      32.882  24.528  26.355  1.00  0.00     0.165 HD
ATOM     14  O   UNL A   1      31.364  26.249  26.872  1.00  0.00    -0.249 OA
BRANCH  12  15
ATOM     15  N   UNL A   1      31.302  26.577  24.642  1.00  0.00    -0.327 N 
ATOM     16  C   UNL A   1      30.757  25.812  23.536  1.00  0.00     0.148 C 
BRANCH  15  17
ATOM     17  C   UNL A   1      31.144  28.055  24.523  1.00  0.00     0.136 C 
BRANCH  17  18
ATOM     18  C   UNL A   1      32.434  28.910  24.673  1.00  0.00     0.141 C 
BRANCH  18  19
ATOM     19  C   UNL A   1      33.300  28.730  23.437  1.00  0.00     0.064 C 
ATOM     20  N   UNL A   1      34.017  28.580  22.411  1.00  0.00    -0.198 NA
ENDBRANCH  18  19
ENDBRANCH  17  18
ENDBRANCH  15  17
ENDBRANCH  12  15
ENDBRANCH  10  11
ENDBRANCH   5  10
ENDBRANCH   1   5
BRANCH   3  21
ATOM     21  C   UNL A   1      37.586  22.306  25.565  1.00  0.00     0.116 C 
BRANCH  21  22
ATOM     22  C   UNL A   1      37.282  21.081  24.713  1.00  0.00     0.023 C 
BRANCH  22  23
ATOM     23  C   UNL A   1      38.193  19.885  24.997  1.00  0.00     0.023 C 
BRANCH  23  24
ATOM     24  C   UNL A   1      39.372  20.149  25.934  1.00  0.00     0.116 C 
BRANCH  24  25
ATOM     25  N   UNL A   1      40.356  19.077  25.970  1.00  0.00    -0.352 N 
ATOM     26  C   UNL A   1      41.723  19.168  26.126  1.00  0.00     0.251 C 
ATOM     27  H   UNL A   1      39.998  18.166  25.868  1.00  0.00     0.163 HD
ATOM     28  O   UNL A   1      42.445  18.193  25.999  1.00  0.00    -0.269 OA
BRANCH  26  29
ATOM     29  C   UNL A   1      42.321  20.492  26.407  1.00  0.00     0.039 A 
ATOM     30  C   UNL A   1      42.811  21.250  25.341  1.00  0.00     0.014 A 
ATOM     31  C   UNL A   1      42.344  21.000  27.707  1.00  0.00     0.014 A 
ATOM     32  C   UNL A   1      43.241  22.558  25.568  1.00  0.00     0.010 A 
ATOM     33  C   UNL A   1      42.700  22.329  27.920  1.00  0.00     0.010 A 
ATOM     34  C   UNL A   1      43.140  23.125  26.851  1.00  0.00    -0.014 A 
BRANCH  34  35
ATOM     35  C   UNL A   1      43.469  24.553  27.088  1.00  0.00     0.031 A 
ATOM     36  C   UNL A   1      44.861  25.061  26.839  1.00  0.00     0.074 A 
ATOM     37  C   UNL A   1      42.532  25.375  27.599  1.00  0.00     0.049 A 
ATOM     38  N   UNL A   1      45.358  26.253  27.054  1.00  0.00    -0.248 NA
ATOM     39  C   UNL A   1      45.832  24.093  26.306  1.00  0.00     0.031 C 
ATOM     40  C   UNL A   1      41.162  24.989  27.938  1.00  0.00     0.029 A 
ATOM     41  N   UNL A   1      42.593  26.705  27.935  1.00  0.00    -0.354 N 
ATOM     42  C   UNL A   1      46.697  26.173  26.696  1.00  0.00     0.074 A 
ATOM     43  C   UNL A   1      46.949  24.803  26.305  1.00  0.00     0.031 C 
ATOM     44  C   UNL A   1      40.505  26.061  28.409  1.00  0.00     0.029 A 
ATOM     45  C   UNL A   1      41.417  27.201  28.441  1.00  0.00     0.049 A 
ATOM     46  H   UNL A   1      43.404  27.253  27.823  1.00  0.00     0.167 HD
ATOM     47  C   UNL A   1      47.626  27.159  26.673  1.00  0.00     0.037 A 
ATOM     48  C   UNL A   1      41.110  28.434  28.888  1.00  0.00     0.037 A 
ATOM     49  C   UNL A   1      47.365  28.526  27.038  1.00  0.00     0.049 A 
ATOM     50  C   UNL A   1      42.159  29.511  28.849  1.00  0.00     0.074 A 
ATOM     51  C   UNL A   1      48.222  29.611  26.987  1.00  0.00     0.029 A 
ATOM     52  N   UNL A   1      46.153  28.996  27.525  1.00  0.00    -0.354 N 
ATOM     53  N   UNL A   1      43.403  29.442  28.440  1.00  0.00    -0.248 NA
ATOM     54  C   UNL A   1      41.760  30.842  29.328  1.00  0.00     0.031 C 
ATOM     55  C   UNL A   1      47.543  30.729  27.486  1.00  0.00     0.029 A 
ATOM     56  C   UNL A   1      46.248  30.352  27.799  1.00  0.00     0.049 A 
ATOM     57  H   UNL A   1      45.346  28.448  27.656  1.00  0.00     0.167 HD
ATOM     58  C   UNL A   1      43.924  30.721  28.585  1.00  0.00     0.074 A 
ATOM     59  C   UNL A   1      42.858  31.550  29.107  1.00  0.00     0.031 C 
ATOM     60  C   UNL A   1      45.175  31.166  28.311  1.00  0.00     0.037 A 
BRANCH  47  61
ATOM     61  C   UNL A   1      49.013  26.792  26.232  1.00  0.00     0.064 A 
ATOM     62  C   UNL A   1      49.954  26.261  27.129  1.00  0.00     0.173 A 
ATOM     63  C   UNL A   1      49.400  26.944  24.893  1.00  0.00     0.173 A 
ATOM     64  F   UNL A   1      49.639  26.107  28.424  1.00  0.00    -0.203 F 
ATOM     65  C   UNL A   1      51.238  25.927  26.707  1.00  0.00     0.198 A 
ATOM     66  C   UNL A   1      50.674  26.579  24.468  1.00  0.00     0.198 A 
ATOM     67  F   UNL A   1      48.538  27.441  23.992  1.00  0.00    -0.203 F 
ATOM     68  F   UNL A   1      52.134  25.472  27.594  1.00  0.00    -0.200 F 
ATOM     69  C   UNL A   1      51.595  26.080  25.377  1.00  0.00     0.200 A 
ATOM     70  F   UNL A   1      51.014  26.714  23.179  1.00  0.00    -0.200 F 
ATOM     71  F   UNL A   1      52.829  25.753  24.971  1.00  0.00    -0.200 F 
ENDBRANCH  47  61
BRANCH  48  72
ATOM     72  C   UNL A   1      39.739  28.724  29.383  1.00  0.00     0.064 A 
ATOM     73  C   UNL A   1      39.400  28.511  30.728  1.00  0.00     0.173 A 
ATOM     74  C   UNL A   1      38.740  29.213  28.530  1.00  0.00     0.173 A 
ATOM     75  F   UNL A   1      40.316  28.023  31.578  1.00  0.00    -0.203 F 
ATOM     76  C   UNL A   1      38.112  28.757  31.194  1.00  0.00     0.198 A 
ATOM     77  C   UNL A   1      37.459  29.486  29.003  1.00  0.00     0.198 A 
ATOM     78  F   UNL A   1      39.014  29.437  27.236  1.00  0.00    -0.203 F 
ATOM     79  F   UNL A   1      37.803  28.502  32.472  1.00  0.00    -0.200 F 
ATOM     80  C   UNL A   1      37.143  29.250  30.333  1.00  0.00     0.200 A 
ATOM     81  F   UNL A   1      36.529  29.975  28.171  1.00  0.00    -0.200 F 
ATOM     82  F   UNL A   1      35.903  29.491  30.782  1.00  0.00    -0.200 F 
ENDBRANCH  48  72
BRANCH  60  83
ATOM     83  C   UNL A   1      45.451  32.624  28.536  1.00  0.00     0.064 A 
ATOM     84  C   UNL A   1      45.144  33.590  27.568  1.00  0.00     0.173 A 
ATOM     85  C   UNL A   1      45.994  33.063  29.753  1.00  0.00     0.173 A 
ATOM     86  F   UNL A   1      44.638  33.221  26.381  1.00  0.00    -0.203 F 
ATOM     87  C   UNL A   1      45.390  34.941  27.801  1.00  0.00     0.198 A 
ATOM     88  C   UNL A   1      46.210  34.415  29.995  1.00  0.00     0.198 A 
ATOM     89  F   UNL A   1      46.300  32.178  30.715  1.00  0.00    -0.203 F 
ATOM     90  F   UNL A   1      45.131  35.843  26.844  1.00  0.00    -0.200 F 
ATOM     91  C   UNL A   1      45.916  35.352  29.016  1.00  0.00     0.200 A 
ATOM     92  F   UNL A   1      46.706  34.813  31.176  1.00  0.00    -0.200 F 
ATOM     93  F   UNL A   1      46.145  36.654  29.243  1.00  0.00    -0.200 F 
ENDBRANCH  60  83
ENDBRANCH  34  35
ENDBRANCH  26  29
ENDBRANCH  24  25
ENDBRANCH  23  24
ENDBRANCH  22  23
ENDBRANCH  21  22
ENDBRANCH   3  21
TORSDOF 19
ENDMDL
MODEL 3
REMARK VINA RESULT:     -10.3      4.820      8.564
REMARK SMILES CC(C)C[C@@H](CNC(=O)N(C)CCC#N)C(=O)NCCCCNC(=O)c1ccc(-c2c3nc(c(-c4c(F)c(F)c(F)c(F)c4F)c4ccc([nH]4)c(-c4c(F)c(F)c(F)c(F)c4F)c4nc(c(-c5c(F)c(F)c(F)c(F)c5F)c5ccc2[nH]5)C=C4)C=C3)cc1
REMARK SMILES IDX 16 1 17 2 18 3 5 5 4 6 2 7 1 8 3 9 6 10 7 11 8 12 9 14 10 15
REMARK SMILES IDX 11 16 12 17 13 18 14 19 15 20 19 21 20 22 21 23 22 24 23 25
REMARK SMILES IDX 24 26 25 28 26 29 27 30 88 31 28 32 87 33 29 34 30 35 31 36
REMARK SMILES IDX 81 37 32 38 86 39 80 40 82 41 33 42 85 43 79 44 78 45 34 47
REMARK SMILES IDX 66 48 46 49 65 50 47 51 50 52 64 53 83 54 48 55 49 56 63 58
REMARK SMILES IDX 84 59 51 60 35 61 36 62 44 63 37 64 38 65 42 66 45 67 39 68
REMARK SMILES IDX 40 69 43 70 41 71 67 72 68 73 76 74 69 75 70 76 74 77 77 78
REMARK SMILES IDX 71 79 72 80 75 81 73 82 52 83 53 84 61 85 54 86 55 87 59 88
REMARK SMILES IDX 62 89 56 90 57 91 60 92 58 93
REMARK H PARENT 18 4 7 13 23 27 82 46 50 57
REMARK Flexibility Score: inf
ROOT
ATOM      1  C   UNL A   1      32.900  26.138  21.895  1.00  0.00     0.224 C 
ATOM      2  O   UNL A   1      33.273  26.173  20.717  1.00  0.00    -0.275 OA
ATOM      3  N   UNL A   1      32.354  27.277  22.403  1.00  0.00    -0.356 N 
ATOM      4  H   UNL A   1      32.577  28.096  21.903  1.00  0.00     0.163 HD
ENDROOT
BRANCH   1   5
ATOM      5  C   UNL A   1      33.065  24.843  22.694  1.00  0.00     0.098 C 
BRANCH   5   6
ATOM      6  C   UNL A   1      34.262  24.857  23.667  1.00  0.00     0.018 C 
BRANCH   6   7
ATOM      7  C   UNL A   1      33.979  24.602  25.158  1.00  0.00    -0.017 C 
ATOM      8  C   UNL A   1      35.058  23.764  25.838  1.00  0.00     0.007 C 
ATOM      9  C   UNL A   1      33.848  25.951  25.879  1.00  0.00     0.007 C 
ENDBRANCH   6   7
ENDBRANCH   5   6
BRANCH   5  10
ATOM     10  C   UNL A   1      31.710  24.270  23.158  1.00  0.00     0.131 C 
BRANCH  10  11
ATOM     11  N   UNL A   1      31.425  22.912  22.750  1.00  0.00    -0.337 N 
ATOM     12  C   UNL A   1      31.997  21.728  22.996  1.00  0.00     0.317 C 
ATOM     13  H   UNL A   1      30.637  22.844  22.164  1.00  0.00     0.165 HD
ATOM     14  O   UNL A   1      32.150  21.052  21.980  1.00  0.00    -0.249 OA
BRANCH  12  15
ATOM     15  N   UNL A   1      32.295  21.220  24.223  1.00  0.00    -0.327 N 
ATOM     16  C   UNL A   1      31.782  21.654  25.510  1.00  0.00     0.148 C 
BRANCH  15  17
ATOM     17  C   UNL A   1      33.219  20.051  24.276  1.00  0.00     0.136 C 
BRANCH  17  18
ATOM     18  C   UNL A   1      32.566  18.651  24.454  1.00  0.00     0.141 C 
BRANCH  18  19
ATOM     19  C   UNL A   1      33.247  17.660  23.523  1.00  0.00     0.064 C 
ATOM     20  N   UNL A   1      33.812  16.839  22.751  1.00  0.00    -0.198 NA
ENDBRANCH  18  19
ENDBRANCH  17  18
ENDBRANCH  15  17
ENDBRANCH  12  15
ENDBRANCH  10  11
ENDBRANCH   5  10
ENDBRANCH   1   5
BRANCH   3  21
ATOM     21  C   UNL A   1      31.498  27.489  23.557  1.00  0.00     0.116 C 
BRANCH  21  22
ATOM     22  C   UNL A   1      31.482  28.926  24.063  1.00  0.00     0.023 C 
BRANCH  22  23
ATOM     23  C   UNL A   1      32.775  29.355  24.756  1.00  0.00     0.023 C 
BRANCH  23  24
ATOM     24  C   UNL A   1      32.665  29.660  26.251  1.00  0.00     0.116 C 
BRANCH  24  25
ATOM     25  N   UNL A   1      32.503  31.072  26.562  1.00  0.00    -0.352 N 
ATOM     26  C   UNL A   1      33.321  31.887  27.315  1.00  0.00     0.251 C 
ATOM     27  H   UNL A   1      31.702  31.502  26.185  1.00  0.00     0.163 HD
ATOM     28  O   UNL A   1      32.991  33.024  27.609  1.00  0.00    -0.269 OA
BRANCH  26  29
ATOM     29  C   UNL A   1      34.605  31.344  27.811  1.00  0.00     0.039 A 
ATOM     30  C   UNL A   1      35.678  32.218  28.000  1.00  0.00     0.014 A 
ATOM     31  C   UNL A   1      34.727  29.992  28.137  1.00  0.00     0.014 A 
ATOM     32  C   UNL A   1      36.846  31.750  28.604  1.00  0.00     0.010 A 
ATOM     33  C   UNL A   1      35.861  29.545  28.809  1.00  0.00     0.010 A 
ATOM     34  C   UNL A   1      36.927  30.423  29.060  1.00  0.00    -0.014 A 
BRANCH  34  35
ATOM     35  C   UNL A   1      38.108  29.942  29.821  1.00  0.00     0.031 A 
ATOM     36  C   UNL A   1      38.371  30.448  31.211  1.00  0.00     0.074 A 
ATOM     37  C   UNL A   1      38.985  29.107  29.230  1.00  0.00     0.049 A 
ATOM     38  N   UNL A   1      39.383  30.202  32.005  1.00  0.00    -0.248 NA
ATOM     39  C   UNL A   1      37.380  31.378  31.774  1.00  0.00     0.031 C 
ATOM     40  C   UNL A   1      38.872  28.590  27.865  1.00  0.00     0.029 A 
ATOM     41  N   UNL A   1      40.151  28.554  29.698  1.00  0.00    -0.354 N 
ATOM     42  C   UNL A   1      39.157  30.954  33.148  1.00  0.00     0.074 A 
ATOM     43  C   UNL A   1      37.943  31.709  32.925  1.00  0.00     0.031 C 
ATOM     44  C   UNL A   1      39.911  27.777  27.614  1.00  0.00     0.029 A 
ATOM     45  C   UNL A   1      40.783  27.744  28.786  1.00  0.00     0.049 A 
ATOM     46  H   UNL A   1      40.502  28.721  30.602  1.00  0.00     0.167 HD
ATOM     47  C   UNL A   1      39.883  30.993  34.291  1.00  0.00     0.037 A 
ATOM     48  C   UNL A   1      41.938  27.058  28.880  1.00  0.00     0.037 A 
ATOM     49  C   UNL A   1      41.075  30.221  34.520  1.00  0.00     0.049 A 
ATOM     50  C   UNL A   1      42.723  27.116  30.162  1.00  0.00     0.074 A 
ATOM     51  C   UNL A   1      41.845  30.141  35.667  1.00  0.00     0.029 A 
ATOM     52  N   UNL A   1      41.672  29.393  33.579  1.00  0.00    -0.354 N 
ATOM     53  N   UNL A   1      42.461  27.775  31.264  1.00  0.00    -0.248 NA
ATOM     54  C   UNL A   1      43.964  26.330  30.213  1.00  0.00     0.031 C 
ATOM     55  C   UNL A   1      42.934  29.302  35.406  1.00  0.00     0.029 A 
ATOM     56  C   UNL A   1      42.815  28.817  34.114  1.00  0.00     0.049 A 
ATOM     57  H   UNL A   1      41.335  29.238  32.668  1.00  0.00     0.167 HD
ATOM     58  C   UNL A   1      43.485  27.461  32.148  1.00  0.00     0.074 A 
ATOM     59  C   UNL A   1      44.366  26.542  31.459  1.00  0.00     0.031 C 
ATOM     60  C   UNL A   1      43.677  27.897  33.418  1.00  0.00     0.037 A 
BRANCH  47  61
ATOM     61  C   UNL A   1      39.401  31.900  35.387  1.00  0.00     0.064 A 
ATOM     62  C   UNL A   1      39.780  33.251  35.442  1.00  0.00     0.173 A 
ATOM     63  C   UNL A   1      38.528  31.423  36.375  1.00  0.00     0.173 A 
ATOM     64  F   UNL A   1      40.622  33.754  34.528  1.00  0.00    -0.203 F 
ATOM     65  C   UNL A   1      39.328  34.080  36.465  1.00  0.00     0.198 A 
ATOM     66  C   UNL A   1      38.052  32.264  37.378  1.00  0.00     0.198 A 
ATOM     67  F   UNL A   1      38.130  30.142  36.366  1.00  0.00    -0.203 F 
ATOM     68  F   UNL A   1      39.745  35.353  36.526  1.00  0.00    -0.200 F 
ATOM     69  C   UNL A   1      38.460  33.589  37.427  1.00  0.00     0.200 A 
ATOM     70  F   UNL A   1      37.203  31.792  38.300  1.00  0.00    -0.200 F 
ATOM     71  F   UNL A   1      38.021  34.390  38.407  1.00  0.00    -0.200 F 
ENDBRANCH  47  61
BRANCH  48  72
ATOM     72  C   UNL A   1      42.406  26.233  27.736  1.00  0.00     0.064 A 
ATOM     73  C   UNL A   1      41.929  24.927  27.549  1.00  0.00     0.173 A 
ATOM     74  C   UNL A   1      43.338  26.724  26.811  1.00  0.00     0.173 A 
ATOM     75  F   UNL A   1      41.053  24.404  28.420  1.00  0.00    -0.203 F 
ATOM     76  C   UNL A   1      42.382  24.139  26.494  1.00  0.00     0.198 A 
ATOM     77  C   UNL A   1      43.769  25.946  25.740  1.00  0.00     0.198 A 
ATOM     78  F   UNL A   1      43.822  27.968  26.944  1.00  0.00    -0.203 F 
ATOM     79  F   UNL A   1      41.944  22.879  26.365  1.00  0.00    -0.200 F 
ATOM     80  C   UNL A   1      43.297  24.651  25.586  1.00  0.00     0.200 A 
ATOM     81  F   UNL A   1      44.644  26.448  24.858  1.00  0.00    -0.200 F 
ATOM     82  F   UNL A   1      43.730  23.894  24.568  1.00  0.00    -0.200 F 
ENDBRANCH  48  72
BRANCH  60  83
ATOM     83  C   UNL A   1      44.866  27.358  34.158  1.00  0.00     0.064 A 
ATOM     84  C   UNL A   1      46.145  27.913  34.002  1.00  0.00     0.173 A 
ATOM     85  C   UNL A   1      44.717  26.299  35.065  1.00  0.00     0.173 A 
ATOM     86  F   UNL A   1      46.344  28.917  33.135  1.00  0.00    -0.203 F 
ATOM     87  C   UNL A   1      47.234  27.412  34.710  1.00  0.00     0.198 A 
ATOM     88  C   UNL A   1      45.800  25.820  35.794  1.00  0.00     0.198 A 
ATOM     89  F   UNL A   1      43.513  25.737  35.255  1.00  0.00    -0.203 F 
ATOM     90  F   UNL A   1      48.455  27.927  34.512  1.00  0.00    -0.200 F 
ATOM     91  C   UNL A   1      47.059  26.372  35.610  1.00  0.00     0.200 A 
ATOM     92  F   UNL A   1      45.627  24.824  36.675  1.00  0.00    -0.200 F 
ATOM     93  F   UNL A   1      48.107  25.895  36.298  1.00  0.00    -0.200 F 
ENDBRANCH  60  83
ENDBRANCH  34  35
ENDBRANCH  26  29
ENDBRANCH  24  25
ENDBRANCH  23  24
ENDBRANCH  22  23
ENDBRANCH  21  22
ENDBRANCH   3  21
TORSDOF 19
ENDMDL
