MODEL 1
REMARK VINA RESULT:     -11.4      0.000      0.000
REMARK SMILES CC(C)[C@H](NC(=O)[C@H](C)NC(=O)CNC(=O)OCc1ccccc1)C(=O)NCCCCNC(=O)c1ccc(-c2c3nc(c(-c4c(F)c(F)c(F)c(F)c4F)c4ccc([nH]4)c(-c4c(F)c(F)c(F)c(F)c4F)c4nc(c(-c5c(F)c(F)c(F)c(F)c5F)c5ccc2[nH]5)C=C4)C=C3)cc1
REMARK SMILES IDX 25 1 26 2 27 3 4 5 2 6 1 7 3 8 5 9 6 10 7 12 8 13 9 14 10 15
REMARK SMILES IDX 11 16 12 18 13 19 14 20 15 21 16 23 17 24 18 25 19 26 20 27
REMARK SMILES IDX 24 28 21 29 23 30 22 31 28 32 29 33 30 34 31 35 32 36 33 37
REMARK SMILES IDX 34 39 35 40 36 41 97 42 37 43 96 44 38 45 39 46 40 47 90 48
REMARK SMILES IDX 41 49 95 50 89 51 91 52 42 53 94 54 88 55 87 56 43 58 75 59
REMARK SMILES IDX 55 60 74 61 56 62 59 63 73 64 92 65 57 66 58 67 72 69 93 70
REMARK SMILES IDX 60 71 44 72 45 73 53 74 46 75 47 76 51 77 54 78 48 79 49 80
REMARK SMILES IDX 52 81 50 82 76 83 77 84 85 85 78 86 79 87 83 88 86 89 80 90
REMARK SMILES IDX 81 91 84 92 82 93 61 94 62 95 70 96 63 97 64 98 68 99 71 100
REMARK SMILES IDX 65 101 66 102 69 103 67 104
REMARK H PARENT 27 4 5 11 10 17 14 22 32 38 91 57 59 68
REMARK Flexibility Score: inf
ROOT
ATOM      1  C   UNL A   1      35.020  21.789  26.567  1.00  0.00     0.242 C 
ATOM      2  O   UNL A   1      34.589  21.337  27.630  1.00  0.00    -0.273 OA
ATOM      3  N   UNL A   1      36.011  21.084  25.942  1.00  0.00    -0.354 N 
ATOM      4  H   UNL A   1      36.487  20.447  26.523  1.00  0.00     0.163 HD
ENDROOT
BRANCH   1   5
ATOM      5  C   UNL A   1      34.380  23.044  25.931  1.00  0.00     0.173 C 
BRANCH   5   6
ATOM      6  C   UNL A   1      35.383  24.196  25.631  1.00  0.00     0.015 C 
ATOM      7  C   UNL A   1      36.792  24.063  26.214  1.00  0.00     0.010 C 
ATOM      8  C   UNL A   1      35.528  24.386  24.112  1.00  0.00     0.010 C 
ENDBRANCH   5   6
BRANCH   5   9
ATOM      9  N   UNL A   1      33.205  23.437  26.716  1.00  0.00    -0.342 N 
ATOM     10  C   UNL A   1      32.242  24.371  26.534  1.00  0.00     0.242 C 
ATOM     11  H   UNL A   1      33.095  22.917  27.545  1.00  0.00     0.164 HD
ATOM     12  O   UNL A   1      31.239  24.257  27.251  1.00  0.00    -0.273 OA
BRANCH  10  13
ATOM     13  C   UNL A   1      32.258  25.401  25.397  1.00  0.00     0.168 C 
ATOM     14  C   UNL A   1      32.279  26.820  25.946  1.00  0.00     0.041 C 
BRANCH  13  15
ATOM     15  N   UNL A   1      31.203  25.235  24.409  1.00  0.00    -0.343 N 
ATOM     16  C   UNL A   1      31.073  24.279  23.443  1.00  0.00     0.240 C 
ATOM     17  H   UNL A   1      30.483  25.905  24.441  1.00  0.00     0.164 HD
ATOM     18  O   UNL A   1      29.966  24.136  22.921  1.00  0.00    -0.273 OA
BRANCH  16  19
ATOM     19  C   UNL A   1      32.255  23.384  23.066  1.00  0.00     0.219 C 
BRANCH  19  20
ATOM     20  N   UNL A   1      31.772  22.168  22.432  1.00  0.00    -0.312 N 
ATOM     21  C   UNL A   1      32.153  20.896  22.732  1.00  0.00     0.407 C 
ATOM     22  H   UNL A   1      31.105  22.274  21.715  1.00  0.00     0.167 HD
ATOM     23  O   UNL A   1      31.881  19.959  21.997  1.00  0.00    -0.225 OA
BRANCH  21  24
ATOM     24  O   UNL A   1      32.879  20.830  23.874  1.00  0.00    -0.445 OA
BRANCH  24  25
ATOM     25  C   UNL A   1      32.348  19.981  24.901  1.00  0.00     0.270 C 
BRANCH  25  26
ATOM     26  C   UNL A   1      33.032  18.637  24.970  1.00  0.00    -0.011 A 
ATOM     27  C   UNL A   1      32.527  17.585  25.750  1.00  0.00     0.007 A 
ATOM     28  C   UNL A   1      34.209  18.428  24.237  1.00  0.00     0.007 A 
ATOM     29  C   UNL A   1      33.151  16.339  25.751  1.00  0.00     0.000 A 
ATOM     30  C   UNL A   1      34.840  17.185  24.250  1.00  0.00     0.000 A 
ATOM     31  C   UNL A   1      34.305  16.138  24.998  1.00  0.00     0.000 A 
ENDBRANCH  25  26
ENDBRANCH  24  25
ENDBRANCH  21  24
ENDBRANCH  19  20
ENDBRANCH  16  19
ENDBRANCH  13  15
ENDBRANCH  10  13
ENDBRANCH   5   9
ENDBRANCH   1   5
BRANCH   3  32
ATOM     32  C   UNL A   1      36.481  21.111  24.566  1.00  0.00     0.116 C 
BRANCH  32  33
ATOM     33  C   UNL A   1      37.442  19.972  24.253  1.00  0.00     0.023 C 
BRANCH  33  34
ATOM     34  C   UNL A   1      38.128  19.374  25.480  1.00  0.00     0.023 C 
BRANCH  34  35
ATOM     35  C   UNL A   1      39.521  19.922  25.775  1.00  0.00     0.116 C 
BRANCH  35  36
ATOM     36  N   UNL A   1      40.546  18.891  25.827  1.00  0.00    -0.352 N 
ATOM     37  C   UNL A   1      41.897  19.033  26.036  1.00  0.00     0.251 C 
ATOM     38  H   UNL A   1      40.231  17.968  25.694  1.00  0.00     0.163 HD
ATOM     39  O   UNL A   1      42.650  18.070  25.940  1.00  0.00    -0.269 OA
BRANCH  37  40
ATOM     40  C   UNL A   1      42.436  20.373  26.335  1.00  0.00     0.039 A 
ATOM     41  C   UNL A   1      42.996  21.120  25.298  1.00  0.00     0.014 A 
ATOM     42  C   UNL A   1      42.331  20.906  27.623  1.00  0.00     0.014 A 
ATOM     43  C   UNL A   1      43.382  22.439  25.536  1.00  0.00     0.010 A 
ATOM     44  C   UNL A   1      42.642  22.243  27.838  1.00  0.00     0.010 A 
ATOM     45  C   UNL A   1      43.169  23.024  26.796  1.00  0.00    -0.014 A 
BRANCH  45  46
ATOM     46  C   UNL A   1      43.487  24.452  27.043  1.00  0.00     0.031 A 
ATOM     47  C   UNL A   1      44.877  24.967  26.792  1.00  0.00     0.074 A 
ATOM     48  C   UNL A   1      42.545  25.265  27.559  1.00  0.00     0.049 A 
ATOM     49  N   UNL A   1      45.368  26.160  27.009  1.00  0.00    -0.248 NA
ATOM     50  C   UNL A   1      45.850  24.004  26.254  1.00  0.00     0.031 C 
ATOM     51  C   UNL A   1      41.178  24.868  27.900  1.00  0.00     0.029 A 
ATOM     52  N   UNL A   1      42.599  26.593  27.898  1.00  0.00    -0.354 N 
ATOM     53  C   UNL A   1      46.707  26.086  26.650  1.00  0.00     0.074 A 
ATOM     54  C   UNL A   1      46.966  24.718  26.256  1.00  0.00     0.031 C 
ATOM     55  C   UNL A   1      40.516  25.934  28.376  1.00  0.00     0.029 A 
ATOM     56  C   UNL A   1      41.420  27.080  28.409  1.00  0.00     0.049 A 
ATOM     57  H   UNL A   1      43.406  27.146  27.786  1.00  0.00     0.167 HD
ATOM     58  C   UNL A   1      47.631  27.076  26.627  1.00  0.00     0.037 A 
ATOM     59  C   UNL A   1      41.107  28.310  28.857  1.00  0.00     0.037 A 
ATOM     60  C   UNL A   1      47.362  28.441  26.991  1.00  0.00     0.049 A 
ATOM     61  C   UNL A   1      42.150  29.394  28.812  1.00  0.00     0.074 A 
ATOM     62  C   UNL A   1      48.211  29.532  26.938  1.00  0.00     0.029 A 
ATOM     63  N   UNL A   1      46.148  28.903  27.478  1.00  0.00    -0.354 N 
ATOM     64  N   UNL A   1      43.392  29.331  28.399  1.00  0.00    -0.248 NA
ATOM     65  C   UNL A   1      41.744  30.724  29.289  1.00  0.00     0.031 C 
ATOM     66  C   UNL A   1      47.525  30.645  27.434  1.00  0.00     0.029 A 
ATOM     67  C   UNL A   1      46.232  30.259  27.749  1.00  0.00     0.049 A 
ATOM     68  H   UNL A   1      45.345  28.349  27.611  1.00  0.00     0.167 HD
ATOM     69  C   UNL A   1      43.907  30.612  28.539  1.00  0.00     0.074 A 
ATOM     70  C   UNL A   1      42.837  31.438  29.060  1.00  0.00     0.031 C 
ATOM     71  C   UNL A   1      45.154  31.066  28.260  1.00  0.00     0.037 A 
BRANCH  58  72
ATOM     72  C   UNL A   1      49.020  26.717  26.186  1.00  0.00     0.064 A 
ATOM     73  C   UNL A   1      49.444  26.907  24.861  1.00  0.00     0.173 A 
ATOM     74  C   UNL A   1      49.950  26.206  27.103  1.00  0.00     0.173 A 
ATOM     75  F   UNL A   1      48.590  27.381  23.942  1.00  0.00    -0.203 F 
ATOM     76  C   UNL A   1      50.736  26.573  24.467  1.00  0.00     0.198 A 
ATOM     77  C   UNL A   1      51.251  25.901  26.712  1.00  0.00     0.198 A 
ATOM     78  F   UNL A   1      49.598  26.007  28.383  1.00  0.00    -0.203 F 
ATOM     79  F   UNL A   1      51.101  26.715  23.185  1.00  0.00    -0.200 F 
ATOM     80  C   UNL A   1      51.640  26.077  25.393  1.00  0.00     0.200 A 
ATOM     81  F   UNL A   1      52.127  25.433  27.612  1.00  0.00    -0.200 F 
ATOM     82  F   UNL A   1      52.886  25.762  25.013  1.00  0.00    -0.200 F 
ENDBRANCH  58  72
BRANCH  59  83
ATOM     83  C   UNL A   1      39.737  28.593  29.359  1.00  0.00     0.064 A 
ATOM     84  C   UNL A   1      38.752  29.112  28.507  1.00  0.00     0.173 A 
ATOM     85  C   UNL A   1      39.385  28.356  30.695  1.00  0.00     0.173 A 
ATOM     86  F   UNL A   1      39.047  29.375  27.225  1.00  0.00    -0.203 F 
ATOM     87  C   UNL A   1      37.474  29.406  28.979  1.00  0.00     0.198 A 
ATOM     88  C   UNL A   1      38.098  28.624  31.158  1.00  0.00     0.198 A 
ATOM     89  F   UNL A   1      40.288  27.853  31.549  1.00  0.00    -0.203 F 
ATOM     90  F   UNL A   1      36.566  29.947  28.154  1.00  0.00    -0.200 F 
ATOM     91  C   UNL A   1      37.146  29.156  30.303  1.00  0.00     0.200 A 
ATOM     92  F   UNL A   1      37.782  28.367  32.435  1.00  0.00    -0.200 F 
ATOM     93  F   UNL A   1      35.916  29.436  30.755  1.00  0.00    -0.200 F 
ENDBRANCH  59  83
BRANCH  71  94
ATOM     94  C   UNL A   1      45.419  32.527  28.479  1.00  0.00     0.064 A 
ATOM     95  C   UNL A   1      45.149  33.481  27.487  1.00  0.00     0.173 A 
ATOM     96  C   UNL A   1      45.915  32.980  29.712  1.00  0.00     0.173 A 
ATOM     97  F   UNL A   1      44.689  33.096  26.287  1.00  0.00    -0.203 F 
ATOM     98  C   UNL A   1      45.388  34.834  27.714  1.00  0.00     0.198 A 
ATOM     99  C   UNL A   1      46.124  34.336  29.944  1.00  0.00     0.198 A 
ATOM    100  F   UNL A   1      46.184  32.108  30.694  1.00  0.00    -0.203 F 
ATOM    101  F   UNL A   1      45.168  35.723  26.736  1.00  0.00    -0.200 F 
ATOM    102  C   UNL A   1      45.868  35.261  28.942  1.00  0.00     0.200 A 
ATOM    103  F   UNL A   1      46.575  34.748  31.137  1.00  0.00    -0.200 F 
ATOM    104  F   UNL A   1      46.091  36.565  29.161  1.00  0.00    -0.200 F 
ENDBRANCH  71  94
ENDBRANCH  45  46
ENDBRANCH  37  40
ENDBRANCH  35  36
ENDBRANCH  34  35
ENDBRANCH  33  34
ENDBRANCH  32  33
ENDBRANCH   3  32
TORSDOF 20
ENDMDL
MODEL 2
REMARK VINA RESULT:     -11.0      9.571     13.757
REMARK SMILES CC(C)[C@H](NC(=O)[C@H](C)NC(=O)CNC(=O)OCc1ccccc1)C(=O)NCCCCNC(=O)c1ccc(-c2c3nc(c(-c4c(F)c(F)c(F)c(F)c4F)c4ccc([nH]4)c(-c4c(F)c(F)c(F)c(F)c4F)c4nc(c(-c5c(F)c(F)c(F)c(F)c5F)c5ccc2[nH]5)C=C4)C=C3)cc1
REMARK SMILES IDX 25 1 26 2 27 3 4 5 2 6 1 7 3 8 5 9 6 10 7 12 8 13 9 14 10 15
REMARK SMILES IDX 11 16 12 18 13 19 14 20 15 21 16 23 17 24 18 25 19 26 20 27
REMARK SMILES IDX 24 28 21 29 23 30 22 31 28 32 29 33 30 34 31 35 32 36 33 37
REMARK SMILES IDX 34 39 35 40 36 41 97 42 37 43 96 44 38 45 39 46 40 47 90 48
REMARK SMILES IDX 41 49 95 50 89 51 91 52 42 53 94 54 88 55 87 56 43 58 75 59
REMARK SMILES IDX 55 60 74 61 56 62 59 63 73 64 92 65 57 66 58 67 72 69 93 70
REMARK SMILES IDX 60 71 44 72 45 73 53 74 46 75 47 76 51 77 54 78 48 79 49 80
REMARK SMILES IDX 52 81 50 82 76 83 77 84 85 85 78 86 79 87 83 88 86 89 80 90
REMARK SMILES IDX 81 91 84 92 82 93 61 94 62 95 70 96 63 97 64 98 68 99 71 100
REMARK SMILES IDX 65 101 66 102 69 103 67 104
REMARK H PARENT 27 4 5 11 10 17 14 22 32 38 91 57 59 68
REMARK Flexibility Score: inf
ROOT
ATOM      1  C   UNL A   1      46.089  21.666  37.738  1.00  0.00     0.242 C 
ATOM      2  O   UNL A   1      45.800  21.452  36.558  1.00  0.00    -0.273 OA
ATOM      3  N   UNL A   1      45.456  22.707  38.359  1.00  0.00    -0.354 N 
ATOM      4  H   UNL A   1      45.051  23.362  37.746  1.00  0.00     0.163 HD
ENDROOT
BRANCH   1   5
ATOM      5  C   UNL A   1      47.047  20.718  38.496  1.00  0.00     0.173 C 
BRANCH   5   6
ATOM      6  C   UNL A   1      48.551  20.908  38.142  1.00  0.00     0.015 C 
ATOM      7  C   UNL A   1      49.369  21.831  39.047  1.00  0.00     0.010 C 
ATOM      8  C   UNL A   1      49.260  19.544  38.110  1.00  0.00     0.010 C 
ENDBRANCH   5   6
BRANCH   5   9
ATOM      9  N   UNL A   1      46.554  19.341  38.380  1.00  0.00    -0.342 N 
ATOM     10  C   UNL A   1      46.267  18.383  39.294  1.00  0.00     0.242 C 
ATOM     11  H   UNL A   1      46.403  19.055  37.451  1.00  0.00     0.164 HD
ATOM     12  O   UNL A   1      45.609  17.422  38.876  1.00  0.00    -0.273 OA
BRANCH  10  13
ATOM     13  C   UNL A   1      46.545  18.527  40.795  1.00  0.00     0.168 C 
ATOM     14  C   UNL A   1      47.202  17.272  41.352  1.00  0.00     0.041 C 
BRANCH  13  15
ATOM     15  N   UNL A   1      45.394  18.916  41.595  1.00  0.00    -0.343 N 
ATOM     16  C   UNL A   1      44.467  18.124  42.209  1.00  0.00     0.240 C 
ATOM     17  H   UNL A   1      45.265  19.885  41.708  1.00  0.00     0.164 HD
ATOM     18  O   UNL A   1      43.763  18.635  43.083  1.00  0.00    -0.273 OA
BRANCH  16  19
ATOM     19  C   UNL A   1      44.351  16.640  41.856  1.00  0.00     0.219 C 
BRANCH  19  20
ATOM     20  N   UNL A   1      43.063  16.379  41.233  1.00  0.00    -0.312 N 
ATOM     21  C   UNL A   1      42.178  15.407  41.587  1.00  0.00     0.407 C 
ATOM     22  H   UNL A   1      42.806  16.961  40.481  1.00  0.00     0.167 HD
ATOM     23  O   UNL A   1      41.240  15.107  40.865  1.00  0.00    -0.225 OA
BRANCH  21  24
ATOM     24  O   UNL A   1      42.498  14.821  42.764  1.00  0.00    -0.445 OA
BRANCH  24  25
ATOM     25  C   UNL A   1      41.527  13.904  43.288  1.00  0.00     0.270 C 
BRANCH  25  26
ATOM     26  C   UNL A   1      42.133  12.606  43.763  1.00  0.00    -0.011 A 
ATOM     27  C   UNL A   1      41.630  11.359  43.360  1.00  0.00     0.007 A 
ATOM     28  C   UNL A   1      43.232  12.640  44.633  1.00  0.00     0.007 A 
ATOM     29  C   UNL A   1      42.245  10.179  43.771  1.00  0.00     0.000 A 
ATOM     30  C   UNL A   1      43.838  11.457  45.054  1.00  0.00     0.000 A 
ATOM     31  C   UNL A   1      43.352  10.228  44.615  1.00  0.00     0.000 A 
ENDBRANCH  25  26
ENDBRANCH  24  25
ENDBRANCH  21  24
ENDBRANCH  19  20
ENDBRANCH  16  19
ENDBRANCH  13  15
ENDBRANCH  10  13
ENDBRANCH   5   9
ENDBRANCH   1   5
BRANCH   3  32
ATOM     32  C   UNL A   1      45.278  23.012  39.771  1.00  0.00     0.116 C 
BRANCH  32  33
ATOM     33  C   UNL A   1      45.748  24.416  40.129  1.00  0.00     0.023 C 
BRANCH  33  34
ATOM     34  C   UNL A   1      45.062  25.529  39.340  1.00  0.00     0.023 C 
BRANCH  34  35
ATOM     35  C   UNL A   1      45.995  26.608  38.798  1.00  0.00     0.116 C 
BRANCH  35  36
ATOM     36  N   UNL A   1      47.159  26.070  38.111  1.00  0.00    -0.352 N 
ATOM     37  C   UNL A   1      47.360  25.902  36.762  1.00  0.00     0.251 C 
ATOM     38  H   UNL A   1      47.904  25.787  38.690  1.00  0.00     0.163 HD
ATOM     39  O   UNL A   1      48.358  25.328  36.344  1.00  0.00    -0.269 OA
BRANCH  37  40
ATOM     40  C   UNL A   1      46.331  26.387  35.822  1.00  0.00     0.039 A 
ATOM     41  C   UNL A   1      45.168  25.635  35.652  1.00  0.00     0.014 A 
ATOM     42  C   UNL A   1      46.493  27.609  35.164  1.00  0.00     0.014 A 
ATOM     43  C   UNL A   1      44.128  26.149  34.876  1.00  0.00     0.010 A 
ATOM     44  C   UNL A   1      45.428  28.153  34.457  1.00  0.00     0.010 A 
ATOM     45  C   UNL A   1      44.234  27.429  34.308  1.00  0.00    -0.014 A 
BRANCH  45  46
ATOM     46  C   UNL A   1      43.104  28.031  33.557  1.00  0.00     0.031 A 
ATOM     47  C   UNL A   1      42.911  27.707  32.102  1.00  0.00     0.074 A 
ATOM     48  C   UNL A   1      42.298  28.921  34.166  1.00  0.00     0.049 A 
ATOM     49  N   UNL A   1      42.029  28.180  31.259  1.00  0.00    -0.248 NA
ATOM     50  C   UNL A   1      43.854  26.745  31.509  1.00  0.00     0.031 C 
ATOM     51  C   UNL A   1      42.420  29.361  35.557  1.00  0.00     0.029 A 
ATOM     52  N   UNL A   1      41.222  29.626  33.689  1.00  0.00    -0.354 N 
ATOM     53  C   UNL A   1      42.321  27.587  30.038  1.00  0.00     0.074 A 
ATOM     54  C   UNL A   1      43.495  26.766  30.234  1.00  0.00     0.031 C 
ATOM     55  C   UNL A   1      41.443  30.241  35.827  1.00  0.00     0.029 A 
ATOM     56  C   UNL A   1      40.649  30.456  34.622  1.00  0.00     0.049 A 
ATOM     57  H   UNL A   1      40.891  29.545  32.765  1.00  0.00     0.167 HD
ATOM     58  C   UNL A   1      41.654  27.700  28.865  1.00  0.00     0.037 A 
ATOM     59  C   UNL A   1      39.603  31.297  34.514  1.00  0.00     0.037 A 
ATOM     60  C   UNL A   1      40.469  28.495  28.681  1.00  0.00     0.049 A 
ATOM     61  C   UNL A   1      38.875  31.396  33.201  1.00  0.00     0.074 A 
ATOM     62  C   UNL A   1      39.682  28.622  27.551  1.00  0.00     0.029 A 
ATOM     63  N   UNL A   1      39.902  29.301  29.657  1.00  0.00    -0.354 N 
ATOM     64  N   UNL A   1      39.113  30.773  32.073  1.00  0.00    -0.248 NA
ATOM     65  C   UNL A   1      37.725  32.310  33.149  1.00  0.00     0.031 C 
ATOM     66  C   UNL A   1      38.663  29.539  27.829  1.00  0.00     0.029 A 
ATOM     67  C   UNL A   1      38.785  29.945  29.148  1.00  0.00     0.049 A 
ATOM     68  H   UNL A   1      40.242  29.401  30.575  1.00  0.00     0.167 HD
ATOM     69  C   UNL A   1      38.131  31.196  31.187  1.00  0.00     0.074 A 
ATOM     70  C   UNL A   1      37.282  32.118  31.915  1.00  0.00     0.031 C 
ATOM     71  C   UNL A   1      37.947  30.853  29.889  1.00  0.00     0.037 A 
BRANCH  58  72
ATOM     72  C   UNL A   1      42.189  26.937  27.688  1.00  0.00     0.064 A 
ATOM     73  C   UNL A   1      41.774  25.625  27.411  1.00  0.00     0.173 A 
ATOM     74  C   UNL A   1      43.103  27.534  26.807  1.00  0.00     0.173 A 
ATOM     75  F   UNL A   1      40.911  25.004  28.229  1.00  0.00    -0.203 F 
ATOM     76  C   UNL A   1      42.276  24.930  26.315  1.00  0.00     0.198 A 
ATOM     77  C   UNL A   1      43.580  26.847  25.694  1.00  0.00     0.198 A 
ATOM     78  F   UNL A   1      43.531  28.787  27.023  1.00  0.00    -0.203 F 
ATOM     79  F   UNL A   1      41.905  23.661  26.101  1.00  0.00    -0.200 F 
ATOM     80  C   UNL A   1      43.173  25.544  25.453  1.00  0.00     0.200 A 
ATOM     81  F   UNL A   1      44.437  27.446  24.856  1.00  0.00    -0.200 F 
ATOM     82  F   UNL A   1      43.650  24.876  24.394  1.00  0.00    -0.200 F 
ENDBRANCH  58  72
BRANCH  59  83
ATOM     83  C   UNL A   1      39.162  32.091  35.690  1.00  0.00     0.064 A 
ATOM     84  C   UNL A   1      39.620  33.402  35.886  1.00  0.00     0.173 A 
ATOM     85  C   UNL A   1      38.282  31.559  36.643  1.00  0.00     0.173 A 
ATOM     86  F   UNL A   1      40.480  33.947  35.012  1.00  0.00    -0.203 F 
ATOM     87  C   UNL A   1      39.234  34.141  37.002  1.00  0.00     0.198 A 
ATOM     88  C   UNL A   1      37.874  32.310  37.744  1.00  0.00     0.198 A 
ATOM     89  F   UNL A   1      37.809  30.313  36.499  1.00  0.00    -0.203 F 
ATOM     90  F   UNL A   1      39.725  35.374  37.188  1.00  0.00    -0.200 F 
ATOM     91  C   UNL A   1      38.356  33.597  37.927  1.00  0.00     0.200 A 
ATOM     92  F   UNL A   1      37.014  31.785  38.628  1.00  0.00    -0.200 F 
ATOM     93  F   UNL A   1      37.982  34.310  38.998  1.00  0.00    -0.200 F 
ENDBRANCH  59  83
BRANCH  71  94
ATOM     94  C   UNL A   1      36.766  31.447  29.180  1.00  0.00     0.064 A 
ATOM     95  C   UNL A   1      35.639  30.677  28.856  1.00  0.00     0.173 A 
ATOM     96  C   UNL A   1      36.746  32.812  28.857  1.00  0.00     0.173 A 
ATOM     97  F   UNL A   1      35.615  29.364  29.131  1.00  0.00    -0.203 F 
ATOM     98  C   UNL A   1      34.545  31.249  28.211  1.00  0.00     0.198 A 
ATOM     99  C   UNL A   1      35.638  33.386  28.240  1.00  0.00     0.198 A 
ATOM    100  F   UNL A   1      37.796  33.592  29.152  1.00  0.00    -0.203 F 
ATOM    101  F   UNL A   1      33.499  30.486  27.867  1.00  0.00    -0.200 F 
ATOM    102  C   UNL A   1      34.542  32.603  27.911  1.00  0.00     0.200 A 
ATOM    103  F   UNL A   1      35.633  34.698  27.963  1.00  0.00    -0.200 F 
ATOM    104  F   UNL A   1      33.486  33.153  27.296  1.00  0.00    -0.200 F 
ENDBRANCH  71  94
ENDBRANCH  45  46
ENDBRANCH  37  40
ENDBRANCH  35  36
ENDBRANCH  34  35
ENDBRANCH  33  34
ENDBRANCH  32  33
ENDBRANCH   3  32
TORSDOF 20
ENDMDL
MODEL 3
REMARK VINA RESULT:     -10.6      2.803      4.331
REMARK SMILES CC(C)[C@H](NC(=O)[C@H](C)NC(=O)CNC(=O)OCc1ccccc1)C(=O)NCCCCNC(=O)c1ccc(-c2c3nc(c(-c4c(F)c(F)c(F)c(F)c4F)c4ccc([nH]4)c(-c4c(F)c(F)c(F)c(F)c4F)c4nc(c(-c5c(F)c(F)c(F)c(F)c5F)c5ccc2[nH]5)C=C4)C=C3)cc1
REMARK SMILES IDX 25 1 26 2 27 3 4 5 2 6 1 7 3 8 5 9 6 10 7 12 8 13 9 14 10 15
REMARK SMILES IDX 11 16 12 18 13 19 14 20 15 21 16 23 17 24 18 25 19 26 20 27
REMARK SMILES IDX 24 28 21 29 23 30 22 31 28 32 29 33 30 34 31 35 32 36 33 37
REMARK SMILES IDX 34 39 35 40 36 41 97 42 37 43 96 44 38 45 39 46 40 47 90 48
REMARK SMILES IDX 41 49 95 50 89 51 91 52 42 53 94 54 88 55 87 56 43 58 75 59
REMARK SMILES IDX 55 60 74 61 56 62 59 63 73 64 92 65 57 66 58 67 72 69 93 70
REMARK SMILES IDX 60 71 44 72 45 73 53 74 46 75 47 76 51 77 54 78 48 79 49 80
REMARK SMILES IDX 52 81 50 82 76 83 77 84 85 85 78 86 79 87 83 88 86 89 80 90
REMARK SMILES IDX 81 91 84 92 82 93 61 94 62 95 70 96 63 97 64 98 68 99 71 100
REMARK SMILES IDX 65 101 66 102 69 103 67 104
REMARK H PARENT 27 4 5 11 10 17 14 22 32 38 91 57 59 68
REMARK Flexibility Score: inf
ROOT
ATOM      1  C   UNL A   1      34.982  23.787  23.461  1.00  0.00     0.242 C 
ATOM      2  O   UNL A   1      35.280  23.338  22.351  1.00  0.00    -0.273 OA
ATOM      3  N   UNL A   1      35.817  23.489  24.501  1.00  0.00    -0.354 N 
ATOM      4  H   UNL A   1      36.412  22.721  24.340  1.00  0.00     0.163 HD
ENDROOT
BRANCH   1   5
ATOM      5  C   UNL A   1      33.770  24.732  23.626  1.00  0.00     0.173 C 
BRANCH   5   6
ATOM      6  C   UNL A   1      32.562  24.394  22.705  1.00  0.00     0.015 C 
ATOM      7  C   UNL A   1      32.594  24.950  21.280  1.00  0.00     0.010 C 
ATOM      8  C   UNL A   1      32.388  22.869  22.603  1.00  0.00     0.010 C 
ENDBRANCH   5   6
BRANCH   5   9
ATOM      9  N   UNL A   1      34.231  26.123  23.555  1.00  0.00    -0.342 N 
ATOM     10  C   UNL A   1      33.602  27.314  23.706  1.00  0.00     0.242 C 
ATOM     11  H   UNL A   1      35.191  26.209  23.357  1.00  0.00     0.164 HD
ATOM     12  O   UNL A   1      34.340  28.296  23.855  1.00  0.00    -0.273 OA
BRANCH  10  13
ATOM     13  C   UNL A   1      32.086  27.459  23.884  1.00  0.00     0.168 C 
ATOM     14  C   UNL A   1      31.531  28.547  22.975  1.00  0.00     0.041 C 
BRANCH  13  15
ATOM     15  N   UNL A   1      31.648  27.650  25.259  1.00  0.00    -0.343 N 
ATOM     16  C   UNL A   1      30.963  26.792  26.070  1.00  0.00     0.240 C 
ATOM     17  H   UNL A   1      31.879  28.519  25.660  1.00  0.00     0.164 HD
ATOM     18  O   UNL A   1      30.965  27.020  27.281  1.00  0.00    -0.273 OA
BRANCH  16  19
ATOM     19  C   UNL A   1      30.264  25.561  25.491  1.00  0.00     0.219 C 
BRANCH  19  20
ATOM     20  N   UNL A   1      29.912  24.642  26.562  1.00  0.00    -0.312 N 
ATOM     21  C   UNL A   1      30.403  23.385  26.740  1.00  0.00     0.407 C 
ATOM     22  H   UNL A   1      29.254  24.960  27.221  1.00  0.00     0.167 HD
ATOM     23  O   UNL A   1      29.881  22.602  27.518  1.00  0.00    -0.225 OA
BRANCH  21  24
ATOM     24  O   UNL A   1      31.464  23.126  25.940  1.00  0.00    -0.445 OA
BRANCH  24  25
ATOM     25  C   UNL A   1      32.553  22.425  26.556  1.00  0.00     0.270 C 
BRANCH  25  26
ATOM     26  C   UNL A   1      32.992  21.209  25.776  1.00  0.00    -0.011 A 
ATOM     27  C   UNL A   1      32.081  20.415  25.063  1.00  0.00     0.007 A 
ATOM     28  C   UNL A   1      34.349  20.858  25.761  1.00  0.00     0.007 A 
ATOM     29  C   UNL A   1      32.523  19.331  24.308  1.00  0.00     0.000 A 
ATOM     30  C   UNL A   1      34.789  19.765  25.015  1.00  0.00     0.000 A 
ATOM     31  C   UNL A   1      33.878  19.009  24.281  1.00  0.00     0.000 A 
ENDBRANCH  25  26
ENDBRANCH  24  25
ENDBRANCH  21  24
ENDBRANCH  19  20
ENDBRANCH  16  19
ENDBRANCH  13  15
ENDBRANCH  10  13
ENDBRANCH   5   9
ENDBRANCH   1   5
BRANCH   3  32
ATOM     32  C   UNL A   1      35.979  24.112  25.806  1.00  0.00     0.116 C 
BRANCH  32  33
ATOM     33  C   UNL A   1      37.424  24.096  26.286  1.00  0.00     0.023 C 
BRANCH  33  34
ATOM     34  C   UNL A   1      38.265  22.958  25.713  1.00  0.00     0.023 C 
BRANCH  34  35
ATOM     35  C   UNL A   1      39.303  22.376  26.667  1.00  0.00     0.116 C 
BRANCH  35  36
ATOM     36  N   UNL A   1      40.562  22.045  26.015  1.00  0.00    -0.352 N 
ATOM     37  C   UNL A   1      41.684  22.825  25.867  1.00  0.00     0.251 C 
ATOM     38  H   UNL A   1      40.617  21.142  25.628  1.00  0.00     0.163 HD
ATOM     39  O   UNL A   1      42.630  22.439  25.192  1.00  0.00    -0.269 OA
BRANCH  37  40
ATOM     40  C   UNL A   1      41.714  24.157  26.500  1.00  0.00     0.039 A 
ATOM     41  C   UNL A   1      42.072  24.254  27.846  1.00  0.00     0.014 A 
ATOM     42  C   UNL A   1      41.451  25.305  25.748  1.00  0.00     0.014 A 
ATOM     43  C   UNL A   1      42.240  25.514  28.420  1.00  0.00     0.010 A 
ATOM     44  C   UNL A   1      41.695  26.557  26.299  1.00  0.00     0.010 A 
ATOM     45  C   UNL A   1      42.095  26.673  27.641  1.00  0.00    -0.014 A 
BRANCH  45  46
ATOM     46  C   UNL A   1      42.360  28.019  28.209  1.00  0.00     0.031 A 
ATOM     47  C   UNL A   1      43.770  28.527  28.311  1.00  0.00     0.074 A 
ATOM     48  C   UNL A   1      41.338  28.750  28.695  1.00  0.00     0.049 A 
ATOM     49  N   UNL A   1      44.212  29.641  28.836  1.00  0.00    -0.248 NA
ATOM     50  C   UNL A   1      44.827  27.652  27.781  1.00  0.00     0.031 C 
ATOM     51  C   UNL A   1      39.933  28.340  28.705  1.00  0.00     0.029 A 
ATOM     52  N   UNL A   1      41.326  29.988  29.286  1.00  0.00    -0.354 N 
ATOM     53  C   UNL A   1      45.594  29.593  28.713  1.00  0.00     0.074 A 
ATOM     54  C   UNL A   1      45.923  28.316  28.117  1.00  0.00     0.031 C 
ATOM     55  C   UNL A   1      39.194  29.318  29.251  1.00  0.00     0.029 A 
ATOM     56  C   UNL A   1      40.074  30.407  29.663  1.00  0.00     0.049 A 
ATOM     57  H   UNL A   1      42.140  30.526  29.427  1.00  0.00     0.167 HD
ATOM     58  C   UNL A   1      46.504  30.539  29.044  1.00  0.00     0.037 A 
ATOM     59  C   UNL A   1      39.682  31.541  30.274  1.00  0.00     0.037 A 
ATOM     60  C   UNL A   1      46.171  31.820  29.609  1.00  0.00     0.049 A 
ATOM     61  C   UNL A   1      40.714  32.579  30.624  1.00  0.00     0.074 A 
ATOM     62  C   UNL A   1      47.013  32.872  29.916  1.00  0.00     0.029 A 
ATOM     63  N   UNL A   1      44.888  32.220  29.952  1.00  0.00    -0.354 N 
ATOM     64  N   UNL A   1      42.010  32.555  30.433  1.00  0.00    -0.248 NA
ATOM     65  C   UNL A   1      40.225  33.808  31.266  1.00  0.00     0.031 C 
ATOM     66  C   UNL A   1      46.246  33.894  30.486  1.00  0.00     0.029 A 
ATOM     67  C   UNL A   1      44.918  33.497  30.487  1.00  0.00     0.049 A 
ATOM     68  H   UNL A   1      44.075  31.677  29.832  1.00  0.00     0.167 HD
ATOM     69  C   UNL A   1      42.488  33.770  30.905  1.00  0.00     0.074 A 
ATOM     70  C   UNL A   1      41.340  34.517  31.376  1.00  0.00     0.031 C 
ATOM     71  C   UNL A   1      43.764  34.228  30.944  1.00  0.00     0.037 A 
BRANCH  58  72
ATOM     72  C   UNL A   1      47.951  30.225  28.796  1.00  0.00     0.064 A 
ATOM     73  C   UNL A   1      48.599  30.622  27.616  1.00  0.00     0.173 A 
ATOM     74  C   UNL A   1      48.709  29.546  29.762  1.00  0.00     0.173 A 
ATOM     75  F   UNL A   1      47.916  31.263  26.655  1.00  0.00    -0.203 F 
ATOM     76  C   UNL A   1      49.942  30.327  27.401  1.00  0.00     0.198 A 
ATOM     77  C   UNL A   1      50.060  29.280  29.556  1.00  0.00     0.198 A 
ATOM     78  F   UNL A   1      48.141  29.146  30.909  1.00  0.00    -0.203 F 
ATOM     79  F   UNL A   1      50.524  30.672  26.244  1.00  0.00    -0.200 F 
ATOM     80  C   UNL A   1      50.673  29.663  28.373  1.00  0.00     0.200 A 
ATOM     81  F   UNL A   1      50.768  28.649  30.503  1.00  0.00    -0.200 F 
ATOM     82  F   UNL A   1      51.968  29.386  28.167  1.00  0.00    -0.200 F 
ENDBRANCH  58  72
BRANCH  59  83
ATOM     83  C   UNL A   1      38.244  31.768  30.570  1.00  0.00     0.064 A 
ATOM     84  C   UNL A   1      37.732  31.557  31.858  1.00  0.00     0.173 A 
ATOM     85  C   UNL A   1      37.352  32.194  29.576  1.00  0.00     0.173 A 
ATOM     86  F   UNL A   1      38.542  31.129  32.838  1.00  0.00    -0.203 F 
ATOM     87  C   UNL A   1      36.379  31.740  32.135  1.00  0.00     0.198 A 
ATOM     88  C   UNL A   1      36.004  32.405  29.861  1.00  0.00     0.198 A 
ATOM     89  F   UNL A   1      37.791  32.418  28.329  1.00  0.00    -0.203 F 
ATOM     90  F   UNL A   1      35.908  31.484  33.363  1.00  0.00    -0.200 F 
ATOM     91  C   UNL A   1      35.516  32.170  31.137  1.00  0.00     0.200 A 
ATOM     92  F   UNL A   1      35.177  32.834  28.897  1.00  0.00    -0.200 F 
ATOM     93  F   UNL A   1      34.216  32.349  31.405  1.00  0.00    -0.200 F 
ENDBRANCH  59  83
BRANCH  71  94
ATOM     94  C   UNL A   1      43.982  35.612  31.481  1.00  0.00     0.064 A 
ATOM     95  C   UNL A   1      43.953  36.739  30.647  1.00  0.00     0.173 A 
ATOM     96  C   UNL A   1      44.185  35.814  32.855  1.00  0.00     0.173 A 
ATOM     97  F   UNL A   1      43.778  36.596  29.324  1.00  0.00    -0.203 F 
ATOM     98  C   UNL A   1      44.144  38.017  31.166  1.00  0.00     0.198 A 
ATOM     99  C   UNL A   1      44.345  37.096  33.374  1.00  0.00     0.198 A 
ATOM    100  F   UNL A   1      44.215  34.770  33.695  1.00  0.00    -0.203 F 
ATOM    101  F   UNL A   1      44.159  39.075  30.344  1.00  0.00    -0.200 F 
ATOM    102  C   UNL A   1      44.331  38.195  32.528  1.00  0.00     0.200 A 
ATOM    103  F   UNL A   1      44.512  37.267  34.693  1.00  0.00    -0.200 F 
ATOM    104  F   UNL A   1      44.507  39.427  33.027  1.00  0.00    -0.200 F 
ENDBRANCH  71  94
ENDBRANCH  45  46
ENDBRANCH  37  40
ENDBRANCH  35  36
ENDBRANCH  34  35
ENDBRANCH  33  34
ENDBRANCH  32  33
ENDBRANCH   3  32
TORSDOF 20
ENDMDL
