MODEL 1
REMARK VINA RESULT:     -12.5      0.000      0.000
REMARK SMILES Cc1cccc(CN(C)c2ccc(C(=O)NCCCCNC(=O)c3ccc(-c4c5nc(c(-c6c(F)c(F)c(F)c(F)c6F)c6ccc([nH]6)c(-c6c(F)c(F)c(F)c(F)c6F)c6nc(c(-c7c(F)c(F)c(F)c(F)c7F)c7ccc4[nH]7)C=C6)C=C5)cc3)cc2N)n1
REMARK SMILES IDX 18 1 17 2 16 3 14 4 15 5 13 7 10 8 11 9 88 10 12 11 87 12
REMARK SMILES IDX 8 13 9 14 7 15 6 16 1 17 2 18 3 19 90 20 4 21 5 22 89 23
REMARK SMILES IDX 19 26 20 27 21 28 22 29 23 31 24 32 25 33 86 34 26 35 85 36
REMARK SMILES IDX 27 37 28 38 29 39 79 40 30 41 84 42 78 43 80 44 31 45 83 46
REMARK SMILES IDX 77 47 76 48 32 50 64 51 44 52 63 53 45 54 48 55 62 56 81 57
REMARK SMILES IDX 46 58 47 59 61 61 82 62 49 63 33 64 34 65 42 66 35 67 36 68
REMARK SMILES IDX 40 69 43 70 37 71 38 72 41 73 39 74 65 75 66 76 74 77 67 78
REMARK SMILES IDX 68 79 72 80 75 81 69 82 70 83 73 84 71 85 50 86 51 87 59 88
REMARK SMILES IDX 52 89 53 90 57 91 60 92 54 93 55 94 58 95 56 96
REMARK H PARENT 16 6 89 24 89 25 21 30 80 49 48 60
REMARK Flexibility Score: inf
ROOT
ATOM      1  C   UNL A   1      31.493  30.640  26.657  1.00  0.00     0.023 C 
ENDROOT
BRANCH   1   2
ATOM      2  C   UNL A   1      32.143  29.972  25.438  1.00  0.00     0.116 C 
BRANCH   2   3
ATOM      3  N   UNL A   1      31.144  29.668  24.429  1.00  0.00    -0.352 N 
ATOM      4  C   UNL A   1      30.668  28.485  23.909  1.00  0.00     0.251 C 
ATOM      5  O   UNL A   1      29.806  28.563  23.033  1.00  0.00    -0.269 OA
ATOM      6  H   UNL A   1      30.723  30.467  24.038  1.00  0.00     0.163 HD
BRANCH   4   7
ATOM      7  C   UNL A   1      31.087  27.138  24.397  1.00  0.00     0.041 A 
ATOM      8  C   UNL A   1      31.710  24.445  25.185  1.00  0.00     0.060 A 
ATOM      9  C   UNL A   1      32.131  24.987  23.955  1.00  0.00     0.029 A 
ATOM     10  C   UNL A   1      30.793  25.257  25.868  1.00  0.00     0.056 A 
ATOM     11  C   UNL A   1      31.774  26.285  23.536  1.00  0.00     0.016 A 
ATOM     12  C   UNL A   1      30.730  26.628  25.628  1.00  0.00     0.041 A 
BRANCH   8  13
ATOM     13  N   UNL A   1      32.216  23.259  25.718  1.00  0.00    -0.367 N 
ATOM     14  C   UNL A   1      31.587  21.972  25.420  1.00  0.00     0.144 C 
BRANCH  13  15
ATOM     15  C   UNL A   1      33.422  23.117  26.593  1.00  0.00     0.172 C 
BRANCH  15  16
ATOM     16  C   UNL A   1      34.806  22.870  25.986  1.00  0.00     0.060 A 
ATOM     17  C   UNL A   1      36.857  19.982  24.994  1.00  0.00     0.067 C 
ATOM     18  C   UNL A   1      36.403  21.401  25.149  1.00  0.00     0.038 A 
ATOM     19  C   UNL A   1      37.096  22.435  24.525  1.00  0.00     0.023 A 
ATOM     20  N   UNL A   1      35.288  21.604  25.895  1.00  0.00    -0.256 NA
ATOM     21  C   UNL A   1      36.651  23.738  24.701  1.00  0.00     0.004 A 
ATOM     22  C   UNL A   1      35.509  23.964  25.462  1.00  0.00     0.026 A 
ENDBRANCH  15  16
ENDBRANCH  13  15
ENDBRANCH   8  13
BRANCH  10  23
ATOM     23  N   UNL A   1      29.685  24.732  26.549  1.00  0.00    -0.397 N 
ATOM     24  H   UNL A   1      29.566  23.758  26.617  1.00  0.00     0.156 HD
ATOM     25  H   UNL A   1      29.027  25.339  26.958  1.00  0.00     0.156 HD
ENDBRANCH  10  23
ENDBRANCH   4   7
ENDBRANCH   2   3
ENDBRANCH   1   2
BRANCH   1  26
ATOM     26  C   UNL A   1      31.443  32.166  26.553  1.00  0.00     0.023 C 
BRANCH  26  27
ATOM     27  C   UNL A   1      32.637  32.871  27.185  1.00  0.00     0.116 C 
BRANCH  27  28
ATOM     28  N   UNL A   1      32.333  34.216  27.644  1.00  0.00    -0.352 N 
ATOM     29  C   UNL A   1      32.963  34.953  28.619  1.00  0.00     0.251 C 
ATOM     30  H   UNL A   1      31.573  34.657  27.201  1.00  0.00     0.163 HD
ATOM     31  O   UNL A   1      32.508  36.028  28.973  1.00  0.00    -0.269 OA
BRANCH  29  32
ATOM     32  C   UNL A   1      34.177  34.406  29.265  1.00  0.00     0.039 A 
ATOM     33  C   UNL A   1      34.025  33.635  30.419  1.00  0.00     0.014 A 
ATOM     34  C   UNL A   1      35.449  34.630  28.731  1.00  0.00     0.014 A 
ATOM     35  C   UNL A   1      35.146  33.048  31.005  1.00  0.00     0.010 A 
ATOM     36  C   UNL A   1      36.552  33.971  29.264  1.00  0.00     0.010 A 
ATOM     37  C   UNL A   1      36.415  33.183  30.414  1.00  0.00    -0.014 A 
BRANCH  37  38
ATOM     38  C   UNL A   1      37.592  32.495  30.999  1.00  0.00     0.031 A 
ATOM     39  C   UNL A   1      38.086  32.857  32.372  1.00  0.00     0.074 A 
ATOM     40  C   UNL A   1      38.228  31.551  30.279  1.00  0.00     0.049 A 
ATOM     41  N   UNL A   1      39.061  32.324  33.068  1.00  0.00    -0.248 NA
ATOM     42  C   UNL A   1      37.418  33.980  33.046  1.00  0.00     0.031 C 
ATOM     43  C   UNL A   1      37.890  31.165  28.908  1.00  0.00     0.029 A 
ATOM     44  N   UNL A   1      39.285  30.737  30.602  1.00  0.00    -0.354 N 
ATOM     45  C   UNL A   1      39.120  33.046  34.252  1.00  0.00     0.074 A 
ATOM     46  C   UNL A   1      38.133  34.098  34.155  1.00  0.00     0.031 C 
ATOM     47  C   UNL A   1      38.691  30.158  28.524  1.00  0.00     0.029 A 
ATOM     48  C   UNL A   1      39.618  29.849  29.608  1.00  0.00     0.049 A 
ATOM     49  H   UNL A   1      39.760  30.786  31.462  1.00  0.00     0.167 HD
ATOM     50  C   UNL A   1      39.904  32.831  35.336  1.00  0.00     0.037 A 
ATOM     51  C   UNL A   1      40.558  28.886  29.581  1.00  0.00     0.037 A 
ATOM     52  C   UNL A   1      40.879  31.775  35.431  1.00  0.00     0.049 A 
ATOM     53  C   UNL A   1      41.407  28.660  30.802  1.00  0.00     0.074 A 
ATOM     54  C   UNL A   1      41.687  31.438  36.502  1.00  0.00     0.029 A 
ATOM     55  N   UNL A   1      41.181  30.886  34.408  1.00  0.00    -0.354 N 
ATOM     56  N   UNL A   1      41.391  29.290  31.952  1.00  0.00    -0.248 NA
ATOM     57  C   UNL A   1      42.391  27.573  30.727  1.00  0.00     0.031 C 
ATOM     58  C   UNL A   1      42.518  30.383  36.110  1.00  0.00     0.029 A 
ATOM     59  C   UNL A   1      42.181  30.017  34.817  1.00  0.00     0.049 A 
ATOM     60  H   UNL A   1      40.750  30.876  33.524  1.00  0.00     0.167 HD
ATOM     61  C   UNL A   1      42.341  28.660  32.745  1.00  0.00     0.074 A 
ATOM     62  C   UNL A   1      42.891  27.579  31.953  1.00  0.00     0.031 C 
ATOM     63  C   UNL A   1      42.724  28.949  34.015  1.00  0.00     0.037 A 
BRANCH  50  64
ATOM     64  C   UNL A   1      39.736  33.757  36.509  1.00  0.00     0.064 A 
ATOM     65  C   UNL A   1      40.376  35.005  36.561  1.00  0.00     0.173 A 
ATOM     66  C   UNL A   1      38.899  33.407  37.579  1.00  0.00     0.173 A 
ATOM     67  F   UNL A   1      41.197  35.385  35.570  1.00  0.00    -0.203 F 
ATOM     68  C   UNL A   1      40.212  35.852  37.654  1.00  0.00     0.198 A 
ATOM     69  C   UNL A   1      38.709  34.273  38.654  1.00  0.00     0.198 A 
ATOM     70  F   UNL A   1      38.258  32.229  37.581  1.00  0.00    -0.203 F 
ATOM     71  F   UNL A   1      40.879  37.014  37.706  1.00  0.00    -0.200 F 
ATOM     72  C   UNL A   1      39.372  35.489  38.695  1.00  0.00     0.200 A 
ATOM     73  F   UNL A   1      37.886  33.926  39.654  1.00  0.00    -0.200 F 
ATOM     74  F   UNL A   1      39.209  36.310  39.743  1.00  0.00    -0.200 F 
ENDBRANCH  50  64
BRANCH  51  75
ATOM     75  C   UNL A   1      40.716  28.034  28.372  1.00  0.00     0.064 A 
ATOM     76  C   UNL A   1      40.081  26.788  28.277  1.00  0.00     0.173 A 
ATOM     77  C   UNL A   1      41.513  28.442  27.292  1.00  0.00     0.173 A 
ATOM     78  F   UNL A   1      39.322  26.344  29.290  1.00  0.00    -0.203 F 
ATOM     79  C   UNL A   1      40.261  25.970  27.163  1.00  0.00     0.198 A 
ATOM     80  C   UNL A   1      41.665  27.639  26.165  1.00  0.00     0.198 A 
ATOM     81  F   UNL A   1      42.136  29.629  27.328  1.00  0.00    -0.203 F 
ATOM     82  F   UNL A   1      39.686  24.760  27.125  1.00  0.00    -0.200 F 
ATOM     83  C   UNL A   1      41.048  26.398  26.106  1.00  0.00     0.200 A 
ATOM     84  F   UNL A   1      42.412  28.065  25.137  1.00  0.00    -0.200 F 
ATOM     85  F   UNL A   1      41.218  25.613  25.034  1.00  0.00    -0.200 F 
ENDBRANCH  51  75
BRANCH  63  86
ATOM     86  C   UNL A   1      43.764  28.055  34.632  1.00  0.00     0.064 A 
ATOM     87  C   UNL A   1      43.422  26.863  35.289  1.00  0.00     0.173 A 
ATOM     88  C   UNL A   1      45.123  28.399  34.566  1.00  0.00     0.173 A 
ATOM     89  F   UNL A   1      42.136  26.492  35.390  1.00  0.00    -0.203 F 
ATOM     90  C   UNL A   1      44.395  26.080  35.904  1.00  0.00     0.198 A 
ATOM     91  C   UNL A   1      46.097  27.593  35.147  1.00  0.00     0.198 A 
ATOM     92  F   UNL A   1      45.508  29.522  33.940  1.00  0.00    -0.203 F 
ATOM     93  F   UNL A   1      44.035  24.988  36.594  1.00  0.00    -0.200 F 
ATOM     94  C   UNL A   1      45.731  26.443  35.830  1.00  0.00     0.200 A 
ATOM     95  F   UNL A   1      47.389  27.936  35.059  1.00  0.00    -0.200 F 
ATOM     96  F   UNL A   1      46.665  25.690  36.426  1.00  0.00    -0.200 F 
ENDBRANCH  63  86
ENDBRANCH  37  38
ENDBRANCH  29  32
ENDBRANCH  27  28
ENDBRANCH  26  27
ENDBRANCH   1  26
TORSDOF 15
ENDMDL
MODEL 2
REMARK VINA RESULT:     -12.5      0.709      1.599
REMARK SMILES Cc1cccc(CN(C)c2ccc(C(=O)NCCCCNC(=O)c3ccc(-c4c5nc(c(-c6c(F)c(F)c(F)c(F)c6F)c6ccc([nH]6)c(-c6c(F)c(F)c(F)c(F)c6F)c6nc(c(-c7c(F)c(F)c(F)c(F)c7F)c7ccc4[nH]7)C=C6)C=C5)cc3)cc2N)n1
REMARK SMILES IDX 18 1 17 2 16 3 14 4 15 5 13 7 10 8 11 9 88 10 12 11 87 12
REMARK SMILES IDX 8 13 9 14 7 15 6 16 1 17 2 18 3 19 90 20 4 21 5 22 89 23
REMARK SMILES IDX 19 26 20 27 21 28 22 29 23 31 24 32 25 33 86 34 26 35 85 36
REMARK SMILES IDX 27 37 28 38 29 39 79 40 30 41 84 42 78 43 80 44 31 45 83 46
REMARK SMILES IDX 77 47 76 48 32 50 64 51 44 52 63 53 45 54 48 55 62 56 81 57
REMARK SMILES IDX 46 58 47 59 61 61 82 62 49 63 33 64 34 65 42 66 35 67 36 68
REMARK SMILES IDX 40 69 43 70 37 71 38 72 41 73 39 74 65 75 66 76 74 77 67 78
REMARK SMILES IDX 68 79 72 80 75 81 69 82 70 83 73 84 71 85 50 86 51 87 59 88
REMARK SMILES IDX 52 89 53 90 57 91 60 92 54 93 55 94 58 95 56 96
REMARK H PARENT 16 6 89 24 89 25 21 30 80 49 48 60
REMARK Flexibility Score: inf
ROOT
ATOM      1  C   UNL A   1      31.554  30.564  26.751  1.00  0.00     0.023 C 
ENDROOT
BRANCH   1   2
ATOM      2  C   UNL A   1      32.291  29.975  25.542  1.00  0.00     0.116 C 
BRANCH   2   3
ATOM      3  N   UNL A   1      31.442  30.002  24.364  1.00  0.00    -0.352 N 
ATOM      4  C   UNL A   1      30.891  29.011  23.583  1.00  0.00     0.251 C 
ATOM      5  O   UNL A   1      30.210  29.368  22.620  1.00  0.00    -0.269 OA
ATOM      6  H   UNL A   1      31.216  30.912  24.062  1.00  0.00     0.163 HD
BRANCH   4   7
ATOM      7  C   UNL A   1      31.017  27.555  23.882  1.00  0.00     0.041 A 
ATOM      8  C   UNL A   1      31.264  24.813  24.710  1.00  0.00     0.060 A 
ATOM      9  C   UNL A   1      30.043  25.512  24.773  1.00  0.00     0.029 A 
ATOM     10  C   UNL A   1      32.363  25.635  24.420  1.00  0.00     0.056 A 
ATOM     11  C   UNL A   1      29.931  26.875  24.430  1.00  0.00     0.016 A 
ATOM     12  C   UNL A   1      32.197  26.851  23.761  1.00  0.00     0.041 A 
BRANCH   8  13
ATOM     13  N   UNL A   1      31.366  23.428  24.838  1.00  0.00    -0.367 N 
ATOM     14  C   UNL A   1      30.830  22.738  26.012  1.00  0.00     0.144 C 
BRANCH  13  15
ATOM     15  C   UNL A   1      31.970  22.483  23.846  1.00  0.00     0.172 C 
BRANCH  15  16
ATOM     16  C   UNL A   1      33.366  21.895  24.073  1.00  0.00     0.060 A 
ATOM     17  C   UNL A   1      36.812  23.138  24.406  1.00  0.00     0.067 C 
ATOM     18  C   UNL A   1      35.645  22.200  24.424  1.00  0.00     0.038 A 
ATOM     19  C   UNL A   1      35.795  20.896  24.890  1.00  0.00     0.023 A 
ATOM     20  N   UNL A   1      34.459  22.697  23.992  1.00  0.00    -0.256 NA
ATOM     21  C   UNL A   1      34.694  20.052  24.880  1.00  0.00     0.004 A 
ATOM     22  C   UNL A   1      33.469  20.546  24.442  1.00  0.00     0.026 A 
ENDBRANCH  15  16
ENDBRANCH  13  15
ENDBRANCH   8  13
BRANCH  10  23
ATOM     23  N   UNL A   1      33.607  25.478  25.049  1.00  0.00    -0.397 N 
ATOM     24  H   UNL A   1      33.724  25.758  25.985  1.00  0.00     0.156 HD
ATOM     25  H   UNL A   1      34.363  25.087  24.554  1.00  0.00     0.156 HD
ENDBRANCH  10  23
ENDBRANCH   4   7
ENDBRANCH   2   3
ENDBRANCH   1   2
BRANCH   1  26
ATOM     26  C   UNL A   1      31.413  32.087  26.687  1.00  0.00     0.023 C 
BRANCH  26  27
ATOM     27  C   UNL A   1      32.640  32.846  27.177  1.00  0.00     0.116 C 
BRANCH  27  28
ATOM     28  N   UNL A   1      32.339  34.194  27.629  1.00  0.00    -0.352 N 
ATOM     29  C   UNL A   1      32.973  34.935  28.599  1.00  0.00     0.251 C 
ATOM     30  H   UNL A   1      31.580  34.635  27.183  1.00  0.00     0.163 HD
ATOM     31  O   UNL A   1      32.521  36.013  28.947  1.00  0.00    -0.269 OA
BRANCH  29  32
ATOM     32  C   UNL A   1      34.186  34.388  29.247  1.00  0.00     0.039 A 
ATOM     33  C   UNL A   1      34.031  33.613  30.398  1.00  0.00     0.014 A 
ATOM     34  C   UNL A   1      35.459  34.617  28.717  1.00  0.00     0.014 A 
ATOM     35  C   UNL A   1      35.152  33.027  30.986  1.00  0.00     0.010 A 
ATOM     36  C   UNL A   1      36.561  33.958  29.252  1.00  0.00     0.010 A 
ATOM     37  C   UNL A   1      36.422  33.166  30.399  1.00  0.00    -0.014 A 
BRANCH  37  38
ATOM     38  C   UNL A   1      37.599  32.478  30.986  1.00  0.00     0.031 A 
ATOM     39  C   UNL A   1      38.094  32.844  32.358  1.00  0.00     0.074 A 
ATOM     40  C   UNL A   1      38.234  31.532  30.269  1.00  0.00     0.049 A 
ATOM     41  N   UNL A   1      39.068  32.312  33.055  1.00  0.00    -0.248 NA
ATOM     42  C   UNL A   1      37.427  33.970  33.028  1.00  0.00     0.031 C 
ATOM     43  C   UNL A   1      37.894  31.142  28.899  1.00  0.00     0.029 A 
ATOM     44  N   UNL A   1      39.290  30.718  30.594  1.00  0.00    -0.354 N 
ATOM     45  C   UNL A   1      39.129  33.037  34.237  1.00  0.00     0.074 A 
ATOM     46  C   UNL A   1      38.143  34.091  34.136  1.00  0.00     0.031 C 
ATOM     47  C   UNL A   1      38.694  30.133  28.517  1.00  0.00     0.029 A 
ATOM     48  C   UNL A   1      39.622  29.827  29.602  1.00  0.00     0.049 A 
ATOM     49  H   UNL A   1      39.765  30.769  31.453  1.00  0.00     0.167 HD
ATOM     50  C   UNL A   1      39.913  32.825  35.321  1.00  0.00     0.037 A 
ATOM     51  C   UNL A   1      40.561  28.862  29.577  1.00  0.00     0.037 A 
ATOM     52  C   UNL A   1      40.887  31.768  35.419  1.00  0.00     0.049 A 
ATOM     53  C   UNL A   1      41.410  28.639  30.799  1.00  0.00     0.074 A 
ATOM     54  C   UNL A   1      41.695  31.434  36.490  1.00  0.00     0.029 A 
ATOM     55  N   UNL A   1      41.188  30.876  34.398  1.00  0.00    -0.354 N 
ATOM     56  N   UNL A   1      41.395  29.273  31.946  1.00  0.00    -0.248 NA
ATOM     57  C   UNL A   1      42.393  27.551  30.726  1.00  0.00     0.031 C 
ATOM     58  C   UNL A   1      42.525  30.377  36.101  1.00  0.00     0.029 A 
ATOM     59  C   UNL A   1      42.187  30.007  34.809  1.00  0.00     0.049 A 
ATOM     60  H   UNL A   1      40.756  30.864  33.514  1.00  0.00     0.167 HD
ATOM     61  C   UNL A   1      42.344  28.644  32.741  1.00  0.00     0.074 A 
ATOM     62  C   UNL A   1      42.894  27.561  31.952  1.00  0.00     0.031 C 
ATOM     63  C   UNL A   1      42.728  28.936  34.010  1.00  0.00     0.037 A 
BRANCH  50  64
ATOM     64  C   UNL A   1      39.746  33.755  36.491  1.00  0.00     0.064 A 
ATOM     65  C   UNL A   1      40.393  35.000  36.542  1.00  0.00     0.173 A 
ATOM     66  C   UNL A   1      38.904  33.412  37.560  1.00  0.00     0.173 A 
ATOM     67  F   UNL A   1      41.219  35.373  35.552  1.00  0.00    -0.203 F 
ATOM     68  C   UNL A   1      40.231  35.850  37.633  1.00  0.00     0.198 A 
ATOM     69  C   UNL A   1      38.716  34.281  38.632  1.00  0.00     0.198 A 
ATOM     70  F   UNL A   1      38.257  32.237  37.563  1.00  0.00    -0.203 F 
ATOM     71  F   UNL A   1      40.903  37.008  37.684  1.00  0.00    -0.200 F 
ATOM     72  C   UNL A   1      39.385  35.494  38.672  1.00  0.00     0.200 A 
ATOM     73  F   UNL A   1      37.888  33.941  39.630  1.00  0.00    -0.200 F 
ATOM     74  F   UNL A   1      39.223  36.318  39.718  1.00  0.00    -0.200 F 
ENDBRANCH  50  64
BRANCH  51  75
ATOM     75  C   UNL A   1      40.718  28.007  28.371  1.00  0.00     0.064 A 
ATOM     76  C   UNL A   1      40.078  26.762  28.278  1.00  0.00     0.173 A 
ATOM     77  C   UNL A   1      41.518  28.410  27.291  1.00  0.00     0.173 A 
ATOM     78  F   UNL A   1      39.316  26.324  29.291  1.00  0.00    -0.203 F 
ATOM     79  C   UNL A   1      40.256  25.941  27.167  1.00  0.00     0.198 A 
ATOM     80  C   UNL A   1      41.668  27.602  26.166  1.00  0.00     0.198 A 
ATOM     81  F   UNL A   1      42.144  29.594  27.324  1.00  0.00    -0.203 F 
ATOM     82  F   UNL A   1      39.677  24.733  27.130  1.00  0.00    -0.200 F 
ATOM     83  C   UNL A   1      41.046  26.364  26.109  1.00  0.00     0.200 A 
ATOM     84  F   UNL A   1      42.418  28.023  25.138  1.00  0.00    -0.200 F 
ATOM     85  F   UNL A   1      41.215  25.575  25.039  1.00  0.00    -0.200 F 
ENDBRANCH  51  75
BRANCH  63  86
ATOM     86  C   UNL A   1      43.768  28.043  34.629  1.00  0.00     0.064 A 
ATOM     87  C   UNL A   1      45.136  28.344  34.566  1.00  0.00     0.173 A 
ATOM     88  C   UNL A   1      43.386  26.866  35.292  1.00  0.00     0.173 A 
ATOM     89  F   UNL A   1      45.557  29.451  33.935  1.00  0.00    -0.203 F 
ATOM     90  C   UNL A   1      46.086  27.473  35.095  1.00  0.00     0.198 A 
ATOM     91  C   UNL A   1      44.336  26.019  35.855  1.00  0.00     0.198 A 
ATOM     92  F   UNL A   1      42.090  26.535  35.393  1.00  0.00    -0.203 F 
ATOM     93  F   UNL A   1      47.392  27.744  34.952  1.00  0.00    -0.200 F 
ATOM     94  C   UNL A   1      45.686  26.315  35.742  1.00  0.00     0.200 A 
ATOM     95  F   UNL A   1      43.946  24.908  36.495  1.00  0.00    -0.200 F 
ATOM     96  F   UNL A   1      46.601  25.476  36.245  1.00  0.00    -0.200 F 
ENDBRANCH  63  86
ENDBRANCH  37  38
ENDBRANCH  29  32
ENDBRANCH  27  28
ENDBRANCH  26  27
ENDBRANCH   1  26
TORSDOF 15
ENDMDL
MODEL 3
REMARK VINA RESULT:     -12.4      4.337      9.296
REMARK SMILES Cc1cccc(CN(C)c2ccc(C(=O)NCCCCNC(=O)c3ccc(-c4c5nc(c(-c6c(F)c(F)c(F)c(F)c6F)c6ccc([nH]6)c(-c6c(F)c(F)c(F)c(F)c6F)c6nc(c(-c7c(F)c(F)c(F)c(F)c7F)c7ccc4[nH]7)C=C6)C=C5)cc3)cc2N)n1
REMARK SMILES IDX 18 1 17 2 16 3 14 4 15 5 13 7 10 8 11 9 88 10 12 11 87 12
REMARK SMILES IDX 8 13 9 14 7 15 6 16 1 17 2 18 3 19 90 20 4 21 5 22 89 23
REMARK SMILES IDX 19 26 20 27 21 28 22 29 23 31 24 32 25 33 86 34 26 35 85 36
REMARK SMILES IDX 27 37 28 38 29 39 79 40 30 41 84 42 78 43 80 44 31 45 83 46
REMARK SMILES IDX 77 47 76 48 32 50 64 51 44 52 63 53 45 54 48 55 62 56 81 57
REMARK SMILES IDX 46 58 47 59 61 61 82 62 49 63 33 64 34 65 42 66 35 67 36 68
REMARK SMILES IDX 40 69 43 70 37 71 38 72 41 73 39 74 65 75 66 76 74 77 67 78
REMARK SMILES IDX 68 79 72 80 75 81 69 82 70 83 73 84 71 85 50 86 51 87 59 88
REMARK SMILES IDX 52 89 53 90 57 91 60 92 54 93 55 94 58 95 56 96
REMARK H PARENT 16 6 89 24 89 25 21 30 80 49 48 60
REMARK Flexibility Score: inf
ROOT
ATOM      1  C   UNL A   1      35.298  21.661  24.773  1.00  0.00     0.023 C 
ENDROOT
BRANCH   1   2
ATOM      2  C   UNL A   1      33.787  21.582  25.028  1.00  0.00     0.116 C 
BRANCH   2   3
ATOM      3  N   UNL A   1      33.093  21.107  23.844  1.00  0.00    -0.352 N 
ATOM      4  C   UNL A   1      32.306  21.735  22.905  1.00  0.00     0.251 C 
ATOM      5  O   UNL A   1      31.841  21.035  22.004  1.00  0.00    -0.269 OA
ATOM      6  H   UNL A   1      33.209  20.143  23.680  1.00  0.00     0.163 HD
BRANCH   4   7
ATOM      7  C   UNL A   1      32.051  23.205  22.887  1.00  0.00     0.041 A 
ATOM      8  C   UNL A   1      31.363  25.989  22.691  1.00  0.00     0.060 A 
ATOM      9  C   UNL A   1      30.636  25.088  23.493  1.00  0.00     0.029 A 
ATOM     10  C   UNL A   1      32.293  25.362  21.850  1.00  0.00     0.056 A 
ATOM     11  C   UNL A   1      30.929  23.710  23.543  1.00  0.00     0.016 A 
ATOM     12  C   UNL A   1      32.800  24.100  22.153  1.00  0.00     0.041 A 
BRANCH   8  13
ATOM     13  N   UNL A   1      31.237  27.375  22.782  1.00  0.00    -0.367 N 
ATOM     14  C   UNL A   1      29.926  28.019  22.695  1.00  0.00     0.144 C 
BRANCH  13  15
ATOM     15  C   UNL A   1      32.344  28.359  23.001  1.00  0.00     0.172 C 
BRANCH  15  16
ATOM     16  C   UNL A   1      32.982  28.525  24.384  1.00  0.00     0.060 A 
ATOM     17  C   UNL A   1      32.961  31.002  27.103  1.00  0.00     0.067 C 
ATOM     18  C   UNL A   1      33.214  29.725  26.363  1.00  0.00     0.038 A 
ATOM     19  C   UNL A   1      33.783  28.633  27.013  1.00  0.00     0.023 A 
ATOM     20  N   UNL A   1      32.840  29.695  25.059  1.00  0.00    -0.256 NA
ATOM     21  C   UNL A   1      34.013  27.471  26.291  1.00  0.00     0.004 A 
ATOM     22  C   UNL A   1      33.634  27.422  24.953  1.00  0.00     0.026 A 
ENDBRANCH  15  16
ENDBRANCH  13  15
ENDBRANCH   8  13
BRANCH  10  23
ATOM     23  N   UNL A   1      32.508  25.774  20.526  1.00  0.00    -0.397 N 
ATOM     24  H   UNL A   1      31.972  25.386  19.797  1.00  0.00     0.156 HD
ATOM     25  H   UNL A   1      33.194  26.451  20.327  1.00  0.00     0.156 HD
ENDBRANCH  10  23
ENDBRANCH   4   7
ENDBRANCH   2   3
ENDBRANCH   1   2
BRANCH   1  26
ATOM     26  C   UNL A   1      35.803  23.093  24.583  1.00  0.00     0.023 C 
BRANCH  26  27
ATOM     27  C   UNL A   1      36.779  23.556  25.658  1.00  0.00     0.116 C 
BRANCH  27  28
ATOM     28  N   UNL A   1      37.851  22.608  25.907  1.00  0.00    -0.352 N 
ATOM     29  C   UNL A   1      39.090  22.839  26.458  1.00  0.00     0.251 C 
ATOM     30  H   UNL A   1      37.668  21.677  25.645  1.00  0.00     0.163 HD
ATOM     31  O   UNL A   1      39.928  21.953  26.488  1.00  0.00    -0.269 OA
BRANCH  29  32
ATOM     32  C   UNL A   1      39.410  24.189  26.973  1.00  0.00     0.039 A 
ATOM     33  C   UNL A   1      39.156  24.463  28.317  1.00  0.00     0.014 A 
ATOM     34  C   UNL A   1      39.974  25.167  26.148  1.00  0.00     0.014 A 
ATOM     35  C   UNL A   1      39.517  25.704  28.845  1.00  0.00     0.010 A 
ATOM     36  C   UNL A   1      40.413  26.367  26.697  1.00  0.00     0.010 A 
ATOM     37  C   UNL A   1      40.178  26.654  28.047  1.00  0.00    -0.014 A 
BRANCH  37  38
ATOM     38  C   UNL A   1      40.626  27.942  28.632  1.00  0.00     0.031 A 
ATOM     39  C   UNL A   1      42.079  28.180  28.938  1.00  0.00     0.074 A 
ATOM     40  C   UNL A   1      39.714  28.895  28.904  1.00  0.00     0.049 A 
ATOM     41  N   UNL A   1      42.662  29.262  29.395  1.00  0.00    -0.248 NA
ATOM     42  C   UNL A   1      42.997  27.050  28.731  1.00  0.00     0.031 C 
ATOM     43  C   UNL A   1      38.268  28.754  28.721  1.00  0.00     0.029 A 
ATOM     44  N   UNL A   1      39.865  30.172  29.381  1.00  0.00    -0.354 N 
ATOM     45  C   UNL A   1      44.006  28.941  29.528  1.00  0.00     0.074 A 
ATOM     46  C   UNL A   1      44.144  27.545  29.173  1.00  0.00     0.031 C 
ATOM     47  C   UNL A   1      37.670  29.914  29.036  1.00  0.00     0.029 A 
ATOM     48  C   UNL A   1      38.684  30.868  29.473  1.00  0.00     0.049 A 
ATOM     49  H   UNL A   1      40.736  30.553  29.636  1.00  0.00     0.167 HD
ATOM     50  C   UNL A   1      45.037  29.745  29.884  1.00  0.00     0.037 A 
ATOM     51  C   UNL A   1      38.449  32.137  29.855  1.00  0.00     0.037 A 
ATOM     52  C   UNL A   1      44.894  31.136  30.228  1.00  0.00     0.049 A 
ATOM     53  C   UNL A   1      39.613  33.012  30.232  1.00  0.00     0.074 A 
ATOM     54  C   UNL A   1      45.879  32.051  30.551  1.00  0.00     0.029 A 
ATOM     55  N   UNL A   1      43.683  31.811  30.299  1.00  0.00    -0.354 N 
ATOM     56  N   UNL A   1      40.892  32.724  30.266  1.00  0.00    -0.248 NA
ATOM     57  C   UNL A   1      39.301  34.397  30.606  1.00  0.00     0.031 C 
ATOM     58  C   UNL A   1      45.262  33.265  30.873  1.00  0.00     0.029 A 
ATOM     59  C   UNL A   1      43.896  33.126  30.684  1.00  0.00     0.049 A 
ATOM     60  H   UNL A   1      42.804  31.414  30.105  1.00  0.00     0.167 HD
ATOM     61  C   UNL A   1      41.538  33.897  30.636  1.00  0.00     0.074 A 
ATOM     62  C   UNL A   1      40.510  34.906  30.787  1.00  0.00     0.031 C 
ATOM     63  C   UNL A   1      42.862  34.119  30.835  1.00  0.00     0.037 A 
BRANCH  50  64
ATOM     64  C   UNL A   1      46.412  29.137  29.915  1.00  0.00     0.064 A 
ATOM     65  C   UNL A   1      46.938  28.562  31.083  1.00  0.00     0.173 A 
ATOM     66  C   UNL A   1      47.201  29.100  28.756  1.00  0.00     0.173 A 
ATOM     67  F   UNL A   1      46.230  28.581  32.223  1.00  0.00    -0.203 F 
ATOM     68  C   UNL A   1      48.214  28.004  31.098  1.00  0.00     0.198 A 
ATOM     69  C   UNL A   1      48.463  28.508  28.766  1.00  0.00     0.198 A 
ATOM     70  F   UNL A   1      46.748  29.629  27.610  1.00  0.00    -0.203 F 
ATOM     71  F   UNL A   1      48.715  27.512  32.239  1.00  0.00    -0.200 F 
ATOM     72  C   UNL A   1      48.971  27.969  29.938  1.00  0.00     0.200 A 
ATOM     73  F   UNL A   1      49.188  28.463  27.640  1.00  0.00    -0.200 F 
ATOM     74  F   UNL A   1      50.196  27.424  29.951  1.00  0.00    -0.200 F 
ENDBRANCH  50  64
BRANCH  51  75
ATOM     75  C   UNL A   1      37.061  32.670  29.856  1.00  0.00     0.064 A 
ATOM     76  C   UNL A   1      36.530  33.310  28.727  1.00  0.00     0.173 A 
ATOM     77  C   UNL A   1      36.239  32.560  30.988  1.00  0.00     0.173 A 
ATOM     78  F   UNL A   1      37.281  33.455  27.625  1.00  0.00    -0.203 F 
ATOM     79  C   UNL A   1      35.244  33.846  28.739  1.00  0.00     0.198 A 
ATOM     80  C   UNL A   1      34.943  33.066  30.988  1.00  0.00     0.198 A 
ATOM     81  F   UNL A   1      36.695  31.949  32.091  1.00  0.00    -0.203 F 
ATOM     82  F   UNL A   1      34.784  34.501  27.665  1.00  0.00    -0.200 F 
ATOM     83  C   UNL A   1      34.449  33.718  29.868  1.00  0.00     0.200 A 
ATOM     84  F   UNL A   1      34.171  32.925  32.074  1.00  0.00    -0.200 F 
ATOM     85  F   UNL A   1      33.211  34.231  29.878  1.00  0.00    -0.200 F 
ENDBRANCH  51  75
BRANCH  63  86
ATOM     86  C   UNL A   1      43.269  35.519  31.200  1.00  0.00     0.064 A 
ATOM     87  C   UNL A   1      43.627  36.465  30.228  1.00  0.00     0.173 A 
ATOM     88  C   UNL A   1      43.305  35.918  32.546  1.00  0.00     0.173 A 
ATOM     89  F   UNL A   1      43.620  36.133  28.928  1.00  0.00    -0.203 F 
ATOM     90  C   UNL A   1      44.057  37.739  30.592  1.00  0.00     0.198 A 
ATOM     91  C   UNL A   1      43.697  37.205  32.903  1.00  0.00     0.198 A 
ATOM     92  F   UNL A   1      42.962  35.059  33.517  1.00  0.00    -0.203 F 
ATOM     93  F   UNL A   1      44.469  38.599  29.649  1.00  0.00    -0.200 F 
ATOM     94  C   UNL A   1      44.089  38.109  31.927  1.00  0.00     0.200 A 
ATOM     95  F   UNL A   1      43.710  37.567  34.193  1.00  0.00    -0.200 F 
ATOM     96  F   UNL A   1      44.508  39.333  32.275  1.00  0.00    -0.200 F 
ENDBRANCH  63  86
ENDBRANCH  37  38
ENDBRANCH  29  32
ENDBRANCH  27  28
ENDBRANCH  26  27
ENDBRANCH   1  26
TORSDOF 15
ENDMDL
