MODEL 1
REMARK VINA RESULT:     -10.5      0.000      0.000
REMARK SMILES C[C@@H](C(=O)NCCCCNC(=O)c1ccc(-c2c3nc(c(-c4c(F)c(F)c(F)c(F)c4F)c4ccc([nH]4)c(-c4c(F)c(F)c(F)c(F)c4F)c4nc(c(-c5c(F)c(F)c(F)c(F)c5F)c5ccc2[nH]5)C=C4)C=C3)cc1)c1ccc(=O)n(C(F)F)c1
REMARK SMILES IDX 7 1 6 2 5 3 3 4 4 5 2 7 1 8 76 9 77 10 85 11 78 12 81 13
REMARK SMILES IDX 79 14 80 15 82 16 83 17 84 18 8 19 9 20 10 21 11 22 12 24
REMARK SMILES IDX 13 25 14 26 75 27 15 28 74 29 16 30 17 31 18 32 68 33 19 34
REMARK SMILES IDX 73 35 67 36 69 37 20 38 72 39 66 40 65 41 21 43 53 44 33 45
REMARK SMILES IDX 52 46 34 47 37 48 51 49 70 50 35 51 36 52 50 54 71 55 38 56
REMARK SMILES IDX 22 57 23 58 31 59 24 60 25 61 29 62 32 63 26 64 27 65 30 66
REMARK SMILES IDX 28 67 54 68 55 69 63 70 56 71 57 72 61 73 64 74 58 75 59 76
REMARK SMILES IDX 62 77 60 78 39 79 40 80 48 81 41 82 42 83 46 84 49 85 43 86
REMARK SMILES IDX 44 87 47 88 45 89
REMARK H PARENT 5 6 10 23 69 42 37 53
REMARK Flexibility Score: inf
ROOT
ATOM      1  C   UNL A   1      33.666  36.238  28.858  1.00  0.00     0.023 C 
ENDROOT
BRANCH   1   2
ATOM      2  C   UNL A   1      32.821  35.951  30.101  1.00  0.00     0.116 C 
BRANCH   2   3
ATOM      3  N   UNL A   1      33.388  36.579  31.277  1.00  0.00    -0.356 N 
ATOM      4  C   UNL A   1      34.143  36.051  32.283  1.00  0.00     0.227 C 
ATOM      5  O   UNL A   1      34.404  36.803  33.224  1.00  0.00    -0.274 OA
ATOM      6  H   UNL A   1      33.197  37.540  31.365  1.00  0.00     0.163 HD
BRANCH   4   7
ATOM      7  C   UNL A   1      34.650  34.592  32.196  1.00  0.00     0.107 C 
ATOM      8  C   UNL A   1      34.015  33.684  33.252  1.00  0.00     0.023 C 
BRANCH   7   9
ATOM      9  C   UNL A   1      36.167  34.498  32.331  1.00  0.00    -0.019 A 
ATOM     10  C   UNL A   1      36.745  34.567  33.659  1.00  0.00     0.012 A 
ATOM     11  C   UNL A   1      37.001  34.434  31.276  1.00  0.00     0.099 A 
ATOM     12  C   UNL A   1      38.072  34.607  33.830  1.00  0.00     0.072 A 
ATOM     13  N   UNL A   1      38.375  34.446  31.426  1.00  0.00    -0.258 N 
ATOM     14  C   UNL A   1      38.989  34.571  32.659  1.00  0.00     0.254 A 
ATOM     15  O   UNL A   1      40.199  34.656  32.857  1.00  0.00    -0.269 OA
BRANCH  13  16
ATOM     16  C   UNL A   1      39.226  34.411  30.263  1.00  0.00     0.451 C 
ATOM     17  F   UNL A   1      39.842  33.208  30.160  1.00  0.00    -0.185 F 
ATOM     18  F   UNL A   1      38.525  34.623  29.123  1.00  0.00    -0.185 F 
ENDBRANCH  13  16
ENDBRANCH   7   9
ENDBRANCH   4   7
ENDBRANCH   2   3
ENDBRANCH   1   2
BRANCH   1  19
ATOM     19  C   UNL A   1      34.005  35.010  28.005  1.00  0.00     0.023 C 
BRANCH  19  20
ATOM     20  C   UNL A   1      33.672  33.664  28.637  1.00  0.00     0.116 C 
BRANCH  20  21
ATOM     21  N   UNL A   1      33.270  32.665  27.663  1.00  0.00    -0.352 N 
ATOM     22  C   UNL A   1      33.901  31.508  27.290  1.00  0.00     0.251 C 
ATOM     23  H   UNL A   1      32.418  32.846  27.203  1.00  0.00     0.163 HD
ATOM     24  O   UNL A   1      33.454  30.849  26.352  1.00  0.00    -0.269 OA
BRANCH  22  25
ATOM     25  C   UNL A   1      35.127  31.055  27.984  1.00  0.00     0.039 A 
ATOM     26  C   UNL A   1      35.135  29.778  28.556  1.00  0.00     0.014 A 
ATOM     27  C   UNL A   1      36.246  31.883  28.116  1.00  0.00     0.014 A 
ATOM     28  C   UNL A   1      36.269  29.322  29.229  1.00  0.00     0.010 A 
ATOM     29  C   UNL A   1      37.403  31.400  28.727  1.00  0.00     0.010 A 
ATOM     30  C   UNL A   1      37.418  30.125  29.309  1.00  0.00    -0.014 A 
BRANCH  30  31
ATOM     31  C   UNL A   1      38.621  29.659  30.043  1.00  0.00     0.031 A 
ATOM     32  C   UNL A   1      38.880  30.139  31.445  1.00  0.00     0.074 A 
ATOM     33  C   UNL A   1      39.497  28.835  29.439  1.00  0.00     0.049 A 
ATOM     34  N   UNL A   1      39.877  29.859  32.246  1.00  0.00    -0.248 NA
ATOM     35  C   UNL A   1      37.903  31.081  32.012  1.00  0.00     0.031 C 
ATOM     36  C   UNL A   1      39.386  28.341  28.066  1.00  0.00     0.029 A 
ATOM     37  N   UNL A   1      40.657  28.267  29.904  1.00  0.00    -0.354 N 
ATOM     38  C   UNL A   1      39.657  30.604  33.398  1.00  0.00     0.074 A 
ATOM     39  C   UNL A   1      38.462  31.387  33.174  1.00  0.00     0.031 C 
ATOM     40  C   UNL A   1      40.418  27.520  27.809  1.00  0.00     0.029 A 
ATOM     41  C   UNL A   1      41.275  27.450  28.990  1.00  0.00     0.049 A 
ATOM     42  H   UNL A   1      41.012  28.430  30.807  1.00  0.00     0.167 HD
ATOM     43  C   UNL A   1      40.371  30.614  34.550  1.00  0.00     0.037 A 
ATOM     44  C   UNL A   1      42.400  26.719  29.099  1.00  0.00     0.037 A 
ATOM     45  C   UNL A   1      41.536  29.803  34.786  1.00  0.00     0.049 A 
ATOM     46  C   UNL A   1      43.155  26.720  30.401  1.00  0.00     0.074 A 
ATOM     47  C   UNL A   1      42.292  29.692  35.939  1.00  0.00     0.029 A 
ATOM     48  N   UNL A   1      42.110  28.958  33.847  1.00  0.00    -0.354 N 
ATOM     49  N   UNL A   1      42.895  27.369  31.509  1.00  0.00    -0.248 NA
ATOM     50  C   UNL A   1      44.353  25.871  30.470  1.00  0.00     0.031 C 
ATOM     51  C   UNL A   1      43.346  28.806  35.687  1.00  0.00     0.029 A 
ATOM     52  C   UNL A   1      43.219  28.331  34.393  1.00  0.00     0.049 A 
ATOM     53  H   UNL A   1      41.779  28.824  32.930  1.00  0.00     0.167 HD
ATOM     54  C   UNL A   1      43.871  26.980  32.417  1.00  0.00     0.074 A 
ATOM     55  C   UNL A   1      44.723  26.031  31.733  1.00  0.00     0.031 C 
ATOM     56  C   UNL A   1      44.044  27.373  33.703  1.00  0.00     0.037 A 
BRANCH  43  57
ATOM     57  C   UNL A   1      39.906  31.530  35.644  1.00  0.00     0.064 A 
ATOM     58  C   UNL A   1      38.804  31.210  36.453  1.00  0.00     0.173 A 
ATOM     59  C   UNL A   1      40.584  32.730  35.905  1.00  0.00     0.173 A 
ATOM     60  F   UNL A   1      38.113  30.080  36.236  1.00  0.00    -0.203 F 
ATOM     61  C   UNL A   1      38.380  32.072  37.460  1.00  0.00     0.198 A 
ATOM     62  C   UNL A   1      40.175  33.576  36.934  1.00  0.00     0.198 A 
ATOM     63  F   UNL A   1      41.646  33.081  35.165  1.00  0.00    -0.203 F 
ATOM     64  F   UNL A   1      37.293  31.771  38.185  1.00  0.00    -0.200 F 
ATOM     65  C   UNL A   1      39.069  33.251  37.704  1.00  0.00     0.200 A 
ATOM     66  F   UNL A   1      40.849  34.709  37.175  1.00  0.00    -0.200 F 
ATOM     67  F   UNL A   1      38.661  34.078  38.676  1.00  0.00    -0.200 F 
ENDBRANCH  43  57
BRANCH  44  68
ATOM     68  C   UNL A   1      42.852  25.877  27.961  1.00  0.00     0.064 A 
ATOM     69  C   UNL A   1      42.408  24.554  27.829  1.00  0.00     0.173 A 
ATOM     70  C   UNL A   1      43.735  26.371  26.991  1.00  0.00     0.173 A 
ATOM     71  F   UNL A   1      41.577  24.032  28.743  1.00  0.00    -0.203 F 
ATOM     72  C   UNL A   1      42.850  23.748  26.782  1.00  0.00     0.198 A 
ATOM     73  C   UNL A   1      44.156  25.571  25.930  1.00  0.00     0.198 A 
ATOM     74  F   UNL A   1      44.183  27.632  27.070  1.00  0.00    -0.203 F 
ATOM     75  F   UNL A   1      42.445  22.472  26.705  1.00  0.00    -0.200 F 
ATOM     76  C   UNL A   1      43.720  24.259  25.831  1.00  0.00     0.200 A 
ATOM     77  F   UNL A   1      44.987  26.072  25.006  1.00  0.00    -0.200 F 
ATOM     78  F   UNL A   1      44.144  23.483  24.823  1.00  0.00    -0.200 F 
ENDBRANCH  44  68
BRANCH  56  79
ATOM     79  C   UNL A   1      45.165  26.736  34.470  1.00  0.00     0.064 A 
ATOM     80  C   UNL A   1      44.986  25.542  35.185  1.00  0.00     0.173 A 
ATOM     81  C   UNL A   1      46.442  27.317  34.467  1.00  0.00     0.173 A 
ATOM     82  F   UNL A   1      43.780  24.957  35.230  1.00  0.00    -0.203 F 
ATOM     83  C   UNL A   1      46.039  24.969  35.892  1.00  0.00     0.198 A 
ATOM     84  C   UNL A   1      47.500  26.725  35.152  1.00  0.00     0.198 A 
ATOM     85  F   UNL A   1      46.666  28.455  33.793  1.00  0.00    -0.203 F 
ATOM     86  F   UNL A   1      45.834  23.856  36.610  1.00  0.00    -0.200 F 
ATOM     87  C   UNL A   1      47.295  25.557  35.870  1.00  0.00     0.200 A 
ATOM     88  F   UNL A   1      48.715  27.287  35.120  1.00  0.00    -0.200 F 
ATOM     89  F   UNL A   1      48.308  25.002  36.551  1.00  0.00    -0.200 F 
ENDBRANCH  56  79
ENDBRANCH  30  31
ENDBRANCH  22  25
ENDBRANCH  20  21
ENDBRANCH  19  20
ENDBRANCH   1  19
TORSDOF 13
ENDMDL
MODEL 2
REMARK VINA RESULT:     -10.5      1.239      2.155
REMARK SMILES C[C@@H](C(=O)NCCCCNC(=O)c1ccc(-c2c3nc(c(-c4c(F)c(F)c(F)c(F)c4F)c4ccc([nH]4)c(-c4c(F)c(F)c(F)c(F)c4F)c4nc(c(-c5c(F)c(F)c(F)c(F)c5F)c5ccc2[nH]5)C=C4)C=C3)cc1)c1ccc(=O)n(C(F)F)c1
REMARK SMILES IDX 7 1 6 2 5 3 3 4 4 5 2 7 1 8 76 9 77 10 85 11 78 12 81 13
REMARK SMILES IDX 79 14 80 15 82 16 83 17 84 18 8 19 9 20 10 21 11 22 12 24
REMARK SMILES IDX 13 25 14 26 75 27 15 28 74 29 16 30 17 31 18 32 68 33 19 34
REMARK SMILES IDX 73 35 67 36 69 37 20 38 72 39 66 40 65 41 21 43 53 44 33 45
REMARK SMILES IDX 52 46 34 47 37 48 51 49 70 50 35 51 36 52 50 54 71 55 38 56
REMARK SMILES IDX 22 57 23 58 31 59 24 60 25 61 29 62 32 63 26 64 27 65 30 66
REMARK SMILES IDX 28 67 54 68 55 69 63 70 56 71 57 72 61 73 64 74 58 75 59 76
REMARK SMILES IDX 62 77 60 78 39 79 40 80 48 81 41 82 42 83 46 84 49 85 43 86
REMARK SMILES IDX 44 87 47 88 45 89
REMARK H PARENT 5 6 10 23 69 42 37 53
REMARK Flexibility Score: inf
ROOT
ATOM      1  C   UNL A   1      34.081  35.529  28.726  1.00  0.00     0.023 C 
ENDROOT
BRANCH   1   2
ATOM      2  C   UNL A   1      33.186  35.259  29.937  1.00  0.00     0.116 C 
BRANCH   2   3
ATOM      3  N   UNL A   1      33.609  36.033  31.086  1.00  0.00    -0.356 N 
ATOM      4  C   UNL A   1      34.289  35.653  32.206  1.00  0.00     0.227 C 
ATOM      5  O   UNL A   1      34.424  36.510  33.081  1.00  0.00    -0.274 OA
ATOM      6  H   UNL A   1      33.366  36.986  31.053  1.00  0.00     0.163 HD
BRANCH   4   7
ATOM      7  C   UNL A   1      34.869  34.224  32.319  1.00  0.00     0.107 C 
ATOM      8  C   UNL A   1      34.503  33.543  33.641  1.00  0.00     0.023 C 
BRANCH   7   9
ATOM      9  C   UNL A   1      36.387  34.202  32.173  1.00  0.00    -0.019 A 
ATOM     10  C   UNL A   1      37.195  34.536  33.330  1.00  0.00     0.012 A 
ATOM     11  C   UNL A   1      37.014  33.968  31.005  1.00  0.00     0.099 A 
ATOM     12  C   UNL A   1      38.526  34.647  33.231  1.00  0.00     0.072 A 
ATOM     13  N   UNL A   1      38.388  34.049  30.880  1.00  0.00    -0.258 N 
ATOM     14  C   UNL A   1      39.210  34.421  31.929  1.00  0.00     0.254 A 
ATOM     15  O   UNL A   1      40.428  34.578  31.870  1.00  0.00    -0.269 OA
BRANCH  13  16
ATOM     16  C   UNL A   1      39.010  33.824  29.600  1.00  0.00     0.451 C 
ATOM     17  F   UNL A   1      38.166  33.162  28.770  1.00  0.00    -0.185 F 
ATOM     18  F   UNL A   1      39.360  34.988  29.001  1.00  0.00    -0.185 F 
ENDBRANCH  13  16
ENDBRANCH   7   9
ENDBRANCH   4   7
ENDBRANCH   2   3
ENDBRANCH   1   2
BRANCH   1  19
ATOM     19  C   UNL A   1      34.528  34.281  27.958  1.00  0.00     0.023 C 
BRANCH  19  20
ATOM     20  C   UNL A   1      34.300  32.955  28.674  1.00  0.00     0.116 C 
BRANCH  20  21
ATOM     21  N   UNL A   1      33.768  31.924  27.802  1.00  0.00    -0.352 N 
ATOM     22  C   UNL A   1      34.323  30.729  27.425  1.00  0.00     0.251 C 
ATOM     23  H   UNL A   1      32.876  32.109  27.426  1.00  0.00     0.163 HD
ATOM     24  O   UNL A   1      33.760  30.040  26.576  1.00  0.00    -0.269 OA
BRANCH  22  25
ATOM     25  C   UNL A   1      35.604  30.270  28.008  1.00  0.00     0.039 A 
ATOM     26  C   UNL A   1      35.594  29.742  29.303  1.00  0.00     0.014 A 
ATOM     27  C   UNL A   1      36.813  30.394  27.316  1.00  0.00     0.014 A 
ATOM     28  C   UNL A   1      36.786  29.311  29.889  1.00  0.00     0.010 A 
ATOM     29  C   UNL A   1      37.990  29.899  27.874  1.00  0.00     0.010 A 
ATOM     30  C   UNL A   1      37.992  29.374  29.175  1.00  0.00    -0.014 A 
BRANCH  30  31
ATOM     31  C   UNL A   1      39.267  28.941  29.797  1.00  0.00     0.031 A 
ATOM     32  C   UNL A   1      39.770  29.625  31.039  1.00  0.00     0.074 A 
ATOM     33  C   UNL A   1      39.991  27.959  29.229  1.00  0.00     0.049 A 
ATOM     34  N   UNL A   1      40.863  29.402  31.724  1.00  0.00    -0.248 NA
ATOM     35  C   UNL A   1      38.948  30.726  31.566  1.00  0.00     0.031 C 
ATOM     36  C   UNL A   1      39.639  27.253  27.996  1.00  0.00     0.029 A 
ATOM     37  N   UNL A   1      41.176  27.383  29.614  1.00  0.00    -0.354 N 
ATOM     38  C   UNL A   1      40.869  30.344  32.745  1.00  0.00     0.074 A 
ATOM     39  C   UNL A   1      39.698  31.175  32.561  1.00  0.00     0.031 C 
ATOM     40  C   UNL A   1      40.571  26.319  27.742  1.00  0.00     0.029 A 
ATOM     41  C   UNL A   1      41.597  26.377  28.780  1.00  0.00     0.049 A 
ATOM     42  H   UNL A   1      41.677  27.665  30.412  1.00  0.00     0.167 HD
ATOM     43  C   UNL A   1      41.754  30.488  33.761  1.00  0.00     0.037 A 
ATOM     44  C   UNL A   1      42.683  25.584  28.852  1.00  0.00     0.037 A 
ATOM     45  C   UNL A   1      42.895  29.636  33.966  1.00  0.00     0.049 A 
ATOM     46  C   UNL A   1      43.632  25.741  30.010  1.00  0.00     0.074 A 
ATOM     47  C   UNL A   1      43.815  29.657  34.998  1.00  0.00     0.029 A 
ATOM     48  N   UNL A   1      43.266  28.602  33.119  1.00  0.00    -0.354 N 
ATOM     49  N   UNL A   1      43.585  26.585  31.011  1.00  0.00    -0.248 NA
ATOM     50  C   UNL A   1      44.776  24.820  30.054  1.00  0.00     0.031 C 
ATOM     51  C   UNL A   1      44.765  28.658  34.758  1.00  0.00     0.029 A 
ATOM     52  C   UNL A   1      44.410  27.985  33.600  1.00  0.00     0.049 A 
ATOM     53  H   UNL A   1      42.789  28.344  32.298  1.00  0.00     0.167 HD
ATOM     54  C   UNL A   1      44.668  26.275  31.822  1.00  0.00     0.074 A 
ATOM     55  C   UNL A   1      45.348  25.158  31.202  1.00  0.00     0.031 C 
ATOM     56  C   UNL A   1      45.062  26.861  32.979  1.00  0.00     0.037 A 
BRANCH  43  57
ATOM     57  C   UNL A   1      41.517  31.609  34.731  1.00  0.00     0.064 A 
ATOM     58  C   UNL A   1      42.144  32.856  34.582  1.00  0.00     0.173 A 
ATOM     59  C   UNL A   1      40.635  31.443  35.809  1.00  0.00     0.173 A 
ATOM     60  F   UNL A   1      43.007  33.062  33.576  1.00  0.00    -0.203 F 
ATOM     61  C   UNL A   1      41.920  33.883  35.495  1.00  0.00     0.198 A 
ATOM     62  C   UNL A   1      40.390  32.483  36.702  1.00  0.00     0.198 A 
ATOM     63  F   UNL A   1      40.006  30.272  35.995  1.00  0.00    -0.203 F 
ATOM     64  F   UNL A   1      42.571  35.048  35.362  1.00  0.00    -0.200 F 
ATOM     65  C   UNL A   1      41.039  33.699  36.549  1.00  0.00     0.200 A 
ATOM     66  F   UNL A   1      39.530  32.306  37.715  1.00  0.00    -0.200 F 
ATOM     67  F   UNL A   1      40.822  34.690  37.425  1.00  0.00    -0.200 F 
ENDBRANCH  43  57
BRANCH  44  68
ATOM     68  C   UNL A   1      42.903  24.530  27.828  1.00  0.00     0.064 A 
ATOM     69  C   UNL A   1      42.511  23.206  28.069  1.00  0.00     0.173 A 
ATOM     70  C   UNL A   1      43.510  24.820  26.599  1.00  0.00     0.173 A 
ATOM     71  F   UNL A   1      41.943  22.878  29.239  1.00  0.00    -0.203 F 
ATOM     72  C   UNL A   1      42.741  22.206  27.128  1.00  0.00     0.198 A 
ATOM     73  C   UNL A   1      43.717  23.823  25.648  1.00  0.00     0.198 A 
ATOM     74  F   UNL A   1      43.897  26.073  26.319  1.00  0.00    -0.203 F 
ATOM     75  F   UNL A   1      42.398  20.939  27.402  1.00  0.00    -0.200 F 
ATOM     76  C   UNL A   1      43.339  22.516  25.915  1.00  0.00     0.200 A 
ATOM     77  F   UNL A   1      44.283  24.128  24.472  1.00  0.00    -0.200 F 
ATOM     78  F   UNL A   1      43.559  21.553  25.009  1.00  0.00    -0.200 F 
ENDBRANCH  44  68
BRANCH  56  79
ATOM     79  C   UNL A   1      46.253  26.272  33.677  1.00  0.00     0.064 A 
ATOM     80  C   UNL A   1      47.555  26.728  33.428  1.00  0.00     0.173 A 
ATOM     81  C   UNL A   1      46.082  25.253  34.627  1.00  0.00     0.173 A 
ATOM     82  F   UNL A   1      47.771  27.689  32.518  1.00  0.00    -0.203 F 
ATOM     83  C   UNL A   1      48.647  26.165  34.084  1.00  0.00     0.198 A 
ATOM     84  C   UNL A   1      47.173  24.713  35.302  1.00  0.00     0.198 A 
ATOM     85  F   UNL A   1      44.855  24.787  34.906  1.00  0.00    -0.203 F 
ATOM     86  F   UNL A   1      49.888  26.581  33.793  1.00  0.00    -0.200 F 
ATOM     87  C   UNL A   1      48.454  25.163  35.024  1.00  0.00     0.200 A 
ATOM     88  F   UNL A   1      46.984  23.754  36.218  1.00  0.00    -0.200 F 
ATOM     89  F   UNL A   1      49.507  24.625  35.656  1.00  0.00    -0.200 F 
ENDBRANCH  56  79
ENDBRANCH  30  31
ENDBRANCH  22  25
ENDBRANCH  20  21
ENDBRANCH  19  20
ENDBRANCH   1  19
TORSDOF 13
ENDMDL
MODEL 3
REMARK VINA RESULT:     -10.3      3.457      6.135
REMARK SMILES C[C@@H](C(=O)NCCCCNC(=O)c1ccc(-c2c3nc(c(-c4c(F)c(F)c(F)c(F)c4F)c4ccc([nH]4)c(-c4c(F)c(F)c(F)c(F)c4F)c4nc(c(-c5c(F)c(F)c(F)c(F)c5F)c5ccc2[nH]5)C=C4)C=C3)cc1)c1ccc(=O)n(C(F)F)c1
REMARK SMILES IDX 7 1 6 2 5 3 3 4 4 5 2 7 1 8 76 9 77 10 85 11 78 12 81 13
REMARK SMILES IDX 79 14 80 15 82 16 83 17 84 18 8 19 9 20 10 21 11 22 12 24
REMARK SMILES IDX 13 25 14 26 75 27 15 28 74 29 16 30 17 31 18 32 68 33 19 34
REMARK SMILES IDX 73 35 67 36 69 37 20 38 72 39 66 40 65 41 21 43 53 44 33 45
REMARK SMILES IDX 52 46 34 47 37 48 51 49 70 50 35 51 36 52 50 54 71 55 38 56
REMARK SMILES IDX 22 57 23 58 31 59 24 60 25 61 29 62 32 63 26 64 27 65 30 66
REMARK SMILES IDX 28 67 54 68 55 69 63 70 56 71 57 72 61 73 64 74 58 75 59 76
REMARK SMILES IDX 62 77 60 78 39 79 40 80 48 81 41 82 42 83 46 84 49 85 43 86
REMARK SMILES IDX 44 87 47 88 45 89
REMARK H PARENT 5 6 10 23 69 42 37 53
REMARK Flexibility Score: inf
ROOT
ATOM      1  C   UNL A   1      31.610  30.330  26.674  1.00  0.00     0.023 C 
ENDROOT
BRANCH   1   2
ATOM      2  C   UNL A   1      32.966  29.727  26.301  1.00  0.00     0.116 C 
BRANCH   2   3
ATOM      3  N   UNL A   1      33.208  29.821  24.876  1.00  0.00    -0.356 N 
ATOM      4  C   UNL A   1      32.824  28.995  23.859  1.00  0.00     0.227 C 
ATOM      5  O   UNL A   1      33.265  29.266  22.739  1.00  0.00    -0.274 OA
ATOM      6  H   UNL A   1      33.734  30.604  24.596  1.00  0.00     0.163 HD
BRANCH   4   7
ATOM      7  C   UNL A   1      31.864  27.815  24.131  1.00  0.00     0.107 C 
ATOM      8  C   UNL A   1      32.190  26.582  23.284  1.00  0.00     0.023 C 
BRANCH   7   9
ATOM      9  C   UNL A   1      30.404  28.189  23.891  1.00  0.00    -0.019 A 
ATOM     10  C   UNL A   1      29.423  27.123  23.823  1.00  0.00     0.012 A 
ATOM     11  C   UNL A   1      29.992  29.450  23.662  1.00  0.00     0.099 A 
ATOM     12  C   UNL A   1      28.150  27.380  23.500  1.00  0.00     0.072 A 
ATOM     13  N   UNL A   1      28.678  29.747  23.352  1.00  0.00    -0.258 N 
ATOM     14  C   UNL A   1      27.707  28.772  23.212  1.00  0.00     0.254 A 
ATOM     15  O   UNL A   1      26.541  28.959  22.874  1.00  0.00    -0.269 OA
BRANCH  13  16
ATOM     16  C   UNL A   1      28.293  31.108  23.080  1.00  0.00     0.451 C 
ATOM     17  F   UNL A   1      27.262  31.481  23.878  1.00  0.00    -0.185 F 
ATOM     18  F   UNL A   1      29.318  31.970  23.288  1.00  0.00    -0.185 F 
ENDBRANCH  13  16
ENDBRANCH   7   9
ENDBRANCH   4   7
ENDBRANCH   2   3
ENDBRANCH   1   2
BRANCH   1  19
ATOM     19  C   UNL A   1      31.528  31.857  26.573  1.00  0.00     0.023 C 
BRANCH  19  20
ATOM     20  C   UNL A   1      32.821  32.603  26.880  1.00  0.00     0.116 C 
BRANCH  20  21
ATOM     21  N   UNL A   1      32.597  33.869  27.555  1.00  0.00    -0.352 N 
ATOM     22  C   UNL A   1      33.254  34.411  28.628  1.00  0.00     0.251 C 
ATOM     23  H   UNL A   1      31.868  34.419  27.186  1.00  0.00     0.163 HD
ATOM     24  O   UNL A   1      32.835  35.452  29.132  1.00  0.00    -0.269 OA
BRANCH  22  25
ATOM     25  C   UNL A   1      34.445  33.748  29.204  1.00  0.00     0.039 A 
ATOM     26  C   UNL A   1      34.250  32.677  30.083  1.00  0.00     0.014 A 
ATOM     27  C   UNL A   1      35.741  34.191  28.925  1.00  0.00     0.014 A 
ATOM     28  C   UNL A   1      35.349  32.035  30.656  1.00  0.00     0.010 A 
ATOM     29  C   UNL A   1      36.839  33.506  29.441  1.00  0.00     0.010 A 
ATOM     30  C   UNL A   1      36.654  32.436  30.329  1.00  0.00    -0.014 A 
BRANCH  30  31
ATOM     31  C   UNL A   1      37.829  31.776  30.950  1.00  0.00     0.031 A 
ATOM     32  C   UNL A   1      38.248  32.144  32.348  1.00  0.00     0.074 A 
ATOM     33  C   UNL A   1      38.541  30.875  30.248  1.00  0.00     0.049 A 
ATOM     34  N   UNL A   1      39.250  31.691  33.060  1.00  0.00    -0.248 NA
ATOM     35  C   UNL A   1      37.451  33.177  33.026  1.00  0.00     0.031 C 
ATOM     36  C   UNL A   1      38.269  30.472  28.868  1.00  0.00     0.029 A 
ATOM     37  N   UNL A   1      39.641  30.133  30.600  1.00  0.00    -0.354 N 
ATOM     38  C   UNL A   1      39.214  32.398  34.255  1.00  0.00     0.074 A 
ATOM     39  C   UNL A   1      38.125  33.345  34.154  1.00  0.00     0.031 C 
ATOM     40  C   UNL A   1      39.159  29.535  28.500  1.00  0.00     0.029 A 
ATOM     41  C   UNL A   1      40.077  29.290  29.609  1.00  0.00     0.049 A 
ATOM     42  H   UNL A   1      40.076  30.200  31.480  1.00  0.00     0.167 HD
ATOM     43  C   UNL A   1      40.000  32.252  35.349  1.00  0.00     0.037 A 
ATOM     44  C   UNL A   1      41.095  28.409  29.602  1.00  0.00     0.037 A 
ATOM     45  C   UNL A   1      41.056  31.282  35.463  1.00  0.00     0.049 A 
ATOM     46  C   UNL A   1      41.931  28.242  30.842  1.00  0.00     0.074 A 
ATOM     47  C   UNL A   1      41.867  31.011  36.550  1.00  0.00     0.029 A 
ATOM     48  N   UNL A   1      41.443  30.418  34.449  1.00  0.00    -0.354 N 
ATOM     49  N   UNL A   1      41.840  28.861  31.993  1.00  0.00    -0.248 NA
ATOM     50  C   UNL A   1      43.003  27.238  30.785  1.00  0.00     0.031 C 
ATOM     51  C   UNL A   1      42.769  30.006  36.183  1.00  0.00     0.029 A 
ATOM     52  C   UNL A   1      42.489  29.620  34.882  1.00  0.00     0.049 A 
ATOM     53  H   UNL A   1      41.034  30.377  33.555  1.00  0.00     0.167 HD
ATOM     54  C   UNL A   1      42.812  28.299  32.808  1.00  0.00     0.074 A 
ATOM     55  C   UNL A   1      43.477  27.281  32.023  1.00  0.00     0.031 C 
ATOM     56  C   UNL A   1      43.126  28.597  34.093  1.00  0.00     0.037 A 
BRANCH  43  57
ATOM     57  C   UNL A   1      39.740  33.164  36.513  1.00  0.00     0.064 A 
ATOM     58  C   UNL A   1      38.828  32.825  37.525  1.00  0.00     0.173 A 
ATOM     59  C   UNL A   1      40.430  34.379  36.633  1.00  0.00     0.173 A 
ATOM     60  F   UNL A   1      38.132  31.681  37.450  1.00  0.00    -0.203 F 
ATOM     61  C   UNL A   1      38.594  33.684  38.595  1.00  0.00     0.198 A 
ATOM     62  C   UNL A   1      40.215  35.222  37.721  1.00  0.00     0.198 A 
ATOM     63  F   UNL A   1      41.318  34.749  35.697  1.00  0.00    -0.203 F 
ATOM     64  F   UNL A   1      37.678  33.364  39.521  1.00  0.00    -0.200 F 
ATOM     65  C   UNL A   1      39.291  34.878  38.696  1.00  0.00     0.200 A 
ATOM     66  F   UNL A   1      40.899  36.371  37.823  1.00  0.00    -0.200 F 
ATOM     67  F   UNL A   1      39.067  35.702  39.729  1.00  0.00    -0.200 F 
ENDBRANCH  43  57
BRANCH  44  68
ATOM     68  C   UNL A   1      41.348  27.575  28.399  1.00  0.00     0.064 A 
ATOM     69  C   UNL A   1      42.252  27.996  27.413  1.00  0.00     0.173 A 
ATOM     70  C   UNL A   1      40.692  26.352  28.205  1.00  0.00     0.173 A 
ATOM     71  F   UNL A   1      42.889  29.168  27.545  1.00  0.00    -0.203 F 
ATOM     72  C   UNL A   1      42.472  27.235  26.267  1.00  0.00     0.198 A 
ATOM     73  C   UNL A   1      40.932  25.580  27.070  1.00  0.00     0.198 A 
ATOM     74  F   UNL A   1      39.823  25.904  29.123  1.00  0.00    -0.203 F 
ATOM     75  F   UNL A   1      43.308  27.682  25.319  1.00  0.00    -0.200 F 
ATOM     76  C   UNL A   1      41.816  26.025  26.099  1.00  0.00     0.200 A 
ATOM     77  F   UNL A   1      40.306  24.405  26.917  1.00  0.00    -0.200 F 
ATOM     78  F   UNL A   1      42.029  25.293  24.997  1.00  0.00    -0.200 F 
ENDBRANCH  44  68
BRANCH  56  79
ATOM     79  C   UNL A   1      44.199  27.777  34.746  1.00  0.00     0.064 A 
ATOM     80  C   UNL A   1      43.907  26.584  35.424  1.00  0.00     0.173 A 
ATOM     81  C   UNL A   1      45.541  28.179  34.669  1.00  0.00     0.173 A 
ATOM     82  F   UNL A   1      42.638  26.166  35.537  1.00  0.00    -0.203 F 
ATOM     83  C   UNL A   1      44.918  25.839  36.025  1.00  0.00     0.198 A 
ATOM     84  C   UNL A   1      46.552  27.416  35.247  1.00  0.00     0.198 A 
ATOM     85  F   UNL A   1      45.873  29.309  34.026  1.00  0.00    -0.203 F 
ATOM     86  F   UNL A   1      44.611  24.729  36.712  1.00  0.00    -0.200 F 
ATOM     87  C   UNL A   1      46.238  26.252  35.931  1.00  0.00     0.200 A 
ATOM     88  F   UNL A   1      47.828  27.810  35.145  1.00  0.00    -0.200 F 
ATOM     89  F   UNL A   1      47.209  25.532  36.510  1.00  0.00    -0.200 F 
ENDBRANCH  56  79
ENDBRANCH  30  31
ENDBRANCH  22  25
ENDBRANCH  20  21
ENDBRANCH  19  20
ENDBRANCH   1  19
TORSDOF 13
ENDMDL
