MODEL 1
REMARK VINA RESULT:     -13.2      0.000      0.000
REMARK SMILES O=C(NCCCCNC(=O)[C@@H]1CCC[N@@H+](Cc2cccc3ccccc23)C1)c1ccc(-c2c3nc(c(-c4c(F)c(F)c(F)c(F)c4F)c4ccc([nH]4)c(-c4c(F)c(F)c(F)c(F)c4F)c4nc(c(-c5c(F)c(F)c(F)c(F)c5F)c5ccc2[nH]5)C=C4)C=C3)cc1
REMARK SMILES IDX 5 1 4 2 3 3 1 4 2 5 28 7 29 8 90 9 30 10 89 11 31 12 32 13
REMARK SMILES IDX 33 14 83 15 34 16 88 17 82 18 84 19 35 20 87 21 81 22 80 23
REMARK SMILES IDX 36 25 68 26 48 27 67 28 49 29 52 30 66 31 85 32 50 33 51 34
REMARK SMILES IDX 65 36 86 37 53 38 37 39 38 40 46 41 39 42 40 43 44 44 47 45
REMARK SMILES IDX 41 46 42 47 45 48 43 49 69 50 70 51 78 52 71 53 72 54 76 55
REMARK SMILES IDX 79 56 73 57 74 58 77 59 75 60 54 61 55 62 63 63 56 64 57 65
REMARK SMILES IDX 61 66 64 67 58 68 59 69 62 70 60 71 6 72 7 73 8 74 9 75
REMARK SMILES IDX 10 77 11 78 12 79 27 80 13 81 15 82 14 83 16 85 17 86 18 87
REMARK SMILES IDX 26 88 19 89 21 90 25 91 20 92 22 93 24 94 23 95
REMARK H PARENT 3 6 84 24 52 35 8 76 15 84
REMARK Flexibility Score: inf
ROOT
ATOM      1  C   UNL A   1      31.875  31.611  26.889  1.00  0.00     0.023 C 
ENDROOT
BRANCH   1   2
ATOM      2  C   UNL A   1      32.947  32.523  27.453  1.00  0.00     0.116 C 
BRANCH   2   3
ATOM      3  N   UNL A   1      32.503  33.898  27.657  1.00  0.00    -0.352 N 
ATOM      4  O   UNL A   1      32.489  35.932  28.657  1.00  0.00    -0.269 OA
ATOM      5  C   UNL A   1      33.011  34.836  28.527  1.00  0.00     0.251 C 
ATOM      6  H   UNL A   1      31.744  34.191  27.102  1.00  0.00     0.163 HD
BRANCH   5   7
ATOM      7  C   UNL A   1      34.182  34.455  29.339  1.00  0.00     0.039 A 
ATOM      8  C   UNL A   1      35.463  34.623  28.812  1.00  0.00     0.014 A 
ATOM      9  C   UNL A   1      33.986  33.810  30.561  1.00  0.00     0.014 A 
ATOM     10  C   UNL A   1      36.526  33.966  29.409  1.00  0.00     0.010 A 
ATOM     11  C   UNL A   1      35.081  33.246  31.219  1.00  0.00     0.010 A 
ATOM     12  C   UNL A   1      36.351  33.273  30.620  1.00  0.00    -0.014 A 
BRANCH  12  13
ATOM     13  C   UNL A   1      37.527  32.614  31.238  1.00  0.00     0.031 A 
ATOM     14  C   UNL A   1      37.954  32.930  32.644  1.00  0.00     0.074 A 
ATOM     15  C   UNL A   1      38.167  31.667  30.527  1.00  0.00     0.049 A 
ATOM     16  N   UNL A   1      38.935  32.413  33.340  1.00  0.00    -0.248 NA
ATOM     17  C   UNL A   1      37.193  33.964  33.362  1.00  0.00     0.031 C 
ATOM     18  C   UNL A   1      37.839  31.284  29.152  1.00  0.00     0.029 A 
ATOM     19  N   UNL A   1      39.190  30.823  30.871  1.00  0.00    -0.354 N 
ATOM     20  C   UNL A   1      38.939  33.087  34.555  1.00  0.00     0.074 A 
ATOM     21  C   UNL A   1      37.864  34.055  34.503  1.00  0.00     0.031 C 
ATOM     22  C   UNL A   1      38.583  30.228  28.799  1.00  0.00     0.029 A 
ATOM     23  C   UNL A   1      39.494  29.910  29.892  1.00  0.00     0.049 A 
ATOM     24  H   UNL A   1      39.662  30.868  31.733  1.00  0.00     0.167 HD
ATOM     25  C   UNL A   1      39.769  32.912  35.612  1.00  0.00     0.037 A 
ATOM     26  C   UNL A   1      40.410  28.927  29.872  1.00  0.00     0.037 A 
ATOM     27  C   UNL A   1      40.806  31.913  35.671  1.00  0.00     0.049 A 
ATOM     28  C   UNL A   1      41.292  28.737  31.069  1.00  0.00     0.074 A 
ATOM     29  C   UNL A   1      41.674  31.628  36.712  1.00  0.00     0.029 A 
ATOM     30  N   UNL A   1      41.105  31.024  34.648  1.00  0.00    -0.354 N 
ATOM     31  N   UNL A   1      41.286  29.382  32.210  1.00  0.00    -0.248 NA
ATOM     32  C   UNL A   1      42.316  27.690  30.970  1.00  0.00     0.031 C 
ATOM     33  C   UNL A   1      42.521  30.591  36.305  1.00  0.00     0.029 A 
ATOM     34  C   UNL A   1      42.155  30.202  35.026  1.00  0.00     0.049 A 
ATOM     35  H   UNL A   1      40.641  30.986  33.780  1.00  0.00     0.167 HD
ATOM     36  C   UNL A   1      42.301  28.821  32.968  1.00  0.00     0.074 A 
ATOM     37  C   UNL A   1      42.884  27.762  32.167  1.00  0.00     0.031 C 
ATOM     38  C   UNL A   1      42.719  29.158  34.212  1.00  0.00     0.037 A 
BRANCH  25  39
ATOM     39  C   UNL A   1      39.614  33.836  36.785  1.00  0.00     0.064 A 
ATOM     40  C   UNL A   1      40.202  35.109  36.811  1.00  0.00     0.173 A 
ATOM     41  C   UNL A   1      38.819  33.459  37.878  1.00  0.00     0.173 A 
ATOM     42  F   UNL A   1      40.982  35.513  35.798  1.00  0.00    -0.203 F 
ATOM     43  C   UNL A   1      40.017  35.961  37.898  1.00  0.00     0.198 A 
ATOM     44  C   UNL A   1      38.616  34.322  38.952  1.00  0.00     0.198 A 
ATOM     45  F   UNL A   1      38.229  32.254  37.901  1.00  0.00    -0.203 F 
ATOM     46  F   UNL A   1      40.618  37.159  37.918  1.00  0.00    -0.200 F 
ATOM     47  C   UNL A   1      39.219  35.571  38.963  1.00  0.00     0.200 A 
ATOM     48  F   UNL A   1      37.836  33.946  39.975  1.00  0.00    -0.200 F 
ATOM     49  F   UNL A   1      39.034  36.395  40.003  1.00  0.00    -0.200 F 
ENDBRANCH  25  39
BRANCH  26  50
ATOM     50  C   UNL A   1      40.521  28.054  28.677  1.00  0.00     0.064 A 
ATOM     51  C   UNL A   1      39.830  26.837  28.611  1.00  0.00     0.173 A 
ATOM     52  C   UNL A   1      41.284  28.436  27.564  1.00  0.00     0.173 A 
ATOM     53  F   UNL A   1      39.102  26.423  29.657  1.00  0.00    -0.203 F 
ATOM     54  C   UNL A   1      39.903  26.033  27.476  1.00  0.00     0.198 A 
ATOM     55  C   UNL A   1      41.332  27.645  26.420  1.00  0.00     0.198 A 
ATOM     56  F   UNL A   1      41.956  29.597  27.578  1.00  0.00    -0.203 F 
ATOM     57  F   UNL A   1      39.255  24.860  27.447  1.00  0.00    -0.200 F 
ATOM     58  C   UNL A   1      40.646  26.441  26.378  1.00  0.00     0.200 A 
ATOM     59  F   UNL A   1      42.034  28.053  25.354  1.00  0.00    -0.200 F 
ATOM     60  F   UNL A   1      40.701  25.674  25.281  1.00  0.00    -0.200 F 
ENDBRANCH  26  50
BRANCH  38  61
ATOM     61  C   UNL A   1      43.850  28.356  34.780  1.00  0.00     0.064 A 
ATOM     62  C   UNL A   1      43.618  27.171  35.493  1.00  0.00     0.173 A 
ATOM     63  C   UNL A   1      45.176  28.773  34.602  1.00  0.00     0.173 A 
ATOM     64  F   UNL A   1      42.363  26.745  35.704  1.00  0.00    -0.203 F 
ATOM     65  C   UNL A   1      44.675  26.446  36.033  1.00  0.00     0.198 A 
ATOM     66  C   UNL A   1      46.233  28.032  35.123  1.00  0.00     0.198 A 
ATOM     67  F   UNL A   1      45.447  29.899  33.925  1.00  0.00    -0.203 F 
ATOM     68  F   UNL A   1      44.430  25.343  36.754  1.00  0.00    -0.200 F 
ATOM     69  C   UNL A   1      45.981  26.874  35.844  1.00  0.00     0.200 A 
ATOM     70  F   UNL A   1      47.495  28.443  34.935  1.00  0.00    -0.200 F 
ATOM     71  F   UNL A   1      46.998  26.176  36.368  1.00  0.00    -0.200 F 
ENDBRANCH  38  61
ENDBRANCH  12  13
ENDBRANCH   5   7
ENDBRANCH   2   3
ENDBRANCH   1   2
BRANCH   1  72
ATOM     72  C   UNL A   1      32.224  30.129  26.911  1.00  0.00     0.023 C 
BRANCH  72  73
ATOM     73  C   UNL A   1      33.707  29.818  26.705  1.00  0.00     0.116 C 
BRANCH  73  74
ATOM     74  N   UNL A   1      33.945  28.400  26.563  1.00  0.00    -0.356 N 
ATOM     75  C   UNL A   1      33.649  27.476  25.617  1.00  0.00     0.228 C 
ATOM     76  H   UNL A   1      34.433  28.018  27.329  1.00  0.00     0.163 HD
ATOM     77  O   UNL A   1      34.038  26.332  25.894  1.00  0.00    -0.275 OA
BRANCH  75  78
ATOM     78  C   UNL A   1      33.046  27.766  24.230  1.00  0.00     0.133 C 
ATOM     79  C   UNL A   1      31.552  27.973  24.011  1.00  0.00     0.025 C 
ATOM     80  C   UNL A   1      33.495  26.664  23.237  1.00  0.00     0.276 C 
ATOM     81  C   UNL A   1      30.787  26.684  24.251  1.00  0.00     0.062 C 
ATOM     82  N   UNL A   1      32.729  25.409  23.361  1.00  0.00    -0.331 N 
ATOM     83  C   UNL A   1      31.273  25.591  23.313  1.00  0.00     0.262 C 
ATOM     84  H   UNL A   1      32.923  25.074  24.305  1.00  0.00     0.348 HD
BRANCH  82  85
ATOM     85  C   UNL A   1      33.204  24.357  22.431  1.00  0.00     0.299 C 
BRANCH  85  86
ATOM     86  C   UNL A   1      33.442  22.988  23.060  1.00  0.00     0.014 A 
ATOM     87  C   UNL A   1      32.383  22.061  23.022  1.00  0.00     0.010 A 
ATOM     88  C   UNL A   1      34.627  22.673  23.797  1.00  0.00    -0.010 A 
ATOM     89  C   UNL A   1      32.433  20.886  23.760  1.00  0.00     0.001 A 
ATOM     90  C   UNL A   1      34.659  21.464  24.541  1.00  0.00    -0.018 A 
ATOM     91  C   UNL A   1      35.780  23.496  23.859  1.00  0.00     0.009 A 
ATOM     92  C   UNL A   1      33.556  20.600  24.526  1.00  0.00     0.009 A 
ATOM     93  C   UNL A   1      35.789  21.134  25.309  1.00  0.00     0.009 A 
ATOM     94  C   UNL A   1      36.904  23.145  24.613  1.00  0.00     0.001 A 
ATOM     95  C   UNL A   1      36.906  21.965  25.341  1.00  0.00     0.001 A 
ENDBRANCH  85  86
ENDBRANCH  82  85
ENDBRANCH  75  78
ENDBRANCH  73  74
ENDBRANCH  72  73
ENDBRANCH   1  72
TORSDOF 13
ENDMDL
MODEL 2
REMARK VINA RESULT:     -13.1      0.178      1.593
REMARK SMILES O=C(NCCCCNC(=O)[C@@H]1CCC[N@@H+](Cc2cccc3ccccc23)C1)c1ccc(-c2c3nc(c(-c4c(F)c(F)c(F)c(F)c4F)c4ccc([nH]4)c(-c4c(F)c(F)c(F)c(F)c4F)c4nc(c(-c5c(F)c(F)c(F)c(F)c5F)c5ccc2[nH]5)C=C4)C=C3)cc1
REMARK SMILES IDX 5 1 4 2 3 3 1 4 2 5 28 7 29 8 90 9 30 10 89 11 31 12 32 13
REMARK SMILES IDX 33 14 83 15 34 16 88 17 82 18 84 19 35 20 87 21 81 22 80 23
REMARK SMILES IDX 36 25 68 26 48 27 67 28 49 29 52 30 66 31 85 32 50 33 51 34
REMARK SMILES IDX 65 36 86 37 53 38 37 39 38 40 46 41 39 42 40 43 44 44 47 45
REMARK SMILES IDX 41 46 42 47 45 48 43 49 69 50 70 51 78 52 71 53 72 54 76 55
REMARK SMILES IDX 79 56 73 57 74 58 77 59 75 60 54 61 55 62 63 63 56 64 57 65
REMARK SMILES IDX 61 66 64 67 58 68 59 69 62 70 60 71 6 72 7 73 8 74 9 75
REMARK SMILES IDX 10 77 11 78 12 79 27 80 13 81 15 82 14 83 16 85 17 86 18 87
REMARK SMILES IDX 26 88 19 89 21 90 25 91 20 92 22 93 24 94 23 95
REMARK H PARENT 3 6 84 24 52 35 8 76 15 84
REMARK Flexibility Score: inf
ROOT
ATOM      1  C   UNL A   1      31.930  31.656  26.759  1.00  0.00     0.023 C 
ENDROOT
BRANCH   1   2
ATOM      2  C   UNL A   1      32.981  32.540  27.403  1.00  0.00     0.116 C 
BRANCH   2   3
ATOM      3  N   UNL A   1      32.537  33.910  27.635  1.00  0.00    -0.352 N 
ATOM      4  O   UNL A   1      32.520  35.922  28.680  1.00  0.00    -0.269 OA
ATOM      5  C   UNL A   1      33.042  34.828  28.528  1.00  0.00     0.251 C 
ATOM      6  H   UNL A   1      31.781  34.216  27.083  1.00  0.00     0.163 HD
BRANCH   5   7
ATOM      7  C   UNL A   1      34.209  34.429  29.337  1.00  0.00     0.039 A 
ATOM      8  C   UNL A   1      35.491  34.575  28.806  1.00  0.00     0.014 A 
ATOM      9  C   UNL A   1      34.006  33.788  30.560  1.00  0.00     0.014 A 
ATOM     10  C   UNL A   1      36.545  33.901  29.400  1.00  0.00     0.010 A 
ATOM     11  C   UNL A   1      35.093  33.207  31.215  1.00  0.00     0.010 A 
ATOM     12  C   UNL A   1      36.361  33.213  30.613  1.00  0.00    -0.014 A 
BRANCH  12  13
ATOM     13  C   UNL A   1      37.529  32.535  31.228  1.00  0.00     0.031 A 
ATOM     14  C   UNL A   1      37.962  32.841  32.633  1.00  0.00     0.074 A 
ATOM     15  C   UNL A   1      38.154  31.579  30.514  1.00  0.00     0.049 A 
ATOM     16  N   UNL A   1      38.936  32.308  33.328  1.00  0.00    -0.248 NA
ATOM     17  C   UNL A   1      37.217  33.884  33.355  1.00  0.00     0.031 C 
ATOM     18  C   UNL A   1      37.818  31.204  29.139  1.00  0.00     0.029 A 
ATOM     19  N   UNL A   1      39.165  30.720  30.854  1.00  0.00    -0.354 N 
ATOM     20  C   UNL A   1      38.952  32.979  34.544  1.00  0.00     0.074 A 
ATOM     21  C   UNL A   1      37.891  33.962  34.496  1.00  0.00     0.031 C 
ATOM     22  C   UNL A   1      38.546  30.138  28.782  1.00  0.00     0.029 A 
ATOM     23  C   UNL A   1      39.454  29.803  29.873  1.00  0.00     0.049 A 
ATOM     24  H   UNL A   1      39.638  30.755  31.717  1.00  0.00     0.167 HD
ATOM     25  C   UNL A   1      39.780  32.789  35.599  1.00  0.00     0.037 A 
ATOM     26  C   UNL A   1      40.355  28.807  29.850  1.00  0.00     0.037 A 
ATOM     27  C   UNL A   1      40.802  31.774  35.655  1.00  0.00     0.049 A 
ATOM     28  C   UNL A   1      41.235  28.601  31.045  1.00  0.00     0.074 A 
ATOM     29  C   UNL A   1      41.667  31.474  36.694  1.00  0.00     0.029 A 
ATOM     30  N   UNL A   1      41.087  30.884  34.629  1.00  0.00    -0.354 N 
ATOM     31  N   UNL A   1      41.240  29.244  32.187  1.00  0.00    -0.248 NA
ATOM     32  C   UNL A   1      42.243  27.540  30.943  1.00  0.00     0.031 C 
ATOM     33  C   UNL A   1      42.497  30.425  36.283  1.00  0.00     0.029 A 
ATOM     34  C   UNL A   1      42.124  30.045  35.005  1.00  0.00     0.049 A 
ATOM     35  H   UNL A   1      40.621  30.854  33.763  1.00  0.00     0.167 HD
ATOM     36  C   UNL A   1      42.247  28.666  32.943  1.00  0.00     0.074 A 
ATOM     37  C   UNL A   1      42.813  27.600  32.140  1.00  0.00     0.031 C 
ATOM     38  C   UNL A   1      42.672  28.994  34.187  1.00  0.00     0.037 A 
BRANCH  25  39
ATOM     39  C   UNL A   1      39.640  33.713  36.774  1.00  0.00     0.064 A 
ATOM     40  C   UNL A   1      40.271  34.965  36.815  1.00  0.00     0.173 A 
ATOM     41  C   UNL A   1      38.819  33.357  37.856  1.00  0.00     0.173 A 
ATOM     42  F   UNL A   1      41.077  35.347  35.813  1.00  0.00    -0.203 F 
ATOM     43  C   UNL A   1      40.099  35.818  37.902  1.00  0.00     0.198 A 
ATOM     44  C   UNL A   1      38.630  34.222  38.930  1.00  0.00     0.198 A 
ATOM     45  F   UNL A   1      38.188  32.173  37.864  1.00  0.00    -0.203 F 
ATOM     46  F   UNL A   1      40.740  36.995  37.937  1.00  0.00    -0.200 F 
ATOM     47  C   UNL A   1      39.275  35.450  38.955  1.00  0.00     0.200 A 
ATOM     48  F   UNL A   1      37.825  33.869  39.941  1.00  0.00    -0.200 F 
ATOM     49  F   UNL A   1      39.104  36.276  39.997  1.00  0.00    -0.200 F 
ENDBRANCH  25  39
BRANCH  26  50
ATOM     50  C   UNL A   1      40.451  27.935  28.653  1.00  0.00     0.064 A 
ATOM     51  C   UNL A   1      41.254  28.299  27.564  1.00  0.00     0.173 A 
ATOM     52  C   UNL A   1      39.780  26.706  28.591  1.00  0.00     0.173 A 
ATOM     53  F   UNL A   1      41.902  29.472  27.572  1.00  0.00    -0.203 F 
ATOM     54  C   UNL A   1      41.376  27.466  26.454  1.00  0.00     0.198 A 
ATOM     55  C   UNL A   1      39.925  25.862  27.494  1.00  0.00     0.198 A 
ATOM     56  F   UNL A   1      39.006  26.312  29.614  1.00  0.00    -0.203 F 
ATOM     57  F   UNL A   1      42.128  27.847  25.413  1.00  0.00    -0.200 F 
ATOM     58  C   UNL A   1      40.720  26.244  26.424  1.00  0.00     0.200 A 
ATOM     59  F   UNL A   1      39.306  24.674  27.479  1.00  0.00    -0.200 F 
ATOM     60  F   UNL A   1      40.852  25.436  25.364  1.00  0.00    -0.200 F 
ENDBRANCH  26  50
BRANCH  38  61
ATOM     61  C   UNL A   1      43.792  28.174  34.752  1.00  0.00     0.064 A 
ATOM     62  C   UNL A   1      45.130  28.560  34.592  1.00  0.00     0.173 A 
ATOM     63  C   UNL A   1      43.522  26.999  35.465  1.00  0.00     0.173 A 
ATOM     64  F   UNL A   1      45.436  29.668  33.899  1.00  0.00    -0.203 F 
ATOM     65  C   UNL A   1      46.163  27.780  35.103  1.00  0.00     0.198 A 
ATOM     66  C   UNL A   1      44.556  26.233  35.997  1.00  0.00     0.198 A 
ATOM     67  F   UNL A   1      42.256  26.592  35.646  1.00  0.00    -0.203 F 
ATOM     68  F   UNL A   1      47.437  28.139  34.896  1.00  0.00    -0.200 F 
ATOM     69  C   UNL A   1      45.875  26.620  35.808  1.00  0.00     0.200 A 
ATOM     70  F   UNL A   1      44.277  25.116  36.682  1.00  0.00    -0.200 F 
ATOM     71  F   UNL A   1      46.871  25.867  36.297  1.00  0.00    -0.200 F 
ENDBRANCH  38  61
ENDBRANCH  12  13
ENDBRANCH   5   7
ENDBRANCH   2   3
ENDBRANCH   1   2
BRANCH   1  72
ATOM     72  C   UNL A   1      32.201  30.162  26.869  1.00  0.00     0.023 C 
BRANCH  72  73
ATOM     73  C   UNL A   1      33.654  29.756  26.619  1.00  0.00     0.116 C 
BRANCH  73  74
ATOM     74  N   UNL A   1      33.808  28.320  26.556  1.00  0.00    -0.356 N 
ATOM     75  C   UNL A   1      33.433  27.361  25.675  1.00  0.00     0.228 C 
ATOM     76  H   UNL A   1      34.297  27.956  27.330  1.00  0.00     0.163 HD
ATOM     77  O   UNL A   1      33.766  26.215  26.010  1.00  0.00    -0.275 OA
BRANCH  75  78
ATOM     78  C   UNL A   1      32.805  27.604  24.290  1.00  0.00     0.133 C 
ATOM     79  C   UNL A   1      31.299  27.720  24.080  1.00  0.00     0.025 C 
ATOM     80  C   UNL A   1      33.313  26.522  23.302  1.00  0.00     0.276 C 
ATOM     81  C   UNL A   1      30.614  26.390  24.335  1.00  0.00     0.062 C 
ATOM     82  N   UNL A   1      32.623  25.225  23.442  1.00  0.00    -0.331 N 
ATOM     83  C   UNL A   1      31.159  25.320  23.402  1.00  0.00     0.262 C 
ATOM     84  H   UNL A   1      32.842  24.909  24.387  1.00  0.00     0.348 HD
BRANCH  82  85
ATOM     85  C   UNL A   1      33.154  24.196  22.516  1.00  0.00     0.299 C 
BRANCH  85  86
ATOM     86  C   UNL A   1      33.452  22.840  23.150  1.00  0.00     0.014 A 
ATOM     87  C   UNL A   1      32.426  21.875  23.136  1.00  0.00     0.010 A 
ATOM     88  C   UNL A   1      34.661  22.573  23.867  1.00  0.00    -0.010 A 
ATOM     89  C   UNL A   1      32.531  20.708  23.881  1.00  0.00     0.001 A 
ATOM     90  C   UNL A   1      34.749  21.371  24.617  1.00  0.00    -0.018 A 
ATOM     91  C   UNL A   1      35.784  23.437  23.903  1.00  0.00     0.009 A 
ATOM     92  C   UNL A   1      33.678  20.467  24.627  1.00  0.00     0.009 A 
ATOM     93  C   UNL A   1      35.904  21.086  25.366  1.00  0.00     0.009 A 
ATOM     94  C   UNL A   1      36.933  23.131  24.637  1.00  0.00     0.001 A 
ATOM     95  C   UNL A   1      36.991  21.956  25.373  1.00  0.00     0.001 A 
ENDBRANCH  85  86
ENDBRANCH  82  85
ENDBRANCH  75  78
ENDBRANCH  73  74
ENDBRANCH  72  73
ENDBRANCH   1  72
TORSDOF 13
ENDMDL
MODEL 3
REMARK VINA RESULT:     -13.1      5.254     10.632
REMARK SMILES O=C(NCCCCNC(=O)[C@@H]1CCC[N@@H+](Cc2cccc3ccccc23)C1)c1ccc(-c2c3nc(c(-c4c(F)c(F)c(F)c(F)c4F)c4ccc([nH]4)c(-c4c(F)c(F)c(F)c(F)c4F)c4nc(c(-c5c(F)c(F)c(F)c(F)c5F)c5ccc2[nH]5)C=C4)C=C3)cc1
REMARK SMILES IDX 5 1 4 2 3 3 1 4 2 5 28 7 29 8 90 9 30 10 89 11 31 12 32 13
REMARK SMILES IDX 33 14 83 15 34 16 88 17 82 18 84 19 35 20 87 21 81 22 80 23
REMARK SMILES IDX 36 25 68 26 48 27 67 28 49 29 52 30 66 31 85 32 50 33 51 34
REMARK SMILES IDX 65 36 86 37 53 38 37 39 38 40 46 41 39 42 40 43 44 44 47 45
REMARK SMILES IDX 41 46 42 47 45 48 43 49 69 50 70 51 78 52 71 53 72 54 76 55
REMARK SMILES IDX 79 56 73 57 74 58 77 59 75 60 54 61 55 62 63 63 56 64 57 65
REMARK SMILES IDX 61 66 64 67 58 68 59 69 62 70 60 71 6 72 7 73 8 74 9 75
REMARK SMILES IDX 10 77 11 78 12 79 27 80 13 81 15 82 14 83 16 85 17 86 18 87
REMARK SMILES IDX 26 88 19 89 21 90 25 91 20 92 22 93 24 94 23 95
REMARK H PARENT 3 6 84 24 52 35 8 76 15 84
REMARK Flexibility Score: inf
ROOT
ATOM      1  C   UNL A   1      37.926  20.608  25.050  1.00  0.00     0.023 C 
ENDROOT
BRANCH   1   2
ATOM      2  C   UNL A   1      39.177  20.706  25.902  1.00  0.00     0.116 C 
BRANCH   2   3
ATOM      3  N   UNL A   1      40.015  19.513  25.857  1.00  0.00    -0.352 N 
ATOM      4  O   UNL A   1      41.967  18.362  25.927  1.00  0.00    -0.269 OA
ATOM      5  C   UNL A   1      41.371  19.416  26.078  1.00  0.00     0.251 C 
ATOM      6  H   UNL A   1      39.553  18.670  25.641  1.00  0.00     0.163 HD
BRANCH   5   7
ATOM      7  C   UNL A   1      42.093  20.646  26.457  1.00  0.00     0.039 A 
ATOM      8  C   UNL A   1      42.243  20.962  27.808  1.00  0.00     0.014 A 
ATOM      9  C   UNL A   1      42.494  21.537  25.462  1.00  0.00     0.014 A 
ATOM     10  C   UNL A   1      42.605  22.252  28.159  1.00  0.00     0.010 A 
ATOM     11  C   UNL A   1      42.968  22.799  25.824  1.00  0.00     0.010 A 
ATOM     12  C   UNL A   1      42.976  23.184  27.175  1.00  0.00    -0.014 A 
BRANCH  12  13
ATOM     13  C   UNL A   1      43.388  24.543  27.603  1.00  0.00     0.031 A 
ATOM     14  C   UNL A   1      44.825  24.980  27.545  1.00  0.00     0.074 A 
ATOM     15  C   UNL A   1      42.427  25.406  27.983  1.00  0.00     0.049 A 
ATOM     16  N   UNL A   1      45.342  26.146  27.848  1.00  0.00    -0.248 NA
ATOM     17  C   UNL A   1      45.814  23.986  27.102  1.00  0.00     0.031 C 
ATOM     18  C   UNL A   1      41.001  25.085  28.080  1.00  0.00     0.029 A 
ATOM     19  N   UNL A   1      42.491  26.734  28.313  1.00  0.00    -0.354 N 
ATOM     20  C   UNL A   1      46.714  26.011  27.677  1.00  0.00     0.074 A 
ATOM     21  C   UNL A   1      46.954  24.650  27.246  1.00  0.00     0.031 C 
ATOM     22  C   UNL A   1      40.316  26.201  28.359  1.00  0.00     0.029 A 
ATOM     23  C   UNL A   1      41.259  27.298  28.538  1.00  0.00     0.049 A 
ATOM     24  H   UNL A   1      43.335  27.235  28.383  1.00  0.00     0.167 HD
ATOM     25  C   UNL A   1      47.680  26.942  27.866  1.00  0.00     0.037 A 
ATOM     26  C   UNL A   1      40.924  28.559  28.860  1.00  0.00     0.037 A 
ATOM     27  C   UNL A   1      47.426  28.309  28.248  1.00  0.00     0.049 A 
ATOM     28  C   UNL A   1      42.013  29.574  29.031  1.00  0.00     0.074 A 
ATOM     29  C   UNL A   1      48.333  29.339  28.427  1.00  0.00     0.029 A 
ATOM     30  N   UNL A   1      46.167  28.837  28.498  1.00  0.00    -0.354 N 
ATOM     31  N   UNL A   1      43.307  29.433  28.868  1.00  0.00    -0.248 NA
ATOM     32  C   UNL A   1      41.598  30.920  29.443  1.00  0.00     0.031 C 
ATOM     33  C   UNL A   1      47.625  30.482  28.818  1.00  0.00     0.029 A 
ATOM     34  C   UNL A   1      46.275  30.174  28.845  1.00  0.00     0.049 A 
ATOM     35  H   UNL A   1      45.323  28.335  28.439  1.00  0.00     0.167 HD
ATOM     36  C   UNL A   1      43.861  30.671  29.154  1.00  0.00     0.074 A 
ATOM     37  C   UNL A   1      42.761  31.558  29.473  1.00  0.00     0.031 C 
ATOM     38  C   UNL A   1      45.166  31.036  29.161  1.00  0.00     0.037 A 
BRANCH  25  39
ATOM     39  C   UNL A   1      49.108  26.514  27.692  1.00  0.00     0.064 A 
ATOM     40  C   UNL A   1      49.702  26.406  26.426  1.00  0.00     0.173 A 
ATOM     41  C   UNL A   1      49.909  26.258  28.815  1.00  0.00     0.173 A 
ATOM     42  F   UNL A   1      48.977  26.627  25.319  1.00  0.00    -0.203 F 
ATOM     43  C   UNL A   1      51.039  26.039  26.291  1.00  0.00     0.198 A 
ATOM     44  C   UNL A   1      51.252  25.915  28.679  1.00  0.00     0.198 A 
ATOM     45  F   UNL A   1      49.392  26.353  30.050  1.00  0.00    -0.203 F 
ATOM     46  F   UNL A   1      51.577  25.906  25.070  1.00  0.00    -0.200 F 
ATOM     47  C   UNL A   1      51.815  25.800  27.416  1.00  0.00     0.200 A 
ATOM     48  F   UNL A   1      52.001  25.695  29.768  1.00  0.00    -0.200 F 
ATOM     49  F   UNL A   1      53.103  25.455  27.285  1.00  0.00    -0.200 F 
ENDBRANCH  25  39
BRANCH  26  50
ATOM     50  C   UNL A   1      39.494  28.916  29.029  1.00  0.00     0.064 A 
ATOM     51  C   UNL A   1      38.726  29.337  27.936  1.00  0.00     0.173 A 
ATOM     52  C   UNL A   1      38.858  28.804  30.274  1.00  0.00     0.173 A 
ATOM     53  F   UNL A   1      39.295  29.475  26.731  1.00  0.00    -0.203 F 
ATOM     54  C   UNL A   1      37.374  29.638  28.084  1.00  0.00     0.198 A 
ATOM     55  C   UNL A   1      37.500  29.078  30.415  1.00  0.00     0.198 A 
ATOM     56  F   UNL A   1      39.551  28.397  31.348  1.00  0.00    -0.203 F 
ATOM     57  F   UNL A   1      36.666  30.065  27.030  1.00  0.00    -0.200 F 
ATOM     58  C   UNL A   1      36.760  29.499  29.321  1.00  0.00     0.200 A 
ATOM     59  F   UNL A   1      36.908  28.922  31.606  1.00  0.00    -0.200 F 
ATOM     60  F   UNL A   1      35.456  29.772  29.458  1.00  0.00    -0.200 F 
ENDBRANCH  26  50
BRANCH  38  61
ATOM     61  C   UNL A   1      45.461  32.463  29.510  1.00  0.00     0.064 A 
ATOM     62  C   UNL A   1      45.485  33.464  28.527  1.00  0.00     0.173 A 
ATOM     63  C   UNL A   1      45.714  32.832  30.837  1.00  0.00     0.173 A 
ATOM     64  F   UNL A   1      45.267  33.152  27.240  1.00  0.00    -0.203 F 
ATOM     65  C   UNL A   1      45.779  34.782  28.860  1.00  0.00     0.198 A 
ATOM     66  C   UNL A   1      45.985  34.156  31.171  1.00  0.00     0.198 A 
ATOM     67  F   UNL A   1      45.701  31.910  31.811  1.00  0.00    -0.203 F 
ATOM     68  F   UNL A   1      45.846  35.715  27.900  1.00  0.00    -0.200 F 
ATOM     69  C   UNL A   1      46.025  35.128  30.181  1.00  0.00     0.200 A 
ATOM     70  F   UNL A   1      46.217  34.491  32.447  1.00  0.00    -0.200 F 
ATOM     71  F   UNL A   1      46.313  36.398  30.500  1.00  0.00    -0.200 F 
ENDBRANCH  38  61
ENDBRANCH  12  13
ENDBRANCH   5   7
ENDBRANCH   2   3
ENDBRANCH   1   2
BRANCH   1  72
ATOM     72  C   UNL A   1      37.346  21.946  24.615  1.00  0.00     0.023 C 
BRANCH  72  73
ATOM     73  C   UNL A   1      37.293  23.008  25.715  1.00  0.00     0.116 C 
BRANCH  73  74
ATOM     74  N   UNL A   1      36.370  24.072  25.392  1.00  0.00    -0.356 N 
ATOM     75  C   UNL A   1      35.021  24.193  25.392  1.00  0.00     0.228 C 
ATOM     76  H   UNL A   1      36.826  24.897  25.106  1.00  0.00     0.163 HD
ATOM     77  O   UNL A   1      34.617  25.307  25.028  1.00  0.00    -0.275 OA
BRANCH  75  78
ATOM     78  C   UNL A   1      34.022  23.157  25.940  1.00  0.00     0.133 C 
ATOM     79  C   UNL A   1      33.607  21.919  25.151  1.00  0.00     0.025 C 
ATOM     80  C   UNL A   1      32.716  23.878  26.360  1.00  0.00     0.276 C 
ATOM     81  C   UNL A   1      32.785  22.305  23.934  1.00  0.00     0.062 C 
ATOM     82  N   UNL A   1      31.830  24.204  25.227  1.00  0.00    -0.331 N 
ATOM     83  C   UNL A   1      31.535  23.063  24.352  1.00  0.00     0.262 C 
ATOM     84  H   UNL A   1      32.368  24.849  24.648  1.00  0.00     0.348 HD
BRANCH  82  85
ATOM     85  C   UNL A   1      30.608  24.930  25.649  1.00  0.00     0.299 C 
BRANCH  85  86
ATOM     86  C   UNL A   1      30.464  26.344  25.094  1.00  0.00     0.014 A 
ATOM     87  C   UNL A   1      29.769  26.498  23.879  1.00  0.00     0.010 A 
ATOM     88  C   UNL A   1      31.120  27.473  25.678  1.00  0.00    -0.010 A 
ATOM     89  C   UNL A   1      29.784  27.704  23.193  1.00  0.00     0.001 A 
ATOM     90  C   UNL A   1      31.119  28.699  24.962  1.00  0.00    -0.018 A 
ATOM     91  C   UNL A   1      31.797  27.456  26.923  1.00  0.00     0.009 A 
ATOM     92  C   UNL A   1      30.468  28.791  23.724  1.00  0.00     0.009 A 
ATOM     93  C   UNL A   1      31.783  29.823  25.481  1.00  0.00     0.009 A 
ATOM     94  C   UNL A   1      32.437  28.589  27.435  1.00  0.00     0.001 A 
ATOM     95  C   UNL A   1      32.433  29.772  26.711  1.00  0.00     0.001 A 
ENDBRANCH  85  86
ENDBRANCH  82  85
ENDBRANCH  75  78
ENDBRANCH  73  74
ENDBRANCH  72  73
ENDBRANCH   1  72
TORSDOF 13
ENDMDL
