MODEL 1
REMARK VINA RESULT:     -11.2      0.000      0.000
REMARK SMILES C#CCN(CC(=O)NCCCCNC(=O)c1ccc(-c2c3nc(c(-c4c(F)c(F)c(F)c(F)c4F)c4ccc([nH]4)c(-c4c(F)c(F)c(F)c(F)c4F)c4nc(c(-c5c(F)c(F)c(F)c(F)c5F)c5ccc2[nH]5)C=C4)C=C3)cc1)C(=O)N[C@@H]1CCOC1
REMARK SMILES IDX 10 1 9 2 8 3 6 4 7 5 5 7 4 8 3 9 2 10 1 11 79 12 80 13 81 14
REMARK SMILES IDX 82 16 83 17 86 18 84 19 85 20 11 21 12 22 13 23 14 24 15 26
REMARK SMILES IDX 16 27 17 28 78 29 18 30 77 31 19 32 20 33 21 34 71 35 22 36
REMARK SMILES IDX 76 37 70 38 72 39 23 40 75 41 69 42 68 43 24 45 56 46 36 47
REMARK SMILES IDX 55 48 37 49 40 50 54 51 73 52 38 53 39 54 53 56 74 57 41 58
REMARK SMILES IDX 25 59 26 60 34 61 27 62 28 63 32 64 35 65 29 66 30 67 33 68
REMARK SMILES IDX 31 69 57 70 58 71 66 72 59 73 60 74 64 75 67 76 61 77 62 78
REMARK SMILES IDX 65 79 63 80 42 81 43 82 51 83 44 84 45 85 49 86 52 87 46 88
REMARK SMILES IDX 47 89 50 90 48 91
REMARK H PARENT 8 6 81 15 13 25 72 44 40 55
REMARK Flexibility Score: inf
ROOT
ATOM      1  C   UNL A   1      31.809  30.297  26.636  1.00  0.00     0.023 C 
ENDROOT
BRANCH   1   2
ATOM      2  C   UNL A   1      33.166  29.779  26.165  1.00  0.00     0.116 C 
BRANCH   2   3
ATOM      3  N   UNL A   1      33.312  29.775  24.730  1.00  0.00    -0.355 N 
ATOM      4  C   UNL A   1      32.835  28.886  23.814  1.00  0.00     0.239 C 
ATOM      5  O   UNL A   1      32.766  29.282  22.645  1.00  0.00    -0.273 OA
ATOM      6  H   UNL A   1      33.832  30.523  24.357  1.00  0.00     0.163 HD
BRANCH   4   7
ATOM      7  C   UNL A   1      32.264  27.511  24.204  1.00  0.00     0.222 C 
BRANCH   7   8
ATOM      8  N   UNL A   1      31.240  26.934  23.335  1.00  0.00    -0.304 N 
BRANCH   8   9
ATOM      9  C   UNL A   1      31.729  26.194  22.170  1.00  0.00     0.211 C 
BRANCH   9  10
ATOM     10  C   UNL A   1      32.695  25.071  22.512  1.00  0.00    -0.085 C 
ATOM     11  C   UNL A   1      33.523  24.107  22.806  1.00  0.00     0.006 C 
ENDBRANCH   9  10
ENDBRANCH   8   9
BRANCH   8  12
ATOM     12  C   UNL A   1      29.886  26.937  23.534  1.00  0.00     0.318 C 
ATOM     13  O   UNL A   1      29.279  25.919  23.885  1.00  0.00    -0.249 OA
ATOM     14  N   UNL A   1      29.103  28.019  23.386  1.00  0.00    -0.333 N 
ATOM     15  H   UNL A   1      28.254  27.918  23.874  1.00  0.00     0.165 HD
BRANCH  14  16
ATOM     16  C   UNL A   1      29.172  29.307  22.696  1.00  0.00     0.112 C 
ATOM     17  C   UNL A   1      29.524  30.456  23.628  1.00  0.00     0.056 C 
ATOM     18  C   UNL A   1      27.801  29.710  22.144  1.00  0.00     0.185 C 
ATOM     19  C   UNL A   1      28.310  31.362  23.636  1.00  0.00     0.162 C 
ATOM     20  O   UNL A   1      27.225  30.599  23.106  1.00  0.00    -0.379 OA
ENDBRANCH  14  16
ENDBRANCH   8  12
ENDBRANCH   7   8
ENDBRANCH   4   7
ENDBRANCH   2   3
ENDBRANCH   1   2
BRANCH   1  21
ATOM     21  C   UNL A   1      31.634  31.815  26.601  1.00  0.00     0.023 C 
BRANCH  21  22
ATOM     22  C   UNL A   1      32.743  32.623  27.261  1.00  0.00     0.116 C 
BRANCH  22  23
ATOM     23  N   UNL A   1      32.364  33.990  27.582  1.00  0.00    -0.352 N 
ATOM     24  C   UNL A   1      32.947  34.848  28.482  1.00  0.00     0.251 C 
ATOM     25  H   UNL A   1      31.590  34.346  27.089  1.00  0.00     0.163 HD
ATOM     26  O   UNL A   1      32.472  35.963  28.676  1.00  0.00    -0.269 OA
BRANCH  24  27
ATOM     27  C   UNL A   1      34.121  34.397  29.255  1.00  0.00     0.039 A 
ATOM     28  C   UNL A   1      33.909  33.785  30.493  1.00  0.00     0.014 A 
ATOM     29  C   UNL A   1      35.414  34.533  28.743  1.00  0.00     0.014 A 
ATOM     30  C   UNL A   1      34.992  33.245  31.187  1.00  0.00     0.010 A 
ATOM     31  C   UNL A   1      36.483  33.936  29.405  1.00  0.00     0.010 A 
ATOM     32  C   UNL A   1      36.280  33.283  30.631  1.00  0.00    -0.014 A 
BRANCH  32  33
ATOM     33  C   UNL A   1      37.430  32.648  31.319  1.00  0.00     0.031 A 
ATOM     34  C   UNL A   1      38.166  31.515  30.660  1.00  0.00     0.074 A 
ATOM     35  C   UNL A   1      37.774  33.053  32.556  1.00  0.00     0.049 A 
ATOM     36  N   UNL A   1      39.143  30.780  31.126  1.00  0.00    -0.248 NA
ATOM     37  C   UNL A   1      37.728  31.143  29.305  1.00  0.00     0.031 C 
ATOM     38  C   UNL A   1      37.111  34.115  33.316  1.00  0.00     0.029 A 
ATOM     39  N   UNL A   1      38.763  32.612  33.400  1.00  0.00    -0.354 N 
ATOM     40  C   UNL A   1      39.431  29.859  30.129  1.00  0.00     0.074 A 
ATOM     41  C   UNL A   1      38.490  30.090  29.054  1.00  0.00     0.031 C 
ATOM     42  C   UNL A   1      37.723  34.258  34.501  1.00  0.00     0.029 A 
ATOM     43  C   UNL A   1      38.798  33.276  34.603  1.00  0.00     0.049 A 
ATOM     44  H   UNL A   1      39.388  31.889  33.166  1.00  0.00     0.167 HD
ATOM     45  C   UNL A   1      40.409  28.924  30.101  1.00  0.00     0.037 A 
ATOM     46  C   UNL A   1      39.606  33.104  35.667  1.00  0.00     0.037 A 
ATOM     47  C   UNL A   1      41.357  28.712  31.161  1.00  0.00     0.049 A 
ATOM     48  C   UNL A   1      40.676  32.047  35.611  1.00  0.00     0.074 A 
ATOM     49  C   UNL A   1      42.404  27.808  31.216  1.00  0.00     0.029 A 
ATOM     50  N   UNL A   1      41.377  29.421  32.354  1.00  0.00    -0.354 N 
ATOM     51  N   UNL A   1      40.970  31.217  34.641  1.00  0.00    -0.248 NA
ATOM     52  C   UNL A   1      41.533  31.910  36.798  1.00  0.00     0.031 C 
ATOM     53  C   UNL A   1      43.040  27.949  32.455  1.00  0.00     0.029 A 
ATOM     54  C   UNL A   1      42.414  28.968  33.153  1.00  0.00     0.049 A 
ATOM     55  H   UNL A   1      40.747  30.137  32.595  1.00  0.00     0.167 HD
ATOM     56  C   UNL A   1      42.063  30.485  35.085  1.00  0.00     0.074 A 
ATOM     57  C   UNL A   1      42.389  30.978  36.406  1.00  0.00     0.031 C 
ATOM     58  C   UNL A   1      42.736  29.491  34.456  1.00  0.00     0.037 A 
BRANCH  45  59
ATOM     59  C   UNL A   1      40.517  28.069  28.873  1.00  0.00     0.064 A 
ATOM     60  C   UNL A   1      39.813  26.860  28.763  1.00  0.00     0.173 A 
ATOM     61  C   UNL A   1      41.289  28.483  27.778  1.00  0.00     0.173 A 
ATOM     62  F   UNL A   1      39.072  26.415  29.789  1.00  0.00    -0.203 F 
ATOM     63  C   UNL A   1      39.893  26.087  27.608  1.00  0.00     0.198 A 
ATOM     64  C   UNL A   1      41.345  27.721  26.614  1.00  0.00     0.198 A 
ATOM     65  F   UNL A   1      41.979  29.631  27.832  1.00  0.00    -0.203 F 
ATOM     66  F   UNL A   1      39.243  24.917  27.540  1.00  0.00    -0.200 F 
ATOM     67  C   UNL A   1      40.652  26.522  26.531  1.00  0.00     0.200 A 
ATOM     68  F   UNL A   1      42.070  28.147  25.570  1.00  0.00    -0.200 F 
ATOM     69  F   UNL A   1      40.719  25.784  25.415  1.00  0.00    -0.200 F 
ENDBRANCH  45  59
BRANCH  46  70
ATOM     70  C   UNL A   1      39.455  33.963  36.871  1.00  0.00     0.064 A 
ATOM     71  C   UNL A   1      40.088  35.212  36.945  1.00  0.00     0.173 A 
ATOM     72  C   UNL A   1      38.710  33.542  37.982  1.00  0.00     0.173 A 
ATOM     73  F   UNL A   1      40.829  35.648  35.916  1.00  0.00    -0.203 F 
ATOM     74  C   UNL A   1      40.009  35.992  38.096  1.00  0.00     0.198 A 
ATOM     75  C   UNL A   1      38.607  34.336  39.122  1.00  0.00     0.198 A 
ATOM     76  F   UNL A   1      38.082  32.357  37.960  1.00  0.00    -0.203 F 
ATOM     77  F   UNL A   1      40.671  37.155  38.162  1.00  0.00    -0.200 F 
ATOM     78  C   UNL A   1      39.266  35.556  39.183  1.00  0.00     0.200 A 
ATOM     79  F   UNL A   1      37.880  33.916  40.164  1.00  0.00    -0.200 F 
ATOM     80  F   UNL A   1      39.195  36.303  40.293  1.00  0.00    -0.200 F 
ENDBRANCH  46  70
BRANCH  58  81
ATOM     81  C   UNL A   1      43.922  28.907  35.166  1.00  0.00     0.064 A 
ATOM     82  C   UNL A   1      43.794  27.819  36.039  1.00  0.00     0.173 A 
ATOM     83  C   UNL A   1      45.207  29.424  34.939  1.00  0.00     0.173 A 
ATOM     84  F   UNL A   1      42.585  27.300  36.299  1.00  0.00    -0.203 F 
ATOM     85  C   UNL A   1      44.908  27.282  36.680  1.00  0.00     0.198 A 
ATOM     86  C   UNL A   1      46.321  28.869  35.559  1.00  0.00     0.198 A 
ATOM     87  F   UNL A   1      45.381  30.462  34.107  1.00  0.00    -0.203 F 
ATOM     88  F   UNL A   1      44.757  26.272  37.547  1.00  0.00    -0.200 F 
ATOM     89  C   UNL A   1      46.170  27.803  36.434  1.00  0.00     0.200 A 
ATOM     90  F   UNL A   1      47.541  29.364  35.312  1.00  0.00    -0.200 F 
ATOM     91  F   UNL A   1      47.242  27.281  37.047  1.00  0.00    -0.200 F 
ENDBRANCH  58  81
ENDBRANCH  32  33
ENDBRANCH  24  27
ENDBRANCH  22  23
ENDBRANCH  21  22
ENDBRANCH   1  21
TORSDOF 16
ENDMDL
MODEL 2
REMARK VINA RESULT:     -11.2      0.836      1.492
REMARK SMILES C#CCN(CC(=O)NCCCCNC(=O)c1ccc(-c2c3nc(c(-c4c(F)c(F)c(F)c(F)c4F)c4ccc([nH]4)c(-c4c(F)c(F)c(F)c(F)c4F)c4nc(c(-c5c(F)c(F)c(F)c(F)c5F)c5ccc2[nH]5)C=C4)C=C3)cc1)C(=O)N[C@@H]1CCOC1
REMARK SMILES IDX 10 1 9 2 8 3 6 4 7 5 5 7 4 8 3 9 2 10 1 11 79 12 80 13 81 14
REMARK SMILES IDX 82 16 83 17 86 18 84 19 85 20 11 21 12 22 13 23 14 24 15 26
REMARK SMILES IDX 16 27 17 28 78 29 18 30 77 31 19 32 20 33 21 34 71 35 22 36
REMARK SMILES IDX 76 37 70 38 72 39 23 40 75 41 69 42 68 43 24 45 56 46 36 47
REMARK SMILES IDX 55 48 37 49 40 50 54 51 73 52 38 53 39 54 53 56 74 57 41 58
REMARK SMILES IDX 25 59 26 60 34 61 27 62 28 63 32 64 35 65 29 66 30 67 33 68
REMARK SMILES IDX 31 69 57 70 58 71 66 72 59 73 60 74 64 75 67 76 61 77 62 78
REMARK SMILES IDX 65 79 63 80 42 81 43 82 51 83 44 84 45 85 49 86 52 87 46 88
REMARK SMILES IDX 47 89 50 90 48 91
REMARK H PARENT 8 6 81 15 13 25 72 44 40 55
REMARK Flexibility Score: inf
ROOT
ATOM      1  C   UNL A   1      32.102  30.401  26.865  1.00  0.00     0.023 C 
ENDROOT
BRANCH   1   2
ATOM      2  C   UNL A   1      31.851  29.680  25.542  1.00  0.00     0.116 C 
BRANCH   2   3
ATOM      3  N   UNL A   1      32.990  29.690  24.658  1.00  0.00    -0.355 N 
ATOM      4  C   UNL A   1      33.557  28.664  23.965  1.00  0.00     0.239 C 
ATOM      5  O   UNL A   1      34.272  28.974  23.005  1.00  0.00    -0.273 OA
ATOM      6  H   UNL A   1      33.422  30.567  24.537  1.00  0.00     0.163 HD
BRANCH   4   7
ATOM      7  C   UNL A   1      33.227  27.187  24.243  1.00  0.00     0.222 C 
BRANCH   7   8
ATOM      8  N   UNL A   1      32.006  26.645  23.649  1.00  0.00    -0.304 N 
BRANCH   8   9
ATOM      9  C   UNL A   1      31.148  25.865  24.543  1.00  0.00     0.211 C 
BRANCH   9  10
ATOM     10  C   UNL A   1      31.908  24.935  25.474  1.00  0.00    -0.085 C 
ATOM     11  C   UNL A   1      32.561  24.138  26.274  1.00  0.00     0.006 C 
ENDBRANCH   9  10
ENDBRANCH   8   9
BRANCH   8  12
ATOM     12  C   UNL A   1      31.538  26.855  22.380  1.00  0.00     0.318 C 
ATOM     13  O   UNL A   1      31.971  26.219  21.413  1.00  0.00    -0.249 OA
ATOM     14  N   UNL A   1      30.575  27.739  22.068  1.00  0.00    -0.333 N 
ATOM     15  H   UNL A   1      30.155  27.523  21.204  1.00  0.00     0.165 HD
BRANCH  14  16
ATOM     16  C   UNL A   1      29.985  28.937  22.664  1.00  0.00     0.112 C 
ATOM     17  C   UNL A   1      28.563  28.712  23.152  1.00  0.00     0.056 C 
ATOM     18  C   UNL A   1      29.826  30.050  21.622  1.00  0.00     0.185 C 
ATOM     19  C   UNL A   1      27.690  29.607  22.296  1.00  0.00     0.162 C 
ATOM     20  O   UNL A   1      28.473  29.980  21.162  1.00  0.00    -0.379 OA
ENDBRANCH  14  16
ENDBRANCH   8  12
ENDBRANCH   7   8
ENDBRANCH   4   7
ENDBRANCH   2   3
ENDBRANCH   1   2
BRANCH   1  21
ATOM     21  C   UNL A   1      31.765  31.892  26.878  1.00  0.00     0.023 C 
BRANCH  21  22
ATOM     22  C   UNL A   1      32.910  32.824  27.250  1.00  0.00     0.116 C 
BRANCH  22  23
ATOM     23  N   UNL A   1      32.479  34.151  27.661  1.00  0.00    -0.352 N 
ATOM     24  C   UNL A   1      33.014  34.958  28.635  1.00  0.00     0.251 C 
ATOM     25  H   UNL A   1      31.703  34.517  27.178  1.00  0.00     0.163 HD
ATOM     26  O   UNL A   1      32.498  36.040  28.899  1.00  0.00    -0.269 OA
BRANCH  24  27
ATOM     27  C   UNL A   1      34.187  34.490  29.399  1.00  0.00     0.039 A 
ATOM     28  C   UNL A   1      33.973  33.856  30.625  1.00  0.00     0.014 A 
ATOM     29  C   UNL A   1      35.480  34.631  28.890  1.00  0.00     0.014 A 
ATOM     30  C   UNL A   1      35.054  33.299  31.309  1.00  0.00     0.010 A 
ATOM     31  C   UNL A   1      36.547  34.018  29.539  1.00  0.00     0.010 A 
ATOM     32  C   UNL A   1      36.342  33.343  30.754  1.00  0.00    -0.014 A 
BRANCH  32  33
ATOM     33  C   UNL A   1      37.491  32.692  31.430  1.00  0.00     0.031 A 
ATOM     34  C   UNL A   1      38.211  31.557  30.758  1.00  0.00     0.074 A 
ATOM     35  C   UNL A   1      37.846  33.086  32.668  1.00  0.00     0.049 A 
ATOM     36  N   UNL A   1      39.184  30.809  31.213  1.00  0.00    -0.248 NA
ATOM     37  C   UNL A   1      37.761  31.199  29.403  1.00  0.00     0.031 C 
ATOM     38  C   UNL A   1      37.198  34.149  33.438  1.00  0.00     0.029 A 
ATOM     39  N   UNL A   1      38.837  32.629  33.501  1.00  0.00    -0.354 N 
ATOM     40  C   UNL A   1      39.456  29.892  30.207  1.00  0.00     0.074 A 
ATOM     41  C   UNL A   1      38.511  30.140  29.139  1.00  0.00     0.031 C 
ATOM     42  C   UNL A   1      37.820  34.277  34.621  1.00  0.00     0.029 A 
ATOM     43  C   UNL A   1      38.886  33.284  34.709  1.00  0.00     0.049 A 
ATOM     44  H   UNL A   1      39.452  31.902  33.258  1.00  0.00     0.167 HD
ATOM     45  C   UNL A   1      40.425  28.948  30.166  1.00  0.00     0.037 A 
ATOM     46  C   UNL A   1      39.699  33.097  35.767  1.00  0.00     0.037 A 
ATOM     47  C   UNL A   1      41.377  28.719  31.219  1.00  0.00     0.049 A 
ATOM     48  C   UNL A   1      40.758  32.030  35.696  1.00  0.00     0.074 A 
ATOM     49  C   UNL A   1      42.416  27.805  31.261  1.00  0.00     0.029 A 
ATOM     50  N   UNL A   1      41.412  29.419  32.416  1.00  0.00    -0.354 N 
ATOM     51  N   UNL A   1      41.038  31.203  34.719  1.00  0.00    -0.248 NA
ATOM     52  C   UNL A   1      41.621  31.876  36.877  1.00  0.00     0.031 C 
ATOM     53  C   UNL A   1      43.061  27.931  32.496  1.00  0.00     0.029 A 
ATOM     54  C   UNL A   1      42.449  28.951  33.205  1.00  0.00     0.049 A 
ATOM     55  H   UNL A   1      40.791  30.141  32.666  1.00  0.00     0.167 HD
ATOM     56  C   UNL A   1      42.127  30.458  35.150  1.00  0.00     0.074 A 
ATOM     57  C   UNL A   1      42.465  30.938  36.472  1.00  0.00     0.031 C 
ATOM     58  C   UNL A   1      42.786  29.462  34.509  1.00  0.00     0.037 A 
BRANCH  45  59
ATOM     59  C   UNL A   1      40.516  28.101  28.932  1.00  0.00     0.064 A 
ATOM     60  C   UNL A   1      39.797  26.902  28.816  1.00  0.00     0.173 A 
ATOM     61  C   UNL A   1      41.288  28.513  27.836  1.00  0.00     0.173 A 
ATOM     62  F   UNL A   1      39.055  26.458  29.842  1.00  0.00    -0.203 F 
ATOM     63  C   UNL A   1      39.861  26.136  27.655  1.00  0.00     0.198 A 
ATOM     64  C   UNL A   1      41.329  27.759  26.666  1.00  0.00     0.198 A 
ATOM     65  F   UNL A   1      41.992  29.653  27.895  1.00  0.00    -0.203 F 
ATOM     66  F   UNL A   1      39.197  24.975  27.582  1.00  0.00    -0.200 F 
ATOM     67  C   UNL A   1      40.621  26.570  26.578  1.00  0.00     0.200 A 
ATOM     68  F   UNL A   1      42.054  28.184  25.622  1.00  0.00    -0.200 F 
ATOM     69  F   UNL A   1      40.673  25.838  25.457  1.00  0.00    -0.200 F 
ENDBRANCH  45  59
BRANCH  46  70
ATOM     70  C   UNL A   1      39.564  33.948  36.977  1.00  0.00     0.064 A 
ATOM     71  C   UNL A   1      38.795  33.525  38.071  1.00  0.00     0.173 A 
ATOM     72  C   UNL A   1      40.167  35.213  37.053  1.00  0.00     0.173 A 
ATOM     73  F   UNL A   1      38.182  32.333  38.035  1.00  0.00    -0.203 F 
ATOM     74  C   UNL A   1      38.607  34.346  39.180  1.00  0.00     0.198 A 
ATOM     75  C   UNL A   1      40.002  36.021  38.176  1.00  0.00     0.198 A 
ATOM     76  F   UNL A   1      40.915  35.663  36.036  1.00  0.00    -0.203 F 
ATOM     77  F   UNL A   1      37.820  33.940  40.185  1.00  0.00    -0.200 F 
ATOM     78  C   UNL A   1      39.213  35.592  39.234  1.00  0.00     0.200 A 
ATOM     79  F   UNL A   1      40.598  37.219  38.229  1.00  0.00    -0.200 F 
ATOM     80  F   UNL A   1      39.026  36.385  40.298  1.00  0.00    -0.200 F 
ENDBRANCH  46  70
BRANCH  58  81
ATOM     81  C   UNL A   1      43.970  28.861  35.208  1.00  0.00     0.064 A 
ATOM     82  C   UNL A   1      43.837  27.766  36.072  1.00  0.00     0.173 A 
ATOM     83  C   UNL A   1      45.258  29.369  34.979  1.00  0.00     0.173 A 
ATOM     84  F   UNL A   1      42.625  27.255  36.333  1.00  0.00    -0.203 F 
ATOM     85  C   UNL A   1      44.950  27.214  36.701  1.00  0.00     0.198 A 
ATOM     86  C   UNL A   1      46.371  28.799  35.588  1.00  0.00     0.198 A 
ATOM     87  F   UNL A   1      45.437  30.413  34.155  1.00  0.00    -0.203 F 
ATOM     88  F   UNL A   1      44.795  26.197  37.560  1.00  0.00    -0.200 F 
ATOM     89  C   UNL A   1      46.216  27.726  36.454  1.00  0.00     0.200 A 
ATOM     90  F   UNL A   1      47.594  29.286  35.338  1.00  0.00    -0.200 F 
ATOM     91  F   UNL A   1      47.286  27.190  37.056  1.00  0.00    -0.200 F 
ENDBRANCH  58  81
ENDBRANCH  32  33
ENDBRANCH  24  27
ENDBRANCH  22  23
ENDBRANCH  21  22
ENDBRANCH   1  21
TORSDOF 16
ENDMDL
MODEL 3
REMARK VINA RESULT:     -11.1      1.109      7.720
REMARK SMILES C#CCN(CC(=O)NCCCCNC(=O)c1ccc(-c2c3nc(c(-c4c(F)c(F)c(F)c(F)c4F)c4ccc([nH]4)c(-c4c(F)c(F)c(F)c(F)c4F)c4nc(c(-c5c(F)c(F)c(F)c(F)c5F)c5ccc2[nH]5)C=C4)C=C3)cc1)C(=O)N[C@@H]1CCOC1
REMARK SMILES IDX 10 1 9 2 8 3 6 4 7 5 5 7 4 8 3 9 2 10 1 11 79 12 80 13 81 14
REMARK SMILES IDX 82 16 83 17 86 18 84 19 85 20 11 21 12 22 13 23 14 24 15 26
REMARK SMILES IDX 16 27 17 28 78 29 18 30 77 31 19 32 20 33 21 34 71 35 22 36
REMARK SMILES IDX 76 37 70 38 72 39 23 40 75 41 69 42 68 43 24 45 56 46 36 47
REMARK SMILES IDX 55 48 37 49 40 50 54 51 73 52 38 53 39 54 53 56 74 57 41 58
REMARK SMILES IDX 25 59 26 60 34 61 27 62 28 63 32 64 35 65 29 66 30 67 33 68
REMARK SMILES IDX 31 69 57 70 58 71 66 72 59 73 60 74 64 75 67 76 61 77 62 78
REMARK SMILES IDX 65 79 63 80 42 81 43 82 51 83 44 84 45 85 49 86 52 87 46 88
REMARK SMILES IDX 47 89 50 90 48 91
REMARK H PARENT 8 6 81 15 13 25 72 44 40 55
REMARK Flexibility Score: inf
ROOT
ATOM      1  C   UNL A   1      31.405  30.920  25.637  1.00  0.00     0.023 C 
ENDROOT
BRANCH   1   2
ATOM      2  C   UNL A   1      32.349  29.720  25.660  1.00  0.00     0.116 C 
BRANCH   2   3
ATOM      3  N   UNL A   1      33.280  29.702  24.559  1.00  0.00    -0.355 N 
ATOM      4  C   UNL A   1      33.657  28.665  23.760  1.00  0.00     0.239 C 
ATOM      5  O   UNL A   1      34.167  28.961  22.674  1.00  0.00    -0.273 OA
ATOM      6  H   UNL A   1      33.707  30.566  24.354  1.00  0.00     0.163 HD
BRANCH   4   7
ATOM      7  C   UNL A   1      33.343  27.196  24.096  1.00  0.00     0.222 C 
BRANCH   7   8
ATOM      8  N   UNL A   1      32.139  26.612  23.507  1.00  0.00    -0.304 N 
BRANCH   8   9
ATOM      9  C   UNL A   1      31.354  25.737  24.381  1.00  0.00     0.211 C 
BRANCH   9  10
ATOM     10  C   UNL A   1      31.178  26.273  25.793  1.00  0.00    -0.085 C 
ATOM     11  C   UNL A   1      31.028  26.732  27.004  1.00  0.00     0.006 C 
ENDBRANCH   9  10
ENDBRANCH   8   9
BRANCH   8  12
ATOM     12  C   UNL A   1      31.623  26.857  22.263  1.00  0.00     0.318 C 
ATOM     13  O   UNL A   1      32.014  26.243  21.264  1.00  0.00    -0.249 OA
ATOM     14  N   UNL A   1      30.654  27.753  22.011  1.00  0.00    -0.333 N 
ATOM     15  H   UNL A   1      30.199  27.560  21.159  1.00  0.00     0.165 HD
BRANCH  14  16
ATOM     16  C   UNL A   1      30.094  28.938  22.660  1.00  0.00     0.112 C 
ATOM     17  C   UNL A   1      28.690  28.708  23.197  1.00  0.00     0.056 C 
ATOM     18  C   UNL A   1      29.903  30.078  21.654  1.00  0.00     0.185 C 
ATOM     19  C   UNL A   1      27.791  29.629  22.398  1.00  0.00     0.162 C 
ATOM     20  O   UNL A   1      28.532  30.027  21.244  1.00  0.00    -0.379 OA
ENDBRANCH  14  16
ENDBRANCH   8  12
ENDBRANCH   7   8
ENDBRANCH   4   7
ENDBRANCH   2   3
ENDBRANCH   1   2
BRANCH   1  21
ATOM     21  C   UNL A   1      31.400  31.779  26.901  1.00  0.00     0.023 C 
BRANCH  21  22
ATOM     22  C   UNL A   1      32.649  32.620  27.132  1.00  0.00     0.116 C 
BRANCH  22  23
ATOM     23  N   UNL A   1      32.370  33.986  27.545  1.00  0.00    -0.352 N 
ATOM     24  C   UNL A   1      33.029  34.747  28.479  1.00  0.00     0.251 C 
ATOM     25  H   UNL A   1      31.609  34.422  27.096  1.00  0.00     0.163 HD
ATOM     26  O   UNL A   1      32.635  35.877  28.753  1.00  0.00    -0.269 OA
BRANCH  24  27
ATOM     27  C   UNL A   1      34.189  34.173  29.190  1.00  0.00     0.039 A 
ATOM     28  C   UNL A   1      33.952  33.357  30.298  1.00  0.00     0.014 A 
ATOM     29  C   UNL A   1      35.492  34.400  28.741  1.00  0.00     0.014 A 
ATOM     30  C   UNL A   1      35.023  32.708  30.915  1.00  0.00     0.010 A 
ATOM     31  C   UNL A   1      36.549  33.701  29.315  1.00  0.00     0.010 A 
ATOM     32  C   UNL A   1      36.323  32.845  30.405  1.00  0.00    -0.014 A 
BRANCH  32  33
ATOM     33  C   UNL A   1      37.462  32.105  31.001  1.00  0.00     0.031 A 
ATOM     34  C   UNL A   1      37.952  32.463  32.375  1.00  0.00     0.074 A 
ATOM     35  C   UNL A   1      38.087  31.153  30.282  1.00  0.00     0.049 A 
ATOM     36  N   UNL A   1      38.977  31.990  33.038  1.00  0.00    -0.248 NA
ATOM     37  C   UNL A   1      37.205  33.509  33.091  1.00  0.00     0.031 C 
ATOM     38  C   UNL A   1      37.728  30.744  28.922  1.00  0.00     0.029 A 
ATOM     39  N   UNL A   1      39.164  30.360  30.592  1.00  0.00    -0.354 N 
ATOM     40  C   UNL A   1      39.001  32.683  34.239  1.00  0.00     0.074 A 
ATOM     41  C   UNL A   1      37.923  33.648  34.195  1.00  0.00     0.031 C 
ATOM     42  C   UNL A   1      38.555  29.764  28.524  1.00  0.00     0.029 A 
ATOM     43  C   UNL A   1      39.524  29.499  29.583  1.00  0.00     0.049 A 
ATOM     44  H   UNL A   1      39.634  30.405  31.455  1.00  0.00     0.167 HD
ATOM     45  C   UNL A   1      39.830  32.512  35.296  1.00  0.00     0.037 A 
ATOM     46  C   UNL A   1      40.528  28.603  29.522  1.00  0.00     0.037 A 
ATOM     47  C   UNL A   1      40.885  31.537  35.347  1.00  0.00     0.049 A 
ATOM     48  C   UNL A   1      41.440  28.444  30.709  1.00  0.00     0.074 A 
ATOM     49  C   UNL A   1      41.762  31.266  36.383  1.00  0.00     0.029 A 
ATOM     50  N   UNL A   1      41.204  30.666  34.315  1.00  0.00    -0.354 N 
ATOM     51  N   UNL A   1      41.421  29.071  31.859  1.00  0.00    -0.248 NA
ATOM     52  C   UNL A   1      42.513  27.445  30.589  1.00  0.00     0.031 C 
ATOM     53  C   UNL A   1      42.631  30.250  35.968  1.00  0.00     0.029 A 
ATOM     54  C   UNL A   1      42.268  29.862  34.689  1.00  0.00     0.049 A 
ATOM     55  H   UNL A   1      40.742  30.626  33.447  1.00  0.00     0.167 HD
ATOM     56  C   UNL A   1      42.450  28.520  32.611  1.00  0.00     0.074 A 
ATOM     57  C   UNL A   1      43.067  27.500  31.791  1.00  0.00     0.031 C 
ATOM     58  C   UNL A   1      42.851  28.834  33.866  1.00  0.00     0.037 A 
BRANCH  45  59
ATOM     59  C   UNL A   1      39.615  33.386  36.495  1.00  0.00     0.064 A 
ATOM     60  C   UNL A   1      40.237  34.639  36.605  1.00  0.00     0.173 A 
ATOM     61  C   UNL A   1      38.742  32.994  37.521  1.00  0.00     0.173 A 
ATOM     62  F   UNL A   1      41.091  35.053  35.657  1.00  0.00    -0.203 F 
ATOM     63  C   UNL A   1      40.008  35.460  37.706  1.00  0.00     0.198 A 
ATOM     64  C   UNL A   1      38.495  33.828  38.608  1.00  0.00     0.198 A 
ATOM     65  F   UNL A   1      38.120  31.807  37.463  1.00  0.00    -0.203 F 
ATOM     66  F   UNL A   1      40.645  36.634  37.808  1.00  0.00    -0.200 F 
ATOM     67  C   UNL A   1      39.131  35.057  38.702  1.00  0.00     0.200 A 
ATOM     68  F   UNL A   1      37.639  33.444  39.564  1.00  0.00    -0.200 F 
ATOM     69  F   UNL A   1      38.902  35.852  39.756  1.00  0.00    -0.200 F 
ENDBRANCH  45  59
BRANCH  46  70
ATOM     70  C   UNL A   1      40.715  27.767  28.308  1.00  0.00     0.064 A 
ATOM     71  C   UNL A   1      40.134  26.494  28.216  1.00  0.00     0.173 A 
ATOM     72  C   UNL A   1      41.504  28.202  27.234  1.00  0.00     0.173 A 
ATOM     73  F   UNL A   1      39.388  26.025  29.228  1.00  0.00    -0.203 F 
ATOM     74  C   UNL A   1      40.361  25.676  27.112  1.00  0.00     0.198 A 
ATOM     75  C   UNL A   1      41.707  27.395  26.117  1.00  0.00     0.198 A 
ATOM     76  F   UNL A   1      42.079  29.413  27.270  1.00  0.00    -0.203 F 
ATOM     77  F   UNL A   1      39.841  24.442  27.077  1.00  0.00    -0.200 F 
ATOM     78  C   UNL A   1      41.145  26.128  26.061  1.00  0.00     0.200 A 
ATOM     79  F   UNL A   1      42.455  27.839  25.099  1.00  0.00    -0.200 F 
ATOM     80  F   UNL A   1      41.369  25.338  25.002  1.00  0.00    -0.200 F 
ENDBRANCH  46  70
BRANCH  58  81
ATOM     81  C   UNL A   1      43.976  28.030  34.450  1.00  0.00     0.064 A 
ATOM     82  C   UNL A   1      45.307  28.462  34.371  1.00  0.00     0.173 A 
ATOM     83  C   UNL A   1      43.711  26.830  35.126  1.00  0.00     0.173 A 
ATOM     84  F   UNL A   1      45.611  29.595  33.721  1.00  0.00    -0.203 F 
ATOM     85  C   UNL A   1      46.336  27.709  34.929  1.00  0.00     0.198 A 
ATOM     86  C   UNL A   1      44.738  26.094  35.707  1.00  0.00     0.198 A 
ATOM     87  F   UNL A   1      42.452  26.378  35.233  1.00  0.00    -0.203 F 
ATOM     88  F   UNL A   1      47.606  28.117  34.801  1.00  0.00    -0.200 F 
ATOM     89  C   UNL A   1      46.050  26.530  35.602  1.00  0.00     0.200 A 
ATOM     90  F   UNL A   1      44.460  24.961  36.367  1.00  0.00    -0.200 F 
ATOM     91  F   UNL A   1      47.042  25.810  36.143  1.00  0.00    -0.200 F 
ENDBRANCH  58  81
ENDBRANCH  32  33
ENDBRANCH  24  27
ENDBRANCH  22  23
ENDBRANCH  21  22
ENDBRANCH   1  21
TORSDOF 16
ENDMDL
