MODEL 1
REMARK VINA RESULT:     -12.6      0.000      0.000
REMARK SMILES Cc1nc(C[NH2+][C@@H](C(=O)NCCCCNC(=O)c2ccc(-c3c4nc(c(-c5c(F)c(F)c(F)c(F)c5F)c5ccc([nH]5)c(-c5c(F)c(F)c(F)c(F)c5F)c5nc(c(-c6c(F)c(F)c(F)c(F)c6F)c6ccc3[nH]6)C=C5)C=C4)cc2)c2ccccc2)sc1C
REMARK SMILES IDX 12 1 11 2 10 3 8 4 9 5 7 7 6 8 5 11 4 12 1 13 2 14 3 15
REMARK SMILES IDX 88 16 87 17 89 18 81 19 82 20 86 21 83 22 85 23 84 24 13 25
REMARK SMILES IDX 14 26 15 27 16 28 17 30 18 31 19 32 80 33 20 34 79 35 21 36
REMARK SMILES IDX 22 37 23 38 73 39 24 40 78 41 72 42 74 43 25 44 77 45 71 46
REMARK SMILES IDX 70 47 26 49 58 50 38 51 57 52 39 53 42 54 56 55 75 56 40 57
REMARK SMILES IDX 41 58 55 60 76 61 43 62 27 63 28 64 36 65 29 66 30 67 34 68
REMARK SMILES IDX 37 69 31 70 32 71 35 72 33 73 59 74 60 75 68 76 61 77 62 78
REMARK SMILES IDX 66 79 69 80 63 81 64 82 67 83 65 84 44 85 45 86 53 87 46 88
REMARK SMILES IDX 47 89 51 90 54 91 48 92 49 93 52 94 50 95
REMARK H PARENT 10 6 6 9 6 10 15 29 74 48 42 59
REMARK Flexibility Score: inf
ROOT
ATOM      1  C   UNL A   1      32.190  30.385  26.909  1.00  0.00     0.023 C 
ENDROOT
BRANCH   1   2
ATOM      2  C   UNL A   1      31.584  29.564  25.758  1.00  0.00     0.116 C 
BRANCH   2   3
ATOM      3  N   UNL A   1      32.415  29.685  24.578  1.00  0.00    -0.351 N 
ATOM      4  C   UNL A   1      32.554  28.867  23.491  1.00  0.00     0.283 C 
ATOM      5  O   UNL A   1      33.631  28.974  22.893  1.00  0.00    -0.268 OA
ATOM      6  H   UNL A   1      32.977  30.494  24.554  1.00  0.00     0.163 HD
BRANCH   4   7
ATOM      7  C   UNL A   1      31.431  27.864  23.041  1.00  0.00     0.304 C 
BRANCH   7   8
ATOM      8  N   UNL A   1      31.856  27.075  21.855  1.00  0.00    -0.326 N 
ATOM      9  H   UNL A   1      31.206  27.255  21.090  1.00  0.00     0.347 HD
ATOM     10  H   UNL A   1      32.805  27.362  21.612  1.00  0.00     0.347 HD
BRANCH   8  11
ATOM     11  C   UNL A   1      31.879  25.644  22.123  1.00  0.00     0.330 C 
BRANCH  11  12
ATOM     12  C   UNL A   1      32.984  25.143  23.009  1.00  0.00     0.148 A 
ATOM     13  C   UNL A   1      35.947  23.141  23.281  1.00  0.00     0.068 C 
ATOM     14  C   UNL A   1      34.726  23.914  23.615  1.00  0.00     0.052 A 
ATOM     15  N   UNL A   1      34.067  24.541  22.571  1.00  0.00    -0.240 NA
ATOM     16  C   UNL A   1      34.118  24.047  24.852  1.00  0.00     0.025 A 
ATOM     17  S   UNL A   1      32.766  25.092  24.718  1.00  0.00    -0.118 S 
ATOM     18  C   UNL A   1      34.479  23.430  26.157  1.00  0.00     0.058 C 
ENDBRANCH  11  12
ENDBRANCH   8  11
ENDBRANCH   7   8
BRANCH   7  19
ATOM     19  C   UNL A   1      30.141  28.620  22.696  1.00  0.00     0.019 A 
ATOM     20  C   UNL A   1      30.173  29.775  21.893  1.00  0.00     0.010 A 
ATOM     21  C   UNL A   1      28.894  28.181  23.172  1.00  0.00     0.010 A 
ATOM     22  C   UNL A   1      29.007  30.479  21.589  1.00  0.00     0.001 A 
ATOM     23  C   UNL A   1      27.724  28.884  22.859  1.00  0.00     0.001 A 
ATOM     24  C   UNL A   1      27.783  30.034  22.072  1.00  0.00     0.000 A 
ENDBRANCH   7  19
ENDBRANCH   4   7
ENDBRANCH   2   3
ENDBRANCH   1   2
BRANCH   1  25
ATOM     25  C   UNL A   1      31.850  31.869  26.901  1.00  0.00     0.023 C 
BRANCH  25  26
ATOM     26  C   UNL A   1      32.980  32.776  27.348  1.00  0.00     0.116 C 
BRANCH  26  27
ATOM     27  N   UNL A   1      32.543  34.125  27.678  1.00  0.00    -0.352 N 
ATOM     28  C   UNL A   1      33.025  34.979  28.649  1.00  0.00     0.251 C 
ATOM     29  H   UNL A   1      31.801  34.477  27.134  1.00  0.00     0.163 HD
ATOM     30  O   UNL A   1      32.480  36.046  28.870  1.00  0.00    -0.269 OA
BRANCH  28  31
ATOM     31  C   UNL A   1      34.193  34.552  29.449  1.00  0.00     0.039 A 
ATOM     32  C   UNL A   1      33.979  33.950  30.691  1.00  0.00     0.014 A 
ATOM     33  C   UNL A   1      35.485  34.676  28.935  1.00  0.00     0.014 A 
ATOM     34  C   UNL A   1      35.058  33.390  31.376  1.00  0.00     0.010 A 
ATOM     35  C   UNL A   1      36.536  34.025  29.563  1.00  0.00     0.010 A 
ATOM     36  C   UNL A   1      36.337  33.381  30.793  1.00  0.00    -0.014 A 
BRANCH  36  37
ATOM     37  C   UNL A   1      37.494  32.736  31.462  1.00  0.00     0.031 A 
ATOM     38  C   UNL A   1      38.203  31.602  30.774  1.00  0.00     0.074 A 
ATOM     39  C   UNL A   1      37.855  33.114  32.703  1.00  0.00     0.049 A 
ATOM     40  N   UNL A   1      39.152  30.821  31.226  1.00  0.00    -0.248 NA
ATOM     41  C   UNL A   1      37.759  31.275  29.409  1.00  0.00     0.031 C 
ATOM     42  C   UNL A   1      37.209  34.163  33.496  1.00  0.00     0.029 A 
ATOM     43  N   UNL A   1      38.852  32.648  33.524  1.00  0.00    -0.354 N 
ATOM     44  C   UNL A   1      39.401  29.909  30.209  1.00  0.00     0.074 A 
ATOM     45  C   UNL A   1      38.460  30.182  29.148  1.00  0.00     0.031 C 
ATOM     46  C   UNL A   1      37.841  34.277  34.676  1.00  0.00     0.029 A 
ATOM     47  C   UNL A   1      38.911  33.287  34.740  1.00  0.00     0.049 A 
ATOM     48  H   UNL A   1      39.466  31.923  33.267  1.00  0.00     0.167 HD
ATOM     49  C   UNL A   1      40.357  28.952  30.150  1.00  0.00     0.037 A 
ATOM     50  C   UNL A   1      39.734  33.087  35.787  1.00  0.00     0.037 A 
ATOM     51  C   UNL A   1      41.318  28.708  31.189  1.00  0.00     0.049 A 
ATOM     52  C   UNL A   1      40.795  32.021  35.687  1.00  0.00     0.074 A 
ATOM     53  C   UNL A   1      42.346  27.783  31.216  1.00  0.00     0.029 A 
ATOM     54  N   UNL A   1      41.376  29.410  32.384  1.00  0.00    -0.354 N 
ATOM     55  N   UNL A   1      41.051  31.198  34.701  1.00  0.00    -0.248 NA
ATOM     56  C   UNL A   1      41.686  31.864  36.845  1.00  0.00     0.031 C 
ATOM     57  C   UNL A   1      43.015  27.910  32.438  1.00  0.00     0.029 A 
ATOM     58  C   UNL A   1      42.425  28.939  33.154  1.00  0.00     0.049 A 
ATOM     59  H   UNL A   1      40.763  30.134  32.645  1.00  0.00     0.167 HD
ATOM     60  C   UNL A   1      42.149  30.451  35.103  1.00  0.00     0.074 A 
ATOM     61  C   UNL A   1      42.522  30.929  36.417  1.00  0.00     0.031 C 
ATOM     62  C   UNL A   1      42.792  29.454  34.447  1.00  0.00     0.037 A 
BRANCH  49  63
ATOM     63  C   UNL A   1      40.428  28.122  28.902  1.00  0.00     0.064 A 
ATOM     64  C   UNL A   1      41.211  28.522  27.807  1.00  0.00     0.173 A 
ATOM     65  C   UNL A   1      39.745  26.902  28.811  1.00  0.00     0.173 A 
ATOM     66  F   UNL A   1      41.868  29.690  27.839  1.00  0.00    -0.203 F 
ATOM     67  C   UNL A   1      41.288  27.740  26.658  1.00  0.00     0.198 A 
ATOM     68  C   UNL A   1      39.848  26.108  27.671  1.00  0.00     0.198 A 
ATOM     69  F   UNL A   1      38.984  26.474  29.829  1.00  0.00    -0.203 F 
ATOM     70  F   UNL A   1      42.005  28.164  25.609  1.00  0.00    -0.200 F 
ATOM     71  C   UNL A   1      40.615  26.530  26.594  1.00  0.00     0.200 A 
ATOM     72  F   UNL A   1      39.205  24.933  27.614  1.00  0.00    -0.200 F 
ATOM     73  F   UNL A   1      40.699  25.773  25.493  1.00  0.00    -0.200 F 
ENDBRANCH  49  63
BRANCH  50  74
ATOM     74  C   UNL A   1      39.615  33.921  37.013  1.00  0.00     0.064 A 
ATOM     75  C   UNL A   1      38.872  33.475  38.116  1.00  0.00     0.173 A 
ATOM     76  C   UNL A   1      40.202  35.191  37.093  1.00  0.00     0.173 A 
ATOM     77  F   UNL A   1      38.275  32.274  38.079  1.00  0.00    -0.203 F 
ATOM     78  C   UNL A   1      38.691  34.282  39.237  1.00  0.00     0.198 A 
ATOM     79  C   UNL A   1      40.044  35.986  38.228  1.00  0.00     0.198 A 
ATOM     80  F   UNL A   1      40.928  35.663  36.069  1.00  0.00    -0.203 F 
ATOM     81  F   UNL A   1      37.924  33.856  40.250  1.00  0.00    -0.200 F 
ATOM     82  C   UNL A   1      39.279  35.537  39.292  1.00  0.00     0.200 A 
ATOM     83  F   UNL A   1      40.625  37.193  38.283  1.00  0.00    -0.200 F 
ATOM     84  F   UNL A   1      39.097  36.317  40.367  1.00  0.00    -0.200 F 
ENDBRANCH  50  74
BRANCH  62  85
ATOM     85  C   UNL A   1      43.990  28.852  35.118  1.00  0.00     0.064 A 
ATOM     86  C   UNL A   1      43.873  27.758  35.987  1.00  0.00     0.173 A 
ATOM     87  C   UNL A   1      45.274  29.349  34.850  1.00  0.00     0.173 A 
ATOM     88  F   UNL A   1      42.665  27.257  36.284  1.00  0.00    -0.203 F 
ATOM     89  C   UNL A   1      45.000  27.199  36.585  1.00  0.00     0.198 A 
ATOM     90  C   UNL A   1      46.400  28.770  35.427  1.00  0.00     0.198 A 
ATOM     91  F   UNL A   1      45.437  30.389  34.019  1.00  0.00    -0.203 F 
ATOM     92  F   UNL A   1      44.862  26.183  37.448  1.00  0.00    -0.200 F 
ATOM     93  C   UNL A   1      46.261  27.700  36.299  1.00  0.00     0.200 A 
ATOM     94  F   UNL A   1      47.618  29.246  35.140  1.00  0.00    -0.200 F 
ATOM     95  F   UNL A   1      47.345  27.156  36.870  1.00  0.00    -0.200 F 
ENDBRANCH  62  85
ENDBRANCH  36  37
ENDBRANCH  28  31
ENDBRANCH  26  27
ENDBRANCH  25  26
ENDBRANCH   1  25
TORSDOF 15
ENDMDL
MODEL 2
REMARK VINA RESULT:     -12.5      1.285      7.553
REMARK SMILES Cc1nc(C[NH2+][C@@H](C(=O)NCCCCNC(=O)c2ccc(-c3c4nc(c(-c5c(F)c(F)c(F)c(F)c5F)c5ccc([nH]5)c(-c5c(F)c(F)c(F)c(F)c5F)c5nc(c(-c6c(F)c(F)c(F)c(F)c6F)c6ccc3[nH]6)C=C5)C=C4)cc2)c2ccccc2)sc1C
REMARK SMILES IDX 12 1 11 2 10 3 8 4 9 5 7 7 6 8 5 11 4 12 1 13 2 14 3 15
REMARK SMILES IDX 88 16 87 17 89 18 81 19 82 20 86 21 83 22 85 23 84 24 13 25
REMARK SMILES IDX 14 26 15 27 16 28 17 30 18 31 19 32 80 33 20 34 79 35 21 36
REMARK SMILES IDX 22 37 23 38 73 39 24 40 78 41 72 42 74 43 25 44 77 45 71 46
REMARK SMILES IDX 70 47 26 49 58 50 38 51 57 52 39 53 42 54 56 55 75 56 40 57
REMARK SMILES IDX 41 58 55 60 76 61 43 62 27 63 28 64 36 65 29 66 30 67 34 68
REMARK SMILES IDX 37 69 31 70 32 71 35 72 33 73 59 74 60 75 68 76 61 77 62 78
REMARK SMILES IDX 66 79 69 80 63 81 64 82 67 83 65 84 44 85 45 86 53 87 46 88
REMARK SMILES IDX 47 89 51 90 54 91 48 92 49 93 52 94 50 95
REMARK H PARENT 10 6 6 9 6 10 15 29 74 48 42 59
REMARK Flexibility Score: inf
ROOT
ATOM      1  C   UNL A   1      31.068  30.407  25.682  1.00  0.00     0.023 C 
ENDROOT
BRANCH   1   2
ATOM      2  C   UNL A   1      32.374  29.595  25.653  1.00  0.00     0.116 C 
BRANCH   2   3
ATOM      3  N   UNL A   1      32.985  29.695  24.344  1.00  0.00    -0.351 N 
ATOM      4  C   UNL A   1      32.953  28.847  23.272  1.00  0.00     0.283 C 
ATOM      5  O   UNL A   1      33.908  28.955  22.494  1.00  0.00    -0.268 OA
ATOM      6  H   UNL A   1      33.516  30.513  24.202  1.00  0.00     0.163 HD
BRANCH   4   7
ATOM      7  C   UNL A   1      31.792  27.811  23.051  1.00  0.00     0.304 C 
BRANCH   7   8
ATOM      8  N   UNL A   1      32.103  26.885  21.930  1.00  0.00    -0.326 N 
ATOM      9  H   UNL A   1      31.420  27.030  21.186  1.00  0.00     0.347 HD
ATOM     10  H   UNL A   1      33.050  27.087  21.611  1.00  0.00     0.347 HD
BRANCH   8  11
ATOM     11  C   UNL A   1      32.059  25.488  22.339  1.00  0.00     0.330 C 
BRANCH  11  12
ATOM     12  C   UNL A   1      33.211  24.994  23.168  1.00  0.00     0.148 A 
ATOM     13  C   UNL A   1      36.174  22.978  23.300  1.00  0.00     0.068 C 
ATOM     14  C   UNL A   1      34.978  23.764  23.692  1.00  0.00     0.052 A 
ATOM     15  N   UNL A   1      34.263  24.378  22.678  1.00  0.00    -0.240 NA
ATOM     16  C   UNL A   1      34.444  23.920  24.960  1.00  0.00     0.025 A 
ATOM     17  S   UNL A   1      33.093  24.972  24.887  1.00  0.00    -0.118 S 
ATOM     18  C   UNL A   1      34.877  23.322  26.251  1.00  0.00     0.058 C 
ENDBRANCH  11  12
ENDBRANCH   8  11
ENDBRANCH   7   8
BRANCH   7  19
ATOM     19  C   UNL A   1      30.475  28.537  22.743  1.00  0.00     0.019 A 
ATOM     20  C   UNL A   1      29.250  28.051  23.236  1.00  0.00     0.010 A 
ATOM     21  C   UNL A   1      30.456  29.705  21.963  1.00  0.00     0.010 A 
ATOM     22  C   UNL A   1      28.047  28.695  22.947  1.00  0.00     0.001 A 
ATOM     23  C   UNL A   1      29.248  30.354  21.680  1.00  0.00     0.001 A 
ATOM     24  C   UNL A   1      28.045  29.846  22.169  1.00  0.00     0.000 A 
ENDBRANCH   7  19
ENDBRANCH   4   7
ENDBRANCH   2   3
ENDBRANCH   1   2
BRANCH   1  25
ATOM     25  C   UNL A   1      31.216  31.864  26.099  1.00  0.00     0.023 C 
BRANCH  25  26
ATOM     26  C   UNL A   1      32.409  32.145  26.994  1.00  0.00     0.116 C 
BRANCH  26  27
ATOM     27  N   UNL A   1      32.523  33.543  27.384  1.00  0.00    -0.352 N 
ATOM     28  C   UNL A   1      33.507  34.156  28.132  1.00  0.00     0.251 C 
ATOM     29  H   UNL A   1      31.799  34.133  27.071  1.00  0.00     0.163 HD
ATOM     30  O   UNL A   1      33.405  35.324  28.462  1.00  0.00    -0.269 OA
BRANCH  28  31
ATOM     31  C   UNL A   1      34.669  33.351  28.567  1.00  0.00     0.039 A 
ATOM     32  C   UNL A   1      35.944  33.919  28.510  1.00  0.00     0.014 A 
ATOM     33  C   UNL A   1      34.484  32.075  29.100  1.00  0.00     0.014 A 
ATOM     34  C   UNL A   1      37.022  33.236  29.074  1.00  0.00     0.010 A 
ATOM     35  C   UNL A   1      35.535  31.450  29.756  1.00  0.00     0.010 A 
ATOM     36  C   UNL A   1      36.816  32.019  29.744  1.00  0.00    -0.014 A 
BRANCH  36  37
ATOM     37  C   UNL A   1      37.927  31.300  30.414  1.00  0.00     0.031 A 
ATOM     38  C   UNL A   1      38.266  31.632  31.841  1.00  0.00     0.074 A 
ATOM     39  C   UNL A   1      38.672  30.413  29.725  1.00  0.00     0.049 A 
ATOM     40  N   UNL A   1      39.267  31.217  32.575  1.00  0.00    -0.248 NA
ATOM     41  C   UNL A   1      37.382  32.592  32.524  1.00  0.00     0.031 C 
ATOM     42  C   UNL A   1      38.478  30.048  28.320  1.00  0.00     0.029 A 
ATOM     43  N   UNL A   1      39.754  29.663  30.113  1.00  0.00    -0.354 N 
ATOM     44  C   UNL A   1      39.139  31.875  33.790  1.00  0.00     0.074 A 
ATOM     45  C   UNL A   1      38.011  32.770  33.676  1.00  0.00     0.031 C 
ATOM     46  C   UNL A   1      39.392  29.127  27.972  1.00  0.00     0.029 A 
ATOM     47  C   UNL A   1      40.260  28.864  29.116  1.00  0.00     0.049 A 
ATOM     48  H   UNL A   1      40.134  29.695  31.021  1.00  0.00     0.167 HD
ATOM     49  C   UNL A   1      39.874  31.719  34.917  1.00  0.00     0.037 A 
ATOM     50  C   UNL A   1      41.310  28.021  29.126  1.00  0.00     0.037 A 
ATOM     51  C   UNL A   1      40.970  30.799  35.042  1.00  0.00     0.049 A 
ATOM     52  C   UNL A   1      42.103  27.860  30.398  1.00  0.00     0.074 A 
ATOM     53  C   UNL A   1      41.761  30.542  36.147  1.00  0.00     0.029 A 
ATOM     54  N   UNL A   1      41.419  29.972  34.023  1.00  0.00    -0.354 N 
ATOM     55  N   UNL A   1      41.941  28.453  31.555  1.00  0.00    -0.248 NA
ATOM     56  C   UNL A   1      43.220  26.906  30.365  1.00  0.00     0.031 C 
ATOM     57  C   UNL A   1      42.704  29.572  35.792  1.00  0.00     0.029 A 
ATOM     58  C   UNL A   1      42.476  29.201  34.477  1.00  0.00     0.049 A 
ATOM     59  H   UNL A   1      41.043  29.937  33.114  1.00  0.00     0.167 HD
ATOM     60  C   UNL A   1      42.909  27.921  32.395  1.00  0.00     0.074 A 
ATOM     61  C   UNL A   1      43.645  26.946  31.620  1.00  0.00     0.031 C 
ATOM     62  C   UNL A   1      43.172  28.216  33.692  1.00  0.00     0.037 A 
BRANCH  49  63
ATOM     63  C   UNL A   1      39.489  32.539  36.113  1.00  0.00     0.064 A 
ATOM     64  C   UNL A   1      38.518  32.088  37.021  1.00  0.00     0.173 A 
ATOM     65  C   UNL A   1      40.120  33.762  36.378  1.00  0.00     0.173 A 
ATOM     66  F   UNL A   1      37.873  30.933  36.801  1.00  0.00    -0.203 F 
ATOM     67  C   UNL A   1      38.177  32.844  38.139  1.00  0.00     0.198 A 
ATOM     68  C   UNL A   1      39.798  34.501  37.513  1.00  0.00     0.198 A 
ATOM     69  F   UNL A   1      41.055  34.236  35.543  1.00  0.00    -0.203 F 
ATOM     70  F   UNL A   1      37.216  32.415  38.967  1.00  0.00    -0.200 F 
ATOM     71  C   UNL A   1      38.823  34.045  38.389  1.00  0.00     0.200 A 
ATOM     72  F   UNL A   1      40.430  35.657  37.761  1.00  0.00    -0.200 F 
ATOM     73  F   UNL A   1      38.503  34.766  39.472  1.00  0.00    -0.200 F 
ENDBRANCH  49  63
BRANCH  50  74
ATOM     74  C   UNL A   1      41.667  27.242  27.911  1.00  0.00     0.064 A 
ATOM     75  C   UNL A   1      41.134  25.962  27.695  1.00  0.00     0.173 A 
ATOM     76  C   UNL A   1      42.575  27.738  26.964  1.00  0.00     0.173 A 
ATOM     77  F   UNL A   1      40.277  25.437  28.582  1.00  0.00    -0.203 F 
ATOM     78  C   UNL A   1      41.524  25.195  26.600  1.00  0.00     0.198 A 
ATOM     79  C   UNL A   1      42.941  26.980  25.852  1.00  0.00     0.198 A 
ATOM     80  F   UNL A   1      43.108  28.959  27.119  1.00  0.00    -0.203 F 
ATOM     81  F   UNL A   1      41.048  23.951  26.453  1.00  0.00    -0.200 F 
ATOM     82  C   UNL A   1      42.426  25.706  25.678  1.00  0.00     0.200 A 
ATOM     83  F   UNL A   1      43.803  27.482  24.958  1.00  0.00    -0.200 F 
ATOM     84  F   UNL A   1      42.807  24.963  24.630  1.00  0.00    -0.200 F 
ENDBRANCH  50  74
BRANCH  62  85
ATOM     85  C   UNL A   1      44.264  27.439  34.364  1.00  0.00     0.064 A 
ATOM     86  C   UNL A   1      45.581  27.916  34.413  1.00  0.00     0.173 A 
ATOM     87  C   UNL A   1      43.976  26.225  35.006  1.00  0.00     0.173 A 
ATOM     88  F   UNL A   1      45.907  29.066  33.803  1.00  0.00    -0.203 F 
ATOM     89  C   UNL A   1      46.578  27.191  35.060  1.00  0.00     0.198 A 
ATOM     90  C   UNL A   1      44.969  25.518  35.675  1.00  0.00     0.198 A 
ATOM     91  F   UNL A   1      42.729  25.732  34.992  1.00  0.00    -0.203 F 
ATOM     92  F   UNL A   1      47.840  27.643  35.057  1.00  0.00    -0.200 F 
ATOM     93  C   UNL A   1      46.270  25.998  35.696  1.00  0.00     0.200 A 
ATOM     94  F   UNL A   1      44.668  24.371  36.300  1.00  0.00    -0.200 F 
ATOM     95  F   UNL A   1      47.231  25.305  36.325  1.00  0.00    -0.200 F 
ENDBRANCH  62  85
ENDBRANCH  36  37
ENDBRANCH  28  31
ENDBRANCH  26  27
ENDBRANCH  25  26
ENDBRANCH   1  25
TORSDOF 15
ENDMDL
MODEL 3
REMARK VINA RESULT:     -12.5      0.971      1.990
REMARK SMILES Cc1nc(C[NH2+][C@@H](C(=O)NCCCCNC(=O)c2ccc(-c3c4nc(c(-c5c(F)c(F)c(F)c(F)c5F)c5ccc([nH]5)c(-c5c(F)c(F)c(F)c(F)c5F)c5nc(c(-c6c(F)c(F)c(F)c(F)c6F)c6ccc3[nH]6)C=C5)C=C4)cc2)c2ccccc2)sc1C
REMARK SMILES IDX 12 1 11 2 10 3 8 4 9 5 7 7 6 8 5 11 4 12 1 13 2 14 3 15
REMARK SMILES IDX 88 16 87 17 89 18 81 19 82 20 86 21 83 22 85 23 84 24 13 25
REMARK SMILES IDX 14 26 15 27 16 28 17 30 18 31 19 32 80 33 20 34 79 35 21 36
REMARK SMILES IDX 22 37 23 38 73 39 24 40 78 41 72 42 74 43 25 44 77 45 71 46
REMARK SMILES IDX 70 47 26 49 58 50 38 51 57 52 39 53 42 54 56 55 75 56 40 57
REMARK SMILES IDX 41 58 55 60 76 61 43 62 27 63 28 64 36 65 29 66 30 67 34 68
REMARK SMILES IDX 37 69 31 70 32 71 35 72 33 73 59 74 60 75 68 76 61 77 62 78
REMARK SMILES IDX 66 79 69 80 63 81 64 82 67 83 65 84 44 85 45 86 53 87 46 88
REMARK SMILES IDX 47 89 51 90 54 91 48 92 49 93 52 94 50 95
REMARK H PARENT 10 6 6 9 6 10 15 29 74 48 42 59
REMARK Flexibility Score: inf
ROOT
ATOM      1  C   UNL A   1      32.024  30.259  26.845  1.00  0.00     0.023 C 
ENDROOT
BRANCH   1   2
ATOM      2  C   UNL A   1      33.280  29.672  26.180  1.00  0.00     0.116 C 
BRANCH   2   3
ATOM      3  N   UNL A   1      33.171  29.781  24.740  1.00  0.00    -0.351 N 
ATOM      4  C   UNL A   1      32.488  29.020  23.832  1.00  0.00     0.283 C 
ATOM      5  O   UNL A   1      32.937  29.056  22.680  1.00  0.00    -0.268 OA
ATOM      6  H   UNL A   1      33.674  30.532  24.347  1.00  0.00     0.163 HD
BRANCH   4   7
ATOM      7  C   UNL A   1      31.233  28.159  24.226  1.00  0.00     0.304 C 
BRANCH   7   8
ATOM      8  N   UNL A   1      31.301  26.801  23.625  1.00  0.00    -0.326 N 
ATOM      9  H   UNL A   1      30.483  26.269  23.925  1.00  0.00     0.347 HD
ATOM     10  H   UNL A   1      31.322  26.909  22.610  1.00  0.00     0.347 HD
BRANCH   8  11
ATOM     11  C   UNL A   1      32.501  26.080  24.021  1.00  0.00     0.330 C 
BRANCH  11  12
ATOM     12  C   UNL A   1      32.302  24.873  24.893  1.00  0.00     0.148 A 
ATOM     13  C   UNL A   1      30.041  22.968  26.924  1.00  0.00     0.068 C 
ATOM     14  C   UNL A   1      31.279  23.526  26.325  1.00  0.00     0.052 A 
ATOM     15  N   UNL A   1      31.129  24.431  25.288  1.00  0.00    -0.240 NA
ATOM     16  C   UNL A   1      32.588  23.296  26.715  1.00  0.00     0.025 A 
ATOM     17  S   UNL A   1      33.654  24.132  25.665  1.00  0.00    -0.118 S 
ATOM     18  C   UNL A   1      33.111  22.482  27.845  1.00  0.00     0.058 C 
ENDBRANCH  11  12
ENDBRANCH   8  11
ENDBRANCH   7   8
BRANCH   7  19
ATOM     19  C   UNL A   1      29.943  28.845  23.759  1.00  0.00     0.019 A 
ATOM     20  C   UNL A   1      29.804  30.243  23.824  1.00  0.00     0.010 A 
ATOM     21  C   UNL A   1      28.866  28.097  23.254  1.00  0.00     0.010 A 
ATOM     22  C   UNL A   1      28.627  30.874  23.417  1.00  0.00     0.001 A 
ATOM     23  C   UNL A   1      27.689  28.732  22.840  1.00  0.00     0.001 A 
ATOM     24  C   UNL A   1      27.570  30.119  22.925  1.00  0.00     0.000 A 
ENDBRANCH   7  19
ENDBRANCH   4   7
ENDBRANCH   2   3
ENDBRANCH   1   2
BRANCH   1  25
ATOM     25  C   UNL A   1      31.856  31.766  26.703  1.00  0.00     0.023 C 
BRANCH  25  26
ATOM     26  C   UNL A   1      32.925  32.587  27.399  1.00  0.00     0.116 C 
BRANCH  26  27
ATOM     27  N   UNL A   1      32.523  33.963  27.655  1.00  0.00    -0.352 N 
ATOM     28  C   UNL A   1      33.031  34.857  28.574  1.00  0.00     0.251 C 
ATOM     29  H   UNL A   1      31.786  34.302  27.096  1.00  0.00     0.163 HD
ATOM     30  O   UNL A   1      32.513  35.948  28.737  1.00  0.00    -0.269 OA
BRANCH  28  31
ATOM     31  C   UNL A   1      34.193  34.447  29.391  1.00  0.00     0.039 A 
ATOM     32  C   UNL A   1      33.969  33.828  30.623  1.00  0.00     0.014 A 
ATOM     33  C   UNL A   1      35.491  34.605  28.902  1.00  0.00     0.014 A 
ATOM     34  C   UNL A   1      35.048  33.285  31.322  1.00  0.00     0.010 A 
ATOM     35  C   UNL A   1      36.544  33.970  29.544  1.00  0.00     0.010 A 
ATOM     36  C   UNL A   1      36.336  33.310  30.763  1.00  0.00    -0.014 A 
BRANCH  36  37
ATOM     37  C   UNL A   1      37.495  32.683  31.447  1.00  0.00     0.031 A 
ATOM     38  C   UNL A   1      38.222  31.550  30.775  1.00  0.00     0.074 A 
ATOM     39  C   UNL A   1      37.842  33.075  32.688  1.00  0.00     0.049 A 
ATOM     40  N   UNL A   1      39.175  30.784  31.241  1.00  0.00    -0.248 NA
ATOM     41  C   UNL A   1      37.793  31.207  29.409  1.00  0.00     0.031 C 
ATOM     42  C   UNL A   1      37.178  34.123  33.466  1.00  0.00     0.029 A 
ATOM     43  N   UNL A   1      38.836  32.627  33.521  1.00  0.00    -0.354 N 
ATOM     44  C   UNL A   1      39.443  29.866  30.234  1.00  0.00     0.074 A 
ATOM     45  C   UNL A   1      38.507  30.120  29.163  1.00  0.00     0.031 C 
ATOM     46  C   UNL A   1      37.799  34.255  34.650  1.00  0.00     0.029 A 
ATOM     47  C   UNL A   1      38.879  33.277  34.731  1.00  0.00     0.049 A 
ATOM     48  H   UNL A   1      39.461  31.906  33.275  1.00  0.00     0.167 HD
ATOM     49  C   UNL A   1      40.409  28.918  30.191  1.00  0.00     0.037 A 
ATOM     50  C   UNL A   1      39.695  33.094  35.787  1.00  0.00     0.037 A 
ATOM     51  C   UNL A   1      41.364  28.693  31.240  1.00  0.00     0.049 A 
ATOM     52  C   UNL A   1      40.768  32.040  35.705  1.00  0.00     0.074 A 
ATOM     53  C   UNL A   1      42.402  27.780  31.283  1.00  0.00     0.029 A 
ATOM     54  N   UNL A   1      41.404  29.406  32.429  1.00  0.00    -0.354 N 
ATOM     55  N   UNL A   1      41.042  31.211  34.728  1.00  0.00    -0.248 NA
ATOM     56  C   UNL A   1      41.651  31.902  36.872  1.00  0.00     0.031 C 
ATOM     57  C   UNL A   1      43.059  27.925  32.510  1.00  0.00     0.029 A 
ATOM     58  C   UNL A   1      42.452  28.954  33.213  1.00  0.00     0.049 A 
ATOM     59  H   UNL A   1      40.781  30.126  32.680  1.00  0.00     0.167 HD
ATOM     60  C   UNL A   1      42.144  30.479  35.145  1.00  0.00     0.074 A 
ATOM     61  C   UNL A   1      42.500  30.972  36.459  1.00  0.00     0.031 C 
ATOM     62  C   UNL A   1      42.803  29.483  34.504  1.00  0.00     0.037 A 
BRANCH  49  63
ATOM     63  C   UNL A   1      40.499  28.079  28.951  1.00  0.00     0.064 A 
ATOM     64  C   UNL A   1      39.786  26.876  28.833  1.00  0.00     0.173 A 
ATOM     65  C   UNL A   1      41.270  28.496  27.856  1.00  0.00     0.173 A 
ATOM     66  F   UNL A   1      39.050  26.425  29.860  1.00  0.00    -0.203 F 
ATOM     67  C   UNL A   1      39.859  26.109  27.674  1.00  0.00     0.198 A 
ATOM     68  C   UNL A   1      41.317  27.742  26.686  1.00  0.00     0.198 A 
ATOM     69  F   UNL A   1      41.969  29.639  27.916  1.00  0.00    -0.203 F 
ATOM     70  F   UNL A   1      39.206  24.942  27.603  1.00  0.00    -0.200 F 
ATOM     71  C   UNL A   1      40.617  26.547  26.599  1.00  0.00     0.200 A 
ATOM     72  F   UNL A   1      42.041  28.171  25.643  1.00  0.00    -0.200 F 
ATOM     73  F   UNL A   1      40.677  25.815  25.478  1.00  0.00    -0.200 F 
ENDBRANCH  49  63
BRANCH  50  74
ATOM     74  C   UNL A   1      39.557  33.937  37.004  1.00  0.00     0.064 A 
ATOM     75  C   UNL A   1      38.805  33.496  38.103  1.00  0.00     0.173 A 
ATOM     76  C   UNL A   1      40.135  35.212  37.081  1.00  0.00     0.173 A 
ATOM     77  F   UNL A   1      38.215  32.291  38.069  1.00  0.00    -0.203 F 
ATOM     78  C   UNL A   1      38.606  34.311  39.215  1.00  0.00     0.198 A 
ATOM     79  C   UNL A   1      39.960  36.015  38.208  1.00  0.00     0.198 A 
ATOM     80  F   UNL A   1      40.870  35.680  36.061  1.00  0.00    -0.203 F 
ATOM     81  F   UNL A   1      37.829  33.888  40.223  1.00  0.00    -0.200 F 
ATOM     82  C   UNL A   1      39.185  35.570  39.267  1.00  0.00     0.200 A 
ATOM     83  F   UNL A   1      40.532  37.226  38.259  1.00  0.00    -0.200 F 
ATOM     84  F   UNL A   1      38.986  36.357  40.333  1.00  0.00    -0.200 F 
ENDBRANCH  50  74
BRANCH  62  85
ATOM     85  C   UNL A   1      44.002  28.900  35.189  1.00  0.00     0.064 A 
ATOM     86  C   UNL A   1      45.285  29.431  35.003  1.00  0.00     0.173 A 
ATOM     87  C   UNL A   1      43.854  27.824  36.078  1.00  0.00     0.173 A 
ATOM     88  F   UNL A   1      45.478  30.451  34.153  1.00  0.00    -0.203 F 
ATOM     89  C   UNL A   1      46.384  28.889  35.664  1.00  0.00     0.198 A 
ATOM     90  C   UNL A   1      44.950  27.303  36.758  1.00  0.00     0.198 A 
ATOM     91  F   UNL A   1      42.644  27.286  36.294  1.00  0.00    -0.203 F 
ATOM     92  F   UNL A   1      47.609  29.383  35.437  1.00  0.00    -0.200 F 
ATOM     93  C   UNL A   1      46.215  27.832  36.545  1.00  0.00     0.200 A 
ATOM     94  F   UNL A   1      44.784  26.290  37.618  1.00  0.00    -0.200 F 
ATOM     95  F   UNL A   1      47.273  27.315  37.186  1.00  0.00    -0.200 F 
ENDBRANCH  62  85
ENDBRANCH  36  37
ENDBRANCH  28  31
ENDBRANCH  26  27
ENDBRANCH  25  26
ENDBRANCH   1  25
TORSDOF 15
ENDMDL
