MODEL 1
REMARK VINA RESULT:     -11.5      0.000      0.000
REMARK SMILES C[NH+](C)CC[NH2+][C@@H](C(=O)NCCCCNC(=O)c1ccc(-c2c3nc(c(-c4c(F)c(F)c(F)c(F)c4F)c4ccc([nH]4)c(-c4c(F)c(F)c(F)c(F)c4F)c4nc(c(-c5c(F)c(F)c(F)c(F)c5F)c5ccc2[nH]5)C=C4)C=C3)cc1)c1cccc(C2CC2)c1
REMARK SMILES IDX 11 1 10 2 8 3 9 4 7 6 6 7 5 10 4 11 2 12 1 13 3 14 81 16
REMARK SMILES IDX 82 17 89 18 83 19 85 20 84 21 86 22 87 23 88 24 12 25 13 26
REMARK SMILES IDX 14 27 15 28 16 29 17 31 18 32 19 33 80 34 20 35 79 36 21 37
REMARK SMILES IDX 22 38 23 39 73 40 24 41 78 42 72 43 74 44 25 45 77 46 71 47
REMARK SMILES IDX 70 48 26 50 58 51 38 52 57 53 39 54 42 55 56 56 75 57 40 58
REMARK SMILES IDX 41 59 55 61 76 62 43 63 27 64 28 65 36 66 29 67 30 68 34 69
REMARK SMILES IDX 37 70 31 71 32 72 35 73 33 74 59 75 60 76 68 77 61 78 62 79
REMARK SMILES IDX 66 80 69 81 63 82 64 83 67 84 65 85 44 86 45 87 53 88 46 89
REMARK SMILES IDX 47 90 51 91 54 92 48 93 49 94 52 95 50 96
REMARK H PARENT 10 5 6 8 6 9 2 15 15 30 74 49 42 60
REMARK Flexibility Score: inf
ROOT
ATOM      1  C   UNL A   1      32.940  29.476  25.933  1.00  0.00     0.116 C 
ENDROOT
BRANCH   1   2
ATOM      2  N   UNL A   1      32.923  29.714  24.500  1.00  0.00    -0.351 N 
ATOM      3  C   UNL A   1      32.371  29.007  23.465  1.00  0.00     0.283 C 
ATOM      4  O   UNL A   1      32.817  29.286  22.345  1.00  0.00    -0.268 OA
ATOM      5  H   UNL A   1      33.395  30.532  24.222  1.00  0.00     0.163 HD
BRANCH   3   6
ATOM      6  C   UNL A   1      31.263  27.901  23.673  1.00  0.00     0.304 C 
BRANCH   6   7
ATOM      7  N   UNL A   1      31.388  26.888  22.592  1.00  0.00    -0.328 N 
ATOM      8  H   UNL A   1      30.525  26.903  22.048  1.00  0.00     0.347 HD
ATOM      9  H   UNL A   1      32.219  27.151  22.062  1.00  0.00     0.347 HD
BRANCH   7  10
ATOM     10  C   UNL A   1      31.615  25.528  23.023  1.00  0.00     0.323 C 
BRANCH  10  11
ATOM     11  C   UNL A   1      33.008  25.222  23.620  1.00  0.00     0.323 C 
BRANCH  11  12
ATOM     12  N   UNL A   1      33.148  24.979  25.066  1.00  0.00    -0.335 N 
ATOM     13  C   UNL A   1      34.029  25.915  25.751  1.00  0.00     0.332 C 
ATOM     14  C   UNL A   1      31.893  24.797  25.782  1.00  0.00     0.332 C 
ATOM     15  H   UNL A   1      33.616  24.072  25.090  1.00  0.00     0.347 HD
ENDBRANCH  11  12
ENDBRANCH  10  11
ENDBRANCH   7  10
ENDBRANCH   6   7
BRANCH   6  16
ATOM     16  C   UNL A   1      29.840  28.511  23.577  1.00  0.00     0.019 A 
ATOM     17  C   UNL A   1      28.709  27.679  23.482  1.00  0.00     0.010 A 
ATOM     18  C   UNL A   1      29.625  29.906  23.537  1.00  0.00     0.014 A 
ATOM     19  C   UNL A   1      27.444  28.201  23.236  1.00  0.00     0.001 A 
ATOM     20  C   UNL A   1      28.352  30.469  23.294  1.00  0.00    -0.044 A 
ATOM     21  C   UNL A   1      27.278  29.577  23.125  1.00  0.00     0.004 A 
BRANCH  20  22
ATOM     22  C   UNL A   1      28.080  31.956  23.162  1.00  0.00     0.019 C 
ATOM     23  C   UNL A   1      29.153  33.010  23.105  1.00  0.00     0.009 C 
ATOM     24  C   UNL A   1      28.403  32.645  21.857  1.00  0.00     0.009 C 
ENDBRANCH  20  22
ENDBRANCH   6  16
ENDBRANCH   3   6
ENDBRANCH   1   2
BRANCH   1  25
ATOM     25  C   UNL A   1      31.744  30.162  26.620  1.00  0.00     0.023 C 
BRANCH  25  26
ATOM     26  C   UNL A   1      31.677  31.674  26.499  1.00  0.00     0.023 C 
BRANCH  26  27
ATOM     27  C   UNL A   1      32.735  32.401  27.295  1.00  0.00     0.116 C 
BRANCH  27  28
ATOM     28  N   UNL A   1      32.430  33.813  27.492  1.00  0.00    -0.352 N 
ATOM     29  C   UNL A   1      32.987  34.703  28.382  1.00  0.00     0.251 C 
ATOM     30  H   UNL A   1      31.729  34.181  26.907  1.00  0.00     0.163 HD
ATOM     31  O   UNL A   1      32.528  35.827  28.512  1.00  0.00    -0.269 OA
BRANCH  29  32
ATOM     32  C   UNL A   1      34.126  34.258  29.207  1.00  0.00     0.039 A 
ATOM     33  C   UNL A   1      33.881  33.576  30.400  1.00  0.00     0.014 A 
ATOM     34  C   UNL A   1      35.433  34.452  28.754  1.00  0.00     0.014 A 
ATOM     35  C   UNL A   1      34.951  33.020  31.100  1.00  0.00     0.010 A 
ATOM     36  C   UNL A   1      36.477  33.798  29.384  1.00  0.00     0.010 A 
ATOM     37  C   UNL A   1      36.251  33.092  30.573  1.00  0.00    -0.014 A 
BRANCH  37  38
ATOM     38  C   UNL A   1      37.408  32.476  31.264  1.00  0.00     0.031 A 
ATOM     39  C   UNL A   1      38.139  31.341  30.601  1.00  0.00     0.074 A 
ATOM     40  C   UNL A   1      37.740  32.876  32.506  1.00  0.00     0.049 A 
ATOM     41  N   UNL A   1      39.100  30.588  31.069  1.00  0.00    -0.248 NA
ATOM     42  C   UNL A   1      37.696  30.972  29.245  1.00  0.00     0.031 C 
ATOM     43  C   UNL A   1      37.059  33.921  33.273  1.00  0.00     0.029 A 
ATOM     44  N   UNL A   1      38.730  32.438  33.348  1.00  0.00    -0.354 N 
ATOM     45  C   UNL A   1      39.351  29.647  30.082  1.00  0.00     0.074 A 
ATOM     46  C   UNL A   1      38.401  29.875  29.018  1.00  0.00     0.031 C 
ATOM     47  C   UNL A   1      37.671  34.065  34.460  1.00  0.00     0.029 A 
ATOM     48  C   UNL A   1      38.762  33.100  34.552  1.00  0.00     0.049 A 
ATOM     49  H   UNL A   1      39.358  31.718  33.113  1.00  0.00     0.167 HD
ATOM     50  C   UNL A   1      40.313  28.695  30.049  1.00  0.00     0.037 A 
ATOM     51  C   UNL A   1      39.582  32.939  35.607  1.00  0.00     0.037 A 
ATOM     52  C   UNL A   1      41.291  28.512  31.087  1.00  0.00     0.049 A 
ATOM     53  C   UNL A   1      40.667  31.898  35.530  1.00  0.00     0.074 A 
ATOM     54  C   UNL A   1      42.358  27.633  31.123  1.00  0.00     0.029 A 
ATOM     55  N   UNL A   1      41.321  29.234  32.272  1.00  0.00    -0.354 N 
ATOM     56  N   UNL A   1      40.943  31.060  34.561  1.00  0.00    -0.248 NA
ATOM     57  C   UNL A   1      41.558  31.787  36.693  1.00  0.00     0.031 C 
ATOM     58  C   UNL A   1      43.013  27.799  32.348  1.00  0.00     0.029 A 
ATOM     59  C   UNL A   1      42.381  28.810  33.054  1.00  0.00     0.049 A 
ATOM     60  H   UNL A   1      40.683  29.942  32.520  1.00  0.00     0.167 HD
ATOM     61  C   UNL A   1      42.055  30.343  34.982  1.00  0.00     0.074 A 
ATOM     62  C   UNL A   1      42.410  30.855  36.288  1.00  0.00     0.031 C 
ATOM     63  C   UNL A   1      42.721  29.349  34.346  1.00  0.00     0.037 A 
BRANCH  50  64
ATOM     64  C   UNL A   1      40.363  27.799  28.847  1.00  0.00     0.064 A 
ATOM     65  C   UNL A   1      39.653  26.589  28.802  1.00  0.00     0.173 A 
ATOM     66  C   UNL A   1      41.112  28.162  27.719  1.00  0.00     0.173 A 
ATOM     67  F   UNL A   1      38.935  26.186  29.861  1.00  0.00    -0.203 F 
ATOM     68  C   UNL A   1      39.718  25.760  27.684  1.00  0.00     0.198 A 
ATOM     69  C   UNL A   1      41.148  27.347  26.590  1.00  0.00     0.198 A 
ATOM     70  F   UNL A   1      41.809  29.308  27.709  1.00  0.00    -0.203 F 
ATOM     71  F   UNL A   1      39.077  24.584  27.687  1.00  0.00    -0.200 F 
ATOM     72  C   UNL A   1      40.459  26.144  26.576  1.00  0.00     0.200 A 
ATOM     73  F   UNL A   1      41.857  27.723  25.517  1.00  0.00    -0.200 F 
ATOM     74  F   UNL A   1      40.516  25.349  25.500  1.00  0.00    -0.200 F 
ENDBRANCH  50  64
BRANCH  51  75
ATOM     75  C   UNL A   1      39.438  33.808  36.803  1.00  0.00     0.064 A 
ATOM     76  C   UNL A   1      38.693  33.385  37.913  1.00  0.00     0.173 A 
ATOM     77  C   UNL A   1      40.035  35.075  36.865  1.00  0.00     0.173 A 
ATOM     78  F   UNL A   1      38.089  32.187  37.894  1.00  0.00    -0.203 F 
ATOM     79  C   UNL A   1      38.529  34.203  39.027  1.00  0.00     0.198 A 
ATOM     80  C   UNL A   1      39.893  35.883  37.992  1.00  0.00     0.198 A 
ATOM     81  F   UNL A   1      40.764  35.526  35.833  1.00  0.00    -0.203 F 
ATOM     82  F   UNL A   1      37.773  33.791  40.054  1.00  0.00    -0.200 F 
ATOM     83  C   UNL A   1      39.133  35.450  39.068  1.00  0.00     0.200 A 
ATOM     84  F   UNL A   1      40.491  37.083  38.033  1.00  0.00    -0.200 F 
ATOM     85  F   UNL A   1      38.978  36.238  40.141  1.00  0.00    -0.200 F 
ENDBRANCH  51  75
BRANCH  63  86
ATOM     86  C   UNL A   1      43.923  28.777  35.038  1.00  0.00     0.064 A 
ATOM     87  C   UNL A   1      43.822  27.666  35.887  1.00  0.00     0.173 A 
ATOM     88  C   UNL A   1      45.196  29.319  34.807  1.00  0.00     0.173 A 
ATOM     89  F   UNL A   1      42.623  27.124  36.148  1.00  0.00    -0.203 F 
ATOM     90  C   UNL A   1      44.951  27.133  36.501  1.00  0.00     0.198 A 
ATOM     91  C   UNL A   1      46.327  28.765  35.398  1.00  0.00     0.198 A 
ATOM     92  F   UNL A   1      45.344  30.376  33.995  1.00  0.00    -0.203 F 
ATOM     93  F   UNL A   1      44.826  26.099  37.343  1.00  0.00    -0.200 F 
ATOM     94  C   UNL A   1      46.203  27.677  36.249  1.00  0.00     0.200 A 
ATOM     95  F   UNL A   1      47.536  29.282  35.144  1.00  0.00    -0.200 F 
ATOM     96  F   UNL A   1      47.290  27.155  36.834  1.00  0.00    -0.200 F 
ENDBRANCH  63  86
ENDBRANCH  37  38
ENDBRANCH  29  32
ENDBRANCH  27  28
ENDBRANCH  26  27
ENDBRANCH  25  26
ENDBRANCH   1  25
TORSDOF 17
ENDMDL
MODEL 2
REMARK VINA RESULT:     -11.5      0.983      7.599
REMARK SMILES C[NH+](C)CC[NH2+][C@@H](C(=O)NCCCCNC(=O)c1ccc(-c2c3nc(c(-c4c(F)c(F)c(F)c(F)c4F)c4ccc([nH]4)c(-c4c(F)c(F)c(F)c(F)c4F)c4nc(c(-c5c(F)c(F)c(F)c(F)c5F)c5ccc2[nH]5)C=C4)C=C3)cc1)c1cccc(C2CC2)c1
REMARK SMILES IDX 11 1 10 2 8 3 9 4 7 6 6 7 5 10 4 11 2 12 1 13 3 14 81 16
REMARK SMILES IDX 82 17 89 18 83 19 85 20 84 21 86 22 87 23 88 24 12 25 13 26
REMARK SMILES IDX 14 27 15 28 16 29 17 31 18 32 19 33 80 34 20 35 79 36 21 37
REMARK SMILES IDX 22 38 23 39 73 40 24 41 78 42 72 43 74 44 25 45 77 46 71 47
REMARK SMILES IDX 70 48 26 50 58 51 38 52 57 53 39 54 42 55 56 56 75 57 40 58
REMARK SMILES IDX 41 59 55 61 76 62 43 63 27 64 28 65 36 66 29 67 30 68 34 69
REMARK SMILES IDX 37 70 31 71 32 72 35 73 33 74 59 75 60 76 68 77 61 78 62 79
REMARK SMILES IDX 66 80 69 81 63 82 64 83 67 84 65 85 44 86 45 87 53 88 46 89
REMARK SMILES IDX 47 90 51 91 54 92 48 93 49 94 52 95 50 96
REMARK H PARENT 10 5 6 8 6 9 2 15 15 30 74 49 42 60
REMARK Flexibility Score: inf
ROOT
ATOM      1  C   UNL A   1      33.230  30.079  26.800  1.00  0.00     0.116 C 
ENDROOT
BRANCH   1   2
ATOM      2  N   UNL A   1      33.654  29.689  25.467  1.00  0.00    -0.351 N 
ATOM      3  C   UNL A   1      33.529  28.511  24.779  1.00  0.00     0.283 C 
ATOM      4  O   UNL A   1      34.286  28.391  23.807  1.00  0.00    -0.268 OA
ATOM      5  H   UNL A   1      34.116  30.400  24.967  1.00  0.00     0.163 HD
BRANCH   3   6
ATOM      6  C   UNL A   1      32.516  27.375  25.196  1.00  0.00     0.304 C 
BRANCH   6   7
ATOM      7  N   UNL A   1      33.028  26.070  24.700  1.00  0.00    -0.328 N 
ATOM      8  H   UNL A   1      32.225  25.498  24.436  1.00  0.00     0.347 HD
ATOM      9  H   UNL A   1      33.651  26.295  23.924  1.00  0.00     0.347 HD
BRANCH   7  10
ATOM     10  C   UNL A   1      33.827  25.307  25.632  1.00  0.00     0.323 C 
BRANCH  10  11
ATOM     11  C   UNL A   1      35.071  24.599  25.048  1.00  0.00     0.323 C 
BRANCH  11  12
ATOM     12  N   UNL A   1      34.904  23.537  24.042  1.00  0.00    -0.335 N 
ATOM     13  C   UNL A   1      36.147  23.092  23.425  1.00  0.00     0.332 C 
ATOM     14  C   UNL A   1      34.082  22.412  24.466  1.00  0.00     0.332 C 
ATOM     15  H   UNL A   1      34.373  24.010  23.311  1.00  0.00     0.347 HD
ENDBRANCH  11  12
ENDBRANCH  10  11
ENDBRANCH   7  10
ENDBRANCH   6   7
BRANCH   6  16
ATOM     16  C   UNL A   1      31.124  27.604  24.551  1.00  0.00     0.019 A 
ATOM     17  C   UNL A   1      30.155  26.581  24.555  1.00  0.00     0.010 A 
ATOM     18  C   UNL A   1      30.788  28.813  23.905  1.00  0.00     0.014 A 
ATOM     19  C   UNL A   1      28.965  26.709  23.848  1.00  0.00     0.001 A 
ATOM     20  C   UNL A   1      29.585  28.976  23.181  1.00  0.00    -0.044 A 
ATOM     21  C   UNL A   1      28.699  27.885  23.156  1.00  0.00     0.004 A 
BRANCH  20  22
ATOM     22  C   UNL A   1      29.212  30.224  22.403  1.00  0.00     0.019 C 
ATOM     23  C   UNL A   1      27.936  30.384  21.621  1.00  0.00     0.009 C 
ATOM     24  C   UNL A   1      28.104  31.108  22.925  1.00  0.00     0.009 C 
ENDBRANCH  20  22
ENDBRANCH   6  16
ENDBRANCH   3   6
ENDBRANCH   1   2
BRANCH   1  25
ATOM     25  C   UNL A   1      31.768  30.563  26.794  1.00  0.00     0.023 C 
BRANCH  25  26
ATOM     26  C   UNL A   1      31.559  32.067  26.839  1.00  0.00     0.023 C 
BRANCH  26  27
ATOM     27  C   UNL A   1      32.800  32.849  27.196  1.00  0.00     0.116 C 
BRANCH  27  28
ATOM     28  N   UNL A   1      32.513  34.213  27.624  1.00  0.00    -0.352 N 
ATOM     29  C   UNL A   1      33.078  34.936  28.649  1.00  0.00     0.251 C 
ATOM     30  H   UNL A   1      31.817  34.681  27.109  1.00  0.00     0.163 HD
ATOM     31  O   UNL A   1      32.632  36.029  28.963  1.00  0.00    -0.269 OA
BRANCH  29  32
ATOM     32  C   UNL A   1      34.211  34.347  29.388  1.00  0.00     0.039 A 
ATOM     33  C   UNL A   1      33.956  33.508  30.474  1.00  0.00     0.014 A 
ATOM     34  C   UNL A   1      35.519  34.571  28.953  1.00  0.00     0.014 A 
ATOM     35  C   UNL A   1      35.016  32.829  31.074  1.00  0.00     0.010 A 
ATOM     36  C   UNL A   1      36.549  33.805  29.470  1.00  0.00     0.010 A 
ATOM     37  C   UNL A   1      36.313  32.942  30.548  1.00  0.00    -0.014 A 
BRANCH  37  38
ATOM     38  C   UNL A   1      37.458  32.203  31.130  1.00  0.00     0.031 A 
ATOM     39  C   UNL A   1      37.945  32.569  32.504  1.00  0.00     0.074 A 
ATOM     40  C   UNL A   1      38.103  31.277  30.396  1.00  0.00     0.049 A 
ATOM     41  N   UNL A   1      38.991  32.134  33.157  1.00  0.00    -0.248 NA
ATOM     42  C   UNL A   1      37.177  33.600  33.225  1.00  0.00     0.031 C 
ATOM     43  C   UNL A   1      37.761  30.888  29.026  1.00  0.00     0.029 A 
ATOM     44  N   UNL A   1      39.193  30.501  30.698  1.00  0.00    -0.354 N 
ATOM     45  C   UNL A   1      39.020  32.856  34.341  1.00  0.00     0.074 A 
ATOM     46  C   UNL A   1      37.932  33.804  34.293  1.00  0.00     0.031 C 
ATOM     47  C   UNL A   1      38.605  29.926  28.619  1.00  0.00     0.029 A 
ATOM     48  C   UNL A   1      39.567  29.656  29.681  1.00  0.00     0.049 A 
ATOM     49  H   UNL A   1      39.664  30.546  31.561  1.00  0.00     0.167 HD
ATOM     50  C   UNL A   1      39.861  32.718  35.393  1.00  0.00     0.037 A 
ATOM     51  C   UNL A   1      40.575  28.767  29.621  1.00  0.00     0.037 A 
ATOM     52  C   UNL A   1      40.906  31.733  35.456  1.00  0.00     0.049 A 
ATOM     53  C   UNL A   1      41.473  28.606  30.818  1.00  0.00     0.074 A 
ATOM     54  C   UNL A   1      41.765  31.450  36.501  1.00  0.00     0.029 A 
ATOM     55  N   UNL A   1      41.225  30.860  34.424  1.00  0.00    -0.354 N 
ATOM     56  N   UNL A   1      41.449  29.244  31.964  1.00  0.00    -0.248 NA
ATOM     57  C   UNL A   1      42.536  27.597  30.716  1.00  0.00     0.031 C 
ATOM     58  C   UNL A   1      42.629  30.430  36.089  1.00  0.00     0.029 A 
ATOM     59  C   UNL A   1      42.278  30.048  34.804  1.00  0.00     0.049 A 
ATOM     60  H   UNL A   1      40.769  30.825  33.552  1.00  0.00     0.167 HD
ATOM     61  C   UNL A   1      42.469  28.695  32.729  1.00  0.00     0.074 A 
ATOM     62  C   UNL A   1      43.084  27.663  31.922  1.00  0.00     0.031 C 
ATOM     63  C   UNL A   1      42.863  29.017  33.985  1.00  0.00     0.037 A 
BRANCH  50  64
ATOM     64  C   UNL A   1      39.668  33.639  36.561  1.00  0.00     0.064 A 
ATOM     65  C   UNL A   1      40.297  34.893  36.621  1.00  0.00     0.173 A 
ATOM     66  C   UNL A   1      38.830  33.275  37.625  1.00  0.00     0.173 A 
ATOM     67  F   UNL A   1      41.123  35.282  35.639  1.00  0.00    -0.203 F 
ATOM     68  C   UNL A   1      40.120  35.732  37.718  1.00  0.00     0.198 A 
ATOM     69  C   UNL A   1      38.629  34.131  38.704  1.00  0.00     0.198 A 
ATOM     70  F   UNL A   1      38.204  32.088  37.617  1.00  0.00    -0.203 F 
ATOM     71  F   UNL A   1      40.775  36.899  37.778  1.00  0.00    -0.200 F 
ATOM     72  C   UNL A   1      39.279  35.354  38.755  1.00  0.00     0.200 A 
ATOM     73  F   UNL A   1      37.809  33.769  39.701  1.00  0.00    -0.200 F 
ATOM     74  F   UNL A   1      39.105  36.166  39.806  1.00  0.00    -0.200 F 
ENDBRANCH  50  64
BRANCH  51  75
ATOM     75  C   UNL A   1      40.763  27.932  28.407  1.00  0.00     0.064 A 
ATOM     76  C   UNL A   1      41.547  28.387  27.337  1.00  0.00     0.173 A 
ATOM     77  C   UNL A   1      40.164  26.670  28.284  1.00  0.00     0.173 A 
ATOM     78  F   UNL A   1      42.127  29.595  27.400  1.00  0.00    -0.203 F 
ATOM     79  C   UNL A   1      41.706  27.624  26.183  1.00  0.00     0.198 A 
ATOM     80  C   UNL A   1      40.346  25.895  27.140  1.00  0.00     0.198 A 
ATOM     81  F   UNL A   1      39.410  26.185  29.282  1.00  0.00    -0.203 F 
ATOM     82  F   UNL A   1      42.424  28.104  25.158  1.00  0.00    -0.200 F 
ATOM     83  C   UNL A   1      41.109  26.377  26.087  1.00  0.00     0.200 A 
ATOM     84  F   UNL A   1      39.779  24.683  27.057  1.00  0.00    -0.200 F 
ATOM     85  F   UNL A   1      41.263  25.641  24.978  1.00  0.00    -0.200 F 
ENDBRANCH  51  75
BRANCH  63  86
ATOM     86  C   UNL A   1      43.986  28.220  34.576  1.00  0.00     0.064 A 
ATOM     87  C   UNL A   1      45.319  28.648  34.483  1.00  0.00     0.173 A 
ATOM     88  C   UNL A   1      43.720  27.039  35.287  1.00  0.00     0.173 A 
ATOM     89  F   UNL A   1      45.622  29.762  33.801  1.00  0.00    -0.203 F 
ATOM     90  C   UNL A   1      46.347  27.908  35.060  1.00  0.00     0.198 A 
ATOM     91  C   UNL A   1      44.747  26.319  35.888  1.00  0.00     0.198 A 
ATOM     92  F   UNL A   1      42.460  26.595  35.411  1.00  0.00    -0.203 F 
ATOM     93  F   UNL A   1      47.617  28.311  34.921  1.00  0.00    -0.200 F 
ATOM     94  C   UNL A   1      46.060  26.750  35.769  1.00  0.00     0.200 A 
ATOM     95  F   UNL A   1      44.467  25.209  36.583  1.00  0.00    -0.200 F 
ATOM     96  F   UNL A   1      47.051  26.046  36.331  1.00  0.00    -0.200 F 
ENDBRANCH  63  86
ENDBRANCH  37  38
ENDBRANCH  29  32
ENDBRANCH  27  28
ENDBRANCH  26  27
ENDBRANCH  25  26
ENDBRANCH   1  25
TORSDOF 17
ENDMDL
MODEL 3
REMARK VINA RESULT:     -11.4      0.624      2.073
REMARK SMILES C[NH+](C)CC[NH2+][C@@H](C(=O)NCCCCNC(=O)c1ccc(-c2c3nc(c(-c4c(F)c(F)c(F)c(F)c4F)c4ccc([nH]4)c(-c4c(F)c(F)c(F)c(F)c4F)c4nc(c(-c5c(F)c(F)c(F)c(F)c5F)c5ccc2[nH]5)C=C4)C=C3)cc1)c1cccc(C2CC2)c1
REMARK SMILES IDX 11 1 10 2 8 3 9 4 7 6 6 7 5 10 4 11 2 12 1 13 3 14 81 16
REMARK SMILES IDX 82 17 89 18 83 19 85 20 84 21 86 22 87 23 88 24 12 25 13 26
REMARK SMILES IDX 14 27 15 28 16 29 17 31 18 32 19 33 80 34 20 35 79 36 21 37
REMARK SMILES IDX 22 38 23 39 73 40 24 41 78 42 72 43 74 44 25 45 77 46 71 47
REMARK SMILES IDX 70 48 26 50 58 51 38 52 57 53 39 54 42 55 56 56 75 57 40 58
REMARK SMILES IDX 41 59 55 61 76 62 43 63 27 64 28 65 36 66 29 67 30 68 34 69
REMARK SMILES IDX 37 70 31 71 32 72 35 73 33 74 59 75 60 76 68 77 61 78 62 79
REMARK SMILES IDX 66 80 69 81 63 82 64 83 67 84 65 85 44 86 45 87 53 88 46 89
REMARK SMILES IDX 47 90 51 91 54 92 48 93 49 94 52 95 50 96
REMARK H PARENT 10 5 6 8 6 9 2 15 15 30 74 49 42 60
REMARK Flexibility Score: inf
ROOT
ATOM      1  C   UNL A   1      31.806  29.057  26.160  1.00  0.00     0.116 C 
ENDROOT
BRANCH   1   2
ATOM      2  N   UNL A   1      32.386  29.483  24.898  1.00  0.00    -0.351 N 
ATOM      3  C   UNL A   1      32.332  28.942  23.642  1.00  0.00     0.283 C 
ATOM      4  O   UNL A   1      33.202  29.349  22.860  1.00  0.00    -0.268 OA
ATOM      5  H   UNL A   1      32.914  30.312  24.957  1.00  0.00     0.163 HD
BRANCH   3   6
ATOM      6  C   UNL A   1      31.262  27.863  23.215  1.00  0.00     0.304 C 
BRANCH   6   7
ATOM      7  N   UNL A   1      31.503  27.482  21.797  1.00  0.00    -0.328 N 
ATOM      8  H   UNL A   1      30.652  27.678  21.271  1.00  0.00     0.347 HD
ATOM      9  H   UNL A   1      32.312  28.028  21.499  1.00  0.00     0.347 HD
BRANCH   7  10
ATOM     10  C   UNL A   1      31.859  26.101  21.565  1.00  0.00     0.323 C 
BRANCH  10  11
ATOM     11  C   UNL A   1      33.130  25.591  22.281  1.00  0.00     0.323 C 
BRANCH  11  12
ATOM     12  N   UNL A   1      33.034  24.481  23.244  1.00  0.00    -0.335 N 
ATOM     13  C   UNL A   1      31.694  23.933  23.398  1.00  0.00     0.332 C 
ATOM     14  C   UNL A   1      34.029  23.430  23.071  1.00  0.00     0.332 C 
ATOM     15  H   UNL A   1      33.262  24.937  24.127  1.00  0.00     0.347 HD
ENDBRANCH  11  12
ENDBRANCH  10  11
ENDBRANCH   7  10
ENDBRANCH   6   7
BRANCH   6  16
ATOM     16  C   UNL A   1      29.824  28.438  23.303  1.00  0.00     0.019 A 
ATOM     17  C   UNL A   1      28.714  27.578  23.409  1.00  0.00     0.010 A 
ATOM     18  C   UNL A   1      29.567  29.824  23.238  1.00  0.00     0.014 A 
ATOM     19  C   UNL A   1      27.413  28.062  23.330  1.00  0.00     0.001 A 
ATOM     20  C   UNL A   1      28.257  30.349  23.161  1.00  0.00    -0.044 A 
ATOM     21  C   UNL A   1      27.195  29.428  23.188  1.00  0.00     0.004 A 
BRANCH  20  22
ATOM     22  C   UNL A   1      27.928  31.822  23.009  1.00  0.00     0.019 C 
ATOM     23  C   UNL A   1      28.959  32.909  22.869  1.00  0.00     0.009 C 
ATOM     24  C   UNL A   1      28.156  32.488  21.673  1.00  0.00     0.009 C 
ENDBRANCH  20  22
ENDBRANCH   6  16
ENDBRANCH   3   6
ENDBRANCH   1   2
BRANCH   1  25
ATOM     25  C   UNL A   1      31.894  30.176  27.214  1.00  0.00     0.023 C 
BRANCH  25  26
ATOM     26  C   UNL A   1      31.839  31.600  26.688  1.00  0.00     0.023 C 
BRANCH  26  27
ATOM     27  C   UNL A   1      32.975  32.475  27.164  1.00  0.00     0.116 C 
BRANCH  27  28
ATOM     28  N   UNL A   1      32.553  33.833  27.486  1.00  0.00    -0.352 N 
ATOM     29  C   UNL A   1      33.013  34.670  28.476  1.00  0.00     0.251 C 
ATOM     30  H   UNL A   1      31.839  34.201  26.916  1.00  0.00     0.163 HD
ATOM     31  O   UNL A   1      32.462  35.737  28.698  1.00  0.00    -0.269 OA
BRANCH  29  32
ATOM     32  C   UNL A   1      34.164  34.236  29.290  1.00  0.00     0.039 A 
ATOM     33  C   UNL A   1      33.938  33.486  30.446  1.00  0.00     0.014 A 
ATOM     34  C   UNL A   1      35.464  34.510  28.862  1.00  0.00     0.014 A 
ATOM     35  C   UNL A   1      35.025  32.944  31.130  1.00  0.00     0.010 A 
ATOM     36  C   UNL A   1      36.531  33.872  29.471  1.00  0.00     0.010 A 
ATOM     37  C   UNL A   1      36.326  33.099  30.622  1.00  0.00    -0.014 A 
BRANCH  37  38
ATOM     38  C   UNL A   1      37.503  32.502  31.295  1.00  0.00     0.031 A 
ATOM     39  C   UNL A   1      38.246  31.385  30.618  1.00  0.00     0.074 A 
ATOM     40  C   UNL A   1      37.842  32.902  32.535  1.00  0.00     0.049 A 
ATOM     41  N   UNL A   1      39.227  30.648  31.070  1.00  0.00    -0.248 NA
ATOM     42  C   UNL A   1      37.794  31.014  29.265  1.00  0.00     0.031 C 
ATOM     43  C   UNL A   1      37.152  33.930  33.316  1.00  0.00     0.029 A 
ATOM     44  N   UNL A   1      38.851  32.479  33.363  1.00  0.00    -0.354 N 
ATOM     45  C   UNL A   1      39.484  29.716  30.074  1.00  0.00     0.074 A 
ATOM     46  C   UNL A   1      38.516  29.932  29.024  1.00  0.00     0.031 C 
ATOM     47  C   UNL A   1      37.775  34.079  34.496  1.00  0.00     0.029 A 
ATOM     48  C   UNL A   1      38.885  33.134  34.570  1.00  0.00     0.049 A 
ATOM     49  H   UNL A   1      39.489  31.772  33.116  1.00  0.00     0.167 HD
ATOM     50  C   UNL A   1      40.463  28.784  30.024  1.00  0.00     0.037 A 
ATOM     51  C   UNL A   1      39.721  32.984  35.614  1.00  0.00     0.037 A 
ATOM     52  C   UNL A   1      41.457  28.613  31.049  1.00  0.00     0.049 A 
ATOM     53  C   UNL A   1      40.824  31.964  35.518  1.00  0.00     0.074 A 
ATOM     54  C   UNL A   1      42.541  27.755  31.068  1.00  0.00     0.029 A 
ATOM     55  N   UNL A   1      41.489  29.330  32.238  1.00  0.00    -0.354 N 
ATOM     56  N   UNL A   1      41.105  31.136  34.541  1.00  0.00    -0.248 NA
ATOM     57  C   UNL A   1      41.732  31.864  36.670  1.00  0.00     0.031 C 
ATOM     58  C   UNL A   1      43.208  27.926  32.285  1.00  0.00     0.029 A 
ATOM     59  C   UNL A   1      42.566  28.922  33.004  1.00  0.00     0.049 A 
ATOM     60  H   UNL A   1      40.840  30.024  32.497  1.00  0.00     0.167 HD
ATOM     61  C   UNL A   1      42.235  30.438  34.944  1.00  0.00     0.074 A 
ATOM     62  C   UNL A   1      42.597  30.951  36.249  1.00  0.00     0.031 C 
ATOM     63  C   UNL A   1      42.912  29.460  34.295  1.00  0.00     0.037 A 
BRANCH  50  64
ATOM     64  C   UNL A   1      40.515  27.894  28.817  1.00  0.00     0.064 A 
ATOM     65  C   UNL A   1      41.270  28.235  27.684  1.00  0.00     0.173 A 
ATOM     66  C   UNL A   1      39.819  26.678  28.798  1.00  0.00     0.173 A 
ATOM     67  F   UNL A   1      41.941  29.397  27.643  1.00  0.00    -0.203 F 
ATOM     68  C   UNL A   1      41.299  27.406  26.565  1.00  0.00     0.198 A 
ATOM     69  C   UNL A   1      39.876  25.836  27.691  1.00  0.00     0.198 A 
ATOM     70  F   UNL A   1      39.082  26.303  29.856  1.00  0.00    -0.203 F 
ATOM     71  F   UNL A   1      41.982  27.780  25.475  1.00  0.00    -0.200 F 
ATOM     72  C   UNL A   1      40.609  26.203  26.573  1.00  0.00     0.200 A 
ATOM     73  F   UNL A   1      39.216  24.669  27.703  1.00  0.00    -0.200 F 
ATOM     74  F   UNL A   1      40.642  25.405  25.498  1.00  0.00    -0.200 F 
ENDBRANCH  50  64
BRANCH  51  75
ATOM     75  C   UNL A   1      39.576  33.844  36.816  1.00  0.00     0.064 A 
ATOM     76  C   UNL A   1      40.201  35.097  36.882  1.00  0.00     0.173 A 
ATOM     77  C   UNL A   1      38.817  33.436  37.922  1.00  0.00     0.173 A 
ATOM     78  F   UNL A   1      40.951  35.524  35.855  1.00  0.00    -0.203 F 
ATOM     79  C   UNL A   1      40.094  35.898  38.016  1.00  0.00     0.198 A 
ATOM     80  C   UNL A   1      38.688  34.250  39.046  1.00  0.00     0.198 A 
ATOM     81  F   UNL A   1      38.193  32.249  37.908  1.00  0.00    -0.203 F 
ATOM     82  F   UNL A   1      40.740  37.071  38.069  1.00  0.00    -0.200 F 
ATOM     83  C   UNL A   1      39.334  35.476  39.096  1.00  0.00     0.200 A 
ATOM     84  F   UNL A   1      37.940  33.845  40.083  1.00  0.00    -0.200 F 
ATOM     85  F   UNL A   1      39.229  36.247  40.187  1.00  0.00    -0.200 F 
ENDBRANCH  51  75
BRANCH  63  86
ATOM     86  C   UNL A   1      44.132  28.908  34.969  1.00  0.00     0.064 A 
ATOM     87  C   UNL A   1      45.395  29.495  34.796  1.00  0.00     0.173 A 
ATOM     88  C   UNL A   1      44.027  27.810  35.835  1.00  0.00     0.173 A 
ATOM     89  F   UNL A   1      45.545  30.538  33.967  1.00  0.00    -0.203 F 
ATOM     90  C   UNL A   1      46.513  28.985  35.449  1.00  0.00     0.198 A 
ATOM     91  C   UNL A   1      45.142  27.322  36.510  1.00  0.00     0.198 A 
ATOM     92  F   UNL A   1      42.839  27.221  36.039  1.00  0.00    -0.203 F 
ATOM     93  F   UNL A   1      47.717  29.533  35.237  1.00  0.00    -0.200 F 
ATOM     94  C   UNL A   1      46.384  27.906  36.312  1.00  0.00     0.200 A 
ATOM     95  F   UNL A   1      45.014  26.289  37.352  1.00  0.00    -0.200 F 
ATOM     96  F   UNL A   1      47.461  27.424  36.947  1.00  0.00    -0.200 F 
ENDBRANCH  63  86
ENDBRANCH  37  38
ENDBRANCH  29  32
ENDBRANCH  27  28
ENDBRANCH  26  27
ENDBRANCH  25  26
ENDBRANCH   1  25
TORSDOF 17
ENDMDL
