MODEL 1
REMARK VINA RESULT:     -13.1      0.000      0.000
REMARK SMILES COc1cccc(N2C(=O)/C(=C/c3ccccc3C(=O)NCCCCNC(=O)c3ccc(-c4c5nc(c(-c6c(F)c(F)c(F)c(F)c6F)c6ccc([nH]6)c(-c6c(F)c(F)c(F)c(F)c6F)c6nc(c(-c7c(F)c(F)c(F)c(F)c7F)c7ccc4[nH]7)C=C6)C=C5)cc3)SC2=S)c1
REMARK SMILES IDX 23 1 22 2 21 3 19 4 20 5 18 7 13 8 14 9 15 10 17 11 16 12
REMARK SMILES IDX 12 13 8 14 9 15 93 16 10 17 11 18 92 19 94 20 7 21 3 22 4 23
REMARK SMILES IDX 95 24 5 25 6 26 2 27 1 28 24 29 25 30 26 31 27 32 28 34
REMARK SMILES IDX 29 35 30 36 91 37 31 38 90 39 32 40 33 41 34 42 84 43 35 44
REMARK SMILES IDX 89 45 83 46 85 47 36 48 88 49 82 50 81 51 37 53 69 54 49 55
REMARK SMILES IDX 68 56 50 57 53 58 67 59 86 60 51 61 52 62 66 64 87 65 54 66
REMARK SMILES IDX 38 67 39 68 47 69 40 70 41 71 45 72 48 73 42 74 43 75 46 76
REMARK SMILES IDX 44 77 70 78 71 79 79 80 72 81 73 82 77 83 80 84 74 85 75 86
REMARK SMILES IDX 78 87 76 88 55 89 56 90 64 91 57 92 58 93 62 94 65 95 59 96
REMARK SMILES IDX 60 97 63 98 61 99
REMARK H PARENT 21 6 26 33 85 52 53 63
REMARK Flexibility Score: inf
ROOT
ATOM      1  C   UNL A   1      38.117  23.380  26.081  1.00  0.00     0.023 C 
ENDROOT
BRANCH   1   2
ATOM      2  C   UNL A   1      36.649  23.152  25.761  1.00  0.00     0.116 C 
BRANCH   2   3
ATOM      3  N   UNL A   1      35.780  22.918  26.895  1.00  0.00    -0.352 N 
ATOM      4  C   UNL A   1      34.528  22.344  26.936  1.00  0.00     0.251 C 
ATOM      5  O   UNL A   1      33.998  22.180  28.034  1.00  0.00    -0.269 OA
ATOM      6  H   UNL A   1      36.137  23.213  27.765  1.00  0.00     0.163 HD
BRANCH   4   7
ATOM      7  C   UNL A   1      33.754  22.015  25.704  1.00  0.00     0.047 A 
ATOM      8  C   UNL A   1      32.743  22.805  25.116  1.00  0.00    -0.012 A 
ATOM      9  C   UNL A   1      32.020  22.270  24.032  1.00  0.00     0.009 A 
ATOM     10  C   UNL A   1      32.337  21.019  23.495  1.00  0.00     0.001 A 
ATOM     11  C   UNL A   1      34.099  20.782  25.115  1.00  0.00     0.014 A 
ATOM     12  C   UNL A   1      33.394  20.286  24.019  1.00  0.00     0.001 A 
BRANCH   8  13
ATOM     13  C   UNL A   1      32.303  24.122  25.602  1.00  0.00     0.030 C 
ATOM     14  N   UNL A   1      32.640  27.688  25.097  1.00  0.00    -0.261 N 
ATOM     15  C   UNL A   1      32.239  26.574  25.823  1.00  0.00     0.270 C 
ATOM     16  C   UNL A   1      33.265  27.431  23.883  1.00  0.00     0.152 C 
ATOM     17  O   UNL A   1      31.758  26.548  26.955  1.00  0.00    -0.268 OA
ATOM     18  C   UNL A   1      32.529  25.327  25.061  1.00  0.00     0.081 C 
ATOM     19  S   UNL A   1      33.242  25.698  23.553  1.00  0.00    -0.054 SA
ATOM     20  S   UNL A   1      34.068  28.485  22.860  1.00  0.00    -0.051 S 
BRANCH  14  21
ATOM     21  C   UNL A   1      32.501  28.996  25.646  1.00  0.00     0.054 A 
ATOM     22  C   UNL A   1      33.247  30.772  27.111  1.00  0.00     0.120 A 
ATOM     23  C   UNL A   1      32.116  31.523  26.826  1.00  0.00     0.046 A 
ATOM     24  C   UNL A   1      33.434  29.503  26.555  1.00  0.00     0.073 A 
ATOM     25  C   UNL A   1      31.211  31.043  25.893  1.00  0.00     0.006 A 
ATOM     26  C   UNL A   1      31.409  29.796  25.290  1.00  0.00     0.027 A 
BRANCH  22  27
ATOM     27  O   UNL A   1      34.171  31.301  27.968  1.00  0.00    -0.497 OA
ATOM     28  C   UNL A   1      33.909  32.695  28.144  1.00  0.00     0.278 C 
ENDBRANCH  22  27
ENDBRANCH  14  21
ENDBRANCH   8  13
ENDBRANCH   4   7
ENDBRANCH   2   3
ENDBRANCH   1   2
BRANCH   1  29
ATOM     29  C   UNL A   1      38.964  22.140  26.360  1.00  0.00     0.023 C 
BRANCH  29  30
ATOM     30  C   UNL A   1      38.832  20.963  25.394  1.00  0.00     0.116 C 
BRANCH  30  31
ATOM     31  N   UNL A   1      39.730  19.860  25.678  1.00  0.00    -0.352 N 
ATOM     32  C   UNL A   1      41.045  19.832  26.073  1.00  0.00     0.251 C 
ATOM     33  H   UNL A   1      39.324  18.971  25.564  1.00  0.00     0.163 HD
ATOM     34  O   UNL A   1      41.597  18.733  26.143  1.00  0.00    -0.269 OA
BRANCH  32  35
ATOM     35  C   UNL A   1      41.828  21.048  26.444  1.00  0.00     0.039 A 
ATOM     36  C   UNL A   1      42.340  21.831  25.393  1.00  0.00     0.014 A 
ATOM     37  C   UNL A   1      42.180  21.385  27.756  1.00  0.00     0.014 A 
ATOM     38  C   UNL A   1      43.107  22.970  25.655  1.00  0.00     0.010 A 
ATOM     39  C   UNL A   1      42.902  22.548  28.027  1.00  0.00     0.010 A 
ATOM     40  C   UNL A   1      43.332  23.368  26.979  1.00  0.00    -0.014 A 
BRANCH  40  41
ATOM     41  C   UNL A   1      43.750  24.753  27.288  1.00  0.00     0.031 A 
ATOM     42  C   UNL A   1      45.186  25.169  27.350  1.00  0.00     0.074 A 
ATOM     43  C   UNL A   1      42.764  25.594  27.653  1.00  0.00     0.049 A 
ATOM     44  N   UNL A   1      45.686  26.345  27.633  1.00  0.00    -0.248 NA
ATOM     45  C   UNL A   1      46.195  24.135  27.080  1.00  0.00     0.031 C 
ATOM     46  C   UNL A   1      41.341  25.235  27.714  1.00  0.00     0.029 A 
ATOM     47  N   UNL A   1      42.791  26.897  28.069  1.00  0.00    -0.354 N 
ATOM     48  C   UNL A   1      47.064  26.200  27.570  1.00  0.00     0.074 A 
ATOM     49  C   UNL A   1      47.326  24.810  27.257  1.00  0.00     0.031 C 
ATOM     50  C   UNL A   1      40.636  26.290  28.138  1.00  0.00     0.029 A 
ATOM     51  C   UNL A   1      41.553  27.389  28.402  1.00  0.00     0.049 A 
ATOM     52  H   UNL A   1      43.618  27.431  28.124  1.00  0.00     0.167 HD
ATOM     53  C   UNL A   1      48.011  27.154  27.754  1.00  0.00     0.037 A 
ATOM     54  C   UNL A   1      41.195  28.594  28.873  1.00  0.00     0.037 A 
ATOM     55  C   UNL A   1      47.711  28.527  28.091  1.00  0.00     0.049 A 
ATOM     56  C   UNL A   1      42.263  29.630  29.047  1.00  0.00     0.074 A 
ATOM     57  C   UNL A   1      48.579  29.598  28.217  1.00  0.00     0.029 A 
ATOM     58  N   UNL A   1      46.441  29.009  28.382  1.00  0.00    -0.354 N 
ATOM     59  N   UNL A   1      43.556  29.521  28.855  1.00  0.00    -0.248 NA
ATOM     60  C   UNL A   1      41.825  30.960  29.479  1.00  0.00     0.031 C 
ATOM     61  C   UNL A   1      47.844  30.710  28.643  1.00  0.00     0.029 A 
ATOM     62  C   UNL A   1      46.507  30.352  28.722  1.00  0.00     0.049 A 
ATOM     63  H   UNL A   1      45.615  28.475  28.352  1.00  0.00     0.167 HD
ATOM     64  C   UNL A   1      44.086  30.773  29.116  1.00  0.00     0.074 A 
ATOM     65  C   UNL A   1      42.967  31.631  29.457  1.00  0.00     0.031 C 
ATOM     66  C   UNL A   1      45.379  31.179  29.075  1.00  0.00     0.037 A 
BRANCH  53  67
ATOM     67  C   UNL A   1      49.457  26.764  27.598  1.00  0.00     0.064 A 
ATOM     68  C   UNL A   1      50.278  26.519  28.709  1.00  0.00     0.173 A 
ATOM     69  C   UNL A   1      50.007  26.547  26.324  1.00  0.00     0.173 A 
ATOM     70  F   UNL A   1      49.809  26.708  29.952  1.00  0.00    -0.203 F 
ATOM     71  C   UNL A   1      51.596  26.090  28.552  1.00  0.00     0.198 A 
ATOM     72  C   UNL A   1      51.314  26.091  26.170  1.00  0.00     0.198 A 
ATOM     73  F   UNL A   1      49.267  26.752  25.225  1.00  0.00    -0.203 F 
ATOM     74  F   UNL A   1      52.368  25.890  29.629  1.00  0.00    -0.200 F 
ATOM     75  C   UNL A   1      52.110  25.868  27.283  1.00  0.00     0.200 A 
ATOM     76  F   UNL A   1      51.804  25.858  24.944  1.00  0.00    -0.200 F 
ATOM     77  F   UNL A   1      53.370  25.437  27.135  1.00  0.00    -0.200 F 
ENDBRANCH  53  67
BRANCH  54  78
ATOM     78  C   UNL A   1      39.764  28.881  29.142  1.00  0.00     0.064 A 
ATOM     79  C   UNL A   1      38.909  29.288  28.108  1.00  0.00     0.173 A 
ATOM     80  C   UNL A   1      39.208  28.699  30.417  1.00  0.00     0.173 A 
ATOM     81  F   UNL A   1      39.396  29.478  26.873  1.00  0.00    -0.203 F 
ATOM     82  C   UNL A   1      37.557  29.523  28.343  1.00  0.00     0.198 A 
ATOM     83  C   UNL A   1      37.848  28.904  30.644  1.00  0.00     0.198 A 
ATOM     84  F   UNL A   1      39.978  28.287  31.435  1.00  0.00    -0.203 F 
ATOM     85  F   UNL A   1      36.770  29.944  27.345  1.00  0.00    -0.200 F 
ATOM     86  C   UNL A   1      37.026  29.324  29.609  1.00  0.00     0.200 A 
ATOM     87  F   UNL A   1      37.334  28.685  31.862  1.00  0.00    -0.200 F 
ATOM     88  F   UNL A   1      35.721  29.534  29.831  1.00  0.00    -0.200 F 
ENDBRANCH  54  78
BRANCH  66  89
ATOM     89  C   UNL A   1      45.632  32.624  29.392  1.00  0.00     0.064 A 
ATOM     90  C   UNL A   1      45.606  33.611  28.396  1.00  0.00     0.173 A 
ATOM     91  C   UNL A   1      45.914  33.022  30.708  1.00  0.00     0.173 A 
ATOM     92  F   UNL A   1      45.363  33.277  27.119  1.00  0.00    -0.203 F 
ATOM     93  C   UNL A   1      45.899  34.938  28.698  1.00  0.00     0.198 A 
ATOM     94  C   UNL A   1      46.169  34.355  31.012  1.00  0.00     0.198 A 
ATOM     95  F   UNL A   1      45.946  32.117  31.697  1.00  0.00    -0.203 F 
ATOM     96  F   UNL A   1      45.941  35.851  27.719  1.00  0.00    -0.200 F 
ATOM     97  C   UNL A   1      46.175  35.310  30.005  1.00  0.00     0.200 A 
ATOM     98  F   UNL A   1      46.424  34.714  32.277  1.00  0.00    -0.200 F 
ATOM     99  F   UNL A   1      46.460  36.586  30.295  1.00  0.00    -0.200 F 
ENDBRANCH  66  89
ENDBRANCH  40  41
ENDBRANCH  32  35
ENDBRANCH  30  31
ENDBRANCH  29  30
ENDBRANCH   1  29
TORSDOF 14
ENDMDL
MODEL 2
REMARK VINA RESULT:     -13.1      4.654     10.493
REMARK SMILES COc1cccc(N2C(=O)/C(=C/c3ccccc3C(=O)NCCCCNC(=O)c3ccc(-c4c5nc(c(-c6c(F)c(F)c(F)c(F)c6F)c6ccc([nH]6)c(-c6c(F)c(F)c(F)c(F)c6F)c6nc(c(-c7c(F)c(F)c(F)c(F)c7F)c7ccc4[nH]7)C=C6)C=C5)cc3)SC2=S)c1
REMARK SMILES IDX 23 1 22 2 21 3 19 4 20 5 18 7 13 8 14 9 15 10 17 11 16 12
REMARK SMILES IDX 12 13 8 14 9 15 93 16 10 17 11 18 92 19 94 20 7 21 3 22 4 23
REMARK SMILES IDX 95 24 5 25 6 26 2 27 1 28 24 29 25 30 26 31 27 32 28 34
REMARK SMILES IDX 29 35 30 36 91 37 31 38 90 39 32 40 33 41 34 42 84 43 35 44
REMARK SMILES IDX 89 45 83 46 85 47 36 48 88 49 82 50 81 51 37 53 69 54 49 55
REMARK SMILES IDX 68 56 50 57 53 58 67 59 86 60 51 61 52 62 66 64 87 65 54 66
REMARK SMILES IDX 38 67 39 68 47 69 40 70 41 71 45 72 48 73 42 74 43 75 46 76
REMARK SMILES IDX 44 77 70 78 71 79 79 80 72 81 73 82 77 83 80 84 74 85 75 86
REMARK SMILES IDX 78 87 76 88 55 89 56 90 64 91 57 92 58 93 62 94 65 95 59 96
REMARK SMILES IDX 60 97 63 98 61 99
REMARK H PARENT 21 6 26 33 85 52 53 63
REMARK Flexibility Score: inf
ROOT
ATOM      1  C   UNL A   1      31.031  30.979  26.006  1.00  0.00     0.023 C 
ENDROOT
BRANCH   1   2
ATOM      2  C   UNL A   1      32.146  29.947  25.979  1.00  0.00     0.116 C 
BRANCH   2   3
ATOM      3  N   UNL A   1      32.685  29.629  24.674  1.00  0.00    -0.352 N 
ATOM      4  C   UNL A   1      32.034  29.203  23.536  1.00  0.00     0.251 C 
ATOM      5  O   UNL A   1      32.692  29.059  22.507  1.00  0.00    -0.269 OA
ATOM      6  H   UNL A   1      33.661  29.731  24.586  1.00  0.00     0.163 HD
BRANCH   4   7
ATOM      7  C   UNL A   1      30.594  28.812  23.533  1.00  0.00     0.047 A 
ATOM      8  C   UNL A   1      30.064  27.572  23.948  1.00  0.00    -0.012 A 
ATOM      9  C   UNL A   1      28.693  27.326  23.743  1.00  0.00     0.009 A 
ATOM     10  C   UNL A   1      27.851  28.308  23.212  1.00  0.00     0.001 A 
ATOM     11  C   UNL A   1      29.724  29.810  23.054  1.00  0.00     0.014 A 
ATOM     12  C   UNL A   1      28.361  29.560  22.892  1.00  0.00     0.001 A 
BRANCH   8  13
ATOM     13  C   UNL A   1      30.848  26.453  24.497  1.00  0.00     0.030 C 
ATOM     14  N   UNL A   1      32.744  23.502  23.617  1.00  0.00    -0.261 N 
ATOM     15  C   UNL A   1      32.094  24.329  24.523  1.00  0.00     0.270 C 
ATOM     16  C   UNL A   1      32.733  23.920  22.292  1.00  0.00     0.152 C 
ATOM     17  O   UNL A   1      31.892  24.123  25.719  1.00  0.00    -0.268 OA
ATOM     18  C   UNL A   1      31.582  25.548  23.836  1.00  0.00     0.081 C 
ATOM     19  S   UNL A   1      31.982  25.512  22.175  1.00  0.00    -0.054 SA
ATOM     20  S   UNL A   1      33.204  23.094  20.915  1.00  0.00    -0.051 S 
BRANCH  14  21
ATOM     21  C   UNL A   1      33.281  22.250  24.040  1.00  0.00     0.054 A 
ATOM     22  C   UNL A   1      33.029  19.899  24.556  1.00  0.00     0.120 A 
ATOM     23  C   UNL A   1      34.335  19.831  25.021  1.00  0.00     0.046 A 
ATOM     24  C   UNL A   1      32.486  21.101  24.095  1.00  0.00     0.073 A 
ATOM     25  C   UNL A   1      35.138  20.956  24.927  1.00  0.00     0.006 A 
ATOM     26  C   UNL A   1      34.623  22.155  24.422  1.00  0.00     0.027 A 
BRANCH  22  27
ATOM     27  O   UNL A   1      32.279  18.757  24.577  1.00  0.00    -0.497 OA
ATOM     28  C   UNL A   1      32.625  17.985  25.729  1.00  0.00     0.278 C 
ENDBRANCH  22  27
ENDBRANCH  14  21
ENDBRANCH   8  13
ENDBRANCH   4   7
ENDBRANCH   2   3
ENDBRANCH   1   2
BRANCH   1  29
ATOM     29  C   UNL A   1      31.428  32.417  26.337  1.00  0.00     0.023 C 
BRANCH  29  30
ATOM     30  C   UNL A   1      32.314  32.640  27.561  1.00  0.00     0.116 C 
BRANCH  30  31
ATOM     31  N   UNL A   1      32.961  33.938  27.595  1.00  0.00    -0.352 N 
ATOM     32  C   UNL A   1      34.186  34.336  28.073  1.00  0.00     0.251 C 
ATOM     33  H   UNL A   1      32.424  34.666  27.207  1.00  0.00     0.163 HD
ATOM     34  O   UNL A   1      34.439  35.542  28.063  1.00  0.00    -0.269 OA
BRANCH  32  35
ATOM     35  C   UNL A   1      35.228  33.393  28.574  1.00  0.00     0.039 A 
ATOM     36  C   UNL A   1      36.571  33.797  28.462  1.00  0.00     0.014 A 
ATOM     37  C   UNL A   1      34.960  32.097  29.032  1.00  0.00     0.014 A 
ATOM     38  C   UNL A   1      37.610  32.960  28.882  1.00  0.00     0.010 A 
ATOM     39  C   UNL A   1      35.987  31.277  29.500  1.00  0.00     0.010 A 
ATOM     40  C   UNL A   1      37.313  31.722  29.466  1.00  0.00    -0.014 A 
BRANCH  40  41
ATOM     41  C   UNL A   1      38.318  31.019  30.293  1.00  0.00     0.031 A 
ATOM     42  C   UNL A   1      38.589  31.383  31.718  1.00  0.00     0.074 A 
ATOM     43  C   UNL A   1      39.083  30.119  29.645  1.00  0.00     0.049 A 
ATOM     44  N   UNL A   1      39.460  30.862  32.545  1.00  0.00    -0.248 NA
ATOM     45  C   UNL A   1      37.801  32.484  32.290  1.00  0.00     0.031 C 
ATOM     46  C   UNL A   1      38.945  29.777  28.224  1.00  0.00     0.029 A 
ATOM     47  N   UNL A   1      40.135  29.353  30.067  1.00  0.00    -0.354 N 
ATOM     48  C   UNL A   1      39.323  31.561  33.736  1.00  0.00     0.074 A 
ATOM     49  C   UNL A   1      38.309  32.572  33.514  1.00  0.00     0.031 C 
ATOM     50  C   UNL A   1      39.874  28.872  27.894  1.00  0.00     0.029 A 
ATOM     51  C   UNL A   1      40.685  28.587  29.069  1.00  0.00     0.049 A 
ATOM     52  H   UNL A   1      40.465  29.351  30.995  1.00  0.00     0.167 HD
ATOM     53  C   UNL A   1      39.989  31.360  34.901  1.00  0.00     0.037 A 
ATOM     54  C   UNL A   1      41.733  27.748  29.096  1.00  0.00     0.037 A 
ATOM     55  C   UNL A   1      41.014  30.357  35.075  1.00  0.00     0.049 A 
ATOM     56  C   UNL A   1      42.434  27.535  30.403  1.00  0.00     0.074 A 
ATOM     57  C   UNL A   1      41.694  30.004  36.228  1.00  0.00     0.029 A 
ATOM     58  N   UNL A   1      41.524  29.563  34.055  1.00  0.00    -0.354 N 
ATOM     59  N   UNL A   1      42.209  28.107  31.561  1.00  0.00    -0.248 NA
ATOM     60  C   UNL A   1      43.516  26.547  30.415  1.00  0.00     0.031 C 
ATOM     61  C   UNL A   1      42.655  29.043  35.893  1.00  0.00     0.029 A 
ATOM     62  C   UNL A   1      42.533  28.747  34.544  1.00  0.00     0.049 A 
ATOM     63  H   UNL A   1      41.214  29.578  33.121  1.00  0.00     0.167 HD
ATOM     64  C   UNL A   1      43.101  27.531  32.449  1.00  0.00     0.074 A 
ATOM     65  C   UNL A   1      43.856  26.547  31.695  1.00  0.00     0.031 C 
ATOM     66  C   UNL A   1      43.281  27.788  33.768  1.00  0.00     0.037 A 
BRANCH  53  67
ATOM     67  C   UNL A   1      39.642  32.229  36.080  1.00  0.00     0.064 A 
ATOM     68  C   UNL A   1      40.336  33.419  36.349  1.00  0.00     0.173 A 
ATOM     69  C   UNL A   1      38.547  31.917  36.902  1.00  0.00     0.173 A 
ATOM     70  F   UNL A   1      41.391  33.771  35.597  1.00  0.00    -0.203 F 
ATOM     71  C   UNL A   1      39.961  34.252  37.403  1.00  0.00     0.198 A 
ATOM     72  C   UNL A   1      38.156  32.765  37.937  1.00  0.00     0.198 A 
ATOM     73  F   UNL A   1      37.837  30.800  36.687  1.00  0.00    -0.203 F 
ATOM     74  F   UNL A   1      40.658  35.368  37.655  1.00  0.00    -0.200 F 
ATOM     75  C   UNL A   1      38.866  33.928  38.190  1.00  0.00     0.200 A 
ATOM     76  F   UNL A   1      37.086  32.461  38.685  1.00  0.00    -0.200 F 
ATOM     77  F   UNL A   1      38.494  34.740  39.189  1.00  0.00    -0.200 F 
ENDBRANCH  53  67
BRANCH  54  78
ATOM     78  C   UNL A   1      42.119  27.017  27.864  1.00  0.00     0.064 A 
ATOM     79  C   UNL A   1      43.058  27.559  26.975  1.00  0.00     0.173 A 
ATOM     80  C   UNL A   1      41.608  25.742  27.577  1.00  0.00     0.173 A 
ATOM     81  F   UNL A   1      43.573  28.775  27.206  1.00  0.00    -0.203 F 
ATOM     82  C   UNL A   1      43.455  26.863  25.836  1.00  0.00     0.198 A 
ATOM     83  C   UNL A   1      42.030  25.034  26.454  1.00  0.00     0.198 A 
ATOM     84  F   UNL A   1      40.725  25.169  28.409  1.00  0.00    -0.203 F 
ATOM     85  F   UNL A   1      44.328  27.419  24.986  1.00  0.00    -0.200 F 
ATOM     86  C   UNL A   1      42.947  25.598  25.580  1.00  0.00     0.200 A 
ATOM     87  F   UNL A   1      41.556  23.801  26.224  1.00  0.00    -0.200 F 
ATOM     88  F   UNL A   1      43.342  24.923  24.492  1.00  0.00    -0.200 F 
ENDBRANCH  54  78
BRANCH  66  89
ATOM     89  C   UNL A   1      44.326  26.971  34.469  1.00  0.00     0.064 A 
ATOM     90  C   UNL A   1      45.652  27.414  34.582  1.00  0.00     0.173 A 
ATOM     91  C   UNL A   1      43.997  25.724  35.023  1.00  0.00     0.173 A 
ATOM     92  F   UNL A   1      46.020  28.589  34.048  1.00  0.00    -0.203 F 
ATOM     93  C   UNL A   1      46.621  26.618  35.186  1.00  0.00     0.198 A 
ATOM     94  C   UNL A   1      44.961  24.948  35.659  1.00  0.00     0.198 A 
ATOM     95  F   UNL A   1      42.742  25.258  34.946  1.00  0.00    -0.203 F 
ATOM     96  F   UNL A   1      47.896  27.028  35.217  1.00  0.00    -0.200 F 
ATOM     97  C   UNL A   1      46.275  25.390  35.727  1.00  0.00     0.200 A 
ATOM     98  F   UNL A   1      44.622  23.768  36.192  1.00  0.00    -0.200 F 
ATOM     99  F   UNL A   1      47.209  24.622  36.305  1.00  0.00    -0.200 F 
ENDBRANCH  66  89
ENDBRANCH  40  41
ENDBRANCH  32  35
ENDBRANCH  30  31
ENDBRANCH  29  30
ENDBRANCH   1  29
TORSDOF 14
ENDMDL
MODEL 3
REMARK VINA RESULT:     -13.1      1.779      7.495
REMARK SMILES COc1cccc(N2C(=O)/C(=C/c3ccccc3C(=O)NCCCCNC(=O)c3ccc(-c4c5nc(c(-c6c(F)c(F)c(F)c(F)c6F)c6ccc([nH]6)c(-c6c(F)c(F)c(F)c(F)c6F)c6nc(c(-c7c(F)c(F)c(F)c(F)c7F)c7ccc4[nH]7)C=C6)C=C5)cc3)SC2=S)c1
REMARK SMILES IDX 23 1 22 2 21 3 19 4 20 5 18 7 13 8 14 9 15 10 17 11 16 12
REMARK SMILES IDX 12 13 8 14 9 15 93 16 10 17 11 18 92 19 94 20 7 21 3 22 4 23
REMARK SMILES IDX 95 24 5 25 6 26 2 27 1 28 24 29 25 30 26 31 27 32 28 34
REMARK SMILES IDX 29 35 30 36 91 37 31 38 90 39 32 40 33 41 34 42 84 43 35 44
REMARK SMILES IDX 89 45 83 46 85 47 36 48 88 49 82 50 81 51 37 53 69 54 49 55
REMARK SMILES IDX 68 56 50 57 53 58 67 59 86 60 51 61 52 62 66 64 87 65 54 66
REMARK SMILES IDX 38 67 39 68 47 69 40 70 41 71 45 72 48 73 42 74 43 75 46 76
REMARK SMILES IDX 44 77 70 78 71 79 79 80 72 81 73 82 77 83 80 84 74 85 75 86
REMARK SMILES IDX 78 87 76 88 55 89 56 90 64 91 57 92 58 93 62 94 65 95 59 96
REMARK SMILES IDX 60 97 63 98 61 99
REMARK H PARENT 21 6 26 33 85 52 53 63
REMARK Flexibility Score: inf
ROOT
ATOM      1  C   UNL A   1      36.741  20.225  25.002  1.00  0.00     0.023 C 
ENDROOT
BRANCH   1   2
ATOM      2  C   UNL A   1      36.335  21.585  25.547  1.00  0.00     0.116 C 
BRANCH   2   3
ATOM      3  N   UNL A   1      35.281  21.584  26.538  1.00  0.00    -0.352 N 
ATOM      4  C   UNL A   1      34.028  21.011  26.485  1.00  0.00     0.251 C 
ATOM      5  O   UNL A   1      33.315  21.078  27.484  1.00  0.00    -0.269 OA
ATOM      6  H   UNL A   1      35.488  22.065  27.372  1.00  0.00     0.163 HD
BRANCH   4   7
ATOM      7  C   UNL A   1      33.470  20.413  25.237  1.00  0.00     0.047 A 
ATOM      8  C   UNL A   1      32.980  21.118  24.118  1.00  0.00    -0.012 A 
ATOM      9  C   UNL A   1      32.359  20.390  23.085  1.00  0.00     0.009 A 
ATOM     10  C   UNL A   1      32.292  18.994  23.121  1.00  0.00     0.001 A 
ATOM     11  C   UNL A   1      33.447  19.004  25.231  1.00  0.00     0.014 A 
ATOM     12  C   UNL A   1      32.859  18.299  24.181  1.00  0.00     0.001 A 
BRANCH   8  13
ATOM     13  C   UNL A   1      32.972  22.583  23.974  1.00  0.00     0.030 C 
ATOM     14  N   UNL A   1      31.118  25.588  24.762  1.00  0.00    -0.261 N 
ATOM     15  C   UNL A   1      32.109  24.887  24.087  1.00  0.00     0.270 C 
ATOM     16  C   UNL A   1      30.345  24.848  25.649  1.00  0.00     0.152 C 
ATOM     17  O   UNL A   1      32.847  25.301  23.194  1.00  0.00    -0.268 OA
ATOM     18  C   UNL A   1      32.147  23.470  24.547  1.00  0.00     0.081 C 
ATOM     19  S   UNL A   1      30.968  23.201  25.755  1.00  0.00    -0.054 SA
ATOM     20  S   UNL A   1      28.946  25.286  26.455  1.00  0.00    -0.051 S 
BRANCH  14  21
ATOM     21  C   UNL A   1      30.867  26.957  24.456  1.00  0.00     0.054 A 
ATOM     22  C   UNL A   1      29.815  28.671  23.110  1.00  0.00     0.120 A 
ATOM     23  C   UNL A   1      30.508  29.667  23.782  1.00  0.00     0.046 A 
ATOM     24  C   UNL A   1      30.007  27.321  23.415  1.00  0.00     0.073 A 
ATOM     25  C   UNL A   1      31.328  29.313  24.842  1.00  0.00     0.006 A 
ATOM     26  C   UNL A   1      31.493  27.969  25.192  1.00  0.00     0.027 A 
BRANCH  22  27
ATOM     27  O   UNL A   1      28.946  29.046  22.124  1.00  0.00    -0.497 OA
ATOM     28  C   UNL A   1      29.313  30.340  21.637  1.00  0.00     0.278 C 
ENDBRANCH  22  27
ENDBRANCH  14  21
ENDBRANCH   8  13
ENDBRANCH   4   7
ENDBRANCH   2   3
ENDBRANCH   1   2
BRANCH   1  29
ATOM     29  C   UNL A   1      38.222  20.020  24.687  1.00  0.00     0.023 C 
BRANCH  29  30
ATOM     30  C   UNL A   1      39.222  20.255  25.818  1.00  0.00     0.116 C 
BRANCH  30  31
ATOM     31  N   UNL A   1      40.268  19.254  25.900  1.00  0.00    -0.352 N 
ATOM     32  C   UNL A   1      41.615  19.358  26.150  1.00  0.00     0.251 C 
ATOM     33  H   UNL A   1      39.957  18.332  25.747  1.00  0.00     0.163 HD
ATOM     34  O   UNL A   1      42.294  18.335  26.058  1.00  0.00    -0.269 OA
BRANCH  32  35
ATOM     35  C   UNL A   1      42.289  20.629  26.549  1.00  0.00     0.039 A 
ATOM     36  C   UNL A   1      42.970  21.341  25.545  1.00  0.00     0.014 A 
ATOM     37  C   UNL A   1      42.386  21.085  27.869  1.00  0.00     0.014 A 
ATOM     38  C   UNL A   1      43.651  22.526  25.841  1.00  0.00     0.010 A 
ATOM     39  C   UNL A   1      43.020  22.292  28.165  1.00  0.00     0.010 A 
ATOM     40  C   UNL A   1      43.619  23.039  27.145  1.00  0.00    -0.014 A 
BRANCH  40  41
ATOM     41  C   UNL A   1      43.944  24.460  27.403  1.00  0.00     0.031 A 
ATOM     42  C   UNL A   1      42.906  25.469  27.779  1.00  0.00     0.074 A 
ATOM     43  C   UNL A   1      45.212  24.827  27.140  1.00  0.00     0.049 A 
ATOM     44  N   UNL A   1      43.055  26.749  28.008  1.00  0.00    -0.248 NA
ATOM     45  C   UNL A   1      41.520  24.994  27.894  1.00  0.00     0.031 C 
ATOM     46  C   UNL A   1      46.265  23.916  26.673  1.00  0.00     0.029 A 
ATOM     47  N   UNL A   1      45.832  26.046  27.192  1.00  0.00    -0.354 N 
ATOM     48  C   UNL A   1      41.789  27.235  28.303  1.00  0.00     0.074 A 
ATOM     49  C   UNL A   1      40.874  26.118  28.187  1.00  0.00     0.031 C 
ATOM     50  C   UNL A   1      47.396  24.605  26.484  1.00  0.00     0.029 A 
ATOM     51  C   UNL A   1      47.145  26.006  26.792  1.00  0.00     0.049 A 
ATOM     52  H   UNL A   1      45.381  26.870  27.488  1.00  0.00     0.167 HD
ATOM     53  C   UNL A   1      41.442  28.502  28.642  1.00  0.00     0.037 A 
ATOM     54  C   UNL A   1      48.049  26.992  26.681  1.00  0.00     0.037 A 
ATOM     55  C   UNL A   1      42.381  29.597  28.722  1.00  0.00     0.049 A 
ATOM     56  C   UNL A   1      47.638  28.376  27.083  1.00  0.00     0.074 A 
ATOM     57  C   UNL A   1      42.162  30.899  29.139  1.00  0.00     0.029 A 
ATOM     58  N   UNL A   1      43.718  29.518  28.351  1.00  0.00    -0.354 N 
ATOM     59  N   UNL A   1      46.466  28.801  27.490  1.00  0.00    -0.248 NA
ATOM     60  C   UNL A   1      48.674  29.411  27.032  1.00  0.00     0.031 C 
ATOM     61  C   UNL A   1      43.347  31.622  28.961  1.00  0.00     0.029 A 
ATOM     62  C   UNL A   1      44.326  30.757  28.495  1.00  0.00     0.049 A 
ATOM     63  H   UNL A   1      44.168  28.703  28.032  1.00  0.00     0.167 HD
ATOM     64  C   UNL A   1      46.627  30.147  27.771  1.00  0.00     0.074 A 
ATOM     65  C   UNL A   1      48.020  30.459  27.509  1.00  0.00     0.031 C 
ATOM     66  C   UNL A   1      45.710  31.045  28.210  1.00  0.00     0.037 A 
BRANCH  53  67
ATOM     67  C   UNL A   1      39.997  28.786  28.956  1.00  0.00     0.064 A 
ATOM     68  C   UNL A   1      39.097  29.210  27.965  1.00  0.00     0.173 A 
ATOM     69  C   UNL A   1      39.482  28.547  30.240  1.00  0.00     0.173 A 
ATOM     70  F   UNL A   1      39.530  29.453  26.719  1.00  0.00    -0.203 F 
ATOM     71  C   UNL A   1      37.746  29.403  28.252  1.00  0.00     0.198 A 
ATOM     72  C   UNL A   1      38.127  28.713  30.517  1.00  0.00     0.198 A 
ATOM     73  F   UNL A   1      40.290  28.129  31.225  1.00  0.00    -0.203 F 
ATOM     74  F   UNL A   1      36.914  29.836  27.295  1.00  0.00    -0.200 F 
ATOM     75  C   UNL A   1      37.260  29.145  29.525  1.00  0.00     0.200 A 
ATOM     76  F   UNL A   1      37.655  28.445  31.744  1.00  0.00    -0.200 F 
ATOM     77  F   UNL A   1      35.958  29.311  29.794  1.00  0.00    -0.200 F 
ENDBRANCH  53  67
BRANCH  54  78
ATOM     78  C   UNL A   1      49.428  26.677  26.234  1.00  0.00     0.064 A 
ATOM     79  C   UNL A   1      49.811  26.875  24.900  1.00  0.00     0.173 A 
ATOM     80  C   UNL A   1      50.407  26.229  27.135  1.00  0.00     0.173 A 
ATOM     81  F   UNL A   1      48.910  27.301  24.002  1.00  0.00    -0.203 F 
ATOM     82  C   UNL A   1      51.113  26.618  24.479  1.00  0.00     0.198 A 
ATOM     83  C   UNL A   1      51.717  26.001  26.719  1.00  0.00     0.198 A 
ATOM     84  F   UNL A   1      50.097  26.046  28.427  1.00  0.00    -0.203 F 
ATOM     85  F   UNL A   1      51.443  26.784  23.192  1.00  0.00    -0.200 F 
ATOM     86  C   UNL A   1      52.067  26.189  25.390  1.00  0.00     0.200 A 
ATOM     87  F   UNL A   1      52.642  25.612  27.607  1.00  0.00    -0.200 F 
ATOM     88  F   UNL A   1      53.324  25.957  24.988  1.00  0.00    -0.200 F 
ENDBRANCH  54  78
BRANCH  66  89
ATOM     89  C   UNL A   1      46.207  32.441  28.445  1.00  0.00     0.064 A 
ATOM     90  C   UNL A   1      46.723  32.838  29.688  1.00  0.00     0.173 A 
ATOM     91  C   UNL A   1      46.154  33.395  27.418  1.00  0.00     0.173 A 
ATOM     92  F   UNL A   1      46.774  31.968  30.708  1.00  0.00    -0.203 F 
ATOM     93  C   UNL A   1      47.127  34.152  29.906  1.00  0.00     0.198 A 
ATOM     94  C   UNL A   1      46.594  34.698  27.629  1.00  0.00     0.198 A 
ATOM     95  F   UNL A   1      45.673  33.064  26.211  1.00  0.00    -0.203 F 
ATOM     96  F   UNL A   1      47.548  34.527  31.121  1.00  0.00    -0.200 F 
ATOM     97  C   UNL A   1      47.067  35.079  28.876  1.00  0.00     0.200 A 
ATOM     98  F   UNL A   1      46.546  35.589  26.630  1.00  0.00    -0.200 F 
ATOM     99  F   UNL A   1      47.452  36.344  29.088  1.00  0.00    -0.200 F 
ENDBRANCH  66  89
ENDBRANCH  40  41
ENDBRANCH  32  35
ENDBRANCH  30  31
ENDBRANCH  29  30
ENDBRANCH   1  29
TORSDOF 14
ENDMDL
