MODEL 1
REMARK VINA RESULT:     -12.7      0.000      0.000
REMARK SMILES O=C(NCCCCNC(=O)c1cn(C2CC2)c2cc(N3CC[NH2+]CC3)ccc2c1=O)c1ccc(-c2c3nc(c(-c4c(F)c(F)c(F)c(F)c4F)c4ccc([nH]4)c(-c4c(F)c(F)c(F)c(F)c4F)c4nc(c(-c5c(F)c(F)c(F)c(F)c5F)c5ccc2[nH]5)C=C4)C=C3)cc1
REMARK SMILES IDX 5 1 4 2 3 3 1 4 2 5 31 7 32 8 93 9 33 10 92 11 34 12 35 13
REMARK SMILES IDX 36 14 86 15 37 16 91 17 85 18 87 19 38 20 90 21 84 22 83 23
REMARK SMILES IDX 39 25 71 26 51 27 70 28 52 29 55 30 69 31 88 32 53 33 54 34
REMARK SMILES IDX 68 36 89 37 56 38 40 39 41 40 49 41 42 42 43 43 47 44 50 45
REMARK SMILES IDX 44 46 45 47 48 48 46 49 72 50 73 51 81 52 74 53 75 54 79 55
REMARK SMILES IDX 82 56 76 57 77 58 80 59 78 60 57 61 58 62 66 63 59 64 60 65
REMARK SMILES IDX 64 66 67 67 61 68 62 69 65 70 63 71 6 72 7 73 8 74 9 75
REMARK SMILES IDX 10 77 11 78 12 79 29 80 13 81 28 82 30 83 17 84 27 85 18 86
REMARK SMILES IDX 26 87 19 88 14 89 15 90 16 91 20 92 21 93 25 94 22 95 24 96
REMARK SMILES IDX 23 97
REMARK H PARENT 3 6 87 24 55 35 8 76 23 98 23 99
REMARK Flexibility Score: inf
ROOT
ATOM      1  C   UNL A   1      36.342  23.093  23.930  1.00  0.00     0.023 C 
ENDROOT
BRANCH   1   2
ATOM      2  C   UNL A   1      37.063  23.528  25.197  1.00  0.00     0.116 C 
BRANCH   2   3
ATOM      3  N   UNL A   1      38.057  22.566  25.645  1.00  0.00    -0.352 N 
ATOM      4  O   UNL A   1      39.998  21.835  26.519  1.00  0.00    -0.269 OA
ATOM      5  C   UNL A   1      39.211  22.766  26.358  1.00  0.00     0.251 C 
ATOM      6  H   UNL A   1      37.874  21.630  25.399  1.00  0.00     0.163 HD
BRANCH   5   7
ATOM      7  C   UNL A   1      39.528  24.097  26.924  1.00  0.00     0.039 A 
ATOM      8  C   UNL A   1      40.136  25.051  26.105  1.00  0.00     0.014 A 
ATOM      9  C   UNL A   1      39.266  24.397  28.264  1.00  0.00     0.014 A 
ATOM     10  C   UNL A   1      40.463  26.305  26.624  1.00  0.00     0.010 A 
ATOM     11  C   UNL A   1      39.486  25.682  28.748  1.00  0.00     0.010 A 
ATOM     12  C   UNL A   1      40.136  26.633  27.949  1.00  0.00    -0.014 A 
BRANCH  12  13
ATOM     13  C   UNL A   1      40.569  27.921  28.547  1.00  0.00     0.031 A 
ATOM     14  C   UNL A   1      42.031  28.156  28.823  1.00  0.00     0.074 A 
ATOM     15  C   UNL A   1      39.665  28.873  28.846  1.00  0.00     0.049 A 
ATOM     16  N   UNL A   1      42.620  29.209  29.332  1.00  0.00    -0.248 NA
ATOM     17  C   UNL A   1      42.954  27.051  28.514  1.00  0.00     0.031 C 
ATOM     18  C   UNL A   1      38.219  28.749  28.665  1.00  0.00     0.029 A 
ATOM     19  N   UNL A   1      39.831  30.137  29.355  1.00  0.00    -0.354 N 
ATOM     20  C   UNL A   1      43.967  28.882  29.414  1.00  0.00     0.074 A 
ATOM     21  C   UNL A   1      44.102  27.510  28.983  1.00  0.00     0.031 C 
ATOM     22  C   UNL A   1      37.634  29.907  29.012  1.00  0.00     0.029 A 
ATOM     23  C   UNL A   1      38.659  30.842  29.471  1.00  0.00     0.049 A 
ATOM     24  H   UNL A   1      40.708  30.502  29.614  1.00  0.00     0.167 HD
ATOM     25  C   UNL A   1      45.010  29.668  29.770  1.00  0.00     0.037 A 
ATOM     26  C   UNL A   1      38.439  32.103  29.891  1.00  0.00     0.037 A 
ATOM     27  C   UNL A   1      44.878  31.047  30.151  1.00  0.00     0.049 A 
ATOM     28  C   UNL A   1      39.607  32.956  30.307  1.00  0.00     0.074 A 
ATOM     29  C   UNL A   1      45.877  31.953  30.455  1.00  0.00     0.029 A 
ATOM     30  N   UNL A   1      43.671  31.716  30.280  1.00  0.00    -0.354 N 
ATOM     31  N   UNL A   1      40.885  32.664  30.299  1.00  0.00    -0.248 NA
ATOM     32  C   UNL A   1      39.305  34.311  30.792  1.00  0.00     0.031 C 
ATOM     33  C   UNL A   1      45.270  33.156  30.823  1.00  0.00     0.029 A 
ATOM     34  C   UNL A   1      43.897  33.016  30.699  1.00  0.00     0.049 A 
ATOM     35  H   UNL A   1      42.785  31.325  30.100  1.00  0.00     0.167 HD
ATOM     36  C   UNL A   1      41.541  33.796  30.764  1.00  0.00     0.074 A 
ATOM     37  C   UNL A   1      40.520  34.790  31.028  1.00  0.00     0.031 C 
ATOM     38  C   UNL A   1      42.867  33.991  30.958  1.00  0.00     0.037 A 
BRANCH  25  39
ATOM     39  C   UNL A   1      46.382  29.060  29.745  1.00  0.00     0.064 A 
ATOM     40  C   UNL A   1      46.937  28.450  30.881  1.00  0.00     0.173 A 
ATOM     41  C   UNL A   1      47.139  29.059  28.565  1.00  0.00     0.173 A 
ATOM     42  F   UNL A   1      46.260  28.435  32.039  1.00  0.00    -0.203 F 
ATOM     43  C   UNL A   1      48.212  27.892  30.845  1.00  0.00     0.198 A 
ATOM     44  C   UNL A   1      48.400  28.469  28.523  1.00  0.00     0.198 A 
ATOM     45  F   UNL A   1      46.654  29.622  27.448  1.00  0.00    -0.203 F 
ATOM     46  F   UNL A   1      48.744  27.367  31.958  1.00  0.00    -0.200 F 
ATOM     47  C   UNL A   1      48.939  27.895  29.664  1.00  0.00     0.200 A 
ATOM     48  F   UNL A   1      49.096  28.459  27.377  1.00  0.00    -0.200 F 
ATOM     49  F   UNL A   1      50.163  27.351  29.628  1.00  0.00    -0.200 F 
ENDBRANCH  25  39
BRANCH  26  50
ATOM     50  C   UNL A   1      37.053  32.640  29.887  1.00  0.00     0.064 A 
ATOM     51  C   UNL A   1      36.236  32.524  31.021  1.00  0.00     0.173 A 
ATOM     52  C   UNL A   1      36.535  33.325  28.778  1.00  0.00     0.173 A 
ATOM     53  F   UNL A   1      36.679  31.863  32.099  1.00  0.00    -0.203 F 
ATOM     54  C   UNL A   1      34.957  33.077  31.046  1.00  0.00     0.198 A 
ATOM     55  C   UNL A   1      35.266  33.898  28.813  1.00  0.00     0.198 A 
ATOM     56  F   UNL A   1      37.277  33.465  27.669  1.00  0.00    -0.203 F 
ATOM     57  F   UNL A   1      34.190  32.936  32.136  1.00  0.00    -0.200 F 
ATOM     58  C   UNL A   1      34.477  33.773  29.946  1.00  0.00     0.200 A 
ATOM     59  F   UNL A   1      34.812  34.584  27.754  1.00  0.00    -0.200 F 
ATOM     60  F   UNL A   1      33.256  34.322  29.980  1.00  0.00    -0.200 F 
ENDBRANCH  26  50
BRANCH  38  61
ATOM     61  C   UNL A   1      43.315  35.318  31.496  1.00  0.00     0.064 A 
ATOM     62  C   UNL A   1      43.693  36.357  30.634  1.00  0.00     0.173 A 
ATOM     63  C   UNL A   1      43.235  35.596  32.869  1.00  0.00     0.173 A 
ATOM     64  F   UNL A   1      43.795  36.138  29.315  1.00  0.00    -0.203 F 
ATOM     65  C   UNL A   1      43.968  37.630  31.128  1.00  0.00     0.198 A 
ATOM     66  C   UNL A   1      43.483  36.876  33.355  1.00  0.00     0.198 A 
ATOM     67  F   UNL A   1      42.867  34.637  33.732  1.00  0.00    -0.203 F 
ATOM     68  F   UNL A   1      44.340  38.606  30.288  1.00  0.00    -0.200 F 
ATOM     69  C   UNL A   1      43.848  37.892  32.484  1.00  0.00     0.200 A 
ATOM     70  F   UNL A   1      43.347  37.133  34.663  1.00  0.00    -0.200 F 
ATOM     71  F   UNL A   1      44.080  39.126  32.952  1.00  0.00    -0.200 F 
ENDBRANCH  38  61
ENDBRANCH  12  13
ENDBRANCH   5   7
ENDBRANCH   2   3
ENDBRANCH   1   2
BRANCH   1  72
ATOM     72  C   UNL A   1      35.208  22.096  24.141  1.00  0.00     0.023 C 
BRANCH  72  73
ATOM     73  C   UNL A   1      33.840  22.719  24.386  1.00  0.00     0.116 C 
BRANCH  73  74
ATOM     74  N   UNL A   1      33.472  22.773  25.796  1.00  0.00    -0.352 N 
ATOM     75  C   UNL A   1      32.793  23.756  26.472  1.00  0.00     0.256 C 
ATOM     76  H   UNL A   1      33.749  21.998  26.337  1.00  0.00     0.163 HD
ATOM     77  O   UNL A   1      32.522  23.619  27.659  1.00  0.00    -0.269 OA
BRANCH  75  78
ATOM     78  C   UNL A   1      32.382  24.941  25.702  1.00  0.00     0.104 A 
ATOM     79  C   UNL A   1      33.179  26.018  25.727  1.00  0.00     0.104 A 
ATOM     80  C   UNL A   1      31.067  25.046  25.042  1.00  0.00     0.202 A 
ATOM     81  N   UNL A   1      32.844  27.281  25.283  1.00  0.00    -0.343 N 
ATOM     82  C   UNL A   1      30.719  26.363  24.452  1.00  0.00     0.047 A 
ATOM     83  O   UNL A   1      30.273  24.114  25.012  1.00  0.00    -0.288 OA
ATOM     84  C   UNL A   1      31.613  27.445  24.574  1.00  0.00     0.054 A 
ATOM     85  C   UNL A   1      29.476  26.519  23.831  1.00  0.00     0.016 A 
ATOM     86  C   UNL A   1      31.229  28.669  24.006  1.00  0.00     0.053 A 
ATOM     87  C   UNL A   1      29.101  27.767  23.337  1.00  0.00     0.027 A 
ATOM     88  C   UNL A   1      29.971  28.859  23.414  1.00  0.00     0.039 A 
BRANCH  81  89
ATOM     89  C   UNL A   1      33.593  28.464  25.788  1.00  0.00     0.087 C 
ATOM     90  C   UNL A   1      33.258  29.260  27.026  1.00  0.00     0.027 C 
ATOM     91  C   UNL A   1      34.469  28.374  27.007  1.00  0.00     0.027 C 
ENDBRANCH  81  89
BRANCH  88  92
ATOM     92  N   UNL A   1      29.621  30.098  22.932  1.00  0.00    -0.360 N 
ATOM     93  C   UNL A   1      29.528  30.321  21.488  1.00  0.00     0.178 C 
ATOM     94  C   UNL A   1      29.100  31.151  23.809  1.00  0.00     0.178 C 
ATOM     95  C   UNL A   1      28.100  30.785  21.120  1.00  0.00     0.282 C 
ATOM     96  C   UNL A   1      27.704  31.614  23.342  1.00  0.00     0.282 C 
ATOM     97  N   UNL A   1      27.638  31.953  21.904  1.00  0.00    -0.343 N 
ATOM     98  H   UNL A   1      26.676  32.180  21.648  1.00  0.00     0.346 HD
ATOM     99  H   UNL A   1      28.231  32.760  21.708  1.00  0.00     0.346 HD
ENDBRANCH  88  92
ENDBRANCH  75  78
ENDBRANCH  73  74
ENDBRANCH  72  73
ENDBRANCH   1  72
TORSDOF 13
ENDMDL
MODEL 2
REMARK VINA RESULT:     -12.7      4.119      9.410
REMARK SMILES O=C(NCCCCNC(=O)c1cn(C2CC2)c2cc(N3CC[NH2+]CC3)ccc2c1=O)c1ccc(-c2c3nc(c(-c4c(F)c(F)c(F)c(F)c4F)c4ccc([nH]4)c(-c4c(F)c(F)c(F)c(F)c4F)c4nc(c(-c5c(F)c(F)c(F)c(F)c5F)c5ccc2[nH]5)C=C4)C=C3)cc1
REMARK SMILES IDX 5 1 4 2 3 3 1 4 2 5 31 7 32 8 93 9 33 10 92 11 34 12 35 13
REMARK SMILES IDX 36 14 86 15 37 16 91 17 85 18 87 19 38 20 90 21 84 22 83 23
REMARK SMILES IDX 39 25 71 26 51 27 70 28 52 29 55 30 69 31 88 32 53 33 54 34
REMARK SMILES IDX 68 36 89 37 56 38 40 39 41 40 49 41 42 42 43 43 47 44 50 45
REMARK SMILES IDX 44 46 45 47 48 48 46 49 72 50 73 51 81 52 74 53 75 54 79 55
REMARK SMILES IDX 82 56 76 57 77 58 80 59 78 60 57 61 58 62 66 63 59 64 60 65
REMARK SMILES IDX 64 66 67 67 61 68 62 69 65 70 63 71 6 72 7 73 8 74 9 75
REMARK SMILES IDX 10 77 11 78 12 79 29 80 13 81 28 82 30 83 17 84 27 85 18 86
REMARK SMILES IDX 26 87 19 88 14 89 15 90 16 91 20 92 21 93 25 94 22 95 24 96
REMARK SMILES IDX 23 97
REMARK H PARENT 3 6 87 24 55 35 8 76 23 98 23 99
REMARK Flexibility Score: inf
ROOT
ATOM      1  C   UNL A   1      31.458  31.990  26.874  1.00  0.00     0.023 C 
ENDROOT
BRANCH   1   2
ATOM      2  C   UNL A   1      32.687  32.884  26.938  1.00  0.00     0.116 C 
BRANCH   2   3
ATOM      3  N   UNL A   1      32.425  34.167  27.570  1.00  0.00    -0.352 N 
ATOM      4  O   UNL A   1      32.547  35.775  29.140  1.00  0.00    -0.269 OA
ATOM      5  C   UNL A   1      33.009  34.735  28.674  1.00  0.00     0.251 C 
ATOM      6  H   UNL A   1      31.724  34.709  27.142  1.00  0.00     0.163 HD
BRANCH   5   7
ATOM      7  C   UNL A   1      34.180  34.101  29.320  1.00  0.00     0.039 A 
ATOM      8  C   UNL A   1      35.458  34.578  29.017  1.00  0.00     0.014 A 
ATOM      9  C   UNL A   1      34.031  33.017  30.189  1.00  0.00     0.014 A 
ATOM     10  C   UNL A   1      36.578  33.980  29.597  1.00  0.00     0.010 A 
ATOM     11  C   UNL A   1      35.136  32.498  30.854  1.00  0.00     0.010 A 
ATOM     12  C   UNL A   1      36.427  32.938  30.526  1.00  0.00    -0.014 A 
BRANCH  12  13
ATOM     13  C   UNL A   1      37.607  32.223  31.072  1.00  0.00     0.031 A 
ATOM     14  C   UNL A   1      38.084  32.536  32.466  1.00  0.00     0.074 A 
ATOM     15  C   UNL A   1      38.253  31.305  30.328  1.00  0.00     0.049 A 
ATOM     16  N   UNL A   1      39.087  32.024  33.134  1.00  0.00    -0.248 NA
ATOM     17  C   UNL A   1      37.357  33.586  33.199  1.00  0.00     0.031 C 
ATOM     18  C   UNL A   1      37.914  30.944  28.952  1.00  0.00     0.029 A 
ATOM     19  N   UNL A   1      39.323  30.500  30.631  1.00  0.00    -0.354 N 
ATOM     20  C   UNL A   1      39.112  32.698  34.348  1.00  0.00     0.074 A 
ATOM     21  C   UNL A   1      38.084  33.710  34.297  1.00  0.00     0.031 C 
ATOM     22  C   UNL A   1      38.728  29.957  28.546  1.00  0.00     0.029 A 
ATOM     23  C   UNL A   1      39.666  29.638  29.619  1.00  0.00     0.049 A 
ATOM     24  H   UNL A   1      39.799  30.537  31.493  1.00  0.00     0.167 HD
ATOM     25  C   UNL A   1      39.891  32.464  35.430  1.00  0.00     0.037 A 
ATOM     26  C   UNL A   1      40.625  28.692  29.569  1.00  0.00     0.037 A 
ATOM     27  C   UNL A   1      40.880  31.424  35.495  1.00  0.00     0.049 A 
ATOM     28  C   UNL A   1      41.499  28.462  30.773  1.00  0.00     0.074 A 
ATOM     29  C   UNL A   1      41.666  31.054  36.569  1.00  0.00     0.029 A 
ATOM     30  N   UNL A   1      41.215  30.590  34.440  1.00  0.00    -0.354 N 
ATOM     31  N   UNL A   1      41.457  29.048  31.945  1.00  0.00    -0.248 NA
ATOM     32  C   UNL A   1      42.551  27.444  30.649  1.00  0.00     0.031 C 
ATOM     33  C   UNL A   1      42.519  30.031  36.147  1.00  0.00     0.029 A 
ATOM     34  C   UNL A   1      42.228  29.730  34.826  1.00  0.00     0.049 A 
ATOM     35  H   UNL A   1      40.794  30.606  33.549  1.00  0.00     0.167 HD
ATOM     36  C   UNL A   1      42.465  28.466  32.702  1.00  0.00     0.074 A 
ATOM     37  C   UNL A   1      43.091  27.465  31.862  1.00  0.00     0.031 C 
ATOM     38  C   UNL A   1      42.840  28.739  33.974  1.00  0.00     0.037 A 
BRANCH  25  39
ATOM     39  C   UNL A   1      39.689  33.337  36.635  1.00  0.00     0.064 A 
ATOM     40  C   UNL A   1      40.407  34.531  36.806  1.00  0.00     0.173 A 
ATOM     41  C   UNL A   1      38.747  32.993  37.614  1.00  0.00     0.173 A 
ATOM     42  F   UNL A   1      41.329  34.901  35.904  1.00  0.00    -0.203 F 
ATOM     43  C   UNL A   1      40.212  35.330  37.930  1.00  0.00     0.198 A 
ATOM     44  C   UNL A   1      38.530  33.812  38.719  1.00  0.00     0.198 A 
ATOM     45  F   UNL A   1      38.029  31.866  37.497  1.00  0.00    -0.203 F 
ATOM     46  F   UNL A   1      40.951  36.436  38.100  1.00  0.00    -0.200 F 
ATOM     47  C   UNL A   1      39.269  34.974  38.881  1.00  0.00     0.200 A 
ATOM     48  F   UNL A   1      37.606  33.475  39.631  1.00  0.00    -0.200 F 
ATOM     49  F   UNL A   1      39.077  35.748  39.958  1.00  0.00    -0.200 F 
ENDBRANCH  25  39
BRANCH  26  50
ATOM     50  C   UNL A   1      40.765  27.863  28.343  1.00  0.00     0.064 A 
ATOM     51  C   UNL A   1      41.588  28.279  27.287  1.00  0.00     0.173 A 
ATOM     52  C   UNL A   1      40.128  26.619  28.222  1.00  0.00     0.173 A 
ATOM     53  F   UNL A   1      42.204  29.468  27.348  1.00  0.00    -0.203 F 
ATOM     54  C   UNL A   1      41.772  27.481  26.160  1.00  0.00     0.198 A 
ATOM     55  C   UNL A   1      40.332  25.811  27.106  1.00  0.00     0.198 A 
ATOM     56  F   UNL A   1      39.332  26.174  29.206  1.00  0.00    -0.203 F 
ATOM     57  F   UNL A   1      42.550  27.909  25.157  1.00  0.00    -0.200 F 
ATOM     58  C   UNL A   1      41.153  26.242  26.075  1.00  0.00     0.200 A 
ATOM     59  F   UNL A   1      39.745  24.608  27.035  1.00  0.00    -0.200 F 
ATOM     60  F   UNL A   1      41.348  25.466  25.001  1.00  0.00    -0.200 F 
ENDBRANCH  26  50
BRANCH  38  61
ATOM     61  C   UNL A   1      43.989  27.968  34.555  1.00  0.00     0.064 A 
ATOM     62  C   UNL A   1      45.285  28.503  34.569  1.00  0.00     0.173 A 
ATOM     63  C   UNL A   1      43.769  26.753  35.220  1.00  0.00     0.173 A 
ATOM     64  F   UNL A   1      45.547  29.656  33.938  1.00  0.00    -0.203 F 
ATOM     65  C   UNL A   1      46.318  27.851  35.236  1.00  0.00     0.198 A 
ATOM     66  C   UNL A   1      44.798  26.119  35.910  1.00  0.00     0.198 A 
ATOM     67  F   UNL A   1      42.543  26.207  35.244  1.00  0.00    -0.203 F 
ATOM     68  F   UNL A   1      47.553  28.373  35.227  1.00  0.00    -0.200 F 
ATOM     69  C   UNL A   1      46.071  26.669  35.918  1.00  0.00     0.200 A 
ATOM     70  F   UNL A   1      44.553  24.988  36.586  1.00  0.00    -0.200 F 
ATOM     71  F   UNL A   1      47.060  26.061  36.589  1.00  0.00    -0.200 F 
ENDBRANCH  38  61
ENDBRANCH  12  13
ENDBRANCH   5   7
ENDBRANCH   2   3
ENDBRANCH   1   2
BRANCH   1  72
ATOM     72  C   UNL A   1      31.746  30.493  26.869  1.00  0.00     0.023 C 
BRANCH  72  73
ATOM     73  C   UNL A   1      32.177  29.924  25.524  1.00  0.00     0.116 C 
BRANCH  73  74
ATOM     74  N   UNL A   1      31.062  29.647  24.627  1.00  0.00    -0.352 N 
ATOM     75  C   UNL A   1      30.669  28.449  24.085  1.00  0.00     0.256 C 
ATOM     76  H   UNL A   1      30.516  30.427  24.375  1.00  0.00     0.163 HD
ATOM     77  O   UNL A   1      29.668  28.384  23.380  1.00  0.00    -0.269 OA
BRANCH  75  78
ATOM     78  C   UNL A   1      31.473  27.262  24.421  1.00  0.00     0.104 A 
ATOM     79  C   UNL A   1      32.345  26.812  23.508  1.00  0.00     0.104 A 
ATOM     80  C   UNL A   1      31.247  26.465  25.640  1.00  0.00     0.202 A 
ATOM     81  N   UNL A   1      32.990  25.593  23.540  1.00  0.00    -0.343 N 
ATOM     82  C   UNL A   1      32.011  25.199  25.762  1.00  0.00     0.047 A 
ATOM     83  O   UNL A   1      30.439  26.797  26.499  1.00  0.00    -0.288 OA
ATOM     84  C   UNL A   1      32.871  24.795  24.721  1.00  0.00     0.054 A 
ATOM     85  C   UNL A   1      31.818  24.397  26.891  1.00  0.00     0.016 A 
ATOM     86  C   UNL A   1      33.562  23.585  24.884  1.00  0.00     0.053 A 
ATOM     87  C   UNL A   1      32.472  23.170  26.989  1.00  0.00     0.027 A 
ATOM     88  C   UNL A   1      33.353  22.746  25.990  1.00  0.00     0.039 A 
BRANCH  81  89
ATOM     89  C   UNL A   1      33.534  25.012  22.283  1.00  0.00     0.087 C 
ATOM     90  C   UNL A   1      32.907  23.898  21.480  1.00  0.00     0.027 C 
ATOM     91  C   UNL A   1      32.903  25.301  20.949  1.00  0.00     0.027 C 
ENDBRANCH  81  89
BRANCH  88  92
ATOM     92  N   UNL A   1      34.007  21.539  26.066  1.00  0.00    -0.360 N 
ATOM     93  C   UNL A   1      33.280  20.296  25.803  1.00  0.00     0.178 C 
ATOM     94  C   UNL A   1      35.466  21.454  26.167  1.00  0.00     0.178 C 
ATOM     95  C   UNL A   1      33.940  19.542  24.625  1.00  0.00     0.282 C 
ATOM     96  C   UNL A   1      36.051  20.630  25.001  1.00  0.00     0.282 C 
ATOM     97  N   UNL A   1      35.392  19.319  24.807  1.00  0.00    -0.343 N 
ATOM     98  H   UNL A   1      35.776  18.861  23.980  1.00  0.00     0.346 HD
ATOM     99  H   UNL A   1      35.554  18.724  25.619  1.00  0.00     0.346 HD
ENDBRANCH  88  92
ENDBRANCH  75  78
ENDBRANCH  73  74
ENDBRANCH  72  73
ENDBRANCH   1  72
TORSDOF 13
ENDMDL
MODEL 3
REMARK VINA RESULT:     -12.6      4.224      9.547
REMARK SMILES O=C(NCCCCNC(=O)c1cn(C2CC2)c2cc(N3CC[NH2+]CC3)ccc2c1=O)c1ccc(-c2c3nc(c(-c4c(F)c(F)c(F)c(F)c4F)c4ccc([nH]4)c(-c4c(F)c(F)c(F)c(F)c4F)c4nc(c(-c5c(F)c(F)c(F)c(F)c5F)c5ccc2[nH]5)C=C4)C=C3)cc1
REMARK SMILES IDX 5 1 4 2 3 3 1 4 2 5 31 7 32 8 93 9 33 10 92 11 34 12 35 13
REMARK SMILES IDX 36 14 86 15 37 16 91 17 85 18 87 19 38 20 90 21 84 22 83 23
REMARK SMILES IDX 39 25 71 26 51 27 70 28 52 29 55 30 69 31 88 32 53 33 54 34
REMARK SMILES IDX 68 36 89 37 56 38 40 39 41 40 49 41 42 42 43 43 47 44 50 45
REMARK SMILES IDX 44 46 45 47 48 48 46 49 72 50 73 51 81 52 74 53 75 54 79 55
REMARK SMILES IDX 82 56 76 57 77 58 80 59 78 60 57 61 58 62 66 63 59 64 60 65
REMARK SMILES IDX 64 66 67 67 61 68 62 69 65 70 63 71 6 72 7 73 8 74 9 75
REMARK SMILES IDX 10 77 11 78 12 79 29 80 13 81 28 82 30 83 17 84 27 85 18 86
REMARK SMILES IDX 26 87 19 88 14 89 15 90 16 91 20 92 21 93 25 94 22 95 24 96
REMARK SMILES IDX 23 97
REMARK H PARENT 3 6 87 24 55 35 8 76 23 98 23 99
REMARK Flexibility Score: inf
ROOT
ATOM      1  C   UNL A   1      31.772  29.113  26.664  1.00  0.00     0.023 C 
ENDROOT
BRANCH   1   2
ATOM      2  C   UNL A   1      32.775  30.071  26.041  1.00  0.00     0.116 C 
BRANCH   2   3
ATOM      3  N   UNL A   1      32.569  31.453  26.444  1.00  0.00    -0.352 N 
ATOM      4  O   UNL A   1      32.852  33.331  27.653  1.00  0.00    -0.269 OA
ATOM      5  C   UNL A   1      33.271  32.218  27.341  1.00  0.00     0.251 C 
ATOM      6  H   UNL A   1      31.812  31.908  26.008  1.00  0.00     0.163 HD
BRANCH   5   7
ATOM      7  C   UNL A   1      34.522  31.711  27.949  1.00  0.00     0.039 A 
ATOM      8  C   UNL A   1      34.569  30.385  28.387  1.00  0.00     0.014 A 
ATOM      9  C   UNL A   1      35.632  32.541  28.126  1.00  0.00     0.014 A 
ATOM     10  C   UNL A   1      35.731  29.892  28.984  1.00  0.00     0.010 A 
ATOM     11  C   UNL A   1      36.824  32.019  28.614  1.00  0.00     0.010 A 
ATOM     12  C   UNL A   1      36.871  30.703  29.097  1.00  0.00    -0.014 A 
BRANCH  12  13
ATOM     13  C   UNL A   1      38.078  30.230  29.821  1.00  0.00     0.031 A 
ATOM     14  C   UNL A   1      38.307  30.666  31.245  1.00  0.00     0.074 A 
ATOM     15  C   UNL A   1      38.965  29.421  29.212  1.00  0.00     0.049 A 
ATOM     16  N   UNL A   1      39.288  30.363  32.057  1.00  0.00    -0.248 NA
ATOM     17  C   UNL A   1      37.318  31.589  31.827  1.00  0.00     0.031 C 
ATOM     18  C   UNL A   1      38.877  28.964  27.826  1.00  0.00     0.029 A 
ATOM     19  N   UNL A   1      40.111  28.832  29.686  1.00  0.00    -0.354 N 
ATOM     20  C   UNL A   1      39.037  31.067  33.227  1.00  0.00     0.074 A 
ATOM     21  C   UNL A   1      37.863  31.876  32.998  1.00  0.00     0.031 C 
ATOM     22  C   UNL A   1      39.897  28.128  27.575  1.00  0.00     0.029 A 
ATOM     23  C   UNL A   1      40.728  28.016  28.771  1.00  0.00     0.049 A 
ATOM     24  H   UNL A   1      40.457  28.981  30.597  1.00  0.00     0.167 HD
ATOM     25  C   UNL A   1      39.697  31.011  34.408  1.00  0.00     0.037 A 
ATOM     26  C   UNL A   1      41.836  27.257  28.889  1.00  0.00     0.037 A 
ATOM     27  C   UNL A   1      40.836  30.168  34.649  1.00  0.00     0.049 A 
ATOM     28  C   UNL A   1      42.572  27.225  30.201  1.00  0.00     0.074 A 
ATOM     29  C   UNL A   1      41.528  29.979  35.829  1.00  0.00     0.029 A 
ATOM     30  N   UNL A   1      41.446  29.377  33.688  1.00  0.00    -0.354 N 
ATOM     31  N   UNL A   1      42.276  27.829  31.327  1.00  0.00    -0.248 NA
ATOM     32  C   UNL A   1      43.794  26.410  30.262  1.00  0.00     0.031 C 
ATOM     33  C   UNL A   1      42.595  29.114  35.569  1.00  0.00     0.029 A 
ATOM     34  C   UNL A   1      42.536  28.725  34.240  1.00  0.00     0.049 A 
ATOM     35  H   UNL A   1      41.148  29.290  32.753  1.00  0.00     0.167 HD
ATOM     36  C   UNL A   1      43.264  27.461  32.231  1.00  0.00     0.074 A 
ATOM     37  C   UNL A   1      44.160  26.564  31.529  1.00  0.00     0.031 C 
ATOM     38  C   UNL A   1      43.417  27.836  33.524  1.00  0.00     0.037 A 
BRANCH  25  39
ATOM     39  C   UNL A   1      39.191  31.869  35.531  1.00  0.00     0.064 A 
ATOM     40  C   UNL A   1      38.345  31.354  36.526  1.00  0.00     0.173 A 
ATOM     41  C   UNL A   1      39.580  33.212  35.633  1.00  0.00     0.173 A 
ATOM     42  F   UNL A   1      37.933  30.078  36.468  1.00  0.00    -0.203 F 
ATOM     43  C   UNL A   1      37.880  32.160  37.561  1.00  0.00     0.198 A 
ATOM     44  C   UNL A   1      39.141  34.007  36.689  1.00  0.00     0.198 A 
ATOM     45  F   UNL A   1      40.392  33.753  34.714  1.00  0.00    -0.203 F 
ATOM     46  F   UNL A   1      37.027  31.661  38.466  1.00  0.00    -0.200 F 
ATOM     47  C   UNL A   1      38.284  33.483  37.646  1.00  0.00     0.200 A 
ATOM     48  F   UNL A   1      39.545  35.282  36.779  1.00  0.00    -0.200 F 
ATOM     49  F   UNL A   1      37.843  34.258  38.647  1.00  0.00    -0.200 F 
ENDBRANCH  25  39
BRANCH  26  50
ATOM     50  C   UNL A   1      42.278  26.431  27.735  1.00  0.00     0.064 A 
ATOM     51  C   UNL A   1      43.275  26.890  26.865  1.00  0.00     0.173 A 
ATOM     52  C   UNL A   1      41.756  25.148  27.510  1.00  0.00     0.173 A 
ATOM     53  F   UNL A   1      43.793  28.116  27.028  1.00  0.00    -0.203 F 
ATOM     54  C   UNL A   1      43.737  26.097  25.816  1.00  0.00     0.198 A 
ATOM     55  C   UNL A   1      42.235  24.346  26.476  1.00  0.00     0.198 A 
ATOM     56  F   UNL A   1      40.800  24.660  28.316  1.00  0.00    -0.203 F 
ATOM     57  F   UNL A   1      44.679  26.568  24.987  1.00  0.00    -0.200 F 
ATOM     58  C   UNL A   1      43.225  24.821  25.629  1.00  0.00     0.200 A 
ATOM     59  F   UNL A   1      41.749  23.109  26.309  1.00  0.00    -0.200 F 
ATOM     60  F   UNL A   1      43.685  24.052  24.634  1.00  0.00    -0.200 F 
ENDBRANCH  26  50
BRANCH  38  61
ATOM     61  C   UNL A   1      44.597  27.303  34.281  1.00  0.00     0.064 A 
ATOM     62  C   UNL A   1      45.775  28.052  34.404  1.00  0.00     0.173 A 
ATOM     63  C   UNL A   1      44.500  26.101  34.999  1.00  0.00     0.173 A 
ATOM     64  F   UNL A   1      45.919  29.202  33.729  1.00  0.00    -0.203 F 
ATOM     65  C   UNL A   1      46.813  27.620  35.226  1.00  0.00     0.198 A 
ATOM     66  C   UNL A   1      45.528  25.687  35.841  1.00  0.00     0.198 A 
ATOM     67  F   UNL A   1      43.388  25.355  34.922  1.00  0.00    -0.203 F 
ATOM     68  F   UNL A   1      47.936  28.345  35.320  1.00  0.00    -0.200 F 
ATOM     69  C   UNL A   1      46.683  26.447  35.955  1.00  0.00     0.200 A 
ATOM     70  F   UNL A   1      45.392  24.565  36.561  1.00  0.00    -0.200 F 
ATOM     71  F   UNL A   1      47.669  26.052  36.772  1.00  0.00    -0.200 F 
ENDBRANCH  38  61
ENDBRANCH  12  13
ENDBRANCH   5   7
ENDBRANCH   2   3
ENDBRANCH   1   2
BRANCH   1  72
ATOM     72  C   UNL A   1      32.213  27.655  26.713  1.00  0.00     0.023 C 
BRANCH  72  73
ATOM     73  C   UNL A   1      31.832  26.826  25.494  1.00  0.00     0.116 C 
BRANCH  73  74
ATOM     74  N   UNL A   1      32.673  27.085  24.331  1.00  0.00    -0.352 N 
ATOM     75  C   UNL A   1      33.455  26.207  23.621  1.00  0.00     0.256 C 
ATOM     76  H   UNL A   1      32.681  28.016  24.012  1.00  0.00     0.163 HD
ATOM     77  O   UNL A   1      34.068  26.585  22.629  1.00  0.00    -0.269 OA
BRANCH  75  78
ATOM     78  C   UNL A   1      33.486  24.809  24.081  1.00  0.00     0.104 A 
ATOM     79  C   UNL A   1      34.420  24.461  24.978  1.00  0.00     0.104 A 
ATOM     80  C   UNL A   1      32.647  23.755  23.484  1.00  0.00     0.202 A 
ATOM     81  N   UNL A   1      34.759  23.171  25.329  1.00  0.00    -0.343 N 
ATOM     82  C   UNL A   1      32.909  22.363  23.925  1.00  0.00     0.047 A 
ATOM     83  O   UNL A   1      31.800  23.996  22.632  1.00  0.00    -0.288 OA
ATOM     84  C   UNL A   1      33.947  22.100  24.841  1.00  0.00     0.054 A 
ATOM     85  C   UNL A   1      32.152  21.324  23.374  1.00  0.00     0.016 A 
ATOM     86  C   UNL A   1      34.157  20.765  25.216  1.00  0.00     0.053 A 
ATOM     87  C   UNL A   1      32.433  20.003  23.720  1.00  0.00     0.027 A 
ATOM     88  C   UNL A   1      33.436  19.704  24.646  1.00  0.00     0.039 A 
BRANCH  81  89
ATOM     89  C   UNL A   1      36.088  22.898  25.941  1.00  0.00     0.087 C 
ATOM     90  C   UNL A   1      37.325  22.445  25.203  1.00  0.00     0.027 C 
ATOM     91  C   UNL A   1      37.245  23.839  25.752  1.00  0.00     0.027 C 
ENDBRANCH  81  89
BRANCH  88  92
ATOM     92  N   UNL A   1      33.730  18.408  25.002  1.00  0.00    -0.360 N 
ATOM     93  C   UNL A   1      32.903  17.717  25.993  1.00  0.00     0.178 C 
ATOM     94  C   UNL A   1      34.695  17.599  24.253  1.00  0.00     0.178 C 
ATOM     95  C   UNL A   1      32.291  16.442  25.369  1.00  0.00     0.282 C 
ATOM     96  C   UNL A   1      34.036  16.310  23.720  1.00  0.00     0.282 C 
ATOM     97  N   UNL A   1      33.296  15.548  24.750  1.00  0.00    -0.343 N 
ATOM     98  H   UNL A   1      32.827  14.751  24.317  1.00  0.00     0.346 HD
ATOM     99  H   UNL A   1      33.942  15.205  25.461  1.00  0.00     0.346 HD
ENDBRANCH  88  92
ENDBRANCH  75  78
ENDBRANCH  73  74
ENDBRANCH  72  73
ENDBRANCH   1  72
TORSDOF 13
ENDMDL
