MODEL 1
REMARK VINA RESULT:     -13.2      0.000      0.000
REMARK SMILES O=C(NCCCCNC(=O)c1ccccc1O[C@H]1CCOC2(CCSCC2)C1)c1ccc(-c2c3nc(c(-c4c(F)c(F)c(F)c(F)c4F)c4ccc([nH]4)c(-c4c(F)c(F)c(F)c(F)c4F)c4nc(c(-c5c(F)c(F)c(F)c(F)c5F)c5ccc2[nH]5)C=C4)C=C3)cc1
REMARK SMILES IDX 5 1 4 2 3 3 1 4 2 5 29 7 30 8 91 9 31 10 90 11 32 12 33 13
REMARK SMILES IDX 34 14 84 15 35 16 89 17 83 18 85 19 36 20 88 21 82 22 81 23
REMARK SMILES IDX 37 25 69 26 49 27 68 28 50 29 53 30 67 31 86 32 51 33 52 34
REMARK SMILES IDX 66 36 87 37 54 38 38 39 39 40 47 41 40 42 41 43 45 44 48 45
REMARK SMILES IDX 42 46 43 47 46 48 44 49 70 50 71 51 79 52 72 53 73 54 77 55
REMARK SMILES IDX 80 56 74 57 75 58 78 59 76 60 55 61 56 62 64 63 57 64 58 65
REMARK SMILES IDX 62 66 65 67 59 68 60 69 63 70 61 71 6 72 7 73 8 74 9 75
REMARK SMILES IDX 10 77 11 78 12 79 16 80 13 81 15 82 14 83 17 84 18 85 19 86
REMARK SMILES IDX 28 87 20 88 22 89 21 90 23 91 27 92 24 93 26 94 25 95
REMARK H PARENT 3 6 85 24 53 35 8 76
REMARK Flexibility Score: inf
ROOT
ATOM      1  C   UNL A   1      31.383  31.992  26.975  1.00  0.00     0.023 C 
ENDROOT
BRANCH   1   2
ATOM      2  C   UNL A   1      32.650  32.820  27.140  1.00  0.00     0.116 C 
BRANCH   2   3
ATOM      3  N   UNL A   1      32.390  34.177  27.597  1.00  0.00    -0.352 N 
ATOM      4  O   UNL A   1      32.568  35.983  28.944  1.00  0.00    -0.269 OA
ATOM      5  C   UNL A   1      33.006  34.890  28.599  1.00  0.00     0.251 C 
ATOM      6  H   UNL A   1      31.671  34.652  27.122  1.00  0.00     0.163 HD
BRANCH   5   7
ATOM      7  C   UNL A   1      34.187  34.320  29.285  1.00  0.00     0.039 A 
ATOM      8  C   UNL A   1      35.474  34.609  28.831  1.00  0.00     0.014 A 
ATOM      9  C   UNL A   1      34.003  33.476  30.384  1.00  0.00     0.014 A 
ATOM     10  C   UNL A   1      36.559  33.924  29.362  1.00  0.00     0.010 A 
ATOM     11  C   UNL A   1      35.109  32.866  30.986  1.00  0.00     0.010 A 
ATOM     12  C   UNL A   1      36.393  33.057  30.457  1.00  0.00    -0.014 A 
BRANCH  12  13
ATOM     13  C   UNL A   1      37.600  32.434  31.058  1.00  0.00     0.031 A 
ATOM     14  C   UNL A   1      38.065  32.790  32.443  1.00  0.00     0.074 A 
ATOM     15  C   UNL A   1      38.240  31.481  30.352  1.00  0.00     0.049 A 
ATOM     16  N   UNL A   1      39.060  32.285  33.130  1.00  0.00    -0.248 NA
ATOM     17  C   UNL A   1      37.330  33.851  33.147  1.00  0.00     0.031 C 
ATOM     18  C   UNL A   1      37.891  31.069  28.990  1.00  0.00     0.029 A 
ATOM     19  N   UNL A   1      39.290  30.665  30.685  1.00  0.00    -0.354 N 
ATOM     20  C   UNL A   1      39.079  32.971  34.338  1.00  0.00     0.074 A 
ATOM     21  C   UNL A   1      38.012  33.948  34.282  1.00  0.00     0.031 C 
ATOM     22  C   UNL A   1      38.666  30.038  28.629  1.00  0.00     0.029 A 
ATOM     23  C   UNL A   1      39.609  29.758  29.704  1.00  0.00     0.049 A 
ATOM     24  H   UNL A   1      39.769  30.723  31.543  1.00  0.00     0.167 HD
ATOM     25  C   UNL A   1      39.904  32.791  35.396  1.00  0.00     0.037 A 
ATOM     26  C   UNL A   1      40.562  28.809  29.668  1.00  0.00     0.037 A 
ATOM     27  C   UNL A   1      40.956  31.806  35.452  1.00  0.00     0.049 A 
ATOM     28  C   UNL A   1      41.458  28.636  30.859  1.00  0.00     0.074 A 
ATOM     29  C   UNL A   1      41.836  31.538  36.488  1.00  0.00     0.029 A 
ATOM     30  N   UNL A   1      41.266  30.923  34.429  1.00  0.00    -0.354 N 
ATOM     31  N   UNL A   1      41.450  29.280  32.000  1.00  0.00    -0.248 NA
ATOM     32  C   UNL A   1      42.501  27.607  30.754  1.00  0.00     0.031 C 
ATOM     33  C   UNL A   1      42.702  30.518  36.077  1.00  0.00     0.029 A 
ATOM     34  C   UNL A   1      42.334  30.120  34.802  1.00  0.00     0.049 A 
ATOM     35  H   UNL A   1      40.798  30.873  33.564  1.00  0.00     0.167 HD
ATOM     36  C   UNL A   1      42.481  28.735  32.750  1.00  0.00     0.074 A 
ATOM     37  C   UNL A   1      43.069  27.680  31.948  1.00  0.00     0.031 C 
ATOM     38  C   UNL A   1      42.912  29.084  33.986  1.00  0.00     0.037 A 
BRANCH  25  39
ATOM     39  C   UNL A   1      39.718  33.680  36.592  1.00  0.00     0.064 A 
ATOM     40  C   UNL A   1      40.322  34.944  36.669  1.00  0.00     0.173 A 
ATOM     41  C   UNL A   1      38.863  33.298  37.637  1.00  0.00     0.173 A 
ATOM     42  F   UNL A   1      41.156  35.352  35.700  1.00  0.00    -0.203 F 
ATOM     43  C   UNL A   1      40.085  35.787  37.751  1.00  0.00     0.198 A 
ATOM     44  C   UNL A   1      38.609  34.154  38.707  1.00  0.00     0.198 A 
ATOM     45  F   UNL A   1      38.254  32.103  37.610  1.00  0.00    -0.203 F 
ATOM     46  F   UNL A   1      40.694  36.980  37.815  1.00  0.00    -0.200 F 
ATOM     47  C   UNL A   1      39.223  35.396  38.765  1.00  0.00     0.200 A 
ATOM     48  F   UNL A   1      37.767  33.779  39.679  1.00  0.00    -0.200 F 
ATOM     49  F   UNL A   1      38.983  36.216  39.797  1.00  0.00    -0.200 F 
ENDBRANCH  25  39
BRANCH  26  50
ATOM     50  C   UNL A   1      40.717  27.964  28.457  1.00  0.00     0.064 A 
ATOM     51  C   UNL A   1      41.498  28.387  27.374  1.00  0.00     0.173 A 
ATOM     52  C   UNL A   1      40.090  26.713  28.362  1.00  0.00     0.173 A 
ATOM     53  F   UNL A   1      42.102  29.582  27.409  1.00  0.00    -0.203 F 
ATOM     54  C   UNL A   1      41.629  27.598  26.232  1.00  0.00     0.198 A 
ATOM     55  C   UNL A   1      40.248  25.911  27.236  1.00  0.00     0.198 A 
ATOM     56  F   UNL A   1      39.336  26.261  29.376  1.00  0.00    -0.203 F 
ATOM     57  F   UNL A   1      42.344  28.045  25.190  1.00  0.00    -0.200 F 
ATOM     58  C   UNL A   1      41.010  26.358  26.168  1.00  0.00     0.200 A 
ATOM     59  F   UNL A   1      39.663  24.706  27.186  1.00  0.00    -0.200 F 
ATOM     60  F   UNL A   1      41.143  25.597  25.072  1.00  0.00    -0.200 F 
ENDBRANCH  26  50
BRANCH  38  61
ATOM     61  C   UNL A   1      44.071  28.310  34.538  1.00  0.00     0.064 A 
ATOM     62  C   UNL A   1      43.876  27.128  35.270  1.00  0.00     0.173 A 
ATOM     63  C   UNL A   1      45.386  28.751  34.334  1.00  0.00     0.173 A 
ATOM     64  F   UNL A   1      42.635  26.678  35.506  1.00  0.00    -0.203 F 
ATOM     65  C   UNL A   1      44.957  26.435  35.807  1.00  0.00     0.198 A 
ATOM     66  C   UNL A   1      46.465  28.039  34.849  1.00  0.00     0.198 A 
ATOM     67  F   UNL A   1      45.624  29.872  33.637  1.00  0.00    -0.203 F 
ATOM     68  F   UNL A   1      44.745  25.342  36.551  1.00  0.00    -0.200 F 
ATOM     69  C   UNL A   1      46.250  26.889  35.593  1.00  0.00     0.200 A 
ATOM     70  F   UNL A   1      47.716  28.473  34.634  1.00  0.00    -0.200 F 
ATOM     71  F   UNL A   1      47.289  26.222  36.116  1.00  0.00    -0.200 F 
ENDBRANCH  38  61
ENDBRANCH  12  13
ENDBRANCH   5   7
ENDBRANCH   2   3
ENDBRANCH   1   2
BRANCH   1  72
ATOM     72  C   UNL A   1      31.406  30.986  25.827  1.00  0.00     0.023 C 
BRANCH  72  73
ATOM     73  C   UNL A   1      32.519  29.947  25.892  1.00  0.00     0.116 C 
BRANCH  73  74
ATOM     74  N   UNL A   1      33.160  29.719  24.612  1.00  0.00    -0.352 N 
ATOM     75  C   UNL A   1      32.715  28.974  23.551  1.00  0.00     0.255 C 
ATOM     76  H   UNL A   1      34.032  30.159  24.488  1.00  0.00     0.163 HD
ATOM     77  O   UNL A   1      33.411  28.874  22.542  1.00  0.00    -0.269 OA
BRANCH  75  78
ATOM     78  C   UNL A   1      31.450  28.218  23.639  1.00  0.00     0.081 A 
ATOM     79  C   UNL A   1      30.332  28.817  23.035  1.00  0.00     0.018 A 
ATOM     80  C   UNL A   1      31.335  26.989  24.309  1.00  0.00     0.132 A 
ATOM     81  C   UNL A   1      29.094  28.184  23.074  1.00  0.00     0.001 A 
ATOM     82  C   UNL A   1      30.070  26.390  24.375  1.00  0.00     0.047 A 
ATOM     83  C   UNL A   1      28.963  26.975  23.749  1.00  0.00     0.004 A 
BRANCH  80  84
ATOM     84  O   UNL A   1      32.477  26.448  24.848  1.00  0.00    -0.489 OA
BRANCH  84  85
ATOM     85  C   UNL A   1      32.915  25.165  24.387  1.00  0.00     0.178 C 
ATOM     86  C   UNL A   1      32.965  25.086  22.860  1.00  0.00     0.074 C 
ATOM     87  C   UNL A   1      34.340  24.916  24.907  1.00  0.00     0.080 C 
ATOM     88  C   UNL A   1      33.471  23.719  22.445  1.00  0.00     0.165 C 
ATOM     89  C   UNL A   1      34.896  23.559  24.411  1.00  0.00     0.073 C 
ATOM     90  O   UNL A   1      34.764  23.469  22.981  1.00  0.00    -0.375 OA
ATOM     91  C   UNL A   1      34.182  22.387  25.123  1.00  0.00     0.046 C 
ATOM     92  C   UNL A   1      36.416  23.502  24.685  1.00  0.00     0.046 C 
ATOM     93  C   UNL A   1      34.665  21.006  24.699  1.00  0.00     0.072 C 
ATOM     94  C   UNL A   1      37.076  22.209  24.213  1.00  0.00     0.072 C 
ATOM     95  S   UNL A   1      36.415  20.766  25.090  1.00  0.00    -0.162 SA
ENDBRANCH  84  85
ENDBRANCH  80  84
ENDBRANCH  75  78
ENDBRANCH  73  74
ENDBRANCH  72  73
ENDBRANCH   1  72
TORSDOF 13
ENDMDL
MODEL 2
REMARK VINA RESULT:     -13.1      0.081      1.117
REMARK SMILES O=C(NCCCCNC(=O)c1ccccc1O[C@H]1CCOC2(CCSCC2)C1)c1ccc(-c2c3nc(c(-c4c(F)c(F)c(F)c(F)c4F)c4ccc([nH]4)c(-c4c(F)c(F)c(F)c(F)c4F)c4nc(c(-c5c(F)c(F)c(F)c(F)c5F)c5ccc2[nH]5)C=C4)C=C3)cc1
REMARK SMILES IDX 5 1 4 2 3 3 1 4 2 5 29 7 30 8 91 9 31 10 90 11 32 12 33 13
REMARK SMILES IDX 34 14 84 15 35 16 89 17 83 18 85 19 36 20 88 21 82 22 81 23
REMARK SMILES IDX 37 25 69 26 49 27 68 28 50 29 53 30 67 31 86 32 51 33 52 34
REMARK SMILES IDX 66 36 87 37 54 38 38 39 39 40 47 41 40 42 41 43 45 44 48 45
REMARK SMILES IDX 42 46 43 47 46 48 44 49 70 50 71 51 79 52 72 53 73 54 77 55
REMARK SMILES IDX 80 56 74 57 75 58 78 59 76 60 55 61 56 62 64 63 57 64 58 65
REMARK SMILES IDX 62 66 65 67 59 68 60 69 63 70 61 71 6 72 7 73 8 74 9 75
REMARK SMILES IDX 10 77 11 78 12 79 16 80 13 81 15 82 14 83 17 84 18 85 19 86
REMARK SMILES IDX 28 87 20 88 22 89 21 90 23 91 27 92 24 93 26 94 25 95
REMARK H PARENT 3 6 85 24 53 35 8 76
REMARK Flexibility Score: inf
ROOT
ATOM      1  C   UNL A   1      31.346  32.041  26.911  1.00  0.00     0.023 C 
ENDROOT
BRANCH   1   2
ATOM      2  C   UNL A   1      32.620  32.830  27.176  1.00  0.00     0.116 C 
BRANCH   2   3
ATOM      3  N   UNL A   1      32.368  34.191  27.625  1.00  0.00    -0.352 N 
ATOM      4  O   UNL A   1      32.560  36.008  28.955  1.00  0.00    -0.269 OA
ATOM      5  C   UNL A   1      32.993  34.911  28.616  1.00  0.00     0.251 C 
ATOM      6  H   UNL A   1      31.646  34.665  27.152  1.00  0.00     0.163 HD
BRANCH   5   7
ATOM      7  C   UNL A   1      34.178  34.344  29.297  1.00  0.00     0.039 A 
ATOM      8  C   UNL A   1      35.461  34.600  28.811  1.00  0.00     0.014 A 
ATOM      9  C   UNL A   1      34.003  33.536  30.424  1.00  0.00     0.014 A 
ATOM     10  C   UNL A   1      36.546  33.915  29.342  1.00  0.00     0.010 A 
ATOM     11  C   UNL A   1      35.111  32.927  31.023  1.00  0.00     0.010 A 
ATOM     12  C   UNL A   1      36.388  33.083  30.465  1.00  0.00    -0.014 A 
BRANCH  12  13
ATOM     13  C   UNL A   1      37.596  32.460  31.063  1.00  0.00     0.031 A 
ATOM     14  C   UNL A   1      38.065  32.815  32.447  1.00  0.00     0.074 A 
ATOM     15  C   UNL A   1      38.235  31.508  30.354  1.00  0.00     0.049 A 
ATOM     16  N   UNL A   1      39.061  32.310  33.131  1.00  0.00    -0.248 NA
ATOM     17  C   UNL A   1      37.331  33.875  33.154  1.00  0.00     0.031 C 
ATOM     18  C   UNL A   1      37.882  31.098  28.993  1.00  0.00     0.029 A 
ATOM     19  N   UNL A   1      39.287  30.692  30.684  1.00  0.00    -0.354 N 
ATOM     20  C   UNL A   1      39.083  32.995  34.340  1.00  0.00     0.074 A 
ATOM     21  C   UNL A   1      38.015  33.971  34.287  1.00  0.00     0.031 C 
ATOM     22  C   UNL A   1      38.657  30.067  28.628  1.00  0.00     0.029 A 
ATOM     23  C   UNL A   1      39.603  29.786  29.701  1.00  0.00     0.049 A 
ATOM     24  H   UNL A   1      39.768  30.750  31.540  1.00  0.00     0.167 HD
ATOM     25  C   UNL A   1      39.912  32.814  35.396  1.00  0.00     0.037 A 
ATOM     26  C   UNL A   1      40.557  28.838  29.662  1.00  0.00     0.037 A 
ATOM     27  C   UNL A   1      40.964  31.830  35.448  1.00  0.00     0.049 A 
ATOM     28  C   UNL A   1      41.456  28.665  30.850  1.00  0.00     0.074 A 
ATOM     29  C   UNL A   1      41.847  31.561  36.481  1.00  0.00     0.029 A 
ATOM     30  N   UNL A   1      41.272  30.947  34.422  1.00  0.00    -0.354 N 
ATOM     31  N   UNL A   1      41.450  29.307  31.992  1.00  0.00    -0.248 NA
ATOM     32  C   UNL A   1      42.499  27.636  30.741  1.00  0.00     0.031 C 
ATOM     33  C   UNL A   1      42.712  30.542  36.066  1.00  0.00     0.029 A 
ATOM     34  C   UNL A   1      42.340  30.145  34.793  1.00  0.00     0.049 A 
ATOM     35  H   UNL A   1      40.801  30.898  33.559  1.00  0.00     0.167 HD
ATOM     36  C   UNL A   1      42.483  28.762  32.738  1.00  0.00     0.074 A 
ATOM     37  C   UNL A   1      43.070  27.708  31.934  1.00  0.00     0.031 C 
ATOM     38  C   UNL A   1      42.917  29.110  33.974  1.00  0.00     0.037 A 
BRANCH  25  39
ATOM     39  C   UNL A   1      39.728  33.701  36.593  1.00  0.00     0.064 A 
ATOM     40  C   UNL A   1      40.319  34.972  36.663  1.00  0.00     0.173 A 
ATOM     41  C   UNL A   1      38.888  33.311  37.646  1.00  0.00     0.173 A 
ATOM     42  F   UNL A   1      41.138  35.389  35.685  1.00  0.00    -0.203 F 
ATOM     43  C   UNL A   1      40.084  35.814  37.747  1.00  0.00     0.198 A 
ATOM     44  C   UNL A   1      38.636  34.165  38.718  1.00  0.00     0.198 A 
ATOM     45  F   UNL A   1      38.292  32.110  37.627  1.00  0.00    -0.203 F 
ATOM     46  F   UNL A   1      40.680  37.012  37.804  1.00  0.00    -0.200 F 
ATOM     47  C   UNL A   1      39.237  35.413  38.769  1.00  0.00     0.200 A 
ATOM     48  F   UNL A   1      37.807  33.781  39.699  1.00  0.00    -0.200 F 
ATOM     49  F   UNL A   1      38.998  36.231  39.804  1.00  0.00    -0.200 F 
ENDBRANCH  25  39
BRANCH  26  50
ATOM     50  C   UNL A   1      40.709  27.995  28.449  1.00  0.00     0.064 A 
ATOM     51  C   UNL A   1      41.486  28.419  27.364  1.00  0.00     0.173 A 
ATOM     52  C   UNL A   1      40.082  26.743  28.355  1.00  0.00     0.173 A 
ATOM     53  F   UNL A   1      42.090  29.615  27.399  1.00  0.00    -0.203 F 
ATOM     54  C   UNL A   1      41.615  27.632  26.222  1.00  0.00     0.198 A 
ATOM     55  C   UNL A   1      40.238  25.943  27.227  1.00  0.00     0.198 A 
ATOM     56  F   UNL A   1      39.332  26.289  29.371  1.00  0.00    -0.203 F 
ATOM     57  F   UNL A   1      42.327  28.080  25.178  1.00  0.00    -0.200 F 
ATOM     58  C   UNL A   1      40.997  26.391  26.158  1.00  0.00     0.200 A 
ATOM     59  F   UNL A   1      39.654  24.737  27.178  1.00  0.00    -0.200 F 
ATOM     60  F   UNL A   1      41.127  25.631  25.061  1.00  0.00    -0.200 F 
ENDBRANCH  26  50
BRANCH  38  61
ATOM     61  C   UNL A   1      44.078  28.336  34.522  1.00  0.00     0.064 A 
ATOM     62  C   UNL A   1      45.399  28.770  34.332  1.00  0.00     0.173 A 
ATOM     63  C   UNL A   1      43.870  27.151  35.243  1.00  0.00     0.173 A 
ATOM     64  F   UNL A   1      45.647  29.888  33.634  1.00  0.00    -0.203 F 
ATOM     65  C   UNL A   1      46.471  28.026  34.816  1.00  0.00     0.198 A 
ATOM     66  C   UNL A   1      44.944  26.425  35.748  1.00  0.00     0.198 A 
ATOM     67  F   UNL A   1      42.625  26.697  35.455  1.00  0.00    -0.203 F 
ATOM     68  F   UNL A   1      47.726  28.428  34.573  1.00  0.00    -0.200 F 
ATOM     69  C   UNL A   1      46.243  26.856  35.526  1.00  0.00     0.200 A 
ATOM     70  F   UNL A   1      44.722  25.299  36.442  1.00  0.00    -0.200 F 
ATOM     71  F   UNL A   1      47.277  26.139  35.985  1.00  0.00    -0.200 F 
ENDBRANCH  38  61
ENDBRANCH  12  13
ENDBRANCH   5   7
ENDBRANCH   2   3
ENDBRANCH   1   2
BRANCH   1  72
ATOM     72  C   UNL A   1      31.439  31.009  25.791  1.00  0.00     0.023 C 
BRANCH  72  73
ATOM     73  C   UNL A   1      32.559  29.986  25.939  1.00  0.00     0.116 C 
BRANCH  73  74
ATOM     74  N   UNL A   1      33.258  29.724  24.696  1.00  0.00    -0.352 N 
ATOM     75  C   UNL A   1      32.837  28.995  23.614  1.00  0.00     0.255 C 
ATOM     76  H   UNL A   1      34.154  30.123  24.619  1.00  0.00     0.163 HD
ATOM     77  O   UNL A   1      33.581  28.860  22.644  1.00  0.00    -0.269 OA
BRANCH  75  78
ATOM     78  C   UNL A   1      31.536  28.298  23.635  1.00  0.00     0.081 A 
ATOM     79  C   UNL A   1      30.485  28.936  22.956  1.00  0.00     0.018 A 
ATOM     80  C   UNL A   1      31.326  27.085  24.311  1.00  0.00     0.132 A 
ATOM     81  C   UNL A   1      29.219  28.359  22.929  1.00  0.00     0.001 A 
ATOM     82  C   UNL A   1      30.034  26.544  24.309  1.00  0.00     0.047 A 
ATOM     83  C   UNL A   1      28.994  27.168  23.610  1.00  0.00     0.004 A 
BRANCH  80  84
ATOM     84  O   UNL A   1      32.408  26.502  24.926  1.00  0.00    -0.489 OA
BRANCH  84  85
ATOM     85  C   UNL A   1      32.870  25.233  24.448  1.00  0.00     0.178 C 
ATOM     86  C   UNL A   1      32.942  25.181  22.920  1.00  0.00     0.074 C 
ATOM     87  C   UNL A   1      34.291  24.993  24.983  1.00  0.00     0.080 C 
ATOM     88  C   UNL A   1      33.471  23.829  22.489  1.00  0.00     0.165 C 
ATOM     89  C   UNL A   1      34.871  23.653  24.472  1.00  0.00     0.073 C 
ATOM     90  O   UNL A   1      34.760  23.586  23.039  1.00  0.00    -0.375 OA
ATOM     91  C   UNL A   1      34.163  22.459  25.154  1.00  0.00     0.046 C 
ATOM     92  C   UNL A   1      36.388  23.611  24.766  1.00  0.00     0.046 C 
ATOM     93  C   UNL A   1      34.670  21.092  24.712  1.00  0.00     0.072 C 
ATOM     94  C   UNL A   1      37.071  22.335  24.280  1.00  0.00     0.072 C 
ATOM     95  S   UNL A   1      36.418  20.868  25.124  1.00  0.00    -0.162 SA
ENDBRANCH  84  85
ENDBRANCH  80  84
ENDBRANCH  75  78
ENDBRANCH  73  74
ENDBRANCH  72  73
ENDBRANCH   1  72
TORSDOF 13
ENDMDL
MODEL 3
REMARK VINA RESULT:     -13.0      5.299     10.896
REMARK SMILES O=C(NCCCCNC(=O)c1ccccc1O[C@H]1CCOC2(CCSCC2)C1)c1ccc(-c2c3nc(c(-c4c(F)c(F)c(F)c(F)c4F)c4ccc([nH]4)c(-c4c(F)c(F)c(F)c(F)c4F)c4nc(c(-c5c(F)c(F)c(F)c(F)c5F)c5ccc2[nH]5)C=C4)C=C3)cc1
REMARK SMILES IDX 5 1 4 2 3 3 1 4 2 5 29 7 30 8 91 9 31 10 90 11 32 12 33 13
REMARK SMILES IDX 34 14 84 15 35 16 89 17 83 18 85 19 36 20 88 21 82 22 81 23
REMARK SMILES IDX 37 25 69 26 49 27 68 28 50 29 53 30 67 31 86 32 51 33 52 34
REMARK SMILES IDX 66 36 87 37 54 38 38 39 39 40 47 41 40 42 41 43 45 44 48 45
REMARK SMILES IDX 42 46 43 47 46 48 44 49 70 50 71 51 79 52 72 53 73 54 77 55
REMARK SMILES IDX 80 56 74 57 75 58 78 59 76 60 55 61 56 62 64 63 57 64 58 65
REMARK SMILES IDX 62 66 65 67 59 68 60 69 63 70 61 71 6 72 7 73 8 74 9 75
REMARK SMILES IDX 10 77 11 78 12 79 16 80 13 81 15 82 14 83 17 84 18 85 19 86
REMARK SMILES IDX 28 87 20 88 22 89 21 90 23 91 27 92 24 93 26 94 25 95
REMARK H PARENT 3 6 85 24 53 35 8 76
REMARK Flexibility Score: inf
ROOT
ATOM      1  C   UNL A   1      38.139  19.942  24.685  1.00  0.00     0.023 C 
ENDROOT
BRANCH   1   2
ATOM      2  C   UNL A   1      39.115  20.188  25.827  1.00  0.00     0.116 C 
BRANCH   2   3
ATOM      3  N   UNL A   1      40.174  19.193  25.899  1.00  0.00    -0.352 N 
ATOM      4  O   UNL A   1      42.297  18.425  25.999  1.00  0.00    -0.269 OA
ATOM      5  C   UNL A   1      41.523  19.371  26.102  1.00  0.00     0.251 C 
ATOM      6  H   UNL A   1      39.885  18.260  25.787  1.00  0.00     0.163 HD
BRANCH   5   7
ATOM      7  C   UNL A   1      42.045  20.720  26.416  1.00  0.00     0.039 A 
ATOM      8  C   UNL A   1      42.280  21.096  27.739  1.00  0.00     0.014 A 
ATOM      9  C   UNL A   1      42.288  21.623  25.376  1.00  0.00     0.014 A 
ATOM     10  C   UNL A   1      42.589  22.417  28.034  1.00  0.00     0.010 A 
ATOM     11  C   UNL A   1      42.701  22.927  25.670  1.00  0.00     0.010 A 
ATOM     12  C   UNL A   1      42.820  23.345  27.003  1.00  0.00    -0.014 A 
BRANCH  12  13
ATOM     13  C   UNL A   1      43.256  24.717  27.368  1.00  0.00     0.031 A 
ATOM     14  C   UNL A   1      44.648  25.206  27.079  1.00  0.00     0.074 A 
ATOM     15  C   UNL A   1      42.344  25.548  27.912  1.00  0.00     0.049 A 
ATOM     16  N   UNL A   1      45.158  26.397  27.277  1.00  0.00    -0.248 NA
ATOM     17  C   UNL A   1      45.594  24.240  26.503  1.00  0.00     0.031 C 
ATOM     18  C   UNL A   1      40.970  25.175  28.257  1.00  0.00     0.029 A 
ATOM     19  N   UNL A   1      42.419  26.877  28.240  1.00  0.00    -0.354 N 
ATOM     20  C   UNL A   1      46.481  26.322  26.863  1.00  0.00     0.074 A 
ATOM     21  C   UNL A   1      46.706  24.960  26.425  1.00  0.00     0.031 C 
ATOM     22  C   UNL A   1      40.313  26.261  28.686  1.00  0.00     0.029 A 
ATOM     23  C   UNL A   1      41.234  27.391  28.709  1.00  0.00     0.049 A 
ATOM     24  H   UNL A   1      43.241  27.411  28.149  1.00  0.00     0.167 HD
ATOM     25  C   UNL A   1      47.415  27.303  26.841  1.00  0.00     0.037 A 
ATOM     26  C   UNL A   1      40.924  28.633  29.121  1.00  0.00     0.037 A 
ATOM     27  C   UNL A   1      47.180  28.661  27.265  1.00  0.00     0.049 A 
ATOM     28  C   UNL A   1      41.981  29.696  29.082  1.00  0.00     0.074 A 
ATOM     29  C   UNL A   1      48.060  29.731  27.266  1.00  0.00     0.029 A 
ATOM     30  N   UNL A   1      45.975  29.138  27.758  1.00  0.00    -0.354 N 
ATOM     31  N   UNL A   1      43.222  29.613  28.669  1.00  0.00    -0.248 NA
ATOM     32  C   UNL A   1      41.596  31.026  29.571  1.00  0.00     0.031 C 
ATOM     33  C   UNL A   1      47.398  30.845  27.795  1.00  0.00     0.029 A 
ATOM     34  C   UNL A   1      46.093  30.481  28.082  1.00  0.00     0.049 A 
ATOM     35  H   UNL A   1      45.156  28.601  27.864  1.00  0.00     0.167 HD
ATOM     36  C   UNL A   1      43.766  30.875  28.845  1.00  0.00     0.074 A 
ATOM     37  C   UNL A   1      42.708  31.717  29.367  1.00  0.00     0.031 C 
ATOM     38  C   UNL A   1      45.032  31.298  28.610  1.00  0.00     0.037 A 
BRANCH  25  39
ATOM     39  C   UNL A   1      48.790  26.954  26.348  1.00  0.00     0.064 A 
ATOM     40  C   UNL A   1      49.768  26.434  27.209  1.00  0.00     0.173 A 
ATOM     41  C   UNL A   1      49.107  27.066  24.987  1.00  0.00     0.173 A 
ATOM     42  F   UNL A   1      49.517  26.315  28.522  1.00  0.00    -0.203 F 
ATOM     43  C   UNL A   1      51.016  26.048  26.726  1.00  0.00     0.198 A 
ATOM     44  C   UNL A   1      50.348  26.658  24.502  1.00  0.00     0.198 A 
ATOM     45  F   UNL A   1      48.206  27.551  24.119  1.00  0.00    -0.203 F 
ATOM     46  F   UNL A   1      51.944  25.578  27.571  1.00  0.00    -0.200 F 
ATOM     47  C   UNL A   1      51.303  26.153  25.373  1.00  0.00     0.200 A 
ATOM     48  F   UNL A   1      50.619  26.748  23.193  1.00  0.00    -0.200 F 
ATOM     49  F   UNL A   1      52.498  25.766  24.907  1.00  0.00    -0.200 F 
ENDBRANCH  25  39
BRANCH  26  50
ATOM     50  C   UNL A   1      39.554  28.926  29.614  1.00  0.00     0.064 A 
ATOM     51  C   UNL A   1      38.570  29.439  28.759  1.00  0.00     0.173 A 
ATOM     52  C   UNL A   1      39.201  28.694  30.952  1.00  0.00     0.173 A 
ATOM     53  F   UNL A   1      38.864  29.695  27.476  1.00  0.00    -0.203 F 
ATOM     54  C   UNL A   1      37.290  29.727  29.228  1.00  0.00     0.198 A 
ATOM     55  C   UNL A   1      37.913  28.951  31.412  1.00  0.00     0.198 A 
ATOM     56  F   UNL A   1      40.107  28.198  31.809  1.00  0.00    -0.203 F 
ATOM     57  F   UNL A   1      36.380  30.260  28.402  1.00  0.00    -0.200 F 
ATOM     58  C   UNL A   1      36.961  29.475  30.553  1.00  0.00     0.200 A 
ATOM     59  F   UNL A   1      37.595  28.689  32.688  1.00  0.00    -0.200 F 
ATOM     60  F   UNL A   1      35.727  29.746  31.001  1.00  0.00    -0.200 F 
ENDBRANCH  26  50
BRANCH  38  61
ATOM     61  C   UNL A   1      45.328  32.736  28.914  1.00  0.00     0.064 A 
ATOM     62  C   UNL A   1      45.828  33.129  30.165  1.00  0.00     0.173 A 
ATOM     63  C   UNL A   1      45.110  33.730  27.949  1.00  0.00     0.173 A 
ATOM     64  F   UNL A   1      46.035  32.216  31.126  1.00  0.00    -0.203 F 
ATOM     65  C   UNL A   1      46.068  34.470  30.449  1.00  0.00     0.198 A 
ATOM     66  C   UNL A   1      45.377  35.067  28.228  1.00  0.00     0.198 A 
ATOM     67  F   UNL A   1      44.638  33.404  26.736  1.00  0.00    -0.203 F 
ATOM     68  F   UNL A   1      46.490  34.829  31.669  1.00  0.00    -0.200 F 
ATOM     69  C   UNL A   1      45.845  35.437  29.480  1.00  0.00     0.200 A 
ATOM     70  F   UNL A   1      45.171  36.000  27.288  1.00  0.00    -0.200 F 
ATOM     71  F   UNL A   1      46.071  36.729  29.757  1.00  0.00    -0.200 F 
ENDBRANCH  38  61
ENDBRANCH  12  13
ENDBRANCH   5   7
ENDBRANCH   2   3
ENDBRANCH   1   2
BRANCH   1  72
ATOM     72  C   UNL A   1      36.676  20.239  25.001  1.00  0.00     0.023 C 
BRANCH  72  73
ATOM     73  C   UNL A   1      36.404  21.612  25.602  1.00  0.00     0.116 C 
BRANCH  73  74
ATOM     74  N   UNL A   1      35.431  21.582  26.676  1.00  0.00    -0.352 N 
ATOM     75  C   UNL A   1      34.068  21.463  26.594  1.00  0.00     0.255 C 
ATOM     76  H   UNL A   1      35.798  21.657  27.586  1.00  0.00     0.163 HD
ATOM     77  O   UNL A   1      33.392  21.477  27.621  1.00  0.00    -0.269 OA
BRANCH  75  78
ATOM     78  C   UNL A   1      33.394  21.404  25.281  1.00  0.00     0.081 A 
ATOM     79  C   UNL A   1      32.949  20.135  24.874  1.00  0.00     0.018 A 
ATOM     80  C   UNL A   1      33.225  22.526  24.454  1.00  0.00     0.132 A 
ATOM     81  C   UNL A   1      32.311  19.978  23.648  1.00  0.00     0.001 A 
ATOM     82  C   UNL A   1      32.620  22.339  23.204  1.00  0.00     0.047 A 
ATOM     83  C   UNL A   1      32.153  21.079  22.812  1.00  0.00     0.004 A 
BRANCH  80  84
ATOM     84  O   UNL A   1      33.656  23.740  24.932  1.00  0.00    -0.489 OA
BRANCH  84  85
ATOM     85  C   UNL A   1      32.703  24.798  25.084  1.00  0.00     0.178 C 
ATOM     86  C   UNL A   1      31.528  24.394  25.978  1.00  0.00     0.074 C 
ATOM     87  C   UNL A   1      33.398  25.995  25.752  1.00  0.00     0.080 C 
ATOM     88  C   UNL A   1      30.583  25.569  26.124  1.00  0.00     0.165 C 
ATOM     89  C   UNL A   1      32.414  27.166  25.986  1.00  0.00     0.073 C 
ATOM     90  O   UNL A   1      31.248  26.693  26.685  1.00  0.00    -0.375 OA
ATOM     91  C   UNL A   1      32.039  27.836  24.643  1.00  0.00     0.046 C 
ATOM     92  C   UNL A   1      33.067  28.199  26.932  1.00  0.00     0.046 C 
ATOM     93  C   UNL A   1      31.070  29.005  24.774  1.00  0.00     0.072 C 
ATOM     94  C   UNL A   1      32.170  29.392  27.251  1.00  0.00     0.072 C 
ATOM     95  S   UNL A   1      31.778  30.347  25.760  1.00  0.00    -0.162 SA
ENDBRANCH  84  85
ENDBRANCH  80  84
ENDBRANCH  75  78
ENDBRANCH  73  74
ENDBRANCH  72  73
ENDBRANCH   1  72
TORSDOF 13
ENDMDL
