MODEL 1
REMARK VINA RESULT:     -14.2      0.000      0.000
REMARK SMILES Cc1ccccc1OC1(C(=O)NCCCCNC(=O)c2ccc(-c3c4nc(c(-c5c(F)c(F)c(F)c(F)c5F)c5ccc([nH]5)c(-c5c(F)c(F)c(F)c(F)c5F)c5nc(c(-c6c(F)c(F)c(F)c(F)c6F)c6ccc3[nH]6)C=C5)C=C4)cc2)CCN(C(=O)[C@H]2CCCCO2)CC1
REMARK SMILES IDX 14 1 13 2 12 3 10 4 11 5 9 7 83 8 95 9 84 10 94 11 85 12
REMARK SMILES IDX 86 13 87 14 8 15 7 16 1 17 2 18 3 19 4 20 6 21 5 22 88 23
REMARK SMILES IDX 89 24 93 25 90 26 92 27 91 28 15 29 16 30 17 31 18 32 19 34
REMARK SMILES IDX 20 35 21 36 82 37 22 38 81 39 23 40 24 41 25 42 75 43 26 44
REMARK SMILES IDX 80 45 74 46 76 47 27 48 79 49 73 50 72 51 28 53 60 54 40 55
REMARK SMILES IDX 59 56 41 57 44 58 58 59 77 60 42 61 43 62 57 64 78 65 45 66
REMARK SMILES IDX 29 67 30 68 38 69 31 70 32 71 36 72 39 73 33 74 34 75 37 76
REMARK SMILES IDX 35 77 61 78 62 79 70 80 63 81 64 82 68 83 71 84 65 85 66 86
REMARK SMILES IDX 69 87 67 88 46 89 47 90 55 91 48 92 49 93 53 94 56 95 50 96
REMARK SMILES IDX 51 97 54 98 52 99
REMARK H PARENT 12 6 17 33 76 52 44 63
REMARK Flexibility Score: inf
ROOT
ATOM      1  C   UNL A   1      34.464  28.976  26.600  1.00  0.00     0.023 C 
ENDROOT
BRANCH   1   2
ATOM      2  C   UNL A   1      33.570  28.254  25.580  1.00  0.00     0.116 C 
BRANCH   2   3
ATOM      3  N   UNL A   1      32.317  27.784  26.142  1.00  0.00    -0.353 N 
ATOM      4  C   UNL A   1      31.563  26.656  25.960  1.00  0.00     0.264 C 
ATOM      5  O   UNL A   1      30.587  26.582  26.720  1.00  0.00    -0.270 OA
ATOM      6  H   UNL A   1      31.926  28.411  26.793  1.00  0.00     0.163 HD
BRANCH   4   7
ATOM      7  C   UNL A   1      31.887  25.533  24.894  1.00  0.00     0.190 C 
ATOM      8  C   UNL A   1      33.388  25.281  24.927  1.00  0.00     0.080 C 
ATOM      9  C   UNL A   1      30.917  24.371  25.126  1.00  0.00     0.080 C 
ATOM     10  C   UNL A   1      33.830  23.971  25.548  1.00  0.00     0.124 C 
ATOM     11  C   UNL A   1      31.502  23.018  25.518  1.00  0.00     0.124 C 
ATOM     12  N   UNL A   1      32.940  22.837  25.361  1.00  0.00    -0.340 N 
ATOM     13  C   UNL A   1      33.559  21.578  25.344  1.00  0.00     0.251 C 
ATOM     14  O   UNL A   1      34.783  21.479  25.481  1.00  0.00    -0.272 OA
BRANCH   7  15
ATOM     15  O   UNL A   1      31.535  26.217  23.655  1.00  0.00    -0.477 OA
BRANCH  15  16
ATOM     16  C   UNL A   1      30.640  27.194  23.342  1.00  0.00     0.123 A 
ATOM     17  C   UNL A   1      28.320  26.313  24.099  1.00  0.00     0.048 C 
ATOM     18  C   UNL A   1      29.251  27.313  23.505  1.00  0.00    -0.009 A 
ATOM     19  C   UNL A   1      28.583  28.463  23.010  1.00  0.00     0.007 A 
ATOM     20  C   UNL A   1      29.264  29.497  22.386  1.00  0.00     0.001 A 
ATOM     21  C   UNL A   1      31.303  28.263  22.703  1.00  0.00     0.047 A 
ATOM     22  C   UNL A   1      30.634  29.399  22.234  1.00  0.00     0.004 A 
ENDBRANCH  15  16
ENDBRANCH   7  15
BRANCH  13  23
ATOM     23  C   UNL A   1      32.686  20.326  25.094  1.00  0.00     0.207 C 
ATOM     24  C   UNL A   1      32.720  20.006  23.593  1.00  0.00     0.042 C 
ATOM     25  O   UNL A   1      33.224  19.246  25.866  1.00  0.00    -0.368 OA
ATOM     26  C   UNL A   1      32.142  18.633  23.277  1.00  0.00     0.006 C 
ATOM     27  C   UNL A   1      32.581  18.000  25.639  1.00  0.00     0.161 C 
ATOM     28  C   UNL A   1      32.749  17.579  24.189  1.00  0.00     0.029 C 
ENDBRANCH  13  23
ENDBRANCH   4   7
ENDBRANCH   2   3
ENDBRANCH   1   2
BRANCH   1  29
ATOM     29  C   UNL A   1      34.096  30.428  26.883  1.00  0.00     0.023 C 
BRANCH  29  30
ATOM     30  C   UNL A   1      34.292  30.844  28.334  1.00  0.00     0.116 C 
BRANCH  30  31
ATOM     31  N   UNL A   1      35.366  31.802  28.567  1.00  0.00    -0.352 N 
ATOM     32  C   UNL A   1      36.711  31.575  28.834  1.00  0.00     0.251 C 
ATOM     33  H   UNL A   1      35.099  32.749  28.530  1.00  0.00     0.163 HD
ATOM     34  O   UNL A   1      37.452  32.506  29.092  1.00  0.00    -0.269 OA
BRANCH  32  35
ATOM     35  C   UNL A   1      37.276  30.212  28.641  1.00  0.00     0.039 A 
ATOM     36  C   UNL A   1      37.375  29.385  29.769  1.00  0.00     0.014 A 
ATOM     37  C   UNL A   1      37.934  29.867  27.468  1.00  0.00     0.014 A 
ATOM     38  C   UNL A   1      38.364  28.407  29.810  1.00  0.00     0.010 A 
ATOM     39  C   UNL A   1      38.998  28.995  27.548  1.00  0.00     0.010 A 
ATOM     40  C   UNL A   1      39.262  28.330  28.749  1.00  0.00    -0.014 A 
BRANCH  40  41
ATOM     41  C   UNL A   1      40.576  27.710  28.849  1.00  0.00     0.031 A 
ATOM     42  C   UNL A   1      40.742  26.269  28.584  1.00  0.00     0.074 A 
ATOM     43  C   UNL A   1      41.654  28.509  29.019  1.00  0.00     0.049 A 
ATOM     44  N   UNL A   1      41.788  25.583  28.897  1.00  0.00    -0.248 NA
ATOM     45  C   UNL A   1      39.687  25.459  27.989  1.00  0.00     0.031 C 
ATOM     46  C   UNL A   1      43.057  28.173  28.794  1.00  0.00     0.029 A 
ATOM     47  N   UNL A   1      41.694  29.775  29.630  1.00  0.00    -0.354 N 
ATOM     48  C   UNL A   1      41.678  24.344  28.303  1.00  0.00     0.074 A 
ATOM     49  C   UNL A   1      40.312  24.288  27.843  1.00  0.00     0.031 C 
ATOM     50  C   UNL A   1      43.824  29.025  29.494  1.00  0.00     0.029 A 
ATOM     51  C   UNL A   1      42.931  29.826  30.311  1.00  0.00     0.049 A 
ATOM     52  H   UNL A   1      41.005  30.477  29.592  1.00  0.00     0.167 HD
ATOM     53  C   UNL A   1      42.806  23.587  28.165  1.00  0.00     0.037 A 
ATOM     54  C   UNL A   1      42.982  29.895  31.673  1.00  0.00     0.037 A 
ATOM     55  C   UNL A   1      43.911  24.177  28.930  1.00  0.00     0.049 A 
ATOM     56  C   UNL A   1      43.691  28.727  32.321  1.00  0.00     0.074 A 
ATOM     57  C   UNL A   1      45.012  24.939  28.571  1.00  0.00     0.029 A 
ATOM     58  N   UNL A   1      43.805  24.274  30.316  1.00  0.00    -0.354 N 
ATOM     59  N   UNL A   1      43.907  27.587  31.725  1.00  0.00    -0.248 NA
ATOM     60  C   UNL A   1      44.185  28.741  33.695  1.00  0.00     0.031 C 
ATOM     61  C   UNL A   1      45.520  25.557  29.744  1.00  0.00     0.029 A 
ATOM     62  C   UNL A   1      44.748  25.149  30.818  1.00  0.00     0.049 A 
ATOM     63  H   UNL A   1      43.146  23.786  30.861  1.00  0.00     0.167 HD
ATOM     64  C   UNL A   1      44.520  26.725  32.595  1.00  0.00     0.074 A 
ATOM     65  C   UNL A   1      44.694  27.502  33.808  1.00  0.00     0.031 C 
ATOM     66  C   UNL A   1      44.817  25.438  32.245  1.00  0.00     0.037 A 
BRANCH  53  67
ATOM     67  C   UNL A   1      43.007  22.489  27.126  1.00  0.00     0.064 A 
ATOM     68  C   UNL A   1      42.284  21.275  27.221  1.00  0.00     0.173 A 
ATOM     69  C   UNL A   1      43.949  22.505  26.078  1.00  0.00     0.173 A 
ATOM     70  F   UNL A   1      41.281  21.124  28.095  1.00  0.00    -0.203 F 
ATOM     71  C   UNL A   1      42.563  20.157  26.423  1.00  0.00     0.198 A 
ATOM     72  C   UNL A   1      44.250  21.382  25.299  1.00  0.00     0.198 A 
ATOM     73  F   UNL A   1      44.592  23.615  25.717  1.00  0.00    -0.203 F 
ATOM     74  F   UNL A   1      41.858  19.029  26.588  1.00  0.00    -0.200 F 
ATOM     75  C   UNL A   1      43.568  20.202  25.482  1.00  0.00     0.200 A 
ATOM     76  F   UNL A   1      45.210  21.463  24.367  1.00  0.00    -0.200 F 
ATOM     77  F   UNL A   1      43.861  19.126  24.739  1.00  0.00    -0.200 F 
ENDBRANCH  53  67
BRANCH  54  78
ATOM     78  C   UNL A   1      41.837  30.639  32.263  1.00  0.00     0.064 A 
ATOM     79  C   UNL A   1      41.836  32.044  32.159  1.00  0.00     0.173 A 
ATOM     80  C   UNL A   1      40.618  30.010  32.543  1.00  0.00     0.173 A 
ATOM     81  F   UNL A   1      42.978  32.693  31.883  1.00  0.00    -0.203 F 
ATOM     82  C   UNL A   1      40.651  32.774  32.212  1.00  0.00     0.198 A 
ATOM     83  C   UNL A   1      39.434  30.749  32.610  1.00  0.00     0.198 A 
ATOM     84  F   UNL A   1      40.548  28.674  32.627  1.00  0.00    -0.203 F 
ATOM     85  F   UNL A   1      40.671  34.096  31.990  1.00  0.00    -0.200 F 
ATOM     86  C   UNL A   1      39.446  32.122  32.409  1.00  0.00     0.200 A 
ATOM     87  F   UNL A   1      38.262  30.114  32.764  1.00  0.00    -0.200 F 
ATOM     88  F   UNL A   1      38.295  32.806  32.359  1.00  0.00    -0.200 F 
ENDBRANCH  54  78
BRANCH  66  89
ATOM     89  C   UNL A   1      45.273  24.346  33.185  1.00  0.00     0.064 A 
ATOM     90  C   UNL A   1      44.500  23.220  33.513  1.00  0.00     0.173 A 
ATOM     91  C   UNL A   1      46.602  24.336  33.673  1.00  0.00     0.173 A 
ATOM     92  F   UNL A   1      43.268  23.050  33.018  1.00  0.00    -0.203 F 
ATOM     93  C   UNL A   1      44.998  22.192  34.321  1.00  0.00     0.198 A 
ATOM     94  C   UNL A   1      47.115  23.281  34.427  1.00  0.00     0.198 A 
ATOM     95  F   UNL A   1      47.452  25.340  33.411  1.00  0.00    -0.203 F 
ATOM     96  F   UNL A   1      44.207  21.158  34.640  1.00  0.00    -0.200 F 
ATOM     97  C   UNL A   1      46.307  22.216  34.765  1.00  0.00     0.200 A 
ATOM     98  F   UNL A   1      48.401  23.294  34.803  1.00  0.00    -0.200 F 
ATOM     99  F   UNL A   1      46.794  21.204  35.496  1.00  0.00    -0.200 F 
ENDBRANCH  66  89
ENDBRANCH  40  41
ENDBRANCH  32  35
ENDBRANCH  30  31
ENDBRANCH  29  30
ENDBRANCH   1  29
TORSDOF 14
ENDMDL
MODEL 2
REMARK VINA RESULT:     -13.9      3.772     10.222
REMARK SMILES Cc1ccccc1OC1(C(=O)NCCCCNC(=O)c2ccc(-c3c4nc(c(-c5c(F)c(F)c(F)c(F)c5F)c5ccc([nH]5)c(-c5c(F)c(F)c(F)c(F)c5F)c5nc(c(-c6c(F)c(F)c(F)c(F)c6F)c6ccc3[nH]6)C=C5)C=C4)cc2)CCN(C(=O)[C@H]2CCCCO2)CC1
REMARK SMILES IDX 14 1 13 2 12 3 10 4 11 5 9 7 83 8 95 9 84 10 94 11 85 12
REMARK SMILES IDX 86 13 87 14 8 15 7 16 1 17 2 18 3 19 4 20 6 21 5 22 88 23
REMARK SMILES IDX 89 24 93 25 90 26 92 27 91 28 15 29 16 30 17 31 18 32 19 34
REMARK SMILES IDX 20 35 21 36 82 37 22 38 81 39 23 40 24 41 25 42 75 43 26 44
REMARK SMILES IDX 80 45 74 46 76 47 27 48 79 49 73 50 72 51 28 53 60 54 40 55
REMARK SMILES IDX 59 56 41 57 44 58 58 59 77 60 42 61 43 62 57 64 78 65 45 66
REMARK SMILES IDX 29 67 30 68 38 69 31 70 32 71 36 72 39 73 33 74 34 75 37 76
REMARK SMILES IDX 35 77 61 78 62 79 70 80 63 81 64 82 68 83 71 84 65 85 66 86
REMARK SMILES IDX 69 87 67 88 46 89 47 90 55 91 48 92 49 93 53 94 56 95 50 96
REMARK SMILES IDX 51 97 54 98 52 99
REMARK H PARENT 12 6 17 33 76 52 44 63
REMARK Flexibility Score: inf
ROOT
ATOM      1  C   UNL A   1      37.130  21.389  24.426  1.00  0.00     0.023 C 
ENDROOT
BRANCH   1   2
ATOM      2  C   UNL A   1      35.604  21.477  24.574  1.00  0.00     0.116 C 
BRANCH   2   3
ATOM      3  N   UNL A   1      35.140  21.242  25.929  1.00  0.00    -0.353 N 
ATOM      4  C   UNL A   1      33.937  21.410  26.560  1.00  0.00     0.264 C 
ATOM      5  O   UNL A   1      33.922  20.987  27.724  1.00  0.00    -0.270 OA
ATOM      6  H   UNL A   1      35.841  20.885  26.521  1.00  0.00     0.163 HD
BRANCH   4   7
ATOM      7  C   UNL A   1      32.666  22.071  25.887  1.00  0.00     0.190 C 
ATOM      8  C   UNL A   1      31.843  22.721  26.991  1.00  0.00     0.080 C 
ATOM      9  C   UNL A   1      33.145  22.912  24.702  1.00  0.00     0.080 C 
ATOM     10  C   UNL A   1      31.860  24.236  27.030  1.00  0.00     0.124 C 
ATOM     11  C   UNL A   1      32.890  24.415  24.741  1.00  0.00     0.124 C 
ATOM     12  N   UNL A   1      31.958  24.913  25.746  1.00  0.00    -0.340 N 
ATOM     13  C   UNL A   1      31.366  26.183  25.684  1.00  0.00     0.251 C 
ATOM     14  O   UNL A   1      30.807  26.663  26.676  1.00  0.00    -0.272 OA
BRANCH   7  15
ATOM     15  O   UNL A   1      31.969  20.890  25.392  1.00  0.00    -0.477 OA
BRANCH  15  16
ATOM     16  C   UNL A   1      32.302  19.897  24.522  1.00  0.00     0.123 A 
ATOM     17  C   UNL A   1      31.950  20.877  22.146  1.00  0.00     0.048 C 
ATOM     18  C   UNL A   1      32.326  19.816  23.121  1.00  0.00    -0.009 A 
ATOM     19  C   UNL A   1      32.675  18.591  22.496  1.00  0.00     0.007 A 
ATOM     20  C   UNL A   1      33.022  17.465  23.227  1.00  0.00     0.001 A 
ATOM     21  C   UNL A   1      32.659  18.735  25.236  1.00  0.00     0.047 A 
ATOM     22  C   UNL A   1      33.017  17.537  24.607  1.00  0.00     0.004 A 
ENDBRANCH  15  16
ENDBRANCH   7  15
BRANCH  13  23
ATOM     23  C   UNL A   1      31.381  26.942  24.337  1.00  0.00     0.207 C 
ATOM     24  C   UNL A   1      29.939  27.024  23.814  1.00  0.00     0.042 C 
ATOM     25  O   UNL A   1      31.922  28.248  24.567  1.00  0.00    -0.368 OA
ATOM     26  C   UNL A   1      29.795  27.999  22.653  1.00  0.00     0.006 C 
ATOM     27  C   UNL A   1      31.885  29.096  23.428  1.00  0.00     0.161 C 
ATOM     28  C   UNL A   1      30.448  29.328  22.993  1.00  0.00     0.029 C 
ENDBRANCH  13  23
ENDBRANCH   4   7
ENDBRANCH   2   3
ENDBRANCH   1   2
BRANCH   1  29
ATOM     29  C   UNL A   1      37.924  21.548  25.718  1.00  0.00     0.023 C 
BRANCH  29  30
ATOM     30  C   UNL A   1      38.608  22.901  25.861  1.00  0.00     0.116 C 
BRANCH  30  31
ATOM     31  N   UNL A   1      39.979  22.854  26.356  1.00  0.00    -0.352 N 
ATOM     32  C   UNL A   1      40.769  23.877  26.869  1.00  0.00     0.251 C 
ATOM     33  H   UNL A   1      40.408  21.969  26.322  1.00  0.00     0.163 HD
ATOM     34  O   UNL A   1      41.935  23.669  27.154  1.00  0.00    -0.269 OA
BRANCH  32  35
ATOM     35  C   UNL A   1      40.143  25.180  27.222  1.00  0.00     0.039 A 
ATOM     36  C   UNL A   1      40.452  26.287  26.419  1.00  0.00     0.014 A 
ATOM     37  C   UNL A   1      39.508  25.363  28.443  1.00  0.00     0.014 A 
ATOM     38  C   UNL A   1      40.409  27.562  26.975  1.00  0.00     0.010 A 
ATOM     39  C   UNL A   1      39.589  26.602  29.042  1.00  0.00     0.010 A 
ATOM     40  C   UNL A   1      40.121  27.682  28.332  1.00  0.00    -0.014 A 
BRANCH  40  41
ATOM     41  C   UNL A   1      40.483  28.844  29.133  1.00  0.00     0.031 A 
ATOM     42  C   UNL A   1      39.486  29.892  29.419  1.00  0.00     0.074 A 
ATOM     43  C   UNL A   1      41.690  28.854  29.744  1.00  0.00     0.049 A 
ATOM     44  N   UNL A   1      39.767  31.062  29.881  1.00  0.00    -0.248 NA
ATOM     45  C   UNL A   1      38.067  29.716  29.138  1.00  0.00     0.031 C 
ATOM     46  C   UNL A   1      42.123  29.704  30.849  1.00  0.00     0.029 A 
ATOM     47  N   UNL A   1      42.861  28.189  29.337  1.00  0.00    -0.354 N 
ATOM     48  C   UNL A   1      38.584  31.678  30.227  1.00  0.00     0.074 A 
ATOM     49  C   UNL A   1      37.562  30.842  29.648  1.00  0.00     0.031 C 
ATOM     50  C   UNL A   1      43.465  29.751  30.860  1.00  0.00     0.029 A 
ATOM     51  C   UNL A   1      43.923  29.063  29.667  1.00  0.00     0.049 A 
ATOM     52  H   UNL A   1      42.928  27.304  28.912  1.00  0.00     0.167 HD
ATOM     53  C   UNL A   1      38.632  32.746  31.077  1.00  0.00     0.037 A 
ATOM     54  C   UNL A   1      44.694  29.630  28.694  1.00  0.00     0.037 A 
ATOM     55  C   UNL A   1      40.020  33.186  31.264  1.00  0.00     0.049 A 
ATOM     56  C   UNL A   1      44.643  31.142  28.674  1.00  0.00     0.074 A 
ATOM     57  C   UNL A   1      40.944  33.005  32.281  1.00  0.00     0.029 A 
ATOM     58  N   UNL A   1      40.735  33.665  30.168  1.00  0.00    -0.354 N 
ATOM     59  N   UNL A   1      43.703  31.845  29.244  1.00  0.00    -0.248 NA
ATOM     60  C   UNL A   1      45.627  31.976  27.990  1.00  0.00     0.031 C 
ATOM     61  C   UNL A   1      42.231  33.305  31.764  1.00  0.00     0.029 A 
ATOM     62  C   UNL A   1      42.089  33.696  30.445  1.00  0.00     0.049 A 
ATOM     63  H   UNL A   1      40.331  33.942  29.314  1.00  0.00     0.167 HD
ATOM     64  C   UNL A   1      43.914  33.176  29.000  1.00  0.00     0.074 A 
ATOM     65  C   UNL A   1      45.145  33.208  28.231  1.00  0.00     0.031 C 
ATOM     66  C   UNL A   1      43.048  34.136  29.439  1.00  0.00     0.037 A 
BRANCH  53  67
ATOM     67  C   UNL A   1      37.484  33.217  31.964  1.00  0.00     0.064 A 
ATOM     68  C   UNL A   1      36.365  33.872  31.397  1.00  0.00     0.173 A 
ATOM     69  C   UNL A   1      37.450  33.156  33.372  1.00  0.00     0.173 A 
ATOM     70  F   UNL A   1      36.186  33.930  30.071  1.00  0.00    -0.203 F 
ATOM     71  C   UNL A   1      35.378  34.501  32.168  1.00  0.00     0.198 A 
ATOM     72  C   UNL A   1      36.482  33.808  34.145  1.00  0.00     0.198 A 
ATOM     73  F   UNL A   1      38.316  32.426  34.075  1.00  0.00    -0.203 F 
ATOM     74  F   UNL A   1      34.360  35.129  31.563  1.00  0.00    -0.200 F 
ATOM     75  C   UNL A   1      35.453  34.495  33.544  1.00  0.00     0.200 A 
ATOM     76  F   UNL A   1      36.562  33.758  35.483  1.00  0.00    -0.200 F 
ATOM     77  F   UNL A   1      34.530  35.122  34.285  1.00  0.00    -0.200 F 
ENDBRANCH  53  67
BRANCH  54  78
ATOM     78  C   UNL A   1      44.858  28.761  27.499  1.00  0.00     0.064 A 
ATOM     79  C   UNL A   1      45.724  27.654  27.599  1.00  0.00     0.173 A 
ATOM     80  C   UNL A   1      43.924  28.759  26.457  1.00  0.00     0.173 A 
ATOM     81  F   UNL A   1      46.632  27.605  28.587  1.00  0.00    -0.203 F 
ATOM     82  C   UNL A   1      45.580  26.543  26.772  1.00  0.00     0.198 A 
ATOM     83  C   UNL A   1      43.793  27.648  25.619  1.00  0.00     0.198 A 
ATOM     84  F   UNL A   1      43.054  29.770  26.324  1.00  0.00    -0.203 F 
ATOM     85  F   UNL A   1      46.340  25.458  26.972  1.00  0.00    -0.200 F 
ATOM     86  C   UNL A   1      44.594  26.529  25.800  1.00  0.00     0.200 A 
ATOM     87  F   UNL A   1      42.814  27.618  24.702  1.00  0.00    -0.200 F 
ATOM     88  F   UNL A   1      44.383  25.425  25.071  1.00  0.00    -0.200 F 
ENDBRANCH  54  78
BRANCH  66  89
ATOM     89  C   UNL A   1      43.058  35.592  29.034  1.00  0.00     0.064 A 
ATOM     90  C   UNL A   1      42.280  36.122  27.992  1.00  0.00     0.173 A 
ATOM     91  C   UNL A   1      43.763  36.542  29.812  1.00  0.00     0.173 A 
ATOM     92  F   UNL A   1      41.475  35.344  27.256  1.00  0.00    -0.203 F 
ATOM     93  C   UNL A   1      42.258  37.492  27.709  1.00  0.00     0.198 A 
ATOM     94  C   UNL A   1      43.690  37.913  29.566  1.00  0.00     0.198 A 
ATOM     95  F   UNL A   1      44.524  36.171  30.853  1.00  0.00    -0.203 F 
ATOM     96  F   UNL A   1      41.531  37.943  26.677  1.00  0.00    -0.200 F 
ATOM     97  C   UNL A   1      42.950  38.387  28.503  1.00  0.00     0.200 A 
ATOM     98  F   UNL A   1      44.324  38.770  30.378  1.00  0.00    -0.200 F 
ATOM     99  F   UNL A   1      42.885  39.702  28.258  1.00  0.00    -0.200 F 
ENDBRANCH  66  89
ENDBRANCH  40  41
ENDBRANCH  32  35
ENDBRANCH  30  31
ENDBRANCH  29  30
ENDBRANCH   1  29
TORSDOF 14
ENDMDL
MODEL 3
REMARK VINA RESULT:     -13.5      2.592      4.043
REMARK SMILES Cc1ccccc1OC1(C(=O)NCCCCNC(=O)c2ccc(-c3c4nc(c(-c5c(F)c(F)c(F)c(F)c5F)c5ccc([nH]5)c(-c5c(F)c(F)c(F)c(F)c5F)c5nc(c(-c6c(F)c(F)c(F)c(F)c6F)c6ccc3[nH]6)C=C5)C=C4)cc2)CCN(C(=O)[C@H]2CCCCO2)CC1
REMARK SMILES IDX 14 1 13 2 12 3 10 4 11 5 9 7 83 8 95 9 84 10 94 11 85 12
REMARK SMILES IDX 86 13 87 14 8 15 7 16 1 17 2 18 3 19 4 20 6 21 5 22 88 23
REMARK SMILES IDX 89 24 93 25 90 26 92 27 91 28 15 29 16 30 17 31 18 32 19 34
REMARK SMILES IDX 20 35 21 36 82 37 22 38 81 39 23 40 24 41 25 42 75 43 26 44
REMARK SMILES IDX 80 45 74 46 76 47 27 48 79 49 73 50 72 51 28 53 60 54 40 55
REMARK SMILES IDX 59 56 41 57 44 58 58 59 77 60 42 61 43 62 57 64 78 65 45 66
REMARK SMILES IDX 29 67 30 68 38 69 31 70 32 71 36 72 39 73 33 74 34 75 37 76
REMARK SMILES IDX 35 77 61 78 62 79 70 80 63 81 64 82 68 83 71 84 65 85 66 86
REMARK SMILES IDX 69 87 67 88 46 89 47 90 55 91 48 92 49 93 53 94 56 95 50 96
REMARK SMILES IDX 51 97 54 98 52 99
REMARK H PARENT 12 6 17 33 76 52 44 63
REMARK Flexibility Score: inf
ROOT
ATOM      1  C   UNL A   1      34.816  28.974  27.176  1.00  0.00     0.023 C 
ENDROOT
BRANCH   1   2
ATOM      2  C   UNL A   1      33.558  29.349  26.378  1.00  0.00     0.116 C 
BRANCH   2   3
ATOM      3  N   UNL A   1      33.801  29.505  24.955  1.00  0.00    -0.353 N 
ATOM      4  C   UNL A   1      33.405  28.808  23.846  1.00  0.00     0.264 C 
ATOM      5  O   UNL A   1      33.749  29.333  22.779  1.00  0.00    -0.270 OA
ATOM      6  H   UNL A   1      34.374  30.277  24.744  1.00  0.00     0.163 HD
BRANCH   4   7
ATOM      7  C   UNL A   1      32.576  27.460  23.892  1.00  0.00     0.190 C 
ATOM      8  C   UNL A   1      32.357  27.001  22.457  1.00  0.00     0.080 C 
ATOM      9  C   UNL A   1      33.259  26.523  24.892  1.00  0.00     0.080 C 
ATOM     10  C   UNL A   1      33.153  25.790  22.016  1.00  0.00     0.124 C 
ATOM     11  C   UNL A   1      33.818  25.204  24.371  1.00  0.00     0.124 C 
ATOM     12  N   UNL A   1      33.415  24.785  23.033  1.00  0.00    -0.340 N 
ATOM     13  C   UNL A   1      33.556  23.470  22.564  1.00  0.00     0.251 C 
ATOM     14  O   UNL A   1      33.458  23.221  21.359  1.00  0.00    -0.272 OA
BRANCH   7  15
ATOM     15  O   UNL A   1      31.314  27.929  24.451  1.00  0.00    -0.477 OA
BRANCH  15  16
ATOM     16  C   UNL A   1      30.139  28.343  23.902  1.00  0.00     0.123 A 
ATOM     17  C   UNL A   1      28.585  26.265  23.884  1.00  0.00     0.048 C 
ATOM     18  C   UNL A   1      28.924  27.693  23.631  1.00  0.00    -0.009 A 
ATOM     19  C   UNL A   1      27.880  28.403  22.983  1.00  0.00     0.007 A 
ATOM     20  C   UNL A   1      28.008  29.736  22.626  1.00  0.00     0.001 A 
ATOM     21  C   UNL A   1      30.237  29.698  23.526  1.00  0.00     0.047 A 
ATOM     22  C   UNL A   1      29.194  30.390  22.901  1.00  0.00     0.004 A 
ENDBRANCH  15  16
ENDBRANCH   7  15
BRANCH  13  23
ATOM     23  C   UNL A   1      33.780  22.336  23.592  1.00  0.00     0.207 C 
ATOM     24  C   UNL A   1      35.234  22.408  24.080  1.00  0.00     0.042 C 
ATOM     25  O   UNL A   1      32.861  22.528  24.674  1.00  0.00    -0.368 OA
ATOM     26  C   UNL A   1      35.482  21.535  25.303  1.00  0.00     0.006 C 
ATOM     27  C   UNL A   1      33.039  21.617  25.749  1.00  0.00     0.161 C 
ATOM     28  C   UNL A   1      34.419  21.789  26.360  1.00  0.00     0.029 C 
ENDBRANCH  13  23
ENDBRANCH   4   7
ENDBRANCH   2   3
ENDBRANCH   1   2
BRANCH   1  29
ATOM     29  C   UNL A   1      35.236  29.974  28.247  1.00  0.00     0.023 C 
BRANCH  29  30
ATOM     30  C   UNL A   1      35.466  31.384  27.721  1.00  0.00     0.116 C 
BRANCH  30  31
ATOM     31  N   UNL A   1      34.553  32.397  28.238  1.00  0.00    -0.352 N 
ATOM     32  C   UNL A   1      34.691  33.229  29.343  1.00  0.00     0.251 C 
ATOM     33  H   UNL A   1      33.717  32.508  27.730  1.00  0.00     0.163 HD
ATOM     34  O   UNL A   1      33.777  33.960  29.680  1.00  0.00    -0.269 OA
BRANCH  32  35
ATOM     35  C   UNL A   1      36.014  33.344  30.014  1.00  0.00     0.039 A 
ATOM     36  C   UNL A   1      37.064  33.919  29.284  1.00  0.00     0.014 A 
ATOM     37  C   UNL A   1      36.280  32.665  31.196  1.00  0.00     0.014 A 
ATOM     38  C   UNL A   1      38.374  33.548  29.571  1.00  0.00     0.010 A 
ATOM     39  C   UNL A   1      37.558  32.190  31.403  1.00  0.00     0.010 A 
ATOM     40  C   UNL A   1      38.587  32.567  30.535  1.00  0.00    -0.014 A 
BRANCH  40  41
ATOM     41  C   UNL A   1      39.802  31.766  30.616  1.00  0.00     0.031 A 
ATOM     42  C   UNL A   1      39.878  30.459  29.939  1.00  0.00     0.074 A 
ATOM     43  C   UNL A   1      40.902  32.321  31.175  1.00  0.00     0.049 A 
ATOM     44  N   UNL A   1      40.788  29.572  30.163  1.00  0.00    -0.248 NA
ATOM     45  C   UNL A   1      38.874  30.016  28.981  1.00  0.00     0.031 C 
ATOM     46  C   UNL A   1      42.286  31.872  31.052  1.00  0.00     0.029 A 
ATOM     47  N   UNL A   1      40.950  33.333  32.150  1.00  0.00    -0.354 N 
ATOM     48  C   UNL A   1      40.669  28.590  29.203  1.00  0.00     0.074 A 
ATOM     49  C   UNL A   1      39.405  28.864  28.565  1.00  0.00     0.031 C 
ATOM     50  C   UNL A   1      42.994  32.364  32.081  1.00  0.00     0.029 A 
ATOM     51  C   UNL A   1      42.050  33.007  32.977  1.00  0.00     0.049 A 
ATOM     52  H   UNL A   1      40.345  34.104  32.239  1.00  0.00     0.167 HD
ATOM     53  C   UNL A   1      41.730  27.757  28.992  1.00  0.00     0.037 A 
ATOM     54  C   UNL A   1      41.868  32.665  34.285  1.00  0.00     0.037 A 
ATOM     55  C   UNL A   1      42.735  27.935  30.047  1.00  0.00     0.049 A 
ATOM     56  C   UNL A   1      42.344  31.270  34.627  1.00  0.00     0.074 A 
ATOM     57  C   UNL A   1      43.946  28.605  30.100  1.00  0.00     0.029 A 
ATOM     58  N   UNL A   1      42.398  27.634  31.365  1.00  0.00    -0.354 N 
ATOM     59  N   UNL A   1      42.556  30.338  33.740  1.00  0.00    -0.248 NA
ATOM     60  C   UNL A   1      42.590  30.811  35.990  1.00  0.00     0.031 C 
ATOM     61  C   UNL A   1      44.297  28.774  31.465  1.00  0.00     0.029 A 
ATOM     62  C   UNL A   1      43.315  28.181  32.241  1.00  0.00     0.049 A 
ATOM     63  H   UNL A   1      41.612  27.104  31.635  1.00  0.00     0.167 HD
ATOM     64  C   UNL A   1      42.926  29.180  34.372  1.00  0.00     0.074 A 
ATOM     65  C   UNL A   1      42.956  29.534  35.779  1.00  0.00     0.031 C 
ATOM     66  C   UNL A   1      43.160  28.025  33.682  1.00  0.00     0.037 A 
BRANCH  53  67
ATOM     67  C   UNL A   1      42.008  26.995  27.700  1.00  0.00     0.064 A 
ATOM     68  C   UNL A   1      41.499  25.687  27.518  1.00  0.00     0.173 A 
ATOM     69  C   UNL A   1      42.836  27.431  26.646  1.00  0.00     0.173 A 
ATOM     70  F   UNL A   1      40.616  25.154  28.372  1.00  0.00    -0.203 F 
ATOM     71  C   UNL A   1      41.878  24.863  26.450  1.00  0.00     0.198 A 
ATOM     72  C   UNL A   1      43.239  26.601  25.593  1.00  0.00     0.198 A 
ATOM     73  F   UNL A   1      43.259  28.691  26.547  1.00  0.00    -0.203 F 
ATOM     74  F   UNL A   1      41.379  23.622  26.356  1.00  0.00    -0.200 F 
ATOM     75  C   UNL A   1      42.773  25.310  25.503  1.00  0.00     0.200 A 
ATOM     76  F   UNL A   1      44.086  27.074  24.667  1.00  0.00    -0.200 F 
ATOM     77  F   UNL A   1      43.164  24.515  24.498  1.00  0.00    -0.200 F 
ENDBRANCH  53  67
BRANCH  54  78
ATOM     78  C   UNL A   1      40.711  33.355  34.914  1.00  0.00     0.064 A 
ATOM     79  C   UNL A   1      39.494  32.651  35.011  1.00  0.00     0.173 A 
ATOM     80  C   UNL A   1      40.880  34.471  35.740  1.00  0.00     0.173 A 
ATOM     81  F   UNL A   1      39.287  31.568  34.245  1.00  0.00    -0.203 F 
ATOM     82  C   UNL A   1      38.543  32.977  35.975  1.00  0.00     0.198 A 
ATOM     83  C   UNL A   1      39.916  34.803  36.697  1.00  0.00     0.198 A 
ATOM     84  F   UNL A   1      42.026  35.167  35.715  1.00  0.00    -0.203 F 
ATOM     85  F   UNL A   1      37.451  32.213  36.121  1.00  0.00    -0.200 F 
ATOM     86  C   UNL A   1      38.769  34.035  36.837  1.00  0.00     0.200 A 
ATOM     87  F   UNL A   1      40.151  35.805  37.557  1.00  0.00    -0.200 F 
ATOM     88  F   UNL A   1      37.907  34.289  37.832  1.00  0.00    -0.200 F 
ENDBRANCH  54  78
BRANCH  66  89
ATOM     89  C   UNL A   1      43.344  26.653  34.287  1.00  0.00     0.064 A 
ATOM     90  C   UNL A   1      42.302  25.898  34.850  1.00  0.00     0.173 A 
ATOM     91  C   UNL A   1      44.587  25.984  34.172  1.00  0.00     0.173 A 
ATOM     92  F   UNL A   1      41.050  26.370  34.909  1.00  0.00    -0.203 F 
ATOM     93  C   UNL A   1      42.503  24.595  35.321  1.00  0.00     0.198 A 
ATOM     94  C   UNL A   1      44.768  24.665  34.586  1.00  0.00     0.198 A 
ATOM     95  F   UNL A   1      45.657  26.583  33.629  1.00  0.00    -0.203 F 
ATOM     96  F   UNL A   1      41.486  23.932  35.889  1.00  0.00    -0.200 F 
ATOM     97  C   UNL A   1      43.730  23.976  35.176  1.00  0.00     0.200 A 
ATOM     98  F   UNL A   1      45.948  24.061  34.389  1.00  0.00    -0.200 F 
ATOM     99  F   UNL A   1      43.903  22.711  35.583  1.00  0.00    -0.200 F 
ENDBRANCH  66  89
ENDBRANCH  40  41
ENDBRANCH  32  35
ENDBRANCH  30  31
ENDBRANCH  29  30
ENDBRANCH   1  29
TORSDOF 14
ENDMDL
