MODEL 1
REMARK VINA RESULT:     -13.2      0.000      0.000
REMARK SMILES C/C(=N\Nc1ccccc1C(=O)NCCCCNC(=O)c1ccc(-c2c3nc(c(-c4c(F)c(F)c(F)c(F)c4F)c4ccc([nH]4)c(-c4c(F)c(F)c(F)c(F)c4F)c4nc(c(-c5c(F)c(F)c(F)c(F)c5F)c5ccc2[nH]5)C=C4)C=C3)cc1)c1ccc(S(C)(=O)=O)cc1
REMARK SMILES IDX 14 1 13 2 11 3 12 4 10 6 5 7 6 8 7 9 9 10 8 11 4 12 3 14
REMARK SMILES IDX 1 15 2 16 84 17 85 18 93 19 86 20 92 21 87 22 88 23 89 24
REMARK SMILES IDX 90 25 91 26 15 27 16 28 17 29 18 30 19 31 20 33 21 34 22 35
REMARK SMILES IDX 83 36 23 37 82 38 24 39 25 40 26 41 76 42 27 43 81 44 75 45
REMARK SMILES IDX 77 46 28 47 80 48 74 49 73 50 29 52 61 53 41 54 60 55 42 56
REMARK SMILES IDX 45 57 59 58 78 59 43 60 44 61 58 63 79 64 46 65 30 66 31 67
REMARK SMILES IDX 39 68 32 69 33 70 37 71 40 72 34 73 35 74 38 75 36 76 62 77
REMARK SMILES IDX 63 78 71 79 64 80 65 81 69 82 72 83 66 84 67 85 70 86 68 87
REMARK SMILES IDX 47 88 48 89 56 90 49 91 50 92 54 93 57 94 51 95 52 96 55 97
REMARK SMILES IDX 53 98
REMARK H PARENT 13 5 4 13 18 32 77 51 45 62
REMARK Flexibility Score: inf
ROOT
ATOM      1  C   UNL A   1      32.107  26.161  26.455  1.00  0.00     0.116 C 
ENDROOT
BRANCH   1   2
ATOM      2  N   UNL A   1      31.102  25.190  26.842  1.00  0.00    -0.352 N 
ATOM      3  C   UNL A   1      31.197  23.817  26.876  1.00  0.00     0.253 C 
ATOM      4  O   UNL A   1      30.245  23.169  27.311  1.00  0.00    -0.269 OA
ATOM      5  H   UNL A   1      30.234  25.563  27.117  1.00  0.00     0.163 HD
BRANCH   3   6
ATOM      6  C   UNL A   1      32.354  23.097  26.288  1.00  0.00     0.064 A 
ATOM      7  C   UNL A   1      32.423  22.599  24.976  1.00  0.00     0.069 A 
ATOM      8  C   UNL A   1      33.556  21.828  24.626  1.00  0.00     0.028 A 
ATOM      9  C   UNL A   1      34.622  21.640  25.507  1.00  0.00     0.002 A 
ATOM     10  C   UNL A   1      33.455  22.943  27.155  1.00  0.00     0.016 A 
ATOM     11  C   UNL A   1      34.588  22.231  26.763  1.00  0.00     0.001 A 
BRANCH   7  12
ATOM     12  N   UNL A   1      31.575  22.951  23.902  1.00  0.00    -0.277 N 
ATOM     13  H   UNL A   1      31.482  22.301  23.168  1.00  0.00     0.190 HD
BRANCH  12  14
ATOM     14  N   UNL A   1      30.881  24.105  23.801  1.00  0.00    -0.180 NA
ATOM     15  C   UNL A   1      32.828  25.190  22.633  1.00  0.00     0.069 C 
ATOM     16  C   UNL A   1      31.424  25.124  23.198  1.00  0.00     0.065 C 
BRANCH  16  17
ATOM     17  C   UNL A   1      30.606  26.358  23.065  1.00  0.00    -0.002 A 
ATOM     18  C   UNL A   1      29.321  26.401  23.618  1.00  0.00     0.011 A 
ATOM     19  C   UNL A   1      31.116  27.462  22.378  1.00  0.00     0.011 A 
ATOM     20  C   UNL A   1      28.549  27.559  23.503  1.00  0.00     0.021 A 
ATOM     21  C   UNL A   1      30.352  28.623  22.265  1.00  0.00     0.021 A 
ATOM     22  C   UNL A   1      29.073  28.665  22.828  1.00  0.00     0.067 A 
BRANCH  22  23
ATOM     23  S   UNL A   1      28.138  30.177  22.764  1.00  0.00     0.175 S 
ATOM     24  C   UNL A   1      29.119  31.317  23.695  1.00  0.00     0.163 C 
ATOM     25  O   UNL A   1      28.125  30.614  21.383  1.00  0.00    -0.224 OA
ATOM     26  O   UNL A   1      26.903  29.961  23.496  1.00  0.00    -0.224 OA
ENDBRANCH  22  23
ENDBRANCH  16  17
ENDBRANCH  12  14
ENDBRANCH   7  12
ENDBRANCH   3   6
ENDBRANCH   1   2
BRANCH   1  27
ATOM     27  C   UNL A   1      31.815  27.580  26.948  1.00  0.00     0.023 C 
BRANCH  27  28
ATOM     28  C   UNL A   1      31.645  28.651  25.862  1.00  0.00     0.023 C 
BRANCH  28  29
ATOM     29  C   UNL A   1      32.792  29.645  25.692  1.00  0.00     0.116 C 
BRANCH  29  30
ATOM     30  N   UNL A   1      32.551  30.944  26.300  1.00  0.00    -0.352 N 
ATOM     31  C   UNL A   1      33.281  31.665  27.217  1.00  0.00     0.251 C 
ATOM     32  H   UNL A   1      31.721  31.383  26.005  1.00  0.00     0.163 HD
ATOM     33  O   UNL A   1      32.853  32.741  27.626  1.00  0.00    -0.269 OA
BRANCH  31  34
ATOM     34  C   UNL A   1      34.558  31.145  27.761  1.00  0.00     0.039 A 
ATOM     35  C   UNL A   1      35.597  32.050  28.004  1.00  0.00     0.014 A 
ATOM     36  C   UNL A   1      34.753  29.788  28.021  1.00  0.00     0.014 A 
ATOM     37  C   UNL A   1      36.783  31.616  28.607  1.00  0.00     0.010 A 
ATOM     38  C   UNL A   1      35.904  29.371  28.689  1.00  0.00     0.010 A 
ATOM     39  C   UNL A   1      36.925  30.278  29.005  1.00  0.00    -0.014 A 
BRANCH  39  40
ATOM     40  C   UNL A   1      38.093  29.819  29.808  1.00  0.00     0.031 A 
ATOM     41  C   UNL A   1      38.335  30.344  31.196  1.00  0.00     0.074 A 
ATOM     42  C   UNL A   1      39.002  29.002  29.238  1.00  0.00     0.049 A 
ATOM     43  N   UNL A   1      39.338  30.110  32.007  1.00  0.00    -0.248 NA
ATOM     44  C   UNL A   1      37.336  31.279  31.736  1.00  0.00     0.031 C 
ATOM     45  C   UNL A   1      38.931  28.484  27.871  1.00  0.00     0.029 A 
ATOM     46  N   UNL A   1      40.173  28.479  29.730  1.00  0.00    -0.354 N 
ATOM     47  C   UNL A   1      39.096  30.870  33.144  1.00  0.00     0.074 A 
ATOM     48  C   UNL A   1      37.881  31.618  32.896  1.00  0.00     0.031 C 
ATOM     49  C   UNL A   1      39.999  27.703  27.641  1.00  0.00     0.029 A 
ATOM     50  C   UNL A   1      40.845  27.689  28.829  1.00  0.00     0.049 A 
ATOM     51  H   UNL A   1      40.499  28.654  30.642  1.00  0.00     0.167 HD
ATOM     52  C   UNL A   1      39.805  30.918  34.298  1.00  0.00     0.037 A 
ATOM     53  C   UNL A   1      42.014  27.029  28.943  1.00  0.00     0.037 A 
ATOM     54  C   UNL A   1      40.998  30.153  34.556  1.00  0.00     0.049 A 
ATOM     55  C   UNL A   1      42.777  27.094  30.238  1.00  0.00     0.074 A 
ATOM     56  C   UNL A   1      41.738  30.076  35.724  1.00  0.00     0.029 A 
ATOM     57  N   UNL A   1      41.630  29.336  33.630  1.00  0.00    -0.354 N 
ATOM     58  N   UNL A   1      42.485  27.740  31.339  1.00  0.00    -0.248 NA
ATOM     59  C   UNL A   1      44.030  26.327  30.308  1.00  0.00     0.031 C 
ATOM     60  C   UNL A   1      42.841  29.247  35.492  1.00  0.00     0.029 A 
ATOM     61  C   UNL A   1      42.763  28.769  34.195  1.00  0.00     0.049 A 
ATOM     62  H   UNL A   1      41.321  29.182  32.708  1.00  0.00     0.167 HD
ATOM     63  C   UNL A   1      43.497  27.437  32.240  1.00  0.00     0.074 A 
ATOM     64  C   UNL A   1      44.405  26.536  31.562  1.00  0.00     0.031 C 
ATOM     65  C   UNL A   1      43.656  27.866  33.516  1.00  0.00     0.037 A 
BRANCH  52  66
ATOM     66  C   UNL A   1      39.301  31.821  35.388  1.00  0.00     0.064 A 
ATOM     67  C   UNL A   1      38.445  31.346  36.394  1.00  0.00     0.173 A 
ATOM     68  C   UNL A   1      39.721  33.157  35.463  1.00  0.00     0.173 A 
ATOM     69  F   UNL A   1      38.008  30.078  36.366  1.00  0.00    -0.203 F 
ATOM     70  C   UNL A   1      38.005  32.184  37.416  1.00  0.00     0.198 A 
ATOM     71  C   UNL A   1      39.303  33.984  36.503  1.00  0.00     0.198 A 
ATOM     72  F   UNL A   1      40.547  33.660  34.533  1.00  0.00    -0.203 F 
ATOM     73  F   UNL A   1      37.150  31.720  38.338  1.00  0.00    -0.200 F 
ATOM     74  C   UNL A   1      38.440  33.499  37.473  1.00  0.00     0.200 A 
ATOM     75  F   UNL A   1      39.736  35.251  36.567  1.00  0.00    -0.200 F 
ATOM     76  F   UNL A   1      38.022  34.301  38.462  1.00  0.00    -0.200 F 
ENDBRANCH  52  66
BRANCH  53  77
ATOM     77  C   UNL A   1      42.519  26.216  27.807  1.00  0.00     0.064 A 
ATOM     78  C   UNL A   1      43.469  26.737  26.918  1.00  0.00     0.173 A 
ATOM     79  C   UNL A   1      42.063  24.909  27.584  1.00  0.00     0.173 A 
ATOM     80  F   UNL A   1      43.919  27.990  27.080  1.00  0.00    -0.203 F 
ATOM     81  C   UNL A   1      43.929  25.990  25.836  1.00  0.00     0.198 A 
ATOM     82  C   UNL A   1      42.544  24.152  26.518  1.00  0.00     0.198 A 
ATOM     83  F   UNL A   1      41.159  24.362  28.410  1.00  0.00    -0.203 F 
ATOM     84  F   UNL A   1      44.804  26.529  24.977  1.00  0.00    -0.200 F 
ATOM     85  C   UNL A   1      43.470  24.696  25.640  1.00  0.00     0.200 A 
ATOM     86  F   UNL A   1      42.110  22.898  26.339  1.00  0.00    -0.200 F 
ATOM     87  F   UNL A   1      43.917  23.976  24.602  1.00  0.00    -0.200 F 
ENDBRANCH  53  77
BRANCH  65  88
ATOM     88  C   UNL A   1      44.836  27.338  34.280  1.00  0.00     0.064 A 
ATOM     89  C   UNL A   1      46.060  28.022  34.310  1.00  0.00     0.173 A 
ATOM     90  C   UNL A   1      44.727  26.153  35.024  1.00  0.00     0.173 A 
ATOM     91  F   UNL A   1      46.221  29.149  33.602  1.00  0.00    -0.203 F 
ATOM     92  C   UNL A   1      47.138  27.527  35.039  1.00  0.00     0.198 A 
ATOM     93  C   UNL A   1      45.797  25.677  35.774  1.00  0.00     0.198 A 
ATOM     94  F   UNL A   1      43.575  25.463  35.033  1.00  0.00    -0.203 F 
ATOM     95  F   UNL A   1      48.312  28.173  35.018  1.00  0.00    -0.200 F 
ATOM     96  C   UNL A   1      47.004  26.359  35.777  1.00  0.00     0.200 A 
ATOM     97  F   UNL A   1      45.662  24.555  36.497  1.00  0.00    -0.200 F 
ATOM     98  F   UNL A   1      48.040  25.889  36.484  1.00  0.00    -0.200 F 
ENDBRANCH  65  88
ENDBRANCH  39  40
ENDBRANCH  31  34
ENDBRANCH  29  30
ENDBRANCH  28  29
ENDBRANCH  27  28
ENDBRANCH   1  27
TORSDOF 15
ENDMDL
MODEL 2
REMARK VINA RESULT:     -13.2      0.444      7.168
REMARK SMILES C/C(=N\Nc1ccccc1C(=O)NCCCCNC(=O)c1ccc(-c2c3nc(c(-c4c(F)c(F)c(F)c(F)c4F)c4ccc([nH]4)c(-c4c(F)c(F)c(F)c(F)c4F)c4nc(c(-c5c(F)c(F)c(F)c(F)c5F)c5ccc2[nH]5)C=C4)C=C3)cc1)c1ccc(S(C)(=O)=O)cc1
REMARK SMILES IDX 14 1 13 2 11 3 12 4 10 6 5 7 6 8 7 9 9 10 8 11 4 12 3 14
REMARK SMILES IDX 1 15 2 16 84 17 85 18 93 19 86 20 92 21 87 22 88 23 89 24
REMARK SMILES IDX 90 25 91 26 15 27 16 28 17 29 18 30 19 31 20 33 21 34 22 35
REMARK SMILES IDX 83 36 23 37 82 38 24 39 25 40 26 41 76 42 27 43 81 44 75 45
REMARK SMILES IDX 77 46 28 47 80 48 74 49 73 50 29 52 61 53 41 54 60 55 42 56
REMARK SMILES IDX 45 57 59 58 78 59 43 60 44 61 58 63 79 64 46 65 30 66 31 67
REMARK SMILES IDX 39 68 32 69 33 70 37 71 40 72 34 73 35 74 38 75 36 76 62 77
REMARK SMILES IDX 63 78 71 79 64 80 65 81 69 82 72 83 66 84 67 85 70 86 68 87
REMARK SMILES IDX 47 88 48 89 56 90 49 91 50 92 54 93 57 94 51 95 52 96 55 97
REMARK SMILES IDX 53 98
REMARK H PARENT 13 5 4 13 18 32 77 51 45 62
REMARK Flexibility Score: inf
ROOT
ATOM      1  C   UNL A   1      32.242  26.220  26.441  1.00  0.00     0.116 C 
ENDROOT
BRANCH   1   2
ATOM      2  N   UNL A   1      31.408  25.126  26.899  1.00  0.00    -0.352 N 
ATOM      3  C   UNL A   1      31.671  23.774  26.882  1.00  0.00     0.253 C 
ATOM      4  O   UNL A   1      30.856  23.006  27.392  1.00  0.00    -0.269 OA
ATOM      5  H   UNL A   1      30.536  25.384  27.275  1.00  0.00     0.163 HD
BRANCH   3   6
ATOM      6  C   UNL A   1      32.837  23.213  26.155  1.00  0.00     0.064 A 
ATOM      7  C   UNL A   1      32.816  22.713  24.842  1.00  0.00     0.069 A 
ATOM      8  C   UNL A   1      33.994  22.100  24.355  1.00  0.00     0.028 A 
ATOM      9  C   UNL A   1      35.174  22.073  25.099  1.00  0.00     0.002 A 
ATOM     10  C   UNL A   1      34.045  23.223  26.881  1.00  0.00     0.016 A 
ATOM     11  C   UNL A   1      35.210  22.669  26.352  1.00  0.00     0.001 A 
BRANCH   7  12
ATOM     12  N   UNL A   1      31.804  22.931  23.880  1.00  0.00    -0.277 N 
ATOM     13  H   UNL A   1      31.627  22.206  23.238  1.00  0.00     0.190 HD
BRANCH  12  14
ATOM     14  N   UNL A   1      31.060  24.052  23.770  1.00  0.00    -0.180 NA
ATOM     15  C   UNL A   1      33.035  25.286  22.815  1.00  0.00     0.069 C 
ATOM     16  C   UNL A   1      31.595  25.124  23.258  1.00  0.00     0.065 C 
BRANCH  16  17
ATOM     17  C   UNL A   1      30.725  26.321  23.109  1.00  0.00    -0.002 A 
ATOM     18  C   UNL A   1      31.211  27.453  22.445  1.00  0.00     0.011 A 
ATOM     19  C   UNL A   1      29.435  26.315  23.645  1.00  0.00     0.011 A 
ATOM     20  C   UNL A   1      30.397  28.578  22.296  1.00  0.00     0.021 A 
ATOM     21  C   UNL A   1      28.616  27.434  23.494  1.00  0.00     0.021 A 
ATOM     22  C   UNL A   1      29.101  28.559  22.820  1.00  0.00     0.067 A 
BRANCH  22  23
ATOM     23  S   UNL A   1      28.025  29.948  22.547  1.00  0.00     0.175 S 
ATOM     24  C   UNL A   1      28.890  31.302  23.287  1.00  0.00     0.163 C 
ATOM     25  O   UNL A   1      27.972  30.173  21.117  1.00  0.00    -0.224 OA
ATOM     26  O   UNL A   1      26.816  29.725  23.319  1.00  0.00    -0.224 OA
ENDBRANCH  22  23
ENDBRANCH  16  17
ENDBRANCH  12  14
ENDBRANCH   7  12
ENDBRANCH   3   6
ENDBRANCH   1   2
BRANCH   1  27
ATOM     27  C   UNL A   1      31.782  27.593  26.934  1.00  0.00     0.023 C 
BRANCH  27  28
ATOM     28  C   UNL A   1      31.647  28.685  25.864  1.00  0.00     0.023 C 
BRANCH  28  29
ATOM     29  C   UNL A   1      32.799  29.682  25.750  1.00  0.00     0.116 C 
BRANCH  29  30
ATOM     30  N   UNL A   1      32.513  30.991  26.317  1.00  0.00    -0.352 N 
ATOM     31  C   UNL A   1      33.227  31.773  27.195  1.00  0.00     0.251 C 
ATOM     32  H   UNL A   1      31.662  31.385  26.021  1.00  0.00     0.163 HD
ATOM     33  O   UNL A   1      32.761  32.844  27.573  1.00  0.00    -0.269 OA
BRANCH  31  34
ATOM     34  C   UNL A   1      34.532  31.325  27.735  1.00  0.00     0.039 A 
ATOM     35  C   UNL A   1      35.542  32.278  27.914  1.00  0.00     0.014 A 
ATOM     36  C   UNL A   1      34.782  29.990  28.053  1.00  0.00     0.014 A 
ATOM     37  C   UNL A   1      36.755  31.915  28.511  1.00  0.00     0.010 A 
ATOM     38  C   UNL A   1      35.961  29.647  28.715  1.00  0.00     0.010 A 
ATOM     39  C   UNL A   1      36.954  30.603  28.968  1.00  0.00    -0.014 A 
BRANCH  39  40
ATOM     40  C   UNL A   1      38.153  30.225  29.765  1.00  0.00     0.031 A 
ATOM     41  C   UNL A   1      39.158  29.238  29.237  1.00  0.00     0.074 A 
ATOM     42  C   UNL A   1      38.282  30.696  31.022  1.00  0.00     0.049 A 
ATOM     43  N   UNL A   1      40.218  28.740  29.824  1.00  0.00    -0.248 NA
ATOM     44  C   UNL A   1      38.926  28.717  27.881  1.00  0.00     0.031 C 
ATOM     45  C   UNL A   1      37.338  31.595  31.687  1.00  0.00     0.029 A 
ATOM     46  N   UNL A   1      39.247  30.468  31.973  1.00  0.00    -0.354 N 
ATOM     47  C   UNL A   1      40.774  27.847  28.919  1.00  0.00     0.074 A 
ATOM     48  C   UNL A   1      39.901  27.826  27.763  1.00  0.00     0.031 C 
ATOM     49  C   UNL A   1      37.781  31.859  32.927  1.00  0.00     0.029 A 
ATOM     50  C   UNL A   1      39.019  31.124  33.158  1.00  0.00     0.049 A 
ATOM     51  H   UNL A   1      40.029  29.890  31.818  1.00  0.00     0.167 HD
ATOM     52  C   UNL A   1      41.919  27.130  29.028  1.00  0.00     0.037 A 
ATOM     53  C   UNL A   1      39.726  31.132  34.305  1.00  0.00     0.037 A 
ATOM     54  C   UNL A   1      42.803  27.171  30.165  1.00  0.00     0.049 A 
ATOM     55  C   UNL A   1      40.998  30.335  34.396  1.00  0.00     0.074 A 
ATOM     56  C   UNL A   1      44.025  26.543  30.332  1.00  0.00     0.029 A 
ATOM     57  N   UNL A   1      42.555  27.876  31.335  1.00  0.00    -0.354 N 
ATOM     58  N   UNL A   1      41.562  29.570  33.495  1.00  0.00    -0.248 NA
ATOM     59  C   UNL A   1      41.738  30.410  35.665  1.00  0.00     0.031 C 
ATOM     60  C   UNL A   1      44.497  26.832  31.616  1.00  0.00     0.029 A 
ATOM     61  C   UNL A   1      43.592  27.679  32.233  1.00  0.00     0.049 A 
ATOM     62  H   UNL A   1      41.760  28.432  31.502  1.00  0.00     0.167 HD
ATOM     63  C   UNL A   1      42.733  29.098  34.072  1.00  0.00     0.074 A 
ATOM     64  C   UNL A   1      42.807  29.674  35.399  1.00  0.00     0.031 C 
ATOM     65  C   UNL A   1      43.663  28.264  33.548  1.00  0.00     0.037 A 
BRANCH  52  66
ATOM     66  C   UNL A   1      42.301  26.246  27.875  1.00  0.00     0.064 A 
ATOM     67  C   UNL A   1      41.747  24.966  27.719  1.00  0.00     0.173 A 
ATOM     68  C   UNL A   1      43.186  26.701  26.886  1.00  0.00     0.173 A 
ATOM     69  F   UNL A   1      40.900  24.480  28.638  1.00  0.00    -0.203 F 
ATOM     70  C   UNL A   1      42.087  24.165  26.632  1.00  0.00     0.198 A 
ATOM     71  C   UNL A   1      43.502  25.909  25.785  1.00  0.00     0.198 A 
ATOM     72  F   UNL A   1      43.738  27.920  26.981  1.00  0.00    -0.203 F 
ATOM     73  F   UNL A   1      41.581  22.928  26.529  1.00  0.00    -0.200 F 
ATOM     74  C   UNL A   1      42.958  24.640  25.662  1.00  0.00     0.200 A 
ATOM     75  F   UNL A   1      44.331  26.374  24.840  1.00  0.00    -0.200 F 
ATOM     76  F   UNL A   1      43.277  23.870  24.613  1.00  0.00    -0.200 F 
ENDBRANCH  52  66
BRANCH  53  77
ATOM     77  C   UNL A   1      39.265  31.956  35.452  1.00  0.00     0.064 A 
ATOM     78  C   UNL A   1      39.647  33.300  35.570  1.00  0.00     0.173 A 
ATOM     79  C   UNL A   1      38.441  31.422  36.453  1.00  0.00     0.173 A 
ATOM     80  F   UNL A   1      40.452  33.848  34.648  1.00  0.00    -0.203 F 
ATOM     81  C   UNL A   1      39.240  34.072  36.655  1.00  0.00     0.198 A 
ATOM     82  C   UNL A   1      38.011  32.203  37.523  1.00  0.00     0.198 A 
ATOM     83  F   UNL A   1      38.042  30.144  36.383  1.00  0.00    -0.203 F 
ATOM     84  F   UNL A   1      39.657  35.341  36.765  1.00  0.00    -0.200 F 
ATOM     85  C   UNL A   1      38.418  33.525  37.628  1.00  0.00     0.200 A 
ATOM     86  F   UNL A   1      37.206  31.675  38.454  1.00  0.00    -0.200 F 
ATOM     87  F   UNL A   1      38.023  34.270  38.669  1.00  0.00    -0.200 F 
ENDBRANCH  53  77
BRANCH  65  88
ATOM     88  C   UNL A   1      44.864  27.950  34.392  1.00  0.00     0.064 A 
ATOM     89  C   UNL A   1      44.900  26.832  35.238  1.00  0.00     0.173 A 
ATOM     90  C   UNL A   1      46.011  28.759  34.324  1.00  0.00     0.173 A 
ATOM     91  F   UNL A   1      43.825  26.039  35.352  1.00  0.00    -0.203 F 
ATOM     92  C   UNL A   1      46.029  26.547  36.000  1.00  0.00     0.198 A 
ATOM     93  C   UNL A   1      47.148  28.454  35.065  1.00  0.00     0.198 A 
ATOM     94  F   UNL A   1      46.030  29.838  33.526  1.00  0.00    -0.203 F 
ATOM     95  F   UNL A   1      46.025  25.498  36.835  1.00  0.00    -0.200 F 
ATOM     96  C   UNL A   1      47.155  27.353  35.907  1.00  0.00     0.200 A 
ATOM     97  F   UNL A   1      48.239  29.226  34.965  1.00  0.00    -0.200 F 
ATOM     98  F   UNL A   1      48.244  27.071  36.636  1.00  0.00    -0.200 F 
ENDBRANCH  65  88
ENDBRANCH  39  40
ENDBRANCH  31  34
ENDBRANCH  29  30
ENDBRANCH  28  29
ENDBRANCH  27  28
ENDBRANCH   1  27
TORSDOF 15
ENDMDL
MODEL 3
REMARK VINA RESULT:     -12.8      4.734      9.303
REMARK SMILES C/C(=N\Nc1ccccc1C(=O)NCCCCNC(=O)c1ccc(-c2c3nc(c(-c4c(F)c(F)c(F)c(F)c4F)c4ccc([nH]4)c(-c4c(F)c(F)c(F)c(F)c4F)c4nc(c(-c5c(F)c(F)c(F)c(F)c5F)c5ccc2[nH]5)C=C4)C=C3)cc1)c1ccc(S(C)(=O)=O)cc1
REMARK SMILES IDX 14 1 13 2 11 3 12 4 10 6 5 7 6 8 7 9 9 10 8 11 4 12 3 14
REMARK SMILES IDX 1 15 2 16 84 17 85 18 93 19 86 20 92 21 87 22 88 23 89 24
REMARK SMILES IDX 90 25 91 26 15 27 16 28 17 29 18 30 19 31 20 33 21 34 22 35
REMARK SMILES IDX 83 36 23 37 82 38 24 39 25 40 26 41 76 42 27 43 81 44 75 45
REMARK SMILES IDX 77 46 28 47 80 48 74 49 73 50 29 52 61 53 41 54 60 55 42 56
REMARK SMILES IDX 45 57 59 58 78 59 43 60 44 61 58 63 79 64 46 65 30 66 31 67
REMARK SMILES IDX 39 68 32 69 33 70 37 71 40 72 34 73 35 74 38 75 36 76 62 77
REMARK SMILES IDX 63 78 71 79 64 80 65 81 69 82 72 83 66 84 67 85 70 86 68 87
REMARK SMILES IDX 47 88 48 89 56 90 49 91 50 92 54 93 57 94 51 95 52 96 55 97
REMARK SMILES IDX 53 98
REMARK H PARENT 13 5 4 13 18 32 77 51 45 62
REMARK Flexibility Score: inf
ROOT
ATOM      1  C   UNL A   1      38.061  23.599  26.053  1.00  0.00     0.116 C 
ENDROOT
BRANCH   1   2
ATOM      2  N   UNL A   1      37.645  23.407  24.677  1.00  0.00    -0.352 N 
ATOM      3  C   UNL A   1      36.371  23.271  24.172  1.00  0.00     0.253 C 
ATOM      4  O   UNL A   1      36.223  23.190  22.952  1.00  0.00    -0.269 OA
ATOM      5  H   UNL A   1      38.371  23.369  24.014  1.00  0.00     0.163 HD
BRANCH   3   6
ATOM      6  C   UNL A   1      35.193  23.088  25.057  1.00  0.00     0.064 A 
ATOM      7  C   UNL A   1      34.357  24.117  25.523  1.00  0.00     0.069 A 
ATOM      8  C   UNL A   1      33.356  23.773  26.461  1.00  0.00     0.028 A 
ATOM      9  C   UNL A   1      33.129  22.451  26.848  1.00  0.00     0.002 A 
ATOM     10  C   UNL A   1      34.927  21.752  25.416  1.00  0.00     0.016 A 
ATOM     11  C   UNL A   1      33.893  21.433  26.296  1.00  0.00     0.001 A 
BRANCH   7  12
ATOM     12  N   UNL A   1      34.276  25.428  25.005  1.00  0.00    -0.277 N 
ATOM     13  H   UNL A   1      35.106  25.959  24.988  1.00  0.00     0.190 HD
BRANCH  12  14
ATOM     14  N   UNL A   1      33.156  26.013  24.528  1.00  0.00    -0.180 NA
ATOM     15  C   UNL A   1      33.556  28.012  26.005  1.00  0.00     0.069 C 
ATOM     16  C   UNL A   1      32.830  27.202  24.950  1.00  0.00     0.065 C 
BRANCH  16  17
ATOM     17  C   UNL A   1      31.617  27.829  24.362  1.00  0.00    -0.002 A 
ATOM     18  C   UNL A   1      30.673  27.031  23.706  1.00  0.00     0.011 A 
ATOM     19  C   UNL A   1      31.432  29.210  24.455  1.00  0.00     0.011 A 
ATOM     20  C   UNL A   1      29.527  27.612  23.158  1.00  0.00     0.021 A 
ATOM     21  C   UNL A   1      30.287  29.795  23.914  1.00  0.00     0.021 A 
ATOM     22  C   UNL A   1      29.341  28.993  23.269  1.00  0.00     0.067 A 
BRANCH  22  23
ATOM     23  S   UNL A   1      27.838  29.726  22.663  1.00  0.00     0.175 S 
ATOM     24  C   UNL A   1      27.786  31.301  23.467  1.00  0.00     0.163 C 
ATOM     25  O   UNL A   1      28.014  29.950  21.242  1.00  0.00    -0.224 OA
ATOM     26  O   UNL A   1      26.730  28.938  23.169  1.00  0.00    -0.224 OA
ENDBRANCH  22  23
ENDBRANCH  16  17
ENDBRANCH  12  14
ENDBRANCH   7  12
ENDBRANCH   3   6
ENDBRANCH   1   2
BRANCH   1  27
ATOM     27  C   UNL A   1      39.216  22.690  26.479  1.00  0.00     0.023 C 
BRANCH  27  28
ATOM     28  C   UNL A   1      39.461  21.455  25.602  1.00  0.00     0.023 C 
BRANCH  28  29
ATOM     29  C   UNL A   1      39.437  20.098  26.304  1.00  0.00     0.116 C 
BRANCH  29  30
ATOM     30  N   UNL A   1      40.548  19.226  25.957  1.00  0.00    -0.352 N 
ATOM     31  C   UNL A   1      41.907  19.438  25.981  1.00  0.00     0.251 C 
ATOM     32  H   UNL A   1      40.281  18.330  25.652  1.00  0.00     0.163 HD
ATOM     33  O   UNL A   1      42.668  18.554  25.596  1.00  0.00    -0.269 OA
BRANCH  31  34
ATOM     34  C   UNL A   1      42.474  20.735  26.418  1.00  0.00     0.039 A 
ATOM     35  C   UNL A   1      43.025  21.583  25.449  1.00  0.00     0.014 A 
ATOM     36  C   UNL A   1      42.485  21.124  27.757  1.00  0.00     0.014 A 
ATOM     37  C   UNL A   1      43.483  22.856  25.805  1.00  0.00     0.010 A 
ATOM     38  C   UNL A   1      42.872  22.420  28.098  1.00  0.00     0.010 A 
ATOM     39  C   UNL A   1      43.360  23.308  27.128  1.00  0.00    -0.014 A 
BRANCH  39  40
ATOM     40  C   UNL A   1      43.667  24.715  27.507  1.00  0.00     0.031 A 
ATOM     41  C   UNL A   1      45.088  25.184  27.662  1.00  0.00     0.074 A 
ATOM     42  C   UNL A   1      42.654  25.548  27.819  1.00  0.00     0.049 A 
ATOM     43  N   UNL A   1      45.536  26.350  28.057  1.00  0.00    -0.248 NA
ATOM     44  C   UNL A   1      46.146  24.206  27.366  1.00  0.00     0.031 C 
ATOM     45  C   UNL A   1      41.234  25.197  27.789  1.00  0.00     0.029 A 
ATOM     46  N   UNL A   1      42.663  26.856  28.239  1.00  0.00    -0.354 N 
ATOM     47  C   UNL A   1      46.921  26.246  28.063  1.00  0.00     0.074 A 
ATOM     48  C   UNL A   1      47.239  24.884  27.688  1.00  0.00     0.031 C 
ATOM     49  C   UNL A   1      40.509  26.267  28.155  1.00  0.00     0.029 A 
ATOM     50  C   UNL A   1      41.410  27.368  28.475  1.00  0.00     0.049 A 
ATOM     51  H   UNL A   1      43.490  27.376  28.360  1.00  0.00     0.167 HD
ATOM     52  C   UNL A   1      47.842  27.204  28.328  1.00  0.00     0.037 A 
ATOM     53  C   UNL A   1      41.028  28.586  28.905  1.00  0.00     0.037 A 
ATOM     54  C   UNL A   1      47.527  28.567  28.674  1.00  0.00     0.049 A 
ATOM     55  C   UNL A   1      42.071  29.633  29.184  1.00  0.00     0.074 A 
ATOM     56  C   UNL A   1      48.393  29.628  28.880  1.00  0.00     0.029 A 
ATOM     57  N   UNL A   1      46.245  29.058  28.869  1.00  0.00    -0.354 N 
ATOM     58  N   UNL A   1      43.375  29.548  29.091  1.00  0.00    -0.248 NA
ATOM     59  C   UNL A   1      41.587  30.951  29.621  1.00  0.00     0.031 C 
ATOM     60  C   UNL A   1      47.639  30.748  29.243  1.00  0.00     0.029 A 
ATOM     61  C   UNL A   1      46.299  30.399  29.216  1.00  0.00     0.049 A 
ATOM     62  H   UNL A   1      45.418  28.531  28.777  1.00  0.00     0.167 HD
ATOM     63  C   UNL A   1      43.864  30.803  29.426  1.00  0.00     0.074 A 
ATOM     64  C   UNL A   1      42.716  31.637  29.712  1.00  0.00     0.031 C 
ATOM     65  C   UNL A   1      45.151  31.225  29.489  1.00  0.00     0.037 A 
BRANCH  52  66
ATOM     66  C   UNL A   1      49.292  26.821  28.239  1.00  0.00     0.064 A 
ATOM     67  C   UNL A   1      49.994  26.886  27.025  1.00  0.00     0.173 A 
ATOM     68  C   UNL A   1      50.003  26.437  29.386  1.00  0.00     0.173 A 
ATOM     69  F   UNL A   1      49.360  27.241  25.897  1.00  0.00    -0.203 F 
ATOM     70  C   UNL A   1      51.344  26.555  26.959  1.00  0.00     0.198 A 
ATOM     71  C   UNL A   1      51.361  26.135  29.322  1.00  0.00     0.198 A 
ATOM     72  F   UNL A   1      49.384  26.367  30.574  1.00  0.00    -0.203 F 
ATOM     73  F   UNL A   1      51.981  26.580  25.779  1.00  0.00    -0.200 F 
ATOM     74  C   UNL A   1      52.029  26.187  28.108  1.00  0.00     0.200 A 
ATOM     75  F   UNL A   1      52.026  25.795  30.435  1.00  0.00    -0.200 F 
ATOM     76  F   UNL A   1      53.331  25.876  28.042  1.00  0.00    -0.200 F 
ENDBRANCH  52  66
BRANCH  53  77
ATOM     77  C   UNL A   1      39.583  28.896  29.061  1.00  0.00     0.064 A 
ATOM     78  C   UNL A   1      38.821  29.329  27.967  1.00  0.00     0.173 A 
ATOM     79  C   UNL A   1      38.938  28.771  30.299  1.00  0.00     0.173 A 
ATOM     80  F   UNL A   1      39.401  29.483  26.767  1.00  0.00    -0.203 F 
ATOM     81  C   UNL A   1      37.472  29.646  28.110  1.00  0.00     0.198 A 
ATOM     82  C   UNL A   1      37.582  29.062  30.435  1.00  0.00     0.198 A 
ATOM     83  F   UNL A   1      39.621  28.354  31.374  1.00  0.00    -0.203 F 
ATOM     84  F   UNL A   1      36.778  30.100  27.058  1.00  0.00    -0.200 F 
ATOM     85  C   UNL A   1      36.852  29.506  29.342  1.00  0.00     0.200 A 
ATOM     86  F   UNL A   1      36.983  28.912  31.624  1.00  0.00    -0.200 F 
ATOM     87  F   UNL A   1      35.554  29.807  29.478  1.00  0.00    -0.200 F 
ENDBRANCH  53  77
BRANCH  65  88
ATOM     88  C   UNL A   1      45.389  32.664  29.845  1.00  0.00     0.064 A 
ATOM     89  C   UNL A   1      45.611  33.069  31.168  1.00  0.00     0.173 A 
ATOM     90  C   UNL A   1      45.436  33.645  28.841  1.00  0.00     0.173 A 
ATOM     91  F   UNL A   1      45.560  32.174  32.166  1.00  0.00    -0.203 F 
ATOM     92  C   UNL A   1      45.849  34.406  31.477  1.00  0.00     0.198 A 
ATOM     93  C   UNL A   1      45.702  34.975  29.150  1.00  0.00     0.198 A 
ATOM     94  F   UNL A   1      45.235  33.309  27.557  1.00  0.00    -0.203 F 
ATOM     95  F   UNL A   1      46.015  34.777  32.755  1.00  0.00    -0.200 F 
ATOM     96  C   UNL A   1      45.902  35.356  30.468  1.00  0.00     0.200 A 
ATOM     97  F   UNL A   1      45.766  35.889  28.172  1.00  0.00    -0.200 F 
ATOM     98  F   UNL A   1      46.139  36.640  30.767  1.00  0.00    -0.200 F 
ENDBRANCH  65  88
ENDBRANCH  39  40
ENDBRANCH  31  34
ENDBRANCH  29  30
ENDBRANCH  28  29
ENDBRANCH  27  28
ENDBRANCH   1  27
TORSDOF 15
ENDMDL
