MODEL 1
REMARK VINA RESULT:      -9.7      0.000      0.000
REMARK SMILES CNC(=O)c1cccc(-c2cnc(O)c(C(=O)NCCCCNC(=O)c3ccc(-c4c5nc(c(-c6c(F)c(F)c(F)c(F)c6F)c6ccc([nH]6)c(-c6c(F)c(F)c(F)c(F)c6F)c6nc(c(-c7c(F)c(F)c(F)c(F)c7F)c7ccc4[nH]7)C=C6)C=C5)cc3)c2)c1
REMARK SMILES IDX 20 1 19 2 18 3 16 4 17 5 15 7 10 8 11 9 89 10 12 11 13 12
REMARK SMILES IDX 9 13 5 14 6 15 90 16 7 17 8 18 3 19 1 20 2 21 4 23 14 24
REMARK SMILES IDX 21 26 22 27 23 28 24 29 25 31 26 32 27 33 88 34 28 35 87 36
REMARK SMILES IDX 29 37 30 38 31 39 81 40 32 41 86 42 80 43 82 44 33 45 85 46
REMARK SMILES IDX 79 47 78 48 34 50 66 51 46 52 65 53 47 54 50 55 64 56 83 57
REMARK SMILES IDX 48 58 49 59 63 61 84 62 51 63 35 64 36 65 44 66 37 67 38 68
REMARK SMILES IDX 42 69 45 70 39 71 40 72 43 73 41 74 67 75 68 76 76 77 69 78
REMARK SMILES IDX 70 79 74 80 77 81 71 82 72 83 75 84 73 85 52 86 53 87 61 88
REMARK SMILES IDX 54 89 55 90 59 91 62 92 56 93 57 94 60 95 58 96
REMARK H PARENT 18 6 2 22 14 25 23 30 82 49 50 60
REMARK Flexibility Score: inf
ROOT
ATOM      1  C   UNL A   1      42.715  23.388  28.337  1.00  0.00     0.023 C 
ENDROOT
BRANCH   1   2
ATOM      2  C   UNL A   1      44.178  23.152  28.726  1.00  0.00     0.116 C 
BRANCH   2   3
ATOM      3  N   UNL A   1      44.941  22.649  27.596  1.00  0.00    -0.352 N 
ATOM      4  C   UNL A   1      45.799  23.256  26.713  1.00  0.00     0.256 C 
ATOM      5  O   UNL A   1      46.366  22.542  25.882  1.00  0.00    -0.269 OA
ATOM      6  H   UNL A   1      44.818  21.686  27.432  1.00  0.00     0.163 HD
BRANCH   4   7
ATOM      7  C   UNL A   1      46.140  24.699  26.733  1.00  0.00     0.102 A 
ATOM      8  C   UNL A   1      45.563  27.063  26.632  1.00  0.00     0.001 A 
ATOM      9  C   UNL A   1      46.874  27.340  26.992  1.00  0.00     0.124 A 
ATOM     10  C   UNL A   1      45.234  25.715  26.438  1.00  0.00     0.029 A 
ATOM     11  N   UNL A   1      47.814  26.392  27.198  1.00  0.00    -0.221 NA
ATOM     12  C   UNL A   1      47.432  25.100  27.078  1.00  0.00     0.223 A 
BRANCH   8  13
ATOM     13  C   UNL A   1      44.513  28.081  26.562  1.00  0.00    -0.016 A 
ATOM     14  C   UNL A   1      43.721  30.297  27.220  1.00  0.00     0.040 A 
ATOM     15  C   UNL A   1      42.500  30.043  26.592  1.00  0.00     0.014 A 
ATOM     16  C   UNL A   1      44.710  29.311  27.222  1.00  0.00     0.022 A 
ATOM     17  C   UNL A   1      42.292  28.830  25.930  1.00  0.00     0.001 A 
ATOM     18  C   UNL A   1      43.296  27.858  25.909  1.00  0.00     0.009 A 
BRANCH  14  19
ATOM     19  C   UNL A   1      43.889  31.562  27.974  1.00  0.00     0.251 C 
ATOM     20  C   UNL A   1      45.206  32.778  26.159  1.00  0.00     0.143 C 
ATOM     21  N   UNL A   1      44.646  32.592  27.478  1.00  0.00    -0.355 N 
ATOM     22  H   UNL A   1      44.838  33.315  28.119  1.00  0.00     0.163 HD
ATOM     23  O   UNL A   1      43.343  31.682  29.067  1.00  0.00    -0.269 OA
ENDBRANCH  14  19
ENDBRANCH   8  13
BRANCH  12  24
ATOM     24  O   UNL A   1      48.438  24.215  27.348  1.00  0.00    -0.493 OA
ATOM     25  H   UNL A   1      48.367  23.324  27.067  1.00  0.00     0.295 HD
ENDBRANCH  12  24
ENDBRANCH   4   7
ENDBRANCH   2   3
ENDBRANCH   1   2
BRANCH   1  26
ATOM     26  C   UNL A   1      42.164  22.376  27.330  1.00  0.00     0.023 C 
BRANCH  26  27
ATOM     27  C   UNL A   1      40.845  21.727  27.733  1.00  0.00     0.116 C 
BRANCH  27  28
ATOM     28  N   UNL A   1      39.820  21.808  26.703  1.00  0.00    -0.352 N 
ATOM     29  C   UNL A   1      39.074  22.902  26.329  1.00  0.00     0.251 C 
ATOM     30  H   UNL A   1      39.638  20.975  26.212  1.00  0.00     0.163 HD
ATOM     31  O   UNL A   1      38.177  22.796  25.506  1.00  0.00    -0.269 OA
BRANCH  29  32
ATOM     32  C   UNL A   1      39.338  24.204  26.975  1.00  0.00     0.039 A 
ATOM     33  C   UNL A   1      38.883  24.408  28.279  1.00  0.00     0.014 A 
ATOM     34  C   UNL A   1      40.064  25.197  26.312  1.00  0.00     0.014 A 
ATOM     35  C   UNL A   1      39.223  25.583  28.951  1.00  0.00     0.010 A 
ATOM     36  C   UNL A   1      40.456  26.338  27.004  1.00  0.00     0.010 A 
ATOM     37  C   UNL A   1      40.045  26.538  28.330  1.00  0.00    -0.014 A 
BRANCH  37  38
ATOM     38  C   UNL A   1      40.500  27.747  29.058  1.00  0.00     0.031 A 
ATOM     39  C   UNL A   1      41.893  27.811  29.614  1.00  0.00     0.074 A 
ATOM     40  C   UNL A   1      39.633  28.753  29.282  1.00  0.00     0.049 A 
ATOM     41  N   UNL A   1      42.449  28.738  30.351  1.00  0.00    -0.248 NA
ATOM     42  C   UNL A   1      42.770  26.664  29.330  1.00  0.00     0.031 C 
ATOM     43  C   UNL A   1      38.240  28.783  28.834  1.00  0.00     0.029 A 
ATOM     44  N   UNL A   1      39.791  29.937  29.956  1.00  0.00    -0.354 N 
ATOM     45  C   UNL A   1      43.729  28.281  30.630  1.00  0.00     0.074 A 
ATOM     46  C   UNL A   1      43.853  26.972  30.026  1.00  0.00     0.031 C 
ATOM     47  C   UNL A   1      37.675  29.936  29.230  1.00  0.00     0.029 A 
ATOM     48  C   UNL A   1      38.655  30.708  29.988  1.00  0.00     0.049 A 
ATOM     49  H   UNL A   1      40.639  30.209  30.377  1.00  0.00     0.167 HD
ATOM     50  C   UNL A   1      44.718  28.908  31.309  1.00  0.00     0.037 A 
ATOM     51  C   UNL A   1      38.428  31.900  30.572  1.00  0.00     0.037 A 
ATOM     52  C   UNL A   1      44.600  30.223  31.882  1.00  0.00     0.049 A 
ATOM     53  C   UNL A   1      39.546  32.576  31.317  1.00  0.00     0.074 A 
ATOM     54  C   UNL A   1      45.565  30.972  32.531  1.00  0.00     0.029 A 
ATOM     55  N   UNL A   1      43.440  30.985  31.874  1.00  0.00    -0.354 N 
ATOM     56  N   UNL A   1      40.775  32.166  31.516  1.00  0.00    -0.248 NA
ATOM     57  C   UNL A   1      39.246  33.885  31.916  1.00  0.00     0.031 C 
ATOM     58  C   UNL A   1      44.979  32.171  32.951  1.00  0.00     0.029 A 
ATOM     59  C   UNL A   1      43.661  32.188  32.524  1.00  0.00     0.049 A 
ATOM     60  H   UNL A   1      42.588  30.712  31.465  1.00  0.00     0.167 HD
ATOM     61  C   UNL A   1      41.401  33.172  32.237  1.00  0.00     0.074 A 
ATOM     62  C   UNL A   1      40.421  34.221  32.430  1.00  0.00     0.031 C 
ATOM     63  C   UNL A   1      42.675  33.224  32.699  1.00  0.00     0.037 A 
BRANCH  50  64
ATOM     64  C   UNL A   1      46.021  28.180  31.465  1.00  0.00     0.064 A 
ATOM     65  C   UNL A   1      46.215  27.232  32.482  1.00  0.00     0.173 A 
ATOM     66  C   UNL A   1      47.077  28.408  30.570  1.00  0.00     0.173 A 
ATOM     67  F   UNL A   1      45.241  26.987  33.370  1.00  0.00    -0.203 F 
ATOM     68  C   UNL A   1      47.427  26.559  32.611  1.00  0.00     0.198 A 
ATOM     69  C   UNL A   1      48.278  27.713  30.686  1.00  0.00     0.198 A 
ATOM     70  F   UNL A   1      46.942  29.301  29.578  1.00  0.00    -0.203 F 
ATOM     71  F   UNL A   1      47.605  25.694  33.620  1.00  0.00    -0.200 F 
ATOM     72  C   UNL A   1      48.455  26.795  31.711  1.00  0.00     0.200 A 
ATOM     73  F   UNL A   1      49.266  27.933  29.808  1.00  0.00    -0.200 F 
ATOM     74  F   UNL A   1      49.618  26.143  31.835  1.00  0.00    -0.200 F 
ENDBRANCH  50  64
BRANCH  51  75
ATOM     75  C   UNL A   1      37.095  32.543  30.451  1.00  0.00     0.064 A 
ATOM     76  C   UNL A   1      36.790  33.364  29.356  1.00  0.00     0.173 A 
ATOM     77  C   UNL A   1      36.102  32.355  31.423  1.00  0.00     0.173 A 
ATOM     78  F   UNL A   1      37.714  33.589  28.411  1.00  0.00    -0.203 F 
ATOM     79  C   UNL A   1      35.548  33.987  29.247  1.00  0.00     0.198 A 
ATOM     80  C   UNL A   1      34.851  32.957  31.300  1.00  0.00     0.198 A 
ATOM     81  F   UNL A   1      36.343  31.575  32.487  1.00  0.00    -0.203 F 
ATOM     82  F   UNL A   1      35.298  34.799  28.212  1.00  0.00    -0.200 F 
ATOM     83  C   UNL A   1      34.578  33.779  30.215  1.00  0.00     0.200 A 
ATOM     84  F   UNL A   1      33.912  32.743  32.231  1.00  0.00    -0.200 F 
ATOM     85  F   UNL A   1      33.384  34.375  30.109  1.00  0.00    -0.200 F 
ENDBRANCH  51  75
BRANCH  63  86
ATOM     86  C   UNL A   1      43.091  34.465  33.431  1.00  0.00     0.064 A 
ATOM     87  C   UNL A   1      43.511  35.614  32.747  1.00  0.00     0.173 A 
ATOM     88  C   UNL A   1      43.025  34.518  34.832  1.00  0.00     0.173 A 
ATOM     89  F   UNL A   1      43.605  35.607  31.409  1.00  0.00    -0.203 F 
ATOM     90  C   UNL A   1      43.871  36.767  33.441  1.00  0.00     0.198 A 
ATOM     91  C   UNL A   1      43.359  35.681  35.520  1.00  0.00     0.198 A 
ATOM     92  F   UNL A   1      42.624  33.446  35.530  1.00  0.00    -0.203 F 
ATOM     93  F   UNL A   1      44.309  37.841  32.770  1.00  0.00    -0.200 F 
ATOM     94  C   UNL A   1      43.787  36.801  34.825  1.00  0.00     0.200 A 
ATOM     95  F   UNL A   1      43.266  35.716  36.856  1.00  0.00    -0.200 F 
ATOM     96  F   UNL A   1      44.125  37.914  35.490  1.00  0.00    -0.200 F 
ENDBRANCH  63  86
ENDBRANCH  37  38
ENDBRANCH  29  32
ENDBRANCH  27  28
ENDBRANCH  26  27
ENDBRANCH   1  26
TORSDOF 14
ENDMDL
MODEL 2
REMARK VINA RESULT:      -9.6      4.879     10.125
REMARK SMILES CNC(=O)c1cccc(-c2cnc(O)c(C(=O)NCCCCNC(=O)c3ccc(-c4c5nc(c(-c6c(F)c(F)c(F)c(F)c6F)c6ccc([nH]6)c(-c6c(F)c(F)c(F)c(F)c6F)c6nc(c(-c7c(F)c(F)c(F)c(F)c7F)c7ccc4[nH]7)C=C6)C=C5)cc3)c2)c1
REMARK SMILES IDX 20 1 19 2 18 3 16 4 17 5 15 7 10 8 11 9 89 10 12 11 13 12
REMARK SMILES IDX 9 13 5 14 6 15 90 16 7 17 8 18 3 19 1 20 2 21 4 23 14 24
REMARK SMILES IDX 21 26 22 27 23 28 24 29 25 31 26 32 27 33 88 34 28 35 87 36
REMARK SMILES IDX 29 37 30 38 31 39 81 40 32 41 86 42 80 43 82 44 33 45 85 46
REMARK SMILES IDX 79 47 78 48 34 50 66 51 46 52 65 53 47 54 50 55 64 56 83 57
REMARK SMILES IDX 48 58 49 59 63 61 84 62 51 63 35 64 36 65 44 66 37 67 38 68
REMARK SMILES IDX 42 69 45 70 39 71 40 72 43 73 41 74 67 75 68 76 76 77 69 78
REMARK SMILES IDX 70 79 74 80 77 81 71 82 72 83 75 84 73 85 52 86 53 87 61 88
REMARK SMILES IDX 54 89 55 90 59 91 62 92 56 93 57 94 60 95 58 96
REMARK H PARENT 18 6 2 22 14 25 23 30 82 49 50 60
REMARK Flexibility Score: inf
ROOT
ATOM      1  C   UNL A   1      31.988  30.280  26.550  1.00  0.00     0.023 C 
ENDROOT
BRANCH   1   2
ATOM      2  C   UNL A   1      31.591  29.683  25.196  1.00  0.00     0.116 C 
BRANCH   2   3
ATOM      3  N   UNL A   1      32.730  29.640  24.294  1.00  0.00    -0.352 N 
ATOM      4  C   UNL A   1      33.283  28.629  23.546  1.00  0.00     0.256 C 
ATOM      5  O   UNL A   1      34.226  28.915  22.804  1.00  0.00    -0.269 OA
ATOM      6  H   UNL A   1      33.196  30.503  24.201  1.00  0.00     0.163 HD
BRANCH   4   7
ATOM      7  C   UNL A   1      32.781  27.235  23.521  1.00  0.00     0.102 A 
ATOM      8  C   UNL A   1      32.707  24.943  24.343  1.00  0.00     0.001 A 
ATOM      9  C   UNL A   1      31.620  24.738  23.506  1.00  0.00     0.124 A 
ATOM     10  C   UNL A   1      33.322  26.200  24.280  1.00  0.00     0.029 A 
ATOM     11  N   UNL A   1      31.116  25.682  22.681  1.00  0.00    -0.221 NA
ATOM     12  C   UNL A   1      31.692  26.906  22.712  1.00  0.00     0.223 A 
BRANCH   8  13
ATOM     13  C   UNL A   1      33.150  23.970  25.343  1.00  0.00    -0.016 A 
ATOM     14  C   UNL A   1      34.644  22.126  25.928  1.00  0.00     0.040 A 
ATOM     15  C   UNL A   1      33.983  21.984  27.150  1.00  0.00     0.014 A 
ATOM     16  C   UNL A   1      34.212  23.100  25.024  1.00  0.00     0.022 A 
ATOM     17  C   UNL A   1      32.932  22.842  27.482  1.00  0.00     0.001 A 
ATOM     18  C   UNL A   1      32.523  23.835  26.587  1.00  0.00     0.009 A 
BRANCH  14  19
ATOM     19  C   UNL A   1      35.708  21.158  25.572  1.00  0.00     0.251 C 
ATOM     20  C   UNL A   1      34.138  19.366  24.659  1.00  0.00     0.143 C 
ATOM     21  N   UNL A   1      35.403  19.907  25.099  1.00  0.00    -0.355 N 
ATOM     22  H   UNL A   1      36.163  19.282  25.054  1.00  0.00     0.163 HD
ATOM     23  O   UNL A   1      36.883  21.485  25.711  1.00  0.00    -0.269 OA
ENDBRANCH  14  19
ENDBRANCH   8  13
BRANCH  12  24
ATOM     24  O   UNL A   1      31.086  27.805  21.878  1.00  0.00    -0.493 OA
ATOM     25  H   UNL A   1      30.846  28.652  22.197  1.00  0.00     0.295 HD
ENDBRANCH  12  24
ENDBRANCH   4   7
ENDBRANCH   2   3
ENDBRANCH   1   2
BRANCH   1  26
ATOM     26  C   UNL A   1      31.661  31.768  26.698  1.00  0.00     0.023 C 
BRANCH  26  27
ATOM     27  C   UNL A   1      32.794  32.619  27.261  1.00  0.00     0.116 C 
BRANCH  27  28
ATOM     28  N   UNL A   1      32.395  33.983  27.573  1.00  0.00    -0.352 N 
ATOM     29  C   UNL A   1      32.942  34.839  28.501  1.00  0.00     0.251 C 
ATOM     30  H   UNL A   1      31.638  34.338  27.054  1.00  0.00     0.163 HD
ATOM     31  O   UNL A   1      32.437  35.930  28.719  1.00  0.00    -0.269 OA
BRANCH  29  32
ATOM     32  C   UNL A   1      34.125  34.401  29.270  1.00  0.00     0.039 A 
ATOM     33  C   UNL A   1      33.925  33.752  30.490  1.00  0.00     0.014 A 
ATOM     34  C   UNL A   1      35.415  34.593  28.769  1.00  0.00     0.014 A 
ATOM     35  C   UNL A   1      35.020  33.225  31.176  1.00  0.00     0.010 A 
ATOM     36  C   UNL A   1      36.497  34.012  29.420  1.00  0.00     0.010 A 
ATOM     37  C   UNL A   1      36.309  33.317  30.625  1.00  0.00    -0.014 A 
BRANCH  37  38
ATOM     38  C   UNL A   1      37.474  32.680  31.286  1.00  0.00     0.031 A 
ATOM     39  C   UNL A   1      38.191  31.545  30.615  1.00  0.00     0.074 A 
ATOM     40  C   UNL A   1      37.833  33.073  32.523  1.00  0.00     0.049 A 
ATOM     41  N   UNL A   1      39.170  30.803  31.065  1.00  0.00    -0.248 NA
ATOM     42  C   UNL A   1      37.726  31.174  29.270  1.00  0.00     0.031 C 
ATOM     43  C   UNL A   1      37.180  34.131  33.296  1.00  0.00     0.029 A 
ATOM     44  N   UNL A   1      38.826  32.620  33.353  1.00  0.00    -0.354 N 
ATOM     45  C   UNL A   1      39.426  29.871  30.069  1.00  0.00     0.074 A 
ATOM     46  C   UNL A   1      38.468  30.109  29.011  1.00  0.00     0.031 C 
ATOM     47  C   UNL A   1      37.800  34.258  34.480  1.00  0.00     0.029 A 
ATOM     48  C   UNL A   1      38.870  33.268  34.563  1.00  0.00     0.049 A 
ATOM     49  H   UNL A   1      39.449  31.899  33.105  1.00  0.00     0.167 HD
ATOM     50  C   UNL A   1      40.389  28.921  30.031  1.00  0.00     0.037 A 
ATOM     51  C   UNL A   1      39.679  33.078  35.623  1.00  0.00     0.037 A 
ATOM     52  C   UNL A   1      41.359  28.709  31.073  1.00  0.00     0.049 A 
ATOM     53  C   UNL A   1      40.742  32.017  35.554  1.00  0.00     0.074 A 
ATOM     54  C   UNL A   1      42.416  27.816  31.100  1.00  0.00     0.029 A 
ATOM     55  N   UNL A   1      41.389  29.401  32.275  1.00  0.00    -0.354 N 
ATOM     56  N   UNL A   1      41.021  31.187  34.578  1.00  0.00    -0.248 NA
ATOM     57  C   UNL A   1      41.608  31.868  36.732  1.00  0.00     0.031 C 
ATOM     58  C   UNL A   1      43.061  27.939  32.335  1.00  0.00     0.029 A 
ATOM     59  C   UNL A   1      42.434  28.942  33.059  1.00  0.00     0.049 A 
ATOM     60  H   UNL A   1      40.761  30.114  32.532  1.00  0.00     0.167 HD
ATOM     61  C   UNL A   1      42.106  30.438  35.011  1.00  0.00     0.074 A 
ATOM     62  C   UNL A   1      42.445  30.920  36.334  1.00  0.00     0.031 C 
ATOM     63  C   UNL A   1      42.762  29.440  34.371  1.00  0.00     0.037 A 
BRANCH  50  64
ATOM     64  C   UNL A   1      40.445  28.038  28.818  1.00  0.00     0.064 A 
ATOM     65  C   UNL A   1      41.206  28.385  27.692  1.00  0.00     0.173 A 
ATOM     66  C   UNL A   1      39.754  26.817  28.794  1.00  0.00     0.173 A 
ATOM     67  F   UNL A   1      41.874  29.548  27.661  1.00  0.00    -0.203 F 
ATOM     68  C   UNL A   1      41.253  27.554  26.576  1.00  0.00     0.198 A 
ATOM     69  C   UNL A   1      39.826  25.976  27.687  1.00  0.00     0.198 A 
ATOM     70  F   UNL A   1      39.015  26.436  29.847  1.00  0.00    -0.203 F 
ATOM     71  F   UNL A   1      41.948  27.929  25.493  1.00  0.00    -0.200 F 
ATOM     72  C   UNL A   1      40.569  26.348  26.576  1.00  0.00     0.200 A 
ATOM     73  F   UNL A   1      39.174  24.804  27.693  1.00  0.00    -0.200 F 
ATOM     74  F   UNL A   1      40.620  25.548  25.503  1.00  0.00    -0.200 F 
ENDBRANCH  50  64
BRANCH  51  75
ATOM     75  C   UNL A   1      39.531  33.930  36.831  1.00  0.00     0.064 A 
ATOM     76  C   UNL A   1      40.165  35.178  36.911  1.00  0.00     0.173 A 
ATOM     77  C   UNL A   1      38.760  33.517  37.927  1.00  0.00     0.173 A 
ATOM     78  F   UNL A   1      40.929  35.606  35.896  1.00  0.00    -0.203 F 
ATOM     79  C   UNL A   1      40.047  35.973  38.049  1.00  0.00     0.198 A 
ATOM     80  C   UNL A   1      38.621  34.325  39.054  1.00  0.00     0.198 A 
ATOM     81  F   UNL A   1      38.130  32.334  37.897  1.00  0.00    -0.203 F 
ATOM     82  F   UNL A   1      40.697  37.142  38.116  1.00  0.00    -0.200 F 
ATOM     83  C   UNL A   1      39.272  35.549  39.117  1.00  0.00     0.200 A 
ATOM     84  F   UNL A   1      37.860  33.918  40.078  1.00  0.00    -0.200 F 
ATOM     85  F   UNL A   1      39.156  36.315  40.209  1.00  0.00    -0.200 F 
ENDBRANCH  51  75
BRANCH  63  86
ATOM     86  C   UNL A   1      43.932  28.822  35.078  1.00  0.00     0.064 A 
ATOM     87  C   UNL A   1      43.780  27.703  35.908  1.00  0.00     0.173 A 
ATOM     88  C   UNL A   1      45.225  29.331  34.886  1.00  0.00     0.173 A 
ATOM     89  F   UNL A   1      42.562  27.190  36.134  1.00  0.00    -0.203 F 
ATOM     90  C   UNL A   1      44.880  27.126  36.537  1.00  0.00     0.198 A 
ATOM     91  C   UNL A   1      46.326  28.735  35.495  1.00  0.00     0.198 A 
ATOM     92  F   UNL A   1      45.422  30.397  34.097  1.00  0.00    -0.203 F 
ATOM     93  F   UNL A   1      44.708  26.082  37.359  1.00  0.00    -0.200 F 
ATOM     94  C   UNL A   1      46.152  27.638  36.325  1.00  0.00     0.200 A 
ATOM     95  F   UNL A   1      47.555  29.224  35.279  1.00  0.00    -0.200 F 
ATOM     96  F   UNL A   1      47.210  27.077  36.925  1.00  0.00    -0.200 F 
ENDBRANCH  63  86
ENDBRANCH  37  38
ENDBRANCH  29  32
ENDBRANCH  27  28
ENDBRANCH  26  27
ENDBRANCH   1  26
TORSDOF 14
ENDMDL
MODEL 3
REMARK VINA RESULT:      -9.6      4.901     10.077
REMARK SMILES CNC(=O)c1cccc(-c2cnc(O)c(C(=O)NCCCCNC(=O)c3ccc(-c4c5nc(c(-c6c(F)c(F)c(F)c(F)c6F)c6ccc([nH]6)c(-c6c(F)c(F)c(F)c(F)c6F)c6nc(c(-c7c(F)c(F)c(F)c(F)c7F)c7ccc4[nH]7)C=C6)C=C5)cc3)c2)c1
REMARK SMILES IDX 20 1 19 2 18 3 16 4 17 5 15 7 10 8 11 9 89 10 12 11 13 12
REMARK SMILES IDX 9 13 5 14 6 15 90 16 7 17 8 18 3 19 1 20 2 21 4 23 14 24
REMARK SMILES IDX 21 26 22 27 23 28 24 29 25 31 26 32 27 33 88 34 28 35 87 36
REMARK SMILES IDX 29 37 30 38 31 39 81 40 32 41 86 42 80 43 82 44 33 45 85 46
REMARK SMILES IDX 79 47 78 48 34 50 66 51 46 52 65 53 47 54 50 55 64 56 83 57
REMARK SMILES IDX 48 58 49 59 63 61 84 62 51 63 35 64 36 65 44 66 37 67 38 68
REMARK SMILES IDX 42 69 45 70 39 71 40 72 43 73 41 74 67 75 68 76 76 77 69 78
REMARK SMILES IDX 70 79 74 80 77 81 71 82 72 83 75 84 73 85 52 86 53 87 61 88
REMARK SMILES IDX 54 89 55 90 59 91 62 92 56 93 57 94 60 95 58 96
REMARK H PARENT 18 6 2 22 14 25 23 30 82 49 50 60
REMARK Flexibility Score: inf
ROOT
ATOM      1  C   UNL A   1      32.145  30.352  26.656  1.00  0.00     0.023 C 
ENDROOT
BRANCH   1   2
ATOM      2  C   UNL A   1      31.739  29.749  25.308  1.00  0.00     0.116 C 
BRANCH   2   3
ATOM      3  N   UNL A   1      32.872  29.698  24.399  1.00  0.00    -0.352 N 
ATOM      4  C   UNL A   1      33.398  28.691  23.628  1.00  0.00     0.256 C 
ATOM      5  O   UNL A   1      34.344  28.970  22.887  1.00  0.00    -0.269 OA
ATOM      6  H   UNL A   1      33.357  30.552  24.322  1.00  0.00     0.163 HD
BRANCH   4   7
ATOM      7  C   UNL A   1      32.864  27.309  23.578  1.00  0.00     0.102 A 
ATOM      8  C   UNL A   1      32.727  25.008  24.366  1.00  0.00     0.001 A 
ATOM      9  C   UNL A   1      31.646  24.840  23.513  1.00  0.00     0.124 A 
ATOM     10  C   UNL A   1      33.372  26.251  24.328  1.00  0.00     0.029 A 
ATOM     11  N   UNL A   1      31.174  25.808  22.697  1.00  0.00    -0.221 NA
ATOM     12  C   UNL A   1      31.777  27.017  22.751  1.00  0.00     0.223 A 
BRANCH   8  13
ATOM     13  C   UNL A   1      33.136  24.011  25.357  1.00  0.00    -0.016 A 
ATOM     14  C   UNL A   1      34.611  22.155  25.949  1.00  0.00     0.040 A 
ATOM     15  C   UNL A   1      33.907  21.982  27.143  1.00  0.00     0.014 A 
ATOM     16  C   UNL A   1      34.210  23.150  25.055  1.00  0.00     0.022 A 
ATOM     17  C   UNL A   1      32.843  22.830  27.459  1.00  0.00     0.001 A 
ATOM     18  C   UNL A   1      32.465  23.845  26.574  1.00  0.00     0.009 A 
BRANCH  14  19
ATOM     19  C   UNL A   1      35.688  21.196  25.608  1.00  0.00     0.251 C 
ATOM     20  C   UNL A   1      34.148  19.393  24.667  1.00  0.00     0.143 C 
ATOM     21  N   UNL A   1      35.402  19.944  25.128  1.00  0.00    -0.355 N 
ATOM     22  H   UNL A   1      36.168  19.326  25.093  1.00  0.00     0.163 HD
ATOM     23  O   UNL A   1      36.858  21.533  25.766  1.00  0.00    -0.269 OA
ENDBRANCH  14  19
ENDBRANCH   8  13
BRANCH  12  24
ATOM     24  O   UNL A   1      31.202  27.941  21.924  1.00  0.00    -0.493 OA
ATOM     25  H   UNL A   1      30.892  27.685  21.078  1.00  0.00     0.295 HD
ENDBRANCH  12  24
ENDBRANCH   4   7
ENDBRANCH   2   3
ENDBRANCH   1   2
BRANCH   1  26
ATOM     26  C   UNL A   1      31.761  31.824  26.824  1.00  0.00     0.023 C 
BRANCH  26  27
ATOM     27  C   UNL A   1      32.905  32.738  27.249  1.00  0.00     0.116 C 
BRANCH  27  28
ATOM     28  N   UNL A   1      32.473  34.081  27.606  1.00  0.00    -0.352 N 
ATOM     29  C   UNL A   1      32.987  34.912  28.575  1.00  0.00     0.251 C 
ATOM     30  H   UNL A   1      31.717  34.440  27.089  1.00  0.00     0.163 HD
ATOM     31  O   UNL A   1      32.456  35.983  28.826  1.00  0.00    -0.269 OA
BRANCH  29  32
ATOM     32  C   UNL A   1      34.166  34.470  29.346  1.00  0.00     0.039 A 
ATOM     33  C   UNL A   1      33.964  33.884  30.597  1.00  0.00     0.014 A 
ATOM     34  C   UNL A   1      35.454  34.594  28.819  1.00  0.00     0.014 A 
ATOM     35  C   UNL A   1      35.051  33.351  31.292  1.00  0.00     0.010 A 
ATOM     36  C   UNL A   1      36.526  34.006  29.481  1.00  0.00     0.010 A 
ATOM     37  C   UNL A   1      36.334  33.374  30.720  1.00  0.00    -0.014 A 
BRANCH  37  38
ATOM     38  C   UNL A   1      37.486  32.727  31.392  1.00  0.00     0.031 A 
ATOM     39  C   UNL A   1      38.195  31.581  30.734  1.00  0.00     0.074 A 
ATOM     40  C   UNL A   1      37.841  33.125  32.629  1.00  0.00     0.049 A 
ATOM     41  N   UNL A   1      39.163  30.830  31.195  1.00  0.00    -0.248 NA
ATOM     42  C   UNL A   1      37.735  31.206  29.387  1.00  0.00     0.031 C 
ATOM     43  C   UNL A   1      37.195  34.195  33.391  1.00  0.00     0.029 A 
ATOM     44  N   UNL A   1      38.824  32.666  33.469  1.00  0.00    -0.354 N 
ATOM     45  C   UNL A   1      39.415  29.889  30.206  1.00  0.00     0.074 A 
ATOM     46  C   UNL A   1      38.467  30.131  29.140  1.00  0.00     0.031 C 
ATOM     47  C   UNL A   1      37.809  34.322  34.578  1.00  0.00     0.029 A 
ATOM     48  C   UNL A   1      38.867  33.321  34.675  1.00  0.00     0.049 A 
ATOM     49  H   UNL A   1      39.440  31.936  33.230  1.00  0.00     0.167 HD
ATOM     50  C   UNL A   1      40.368  28.927  30.181  1.00  0.00     0.037 A 
ATOM     51  C   UNL A   1      39.666  33.129  35.742  1.00  0.00     0.037 A 
ATOM     52  C   UNL A   1      41.327  28.712  31.231  1.00  0.00     0.049 A 
ATOM     53  C   UNL A   1      40.718  32.055  35.687  1.00  0.00     0.074 A 
ATOM     54  C   UNL A   1      42.374  27.807  31.272  1.00  0.00     0.029 A 
ATOM     55  N   UNL A   1      41.357  29.412  32.429  1.00  0.00    -0.354 N 
ATOM     56  N   UNL A   1      40.994  31.216  34.718  1.00  0.00    -0.248 NA
ATOM     57  C   UNL A   1      41.574  31.905  36.872  1.00  0.00     0.031 C 
ATOM     58  C   UNL A   1      43.012  27.931  32.511  1.00  0.00     0.029 A 
ATOM     59  C   UNL A   1      42.391  28.945  33.224  1.00  0.00     0.049 A 
ATOM     60  H   UNL A   1      40.736  30.133  32.677  1.00  0.00     0.167 HD
ATOM     61  C   UNL A   1      42.067  30.458  35.163  1.00  0.00     0.074 A 
ATOM     62  C   UNL A   1      42.402  30.945  36.485  1.00  0.00     0.031 C 
ATOM     63  C   UNL A   1      42.716  29.448  34.534  1.00  0.00     0.037 A 
BRANCH  50  64
ATOM     64  C   UNL A   1      40.421  28.036  28.975  1.00  0.00     0.064 A 
ATOM     65  C   UNL A   1      39.700  26.834  28.918  1.00  0.00     0.173 A 
ATOM     66  C   UNL A   1      41.176  28.404  27.851  1.00  0.00     0.173 A 
ATOM     67  F   UNL A   1      38.973  26.432  29.971  1.00  0.00    -0.203 F 
ATOM     68  C   UNL A   1      39.754  26.020  27.790  1.00  0.00     0.198 A 
ATOM     69  C   UNL A   1      41.206  27.600  26.714  1.00  0.00     0.198 A 
ATOM     70  F   UNL A   1      41.881  29.546  27.852  1.00  0.00    -0.203 F 
ATOM     71  F   UNL A   1      39.096  24.852  27.778  1.00  0.00    -0.200 F 
ATOM     72  C   UNL A   1      40.501  26.406  26.687  1.00  0.00     0.200 A 
ATOM     73  F   UNL A   1      41.918  27.981  25.645  1.00  0.00    -0.200 F 
ATOM     74  F   UNL A   1      40.548  25.623  25.601  1.00  0.00    -0.200 F 
ENDBRANCH  50  64
BRANCH  51  75
ATOM     75  C   UNL A   1      39.520  33.990  36.943  1.00  0.00     0.064 A 
ATOM     76  C   UNL A   1      38.759  33.568  38.041  1.00  0.00     0.173 A 
ATOM     77  C   UNL A   1      40.133  35.250  37.019  1.00  0.00     0.173 A 
ATOM     78  F   UNL A   1      38.138  32.380  38.007  1.00  0.00    -0.203 F 
ATOM     79  C   UNL A   1      38.601  34.379  39.163  1.00  0.00     0.198 A 
ATOM     80  C   UNL A   1      39.996  36.049  38.152  1.00  0.00     0.198 A 
ATOM     81  F   UNL A   1      40.875  35.697  35.996  1.00  0.00    -0.203 F 
ATOM     82  F   UNL A   1      37.834  33.968  40.182  1.00  0.00    -0.200 F 
ATOM     83  C   UNL A   1      39.224  35.616  39.220  1.00  0.00     0.200 A 
ATOM     84  F   UNL A   1      40.610  37.238  38.208  1.00  0.00    -0.200 F 
ATOM     85  F   UNL A   1      39.075  36.395  40.300  1.00  0.00    -0.200 F 
ENDBRANCH  51  75
BRANCH  63  86
ATOM     86  C   UNL A   1      43.874  28.822  35.253  1.00  0.00     0.064 A 
ATOM     87  C   UNL A   1      45.185  29.287  35.077  1.00  0.00     0.173 A 
ATOM     88  C   UNL A   1      43.662  27.774  36.162  1.00  0.00     0.173 A 
ATOM     89  F   UNL A   1      45.440  30.275  34.208  1.00  0.00    -0.203 F 
ATOM     90  C   UNL A   1      46.246  28.711  35.771  1.00  0.00     0.198 A 
ATOM     91  C   UNL A   1      44.721  27.220  36.875  1.00  0.00     0.198 A 
ATOM     92  F   UNL A   1      42.425  27.299  36.369  1.00  0.00    -0.203 F 
ATOM     93  F   UNL A   1      47.497  29.142  35.558  1.00  0.00    -0.200 F 
ATOM     94  C   UNL A   1      46.012  27.684  36.674  1.00  0.00     0.200 A 
ATOM     95  F   UNL A   1      44.492  26.236  37.755  1.00  0.00    -0.200 F 
ATOM     96  F   UNL A   1      47.033  27.136  37.347  1.00  0.00    -0.200 F 
ENDBRANCH  63  86
ENDBRANCH  37  38
ENDBRANCH  29  32
ENDBRANCH  27  28
ENDBRANCH  26  27
ENDBRANCH   1  26
TORSDOF 14
ENDMDL
