MODEL 1
REMARK VINA RESULT:     -12.9      0.000      0.000
REMARK SMILES O=C(CN1C(=O)/C(=C2/SC(Nc3ccc(Cl)cc3)=[NH+]C2=O)c2ccccc21)NCCCCNC(=O)c1ccc(-c2c3nc(c(-c4c(F)c(F)c(F)c(F)c4F)c4ccc([nH]4)c(-c4c(F)c(F)c(F)c(F)c4F)c4nc(c(-c5c(F)c(F)c(F)c(F)c5F)c5ccc2[nH]5)C=C4)C=C3)cc1
REMARK SMILES IDX 30 1 29 2 28 3 1 4 2 5 3 7 4 8 5 9 27 10 6 11 7 12 22 13
REMARK SMILES IDX 26 14 8 15 23 16 25 17 9 18 20 19 24 20 10 21 19 22 21 23
REMARK SMILES IDX 11 24 12 27 13 28 18 29 14 30 17 31 15 32 16 33 31 34 32 35
REMARK SMILES IDX 33 36 34 37 35 39 36 40 37 41 98 42 38 43 97 44 39 45 40 46
REMARK SMILES IDX 41 47 91 48 42 49 96 50 90 51 92 52 43 53 95 54 89 55 88 56
REMARK SMILES IDX 44 58 76 59 56 60 75 61 57 62 60 63 74 64 93 65 58 66 59 67
REMARK SMILES IDX 73 69 94 70 61 71 45 72 46 73 54 74 47 75 48 76 52 77 55 78
REMARK SMILES IDX 49 79 50 80 53 81 51 82 77 83 78 84 86 85 79 86 80 87 84 88
REMARK SMILES IDX 87 89 81 90 82 91 85 92 83 93 62 94 63 95 71 96 64 97 65 98
REMARK SMILES IDX 69 99 72 100 66 101 67 102 70 103 68 104
REMARK H PARENT 28 6 19 25 11 26 33 38 92 57 60 68
REMARK Flexibility Score: inf
ROOT
ATOM      1  C   UNL A   1      46.309  23.188  25.120  1.00  0.00     0.023 C 
ENDROOT
BRANCH   1   2
ATOM      2  C   UNL A   1      45.789  21.761  24.924  1.00  0.00     0.116 C 
BRANCH   2   3
ATOM      3  N   UNL A   1      44.651  21.484  25.773  1.00  0.00    -0.355 N 
ATOM      4  O   UNL A   1      43.044  22.551  24.524  1.00  0.00    -0.273 OA
ATOM      5  C   UNL A   1      43.374  21.937  25.535  1.00  0.00     0.240 C 
ATOM      6  H   UNL A   1      44.802  20.935  26.576  1.00  0.00     0.163 HD
BRANCH   5   7
ATOM      7  C   UNL A   1      42.399  21.688  26.696  1.00  0.00     0.225 C 
BRANCH   7   8
ATOM      8  N   UNL A   1      41.095  22.310  26.554  1.00  0.00    -0.298 N 
ATOM      9  C   UNL A   1      39.962  21.616  26.127  1.00  0.00     0.260 C 
ATOM     10  C   UNL A   1      40.734  23.530  27.157  1.00  0.00     0.053 A 
ATOM     11  O   UNL A   1      39.938  20.461  25.746  1.00  0.00    -0.269 OA
ATOM     12  C   UNL A   1      38.802  22.551  26.344  1.00  0.00     0.071 C 
ATOM     13  C   UNL A   1      39.346  23.713  27.090  1.00  0.00     0.012 A 
ATOM     14  C   UNL A   1      41.559  24.450  27.790  1.00  0.00     0.027 A 
ATOM     15  C   UNL A   1      37.562  22.371  25.856  1.00  0.00     0.122 C 
ATOM     16  C   UNL A   1      38.775  24.835  27.682  1.00  0.00     0.011 A 
ATOM     17  C   UNL A   1      40.978  25.577  28.374  1.00  0.00     0.002 A 
ATOM     18  S   UNL A   1      36.248  23.447  26.147  1.00  0.00     0.007 SA
ATOM     19  C   UNL A   1      37.043  21.330  24.901  1.00  0.00     0.347 C 
ATOM     20  C   UNL A   1      39.595  25.768  28.321  1.00  0.00     0.001 A 
ATOM     21  C   UNL A   1      35.397  22.845  24.751  1.00  0.00     0.322 C 
ATOM     22  N   UNL A   1      35.891  21.758  24.255  1.00  0.00    -0.199 N 
ATOM     23  O   UNL A   1      37.548  20.239  24.700  1.00  0.00    -0.240 OA
ATOM     24  N   UNL A   1      34.280  23.486  24.288  1.00  0.00    -0.235 N 
ATOM     25  H   UNL A   1      35.488  21.281  23.494  1.00  0.00     0.316 HD
ATOM     26  H   UNL A   1      33.761  23.012  23.599  1.00  0.00     0.313 HD
BRANCH  24  27
ATOM     27  C   UNL A   1      33.788  24.744  24.682  1.00  0.00     0.125 A 
ATOM     28  C   UNL A   1      32.920  24.895  25.776  1.00  0.00     0.053 A 
ATOM     29  C   UNL A   1      34.061  25.868  23.893  1.00  0.00     0.053 A 
ATOM     30  C   UNL A   1      32.287  26.113  26.035  1.00  0.00     0.025 A 
ATOM     31  C   UNL A   1      33.433  27.092  24.152  1.00  0.00     0.025 A 
ATOM     32  C   UNL A   1      32.535  27.204  25.211  1.00  0.00     0.041 A 
ATOM     33  Cl  UNL A   1      31.713  28.688  25.489  1.00  0.00    -0.084 Cl
ENDBRANCH  24  27
ENDBRANCH   7   8
ENDBRANCH   5   7
ENDBRANCH   2   3
ENDBRANCH   1   2
BRANCH   1  34
ATOM     34  C   UNL A   1      46.395  23.659  26.574  1.00  0.00     0.023 C 
BRANCH  34  35
ATOM     35  C   UNL A   1      46.993  25.045  26.784  1.00  0.00     0.116 C 
BRANCH  35  36
ATOM     36  N   UNL A   1      47.038  25.841  25.565  1.00  0.00    -0.352 N 
ATOM     37  C   UNL A   1      46.307  26.954  25.214  1.00  0.00     0.251 C 
ATOM     38  H   UNL A   1      47.688  25.538  24.891  1.00  0.00     0.163 HD
ATOM     39  O   UNL A   1      46.408  27.429  24.087  1.00  0.00    -0.269 OA
BRANCH  37  40
ATOM     40  C   UNL A   1      45.353  27.549  26.178  1.00  0.00     0.039 A 
ATOM     41  C   UNL A   1      45.242  28.933  26.322  1.00  0.00     0.014 A 
ATOM     42  C   UNL A   1      44.581  26.701  26.980  1.00  0.00     0.014 A 
ATOM     43  C   UNL A   1      44.522  29.459  27.390  1.00  0.00     0.010 A 
ATOM     44  C   UNL A   1      43.784  27.238  27.996  1.00  0.00     0.010 A 
ATOM     45  C   UNL A   1      43.798  28.618  28.251  1.00  0.00    -0.014 A 
BRANCH  45  46
ATOM     46  C   UNL A   1      43.089  29.200  29.424  1.00  0.00     0.031 A 
ATOM     47  C   UNL A   1      41.645  29.619  29.318  1.00  0.00     0.074 A 
ATOM     48  C   UNL A   1      43.727  29.292  30.607  1.00  0.00     0.049 A 
ATOM     49  N   UNL A   1      40.861  30.127  30.239  1.00  0.00    -0.248 NA
ATOM     50  C   UNL A   1      40.991  29.450  28.011  1.00  0.00     0.031 C 
ATOM     51  C   UNL A   1      45.118  28.903  30.843  1.00  0.00     0.029 A 
ATOM     52  N   UNL A   1      43.286  29.714  31.836  1.00  0.00    -0.354 N 
ATOM     53  C   UNL A   1      39.637  30.346  29.622  1.00  0.00     0.074 A 
ATOM     54  C   UNL A   1      39.785  29.954  28.238  1.00  0.00     0.031 C 
ATOM     55  C   UNL A   1      45.400  29.052  32.146  1.00  0.00     0.029 A 
ATOM     56  C   UNL A   1      44.234  29.609  32.824  1.00  0.00     0.049 A 
ATOM     57  H   UNL A   1      42.378  30.060  31.994  1.00  0.00     0.167 HD
ATOM     58  C   UNL A   1      38.487  30.814  30.165  1.00  0.00     0.037 A 
ATOM     59  C   UNL A   1      44.178  29.933  34.130  1.00  0.00     0.037 A 
ATOM     60  C   UNL A   1      38.330  31.179  31.550  1.00  0.00     0.049 A 
ATOM     61  C   UNL A   1      42.906  30.504  34.692  1.00  0.00     0.074 A 
ATOM     62  C   UNL A   1      37.197  31.645  32.194  1.00  0.00     0.029 A 
ATOM     63  N   UNL A   1      39.334  31.115  32.504  1.00  0.00    -0.354 N 
ATOM     64  N   UNL A   1      41.753  30.698  34.099  1.00  0.00    -0.248 NA
ATOM     65  C   UNL A   1      42.929  30.910  36.104  1.00  0.00     0.031 C 
ATOM     66  C   UNL A   1      37.526  31.907  33.526  1.00  0.00     0.029 A 
ATOM     67  C   UNL A   1      38.851  31.557  33.726  1.00  0.00     0.049 A 
ATOM     68  H   UNL A   1      40.254  30.804  32.338  1.00  0.00     0.167 HD
ATOM     69  C   UNL A   1      40.911  31.231  35.064  1.00  0.00     0.074 A 
ATOM     70  C   UNL A   1      41.678  31.310  36.290  1.00  0.00     0.031 C 
ATOM     71  C   UNL A   1      39.621  31.626  34.942  1.00  0.00     0.037 A 
BRANCH  58  72
ATOM     72  C   UNL A   1      37.290  30.959  29.270  1.00  0.00     0.064 A 
ATOM     73  C   UNL A   1      36.463  29.867  28.967  1.00  0.00     0.173 A 
ATOM     74  C   UNL A   1      36.913  32.220  28.784  1.00  0.00     0.173 A 
ATOM     75  F   UNL A   1      36.782  28.638  29.401  1.00  0.00    -0.203 F 
ATOM     76  C   UNL A   1      35.309  30.032  28.205  1.00  0.00     0.198 A 
ATOM     77  C   UNL A   1      35.745  32.386  28.045  1.00  0.00     0.198 A 
ATOM     78  F   UNL A   1      37.663  33.301  29.053  1.00  0.00    -0.203 F 
ATOM     79  F   UNL A   1      34.547  28.970  27.909  1.00  0.00    -0.200 F 
ATOM     80  C   UNL A   1      34.945  31.292  27.755  1.00  0.00     0.200 A 
ATOM     81  F   UNL A   1      35.384  33.608  27.626  1.00  0.00    -0.200 F 
ATOM     82  F   UNL A   1      33.821  31.450  27.041  1.00  0.00    -0.200 F 
ENDBRANCH  58  72
BRANCH  59  83
ATOM     83  C   UNL A   1      45.368  29.720  34.993  1.00  0.00     0.064 A 
ATOM     84  C   UNL A   1      45.584  28.492  35.631  1.00  0.00     0.173 A 
ATOM     85  C   UNL A   1      46.322  30.731  35.181  1.00  0.00     0.173 A 
ATOM     86  F   UNL A   1      44.688  27.502  35.500  1.00  0.00    -0.203 F 
ATOM     87  C   UNL A   1      46.705  28.285  36.431  1.00  0.00     0.198 A 
ATOM     88  C   UNL A   1      47.459  30.513  35.956  1.00  0.00     0.198 A 
ATOM     89  F   UNL A   1      46.162  31.926  34.592  1.00  0.00    -0.203 F 
ATOM     90  F   UNL A   1      46.870  27.113  37.060  1.00  0.00    -0.200 F 
ATOM     91  C   UNL A   1      47.647  29.292  36.585  1.00  0.00     0.200 A 
ATOM     92  F   UNL A   1      48.374  31.483  36.089  1.00  0.00    -0.200 F 
ATOM     93  F   UNL A   1      48.732  29.087  37.344  1.00  0.00    -0.200 F 
ENDBRANCH  59  83
BRANCH  71  94
ATOM     94  C   UNL A   1      38.941  32.166  36.165  1.00  0.00     0.064 A 
ATOM     95  C   UNL A   1      38.141  31.349  36.977  1.00  0.00     0.173 A 
ATOM     96  C   UNL A   1      39.150  33.493  36.570  1.00  0.00     0.173 A 
ATOM     97  F   UNL A   1      37.900  30.077  36.626  1.00  0.00    -0.203 F 
ATOM     98  C   UNL A   1      37.561  31.847  38.142  1.00  0.00     0.198 A 
ATOM     99  C   UNL A   1      38.593  33.979  37.750  1.00  0.00     0.198 A 
ATOM    100  F   UNL A   1      39.914  34.313  35.832  1.00  0.00    -0.203 F 
ATOM    101  F   UNL A   1      36.771  31.059  38.884  1.00  0.00    -0.200 F 
ATOM    102  C   UNL A   1      37.797  33.157  38.533  1.00  0.00     0.200 A 
ATOM    103  F   UNL A   1      38.835  35.239  38.133  1.00  0.00    -0.200 F 
ATOM    104  F   UNL A   1      37.253  33.628  39.662  1.00  0.00    -0.200 F 
ENDBRANCH  71  94
ENDBRANCH  45  46
ENDBRANCH  37  40
ENDBRANCH  35  36
ENDBRANCH  34  35
ENDBRANCH   1  34
TORSDOF 13
ENDMDL
MODEL 2
REMARK VINA RESULT:     -12.7      0.621      7.085
REMARK SMILES O=C(CN1C(=O)/C(=C2/SC(Nc3ccc(Cl)cc3)=[NH+]C2=O)c2ccccc21)NCCCCNC(=O)c1ccc(-c2c3nc(c(-c4c(F)c(F)c(F)c(F)c4F)c4ccc([nH]4)c(-c4c(F)c(F)c(F)c(F)c4F)c4nc(c(-c5c(F)c(F)c(F)c(F)c5F)c5ccc2[nH]5)C=C4)C=C3)cc1
REMARK SMILES IDX 30 1 29 2 28 3 1 4 2 5 3 7 4 8 5 9 27 10 6 11 7 12 22 13
REMARK SMILES IDX 26 14 8 15 23 16 25 17 9 18 20 19 24 20 10 21 19 22 21 23
REMARK SMILES IDX 11 24 12 27 13 28 18 29 14 30 17 31 15 32 16 33 31 34 32 35
REMARK SMILES IDX 33 36 34 37 35 39 36 40 37 41 98 42 38 43 97 44 39 45 40 46
REMARK SMILES IDX 41 47 91 48 42 49 96 50 90 51 92 52 43 53 95 54 89 55 88 56
REMARK SMILES IDX 44 58 76 59 56 60 75 61 57 62 60 63 74 64 93 65 58 66 59 67
REMARK SMILES IDX 73 69 94 70 61 71 45 72 46 73 54 74 47 75 48 76 52 77 55 78
REMARK SMILES IDX 49 79 50 80 53 81 51 82 77 83 78 84 86 85 79 86 80 87 84 88
REMARK SMILES IDX 87 89 81 90 82 91 85 92 83 93 62 94 63 95 71 96 64 97 65 98
REMARK SMILES IDX 69 99 72 100 66 101 67 102 70 103 68 104
REMARK H PARENT 28 6 19 25 11 26 33 38 92 57 60 68
REMARK Flexibility Score: inf
ROOT
ATOM      1  C   UNL A   1      46.207  23.217  24.538  1.00  0.00     0.023 C 
ENDROOT
BRANCH   1   2
ATOM      2  C   UNL A   1      44.757  22.852  24.211  1.00  0.00     0.116 C 
BRANCH   2   3
ATOM      3  N   UNL A   1      43.981  22.616  25.410  1.00  0.00    -0.355 N 
ATOM      4  O   UNL A   1      43.383  20.438  24.987  1.00  0.00    -0.273 OA
ATOM      5  C   UNL A   1      43.316  21.444  25.687  1.00  0.00     0.240 C 
ATOM      6  H   UNL A   1      43.927  23.343  26.071  1.00  0.00     0.163 HD
BRANCH   5   7
ATOM      7  C   UNL A   1      42.394  21.528  26.913  1.00  0.00     0.225 C 
BRANCH   7   8
ATOM      8  N   UNL A   1      41.127  22.201  26.692  1.00  0.00    -0.298 N 
ATOM      9  C   UNL A   1      39.979  21.540  26.255  1.00  0.00     0.260 C 
ATOM     10  C   UNL A   1      40.804  23.464  27.222  1.00  0.00     0.053 A 
ATOM     11  O   UNL A   1      39.913  20.370  25.928  1.00  0.00    -0.269 OA
ATOM     12  C   UNL A   1      38.857  22.537  26.383  1.00  0.00     0.071 C 
ATOM     13  C   UNL A   1      39.429  23.707  27.093  1.00  0.00     0.012 A 
ATOM     14  C   UNL A   1      41.648  24.375  27.843  1.00  0.00     0.027 A 
ATOM     15  C   UNL A   1      37.629  22.391  25.856  1.00  0.00     0.122 C 
ATOM     16  C   UNL A   1      38.891  24.882  27.610  1.00  0.00     0.011 A 
ATOM     17  C   UNL A   1      41.101  25.555  28.350  1.00  0.00     0.002 A 
ATOM     18  S   UNL A   1      36.358  23.539  26.046  1.00  0.00     0.007 SA
ATOM     19  C   UNL A   1      37.095  21.329  24.931  1.00  0.00     0.347 C 
ATOM     20  C   UNL A   1      39.731  25.807  28.236  1.00  0.00     0.001 A 
ATOM     21  C   UNL A   1      35.531  22.910  24.647  1.00  0.00     0.322 C 
ATOM     22  N   UNL A   1      35.990  21.778  24.222  1.00  0.00    -0.199 N 
ATOM     23  O   UNL A   1      37.555  20.208  24.802  1.00  0.00    -0.240 OA
ATOM     24  N   UNL A   1      34.464  23.578  24.112  1.00  0.00    -0.235 N 
ATOM     25  H   UNL A   1      35.592  21.284  23.470  1.00  0.00     0.316 HD
ATOM     26  H   UNL A   1      33.947  23.095  23.426  1.00  0.00     0.313 HD
BRANCH  24  27
ATOM     27  C   UNL A   1      34.018  24.874  24.426  1.00  0.00     0.125 A 
ATOM     28  C   UNL A   1      33.306  25.153  25.605  1.00  0.00     0.053 A 
ATOM     29  C   UNL A   1      34.172  25.902  23.488  1.00  0.00     0.053 A 
ATOM     30  C   UNL A   1      32.703  26.396  25.811  1.00  0.00     0.025 A 
ATOM     31  C   UNL A   1      33.574  27.152  23.692  1.00  0.00     0.025 A 
ATOM     32  C   UNL A   1      32.827  27.386  24.845  1.00  0.00     0.041 A 
ATOM     33  Cl  UNL A   1      32.037  28.898  25.066  1.00  0.00    -0.084 Cl
ENDBRANCH  24  27
ENDBRANCH   7   8
ENDBRANCH   5   7
ENDBRANCH   2   3
ENDBRANCH   1   2
BRANCH   1  34
ATOM     34  C   UNL A   1      46.441  23.772  25.945  1.00  0.00     0.023 C 
BRANCH  34  35
ATOM     35  C   UNL A   1      47.257  25.058  26.020  1.00  0.00     0.116 C 
BRANCH  35  36
ATOM     36  N   UNL A   1      46.879  26.036  25.009  1.00  0.00    -0.352 N 
ATOM     37  C   UNL A   1      46.092  27.160  25.126  1.00  0.00     0.251 C 
ATOM     38  H   UNL A   1      47.241  25.871  24.109  1.00  0.00     0.163 HD
ATOM     39  O   UNL A   1      45.793  27.810  24.129  1.00  0.00    -0.269 OA
BRANCH  37  40
ATOM     40  C   UNL A   1      45.555  27.557  26.448  1.00  0.00     0.039 A 
ATOM     41  C   UNL A   1      44.781  26.677  27.206  1.00  0.00     0.014 A 
ATOM     42  C   UNL A   1      45.801  28.851  26.920  1.00  0.00     0.014 A 
ATOM     43  C   UNL A   1      44.094  27.148  28.320  1.00  0.00     0.010 A 
ATOM     44  C   UNL A   1      45.183  29.295  28.093  1.00  0.00     0.010 A 
ATOM     45  C   UNL A   1      44.273  28.467  28.769  1.00  0.00    -0.014 A 
BRANCH  45  46
ATOM     46  C   UNL A   1      43.478  28.965  29.925  1.00  0.00     0.031 A 
ATOM     47  C   UNL A   1      44.113  29.124  31.283  1.00  0.00     0.074 A 
ATOM     48  C   UNL A   1      42.197  29.339  29.738  1.00  0.00     0.049 A 
ATOM     49  N   UNL A   1      43.581  29.561  32.399  1.00  0.00    -0.248 NA
ATOM     50  C   UNL A   1      45.529  28.742  31.410  1.00  0.00     0.031 C 
ATOM     51  C   UNL A   1      41.474  29.252  28.470  1.00  0.00     0.029 A 
ATOM     52  N   UNL A   1      41.286  29.889  30.605  1.00  0.00    -0.354 N 
ATOM     53  C   UNL A   1      44.587  29.494  33.355  1.00  0.00     0.074 A 
ATOM     54  C   UNL A   1      45.753  28.940  32.702  1.00  0.00     0.031 C 
ATOM     55  C   UNL A   1      40.251  29.781  28.625  1.00  0.00     0.029 A 
ATOM     56  C   UNL A   1      40.080  30.184  30.017  1.00  0.00     0.049 A 
ATOM     57  H   UNL A   1      41.478  30.056  31.556  1.00  0.00     0.167 HD
ATOM     58  C   UNL A   1      44.548  29.879  34.653  1.00  0.00     0.037 A 
ATOM     59  C   UNL A   1      38.956  30.709  30.540  1.00  0.00     0.037 A 
ATOM     60  C   UNL A   1      43.395  30.457  35.297  1.00  0.00     0.049 A 
ATOM     61  C   UNL A   1      38.923  31.074  31.998  1.00  0.00     0.074 A 
ATOM     62  C   UNL A   1      43.269  30.895  36.604  1.00  0.00     0.029 A 
ATOM     63  N   UNL A   1      42.174  30.680  34.680  1.00  0.00    -0.354 N 
ATOM     64  N   UNL A   1      39.884  31.014  32.887  1.00  0.00    -0.248 NA
ATOM     65  C   UNL A   1      37.646  31.571  32.528  1.00  0.00     0.031 C 
ATOM     66  C   UNL A   1      41.959  31.340  36.792  1.00  0.00     0.029 A 
ATOM     67  C   UNL A   1      41.282  31.228  35.589  1.00  0.00     0.049 A 
ATOM     68  H   UNL A   1      41.970  30.479  33.738  1.00  0.00     0.167 HD
ATOM     69  C   UNL A   1      39.337  31.478  34.074  1.00  0.00     0.074 A 
ATOM     70  C   UNL A   1      37.963  31.839  33.788  1.00  0.00     0.031 C 
ATOM     71  C   UNL A   1      39.919  31.589  35.292  1.00  0.00     0.037 A 
BRANCH  58  72
ATOM     72  C   UNL A   1      45.787  29.699  35.482  1.00  0.00     0.064 A 
ATOM     73  C   UNL A   1      46.749  30.714  35.594  1.00  0.00     0.173 A 
ATOM     74  C   UNL A   1      45.971  28.536  36.245  1.00  0.00     0.173 A 
ATOM     75  F   UNL A   1      46.625  31.843  34.879  1.00  0.00    -0.203 F 
ATOM     76  C   UNL A   1      47.852  30.567  36.431  1.00  0.00     0.198 A 
ATOM     77  C   UNL A   1      47.060  28.404  37.102  1.00  0.00     0.198 A 
ATOM     78  F   UNL A   1      45.075  27.538  36.184  1.00  0.00    -0.203 F 
ATOM     79  F   UNL A   1      48.770  31.541  36.504  1.00  0.00    -0.200 F 
ATOM     80  C   UNL A   1      48.000  29.418  37.194  1.00  0.00     0.200 A 
ATOM     81  F   UNL A   1      47.193  27.300  37.852  1.00  0.00    -0.200 F 
ATOM     82  F   UNL A   1      49.051  29.290  38.016  1.00  0.00    -0.200 F 
ENDBRANCH  58  72
BRANCH  59  83
ATOM     83  C   UNL A   1      37.770  30.924  29.671  1.00  0.00     0.064 A 
ATOM     84  C   UNL A   1      37.496  32.184  29.125  1.00  0.00     0.173 A 
ATOM     85  C   UNL A   1      36.900  29.870  29.352  1.00  0.00     0.173 A 
ATOM     86  F   UNL A   1      38.286  33.228  29.419  1.00  0.00    -0.203 F 
ATOM     87  C   UNL A   1      36.392  32.386  28.300  1.00  0.00     0.198 A 
ATOM     88  C   UNL A   1      35.814  30.065  28.503  1.00  0.00     0.198 A 
ATOM     89  F   UNL A   1      37.119  28.643  29.849  1.00  0.00    -0.203 F 
ATOM     90  F   UNL A   1      36.131  33.609  27.820  1.00  0.00    -0.200 F 
ATOM     91  C   UNL A   1      35.557  31.324  27.981  1.00  0.00     0.200 A 
ATOM     92  F   UNL A   1      35.020  29.034  28.184  1.00  0.00    -0.200 F 
ATOM     93  F   UNL A   1      34.503  31.516  27.177  1.00  0.00    -0.200 F 
ENDBRANCH  59  83
BRANCH  71  94
ATOM     94  C   UNL A   1      39.086  32.137  36.413  1.00  0.00     0.064 A 
ATOM     95  C   UNL A   1      38.195  31.322  37.128  1.00  0.00     0.173 A 
ATOM     96  C   UNL A   1      39.232  33.471  36.825  1.00  0.00     0.173 A 
ATOM     97  F   UNL A   1      38.010  30.045  36.765  1.00  0.00    -0.203 F 
ATOM     98  C   UNL A   1      37.470  31.828  38.204  1.00  0.00     0.198 A 
ATOM     99  C   UNL A   1      38.528  33.964  37.919  1.00  0.00     0.198 A 
ATOM    100  F   UNL A   1      40.077  34.288  36.180  1.00  0.00    -0.203 F 
ATOM    101  F   UNL A   1      36.598  31.042  38.849  1.00  0.00    -0.200 F 
ATOM    102  C   UNL A   1      37.645  33.144  38.605  1.00  0.00     0.200 A 
ATOM    103  F   UNL A   1      38.710  35.231  38.315  1.00  0.00    -0.200 F 
ATOM    104  F   UNL A   1      36.959  33.623  39.651  1.00  0.00    -0.200 F 
ENDBRANCH  71  94
ENDBRANCH  45  46
ENDBRANCH  37  40
ENDBRANCH  35  36
ENDBRANCH  34  35
ENDBRANCH   1  34
TORSDOF 13
ENDMDL
MODEL 3
REMARK VINA RESULT:     -12.7      5.119     11.696
REMARK SMILES O=C(CN1C(=O)/C(=C2/SC(Nc3ccc(Cl)cc3)=[NH+]C2=O)c2ccccc21)NCCCCNC(=O)c1ccc(-c2c3nc(c(-c4c(F)c(F)c(F)c(F)c4F)c4ccc([nH]4)c(-c4c(F)c(F)c(F)c(F)c4F)c4nc(c(-c5c(F)c(F)c(F)c(F)c5F)c5ccc2[nH]5)C=C4)C=C3)cc1
REMARK SMILES IDX 30 1 29 2 28 3 1 4 2 5 3 7 4 8 5 9 27 10 6 11 7 12 22 13
REMARK SMILES IDX 26 14 8 15 23 16 25 17 9 18 20 19 24 20 10 21 19 22 21 23
REMARK SMILES IDX 11 24 12 27 13 28 18 29 14 30 17 31 15 32 16 33 31 34 32 35
REMARK SMILES IDX 33 36 34 37 35 39 36 40 37 41 98 42 38 43 97 44 39 45 40 46
REMARK SMILES IDX 41 47 91 48 42 49 96 50 90 51 92 52 43 53 95 54 89 55 88 56
REMARK SMILES IDX 44 58 76 59 56 60 75 61 57 62 60 63 74 64 93 65 58 66 59 67
REMARK SMILES IDX 73 69 94 70 61 71 45 72 46 73 54 74 47 75 48 76 52 77 55 78
REMARK SMILES IDX 49 79 50 80 53 81 51 82 77 83 78 84 86 85 79 86 80 87 84 88
REMARK SMILES IDX 87 89 81 90 82 91 85 92 83 93 62 94 63 95 71 96 64 97 65 98
REMARK SMILES IDX 69 99 72 100 66 101 67 102 70 103 68 104
REMARK H PARENT 28 6 19 25 11 26 33 38 92 57 60 68
REMARK Flexibility Score: inf
ROOT
ATOM      1  C   UNL A   1      35.595  33.981  34.394  1.00  0.00     0.023 C 
ENDROOT
BRANCH   1   2
ATOM      2  C   UNL A   1      34.745  33.289  33.325  1.00  0.00     0.116 C 
BRANCH   2   3
ATOM      3  N   UNL A   1      35.310  33.451  32.004  1.00  0.00    -0.355 N 
ATOM      4  O   UNL A   1      33.526  34.506  31.013  1.00  0.00    -0.273 OA
ATOM      5  C   UNL A   1      34.644  34.006  30.935  1.00  0.00     0.240 C 
ATOM      6  H   UNL A   1      36.235  33.144  31.859  1.00  0.00     0.163 HD
BRANCH   5   7
ATOM      7  C   UNL A   1      35.386  33.863  29.598  1.00  0.00     0.225 C 
BRANCH   7   8
ATOM      8  N   UNL A   1      35.242  32.575  28.943  1.00  0.00    -0.298 N 
ATOM      9  C   UNL A   1      34.173  32.263  28.103  1.00  0.00     0.260 C 
ATOM     10  C   UNL A   1      36.294  31.656  28.774  1.00  0.00     0.053 A 
ATOM     11  O   UNL A   1      33.209  32.972  27.885  1.00  0.00    -0.269 OA
ATOM     12  C   UNL A   1      34.526  30.946  27.462  1.00  0.00     0.071 C 
ATOM     13  C   UNL A   1      35.928  30.662  27.856  1.00  0.00     0.012 A 
ATOM     14  C   UNL A   1      37.557  31.683  29.351  1.00  0.00     0.027 A 
ATOM     15  C   UNL A   1      33.676  30.174  26.764  1.00  0.00     0.122 C 
ATOM     16  C   UNL A   1      36.852  29.684  27.502  1.00  0.00     0.011 A 
ATOM     17  C   UNL A   1      38.475  30.692  28.997  1.00  0.00     0.002 A 
ATOM     18  S   UNL A   1      34.120  28.685  26.018  1.00  0.00     0.007 SA
ATOM     19  C   UNL A   1      32.192  30.318  26.551  1.00  0.00     0.347 C 
ATOM     20  C   UNL A   1      38.126  29.700  28.078  1.00  0.00     0.001 A 
ATOM     21  C   UNL A   1      32.457  28.168  25.973  1.00  0.00     0.322 C 
ATOM     22  N   UNL A   1      31.602  29.104  26.227  1.00  0.00    -0.199 N 
ATOM     23  O   UNL A   1      31.563  31.357  26.644  1.00  0.00    -0.240 OA
ATOM     24  N   UNL A   1      32.138  26.878  25.647  1.00  0.00    -0.235 N 
ATOM     25  H   UNL A   1      30.628  28.969  26.194  1.00  0.00     0.316 HD
ATOM     26  H   UNL A   1      31.184  26.693  25.487  1.00  0.00     0.313 HD
BRANCH  24  27
ATOM     27  C   UNL A   1      33.014  25.786  25.514  1.00  0.00     0.125 A 
ATOM     28  C   UNL A   1      33.936  25.693  24.457  1.00  0.00     0.053 A 
ATOM     29  C   UNL A   1      32.889  24.693  26.380  1.00  0.00     0.053 A 
ATOM     30  C   UNL A   1      34.658  24.521  24.227  1.00  0.00     0.025 A 
ATOM     31  C   UNL A   1      33.615  23.517  26.157  1.00  0.00     0.025 A 
ATOM     32  C   UNL A   1      34.483  23.430  25.070  1.00  0.00     0.041 A 
ATOM     33  Cl  UNL A   1      35.326  21.965  24.756  1.00  0.00    -0.084 Cl
ENDBRANCH  24  27
ENDBRANCH   7   8
ENDBRANCH   5   7
ENDBRANCH   2   3
ENDBRANCH   1   2
BRANCH   1  34
ATOM     34  C   UNL A   1      36.930  34.548  33.903  1.00  0.00     0.023 C 
BRANCH  34  35
ATOM     35  C   UNL A   1      38.170  34.028  34.621  1.00  0.00     0.116 C 
BRANCH  35  36
ATOM     36  N   UNL A   1      37.866  33.049  35.655  1.00  0.00    -0.352 N 
ATOM     37  C   UNL A   1      38.153  31.703  35.701  1.00  0.00     0.251 C 
ATOM     38  H   UNL A   1      37.385  33.401  36.437  1.00  0.00     0.163 HD
ATOM     39  O   UNL A   1      37.716  31.010  36.616  1.00  0.00    -0.269 OA
BRANCH  37  40
ATOM     40  C   UNL A   1      38.942  31.074  34.617  1.00  0.00     0.039 A 
ATOM     41  C   UNL A   1      39.961  30.163  34.902  1.00  0.00     0.014 A 
ATOM     42  C   UNL A   1      38.680  31.433  33.291  1.00  0.00     0.014 A 
ATOM     43  C   UNL A   1      40.838  29.774  33.894  1.00  0.00     0.010 A 
ATOM     44  C   UNL A   1      39.508  30.966  32.265  1.00  0.00     0.010 A 
ATOM     45  C   UNL A   1      40.633  30.183  32.566  1.00  0.00    -0.014 A 
BRANCH  45  46
ATOM     46  C   UNL A   1      41.622  29.805  31.520  1.00  0.00     0.031 A 
ATOM     47  C   UNL A   1      42.925  30.552  31.388  1.00  0.00     0.074 A 
ATOM     48  C   UNL A   1      41.377  28.743  30.727  1.00  0.00     0.049 A 
ATOM     49  N   UNL A   1      43.913  30.351  30.549  1.00  0.00    -0.248 NA
ATOM     50  C   UNL A   1      43.153  31.673  32.315  1.00  0.00     0.031 C 
ATOM     51  C   UNL A   1      40.164  27.927  30.768  1.00  0.00     0.029 A 
ATOM     52  N   UNL A   1      42.143  28.153  29.753  1.00  0.00    -0.354 N 
ATOM     53  C   UNL A   1      44.865  31.320  30.839  1.00  0.00     0.074 A 
ATOM     54  C   UNL A   1      44.325  32.136  31.905  1.00  0.00     0.031 C 
ATOM     55  C   UNL A   1      40.288  26.912  29.901  1.00  0.00     0.029 A 
ATOM     56  C   UNL A   1      41.560  27.041  29.196  1.00  0.00     0.049 A 
ATOM     57  H   UNL A   1      43.025  28.494  29.479  1.00  0.00     0.167 HD
ATOM     58  C   UNL A   1      46.085  31.501  30.280  1.00  0.00     0.037 A 
ATOM     59  C   UNL A   1      41.992  26.221  28.220  1.00  0.00     0.037 A 
ATOM     60  C   UNL A   1      46.635  30.672  29.237  1.00  0.00     0.049 A 
ATOM     61  C   UNL A   1      43.327  26.480  27.579  1.00  0.00     0.074 A 
ATOM     62  C   UNL A   1      47.872  30.768  28.623  1.00  0.00     0.029 A 
ATOM     63  N   UNL A   1      45.984  29.593  28.659  1.00  0.00    -0.354 N 
ATOM     64  N   UNL A   1      44.219  27.395  27.868  1.00  0.00    -0.248 NA
ATOM     65  C   UNL A   1      43.710  25.599  26.467  1.00  0.00     0.031 C 
ATOM     66  C   UNL A   1      47.952  29.778  27.641  1.00  0.00     0.029 A 
ATOM     67  C   UNL A   1      46.786  29.031  27.678  1.00  0.00     0.049 A 
ATOM     68  H   UNL A   1      45.086  29.274  28.907  1.00  0.00     0.167 HD
ATOM     69  C   UNL A   1      45.274  27.191  26.991  1.00  0.00     0.074 A 
ATOM     70  C   UNL A   1      44.921  26.051  26.171  1.00  0.00     0.031 C 
ATOM     71  C   UNL A   1      46.428  27.892  26.871  1.00  0.00     0.037 A 
BRANCH  58  72
ATOM     72  C   UNL A   1      46.931  32.637  30.780  1.00  0.00     0.064 A 
ATOM     73  C   UNL A   1      47.843  32.466  31.832  1.00  0.00     0.173 A 
ATOM     74  C   UNL A   1      46.895  33.886  30.141  1.00  0.00     0.173 A 
ATOM     75  F   UNL A   1      47.912  31.293  32.482  1.00  0.00    -0.203 F 
ATOM     76  C   UNL A   1      48.681  33.504  32.230  1.00  0.00     0.198 A 
ATOM     77  C   UNL A   1      47.753  34.913  30.524  1.00  0.00     0.198 A 
ATOM     78  F   UNL A   1      46.049  34.100  29.122  1.00  0.00    -0.203 F 
ATOM     79  F   UNL A   1      49.527  33.324  33.254  1.00  0.00    -0.200 F 
ATOM     80  C   UNL A   1      48.644  34.722  31.569  1.00  0.00     0.200 A 
ATOM     81  F   UNL A   1      47.729  36.085  29.872  1.00  0.00    -0.200 F 
ATOM     82  F   UNL A   1      49.468  35.712  31.940  1.00  0.00    -0.200 F 
ENDBRANCH  58  72
BRANCH  59  83
ATOM     83  C   UNL A   1      41.148  25.074  27.795  1.00  0.00     0.064 A 
ATOM     84  C   UNL A   1      40.061  25.262  26.932  1.00  0.00     0.173 A 
ATOM     85  C   UNL A   1      41.424  23.768  28.225  1.00  0.00     0.173 A 
ATOM     86  F   UNL A   1      39.744  26.495  26.511  1.00  0.00    -0.203 F 
ATOM     87  C   UNL A   1      39.276  24.186  26.521  1.00  0.00     0.198 A 
ATOM     88  C   UNL A   1      40.657  22.690  27.790  1.00  0.00     0.198 A 
ATOM     89  F   UNL A   1      42.454  23.535  29.052  1.00  0.00    -0.203 F 
ATOM     90  F   UNL A   1      38.219  24.397  25.724  1.00  0.00    -0.200 F 
ATOM     91  C   UNL A   1      39.580  22.900  26.943  1.00  0.00     0.200 A 
ATOM     92  F   UNL A   1      40.965  21.447  28.187  1.00  0.00    -0.200 F 
ATOM     93  F   UNL A   1      38.832  21.865  26.536  1.00  0.00    -0.200 F 
ENDBRANCH  59  83
BRANCH  71  94
ATOM     94  C   UNL A   1      47.409  27.442  25.829  1.00  0.00     0.064 A 
ATOM     95  C   UNL A   1      47.291  27.846  24.492  1.00  0.00     0.173 A 
ATOM     96  C   UNL A   1      48.519  26.660  26.186  1.00  0.00     0.173 A 
ATOM     97  F   UNL A   1      46.241  28.582  24.099  1.00  0.00    -0.203 F 
ATOM     98  C   UNL A   1      48.240  27.469  23.545  1.00  0.00     0.198 A 
ATOM     99  C   UNL A   1      49.481  26.311  25.242  1.00  0.00     0.198 A 
ATOM    100  F   UNL A   1      48.682  26.255  27.454  1.00  0.00    -0.203 F 
ATOM    101  F   UNL A   1      48.089  27.836  22.265  1.00  0.00    -0.200 F 
ATOM    102  C   UNL A   1      49.340  26.712  23.923  1.00  0.00     0.200 A 
ATOM    103  F   UNL A   1      50.550  25.593  25.612  1.00  0.00    -0.200 F 
ATOM    104  F   UNL A   1      50.260  26.366  23.013  1.00  0.00    -0.200 F 
ENDBRANCH  71  94
ENDBRANCH  45  46
ENDBRANCH  37  40
ENDBRANCH  35  36
ENDBRANCH  34  35
ENDBRANCH   1  34
TORSDOF 13
ENDMDL
