MODEL 1
REMARK VINA RESULT:     -13.2      0.000      0.000
REMARK SMILES C[C@@H](Nc1ccc(C(=O)NCCCCNC(=O)c2ccc(-c3c4nc(c(-c5c(F)c(F)c(F)c(F)c5F)c5ccc([nH]5)c(-c5c(F)c(F)c(F)c(F)c5F)c5nc(c(-c6c(F)c(F)c(F)c(F)c6F)c6ccc3[nH]6)C=C5)C=C4)cc2)cc1)C1CC[NH+](C)CC1
REMARK SMILES IDX 12 1 11 2 10 3 8 4 9 5 7 7 4 8 5 9 82 10 6 11 81 12 3 13
REMARK SMILES IDX 2 15 1 16 83 17 84 18 89 19 85 20 88 21 86 22 87 23 13 25
REMARK SMILES IDX 14 26 15 27 16 28 17 30 18 31 19 32 80 33 20 34 79 35 21 36
REMARK SMILES IDX 22 37 23 38 73 39 24 40 78 41 72 42 74 43 25 44 77 45 71 46
REMARK SMILES IDX 70 47 26 49 58 50 38 51 57 52 39 53 42 54 56 55 75 56 40 57
REMARK SMILES IDX 41 58 55 60 76 61 43 62 27 63 28 64 36 65 29 66 30 67 34 68
REMARK SMILES IDX 37 69 31 70 32 71 35 72 33 73 59 74 60 75 68 76 61 77 62 78
REMARK SMILES IDX 66 79 69 80 63 81 64 82 67 83 65 84 44 85 45 86 53 87 46 88
REMARK SMILES IDX 47 89 51 90 54 91 48 92 49 93 52 94 50 95
REMARK H PARENT 10 6 3 14 86 24 15 29 74 48 42 59
REMARK Flexibility Score: inf
ROOT
ATOM      1  C   UNL A   1      31.714  30.547  26.881  1.00  0.00     0.023 C 
ENDROOT
BRANCH   1   2
ATOM      2  C   UNL A   1      32.054  29.891  25.546  1.00  0.00     0.116 C 
BRANCH   2   3
ATOM      3  N   UNL A   1      31.028  30.148  24.564  1.00  0.00    -0.352 N 
ATOM      4  C   UNL A   1      30.444  29.284  23.679  1.00  0.00     0.251 C 
ATOM      5  O   UNL A   1      29.498  29.669  22.996  1.00  0.00    -0.269 OA
ATOM      6  H   UNL A   1      30.703  31.076  24.526  1.00  0.00     0.163 HD
BRANCH   4   7
ATOM      7  C   UNL A   1      30.872  27.881  23.566  1.00  0.00     0.039 A 
ATOM      8  C   UNL A   1      32.084  24.505  22.977  1.00  0.00     0.034 A 
ATOM      9  C   UNL A   1      33.077  25.930  22.427  1.00  0.00     0.026 A 
ATOM     10  C   UNL A   1      30.579  24.753  23.961  1.00  0.00     0.026 A 
ATOM     11  C   UNL A   1      32.452  27.621  22.700  1.00  0.00     0.016 A 
ATOM     12  C   UNL A   1      29.970  26.469  24.262  1.00  0.00     0.016 A 
BRANCH   8  13
ATOM     13  N   UNL A   1      32.349  23.289  22.363  1.00  0.00    -0.382 N 
ATOM     14  H   UNL A   1      32.047  23.121  21.442  1.00  0.00     0.160 HD
BRANCH  13  15
ATOM     15  C   UNL A   1      33.084  22.255  23.104  1.00  0.00     0.079 C 
ATOM     16  C   UNL A   1      32.153  21.041  23.247  1.00  0.00     0.031 C 
BRANCH  15  17
ATOM     17  C   UNL A   1      33.746  22.579  24.484  1.00  0.00     0.022 C 
ATOM     18  C   UNL A   1      35.251  22.367  24.678  1.00  0.00     0.067 C 
ATOM     19  C   UNL A   1      33.019  21.991  25.684  1.00  0.00     0.067 C 
ATOM     20  C   UNL A   1      35.714  20.929  25.004  1.00  0.00     0.262 C 
ATOM     21  C   UNL A   1      33.707  20.742  26.259  1.00  0.00     0.262 C 
ATOM     22  N   UNL A   1      34.554  19.852  25.214  1.00  0.00    -0.337 N 
ATOM     23  C   UNL A   1      34.132  18.057  24.251  1.00  0.00     0.332 C 
ATOM     24  H   UNL A   1      34.556  18.843  25.065  1.00  0.00     0.347 HD
ENDBRANCH  15  17
ENDBRANCH  13  15
ENDBRANCH   8  13
ENDBRANCH   4   7
ENDBRANCH   2   3
ENDBRANCH   1   2
BRANCH   1  25
ATOM     25  C   UNL A   1      31.563  32.063  26.813  1.00  0.00     0.023 C 
BRANCH  25  26
ATOM     26  C   UNL A   1      32.796  32.835  27.249  1.00  0.00     0.116 C 
BRANCH  26  27
ATOM     27  N   UNL A   1      32.499  34.203  27.649  1.00  0.00    -0.352 N 
ATOM     28  C   UNL A   1      33.086  34.932  28.653  1.00  0.00     0.251 C 
ATOM     29  H   UNL A   1      31.794  34.660  27.137  1.00  0.00     0.163 HD
ATOM     30  O   UNL A   1      32.649  36.028  28.980  1.00  0.00    -0.269 OA
BRANCH  28  31
ATOM     31  C   UNL A   1      34.238  34.342  29.358  1.00  0.00     0.039 A 
ATOM     32  C   UNL A   1      34.010  33.488  30.436  1.00  0.00     0.014 A 
ATOM     33  C   UNL A   1      35.535  34.574  28.889  1.00  0.00     0.014 A 
ATOM     34  C   UNL A   1      35.087  32.822  31.016  1.00  0.00     0.010 A 
ATOM     35  C   UNL A   1      36.590  33.832  29.401  1.00  0.00     0.010 A 
ATOM     36  C   UNL A   1      36.380  32.962  30.481  1.00  0.00    -0.014 A 
BRANCH  36  37
ATOM     37  C   UNL A   1      37.530  32.228  31.060  1.00  0.00     0.031 A 
ATOM     38  C   UNL A   1      38.014  32.569  32.442  1.00  0.00     0.074 A 
ATOM     39  C   UNL A   1      38.159  31.288  30.330  1.00  0.00     0.049 A 
ATOM     40  N   UNL A   1      39.017  32.067  33.116  1.00  0.00    -0.248 NA
ATOM     41  C   UNL A   1      37.293  33.639  33.151  1.00  0.00     0.031 C 
ATOM     42  C   UNL A   1      37.811  30.905  28.960  1.00  0.00     0.029 A 
ATOM     43  N   UNL A   1      39.225  30.481  30.638  1.00  0.00    -0.354 N 
ATOM     44  C   UNL A   1      39.046  32.760  34.318  1.00  0.00     0.074 A 
ATOM     45  C   UNL A   1      38.015  33.770  34.253  1.00  0.00     0.031 C 
ATOM     46  C   UNL A   1      38.622  29.912  28.562  1.00  0.00     0.029 A 
ATOM     47  C   UNL A   1      39.575  29.619  29.627  1.00  0.00     0.049 A 
ATOM     48  H   UNL A   1      39.695  30.516  31.503  1.00  0.00     0.167 HD
ATOM     49  C   UNL A   1      39.839  32.550  35.396  1.00  0.00     0.037 A 
ATOM     50  C   UNL A   1      40.556  28.700  29.570  1.00  0.00     0.037 A 
ATOM     51  C   UNL A   1      40.857  31.536  35.457  1.00  0.00     0.049 A 
ATOM     52  C   UNL A   1      41.447  28.511  30.770  1.00  0.00     0.074 A 
ATOM     53  C   UNL A   1      41.692  31.212  36.512  1.00  0.00     0.029 A 
ATOM     54  N   UNL A   1      41.185  30.683  34.412  1.00  0.00    -0.354 N 
ATOM     55  N   UNL A   1      41.420  29.122  31.930  1.00  0.00    -0.248 NA
ATOM     56  C   UNL A   1      42.502  27.494  30.654  1.00  0.00     0.031 C 
ATOM     57  C   UNL A   1      42.565  30.208  36.085  1.00  0.00     0.029 A 
ATOM     58  C   UNL A   1      42.226  29.851  34.790  1.00  0.00     0.049 A 
ATOM     59  H   UNL A   1      40.743  30.670  33.532  1.00  0.00     0.167 HD
ATOM     60  C   UNL A   1      42.424  28.539  32.693  1.00  0.00     0.074 A 
ATOM     61  C   UNL A   1      43.029  27.514  31.869  1.00  0.00     0.031 C 
ATOM     62  C   UNL A   1      42.809  28.825  33.962  1.00  0.00     0.037 A 
BRANCH  49  63
ATOM     63  C   UNL A   1      39.633  33.434  36.592  1.00  0.00     0.064 A 
ATOM     64  C   UNL A   1      40.283  34.673  36.716  1.00  0.00     0.173 A 
ATOM     65  C   UNL A   1      38.755  33.053  37.618  1.00  0.00     0.173 A 
ATOM     66  F   UNL A   1      41.143  35.082  35.771  1.00  0.00    -0.203 F 
ATOM     67  C   UNL A   1      40.087  35.479  37.834  1.00  0.00     0.198 A 
ATOM     68  C   UNL A   1      38.532  33.879  38.717  1.00  0.00     0.198 A 
ATOM     69  F   UNL A   1      38.105  31.881  37.552  1.00  0.00    -0.203 F 
ATOM     70  F   UNL A   1      40.765  36.629  37.956  1.00  0.00    -0.200 F 
ATOM     71  C   UNL A   1      39.205  35.086  38.829  1.00  0.00     0.200 A 
ATOM     72  F   UNL A   1      37.667  33.504  39.669  1.00  0.00    -0.200 F 
ATOM     73  F   UNL A   1      39.010  35.866  39.900  1.00  0.00    -0.200 F 
ENDBRANCH  49  63
BRANCH  50  74
ATOM     74  C   UNL A   1      40.738  27.870  28.348  1.00  0.00     0.064 A 
ATOM     75  C   UNL A   1      40.131  26.611  28.232  1.00  0.00     0.173 A 
ATOM     76  C   UNL A   1      41.540  28.304  27.282  1.00  0.00     0.173 A 
ATOM     77  F   UNL A   1      39.368  26.143  29.231  1.00  0.00    -0.203 F 
ATOM     78  C   UNL A   1      40.347  25.805  27.116  1.00  0.00     0.198 A 
ATOM     79  C   UNL A   1      41.726  27.513  26.150  1.00  0.00     0.198 A 
ATOM     80  F   UNL A   1      42.139  29.503  27.336  1.00  0.00    -0.203 F 
ATOM     81  F   UNL A   1      39.805  24.581  27.062  1.00  0.00    -0.200 F 
ATOM     82  C   UNL A   1      41.141  26.259  26.074  1.00  0.00     0.200 A 
ATOM     83  F   UNL A   1      42.479  27.963  25.137  1.00  0.00    -0.200 F 
ATOM     84  F   UNL A   1      41.349  25.483  25.002  1.00  0.00    -0.200 F 
ENDBRANCH  50  74
BRANCH  62  85
ATOM     85  C   UNL A   1      43.900  27.981  34.558  1.00  0.00     0.064 A 
ATOM     86  C   UNL A   1      43.632  26.759  35.193  1.00  0.00     0.173 A 
ATOM     87  C   UNL A   1      45.239  28.389  34.462  1.00  0.00     0.173 A 
ATOM     88  F   UNL A   1      42.368  26.327  35.323  1.00  0.00    -0.203 F 
ATOM     89  C   UNL A   1      44.660  25.998  35.744  1.00  0.00     0.198 A 
ATOM     90  C   UNL A   1      46.268  27.606  34.976  1.00  0.00     0.198 A 
ATOM     91  F   UNL A   1      45.555  29.544  33.855  1.00  0.00    -0.203 F 
ATOM     92  F   UNL A   1      44.373  24.866  36.402  1.00  0.00    -0.200 F 
ATOM     93  C   UNL A   1      45.977  26.418  35.628  1.00  0.00     0.200 A 
ATOM     94  F   UNL A   1      47.541  28.003  34.845  1.00  0.00    -0.200 F 
ATOM     95  F   UNL A   1      46.965  25.679  36.152  1.00  0.00    -0.200 F 
ENDBRANCH  62  85
ENDBRANCH  36  37
ENDBRANCH  28  31
ENDBRANCH  26  27
ENDBRANCH  25  26
ENDBRANCH   1  25
TORSDOF 14
ENDMDL
MODEL 2
REMARK VINA RESULT:     -13.2      0.733      7.439
REMARK SMILES C[C@@H](Nc1ccc(C(=O)NCCCCNC(=O)c2ccc(-c3c4nc(c(-c5c(F)c(F)c(F)c(F)c5F)c5ccc([nH]5)c(-c5c(F)c(F)c(F)c(F)c5F)c5nc(c(-c6c(F)c(F)c(F)c(F)c6F)c6ccc3[nH]6)C=C5)C=C4)cc2)cc1)C1CC[NH+](C)CC1
REMARK SMILES IDX 12 1 11 2 10 3 8 4 9 5 7 7 4 8 5 9 82 10 6 11 81 12 3 13
REMARK SMILES IDX 2 15 1 16 83 17 84 18 89 19 85 20 88 21 86 22 87 23 13 25
REMARK SMILES IDX 14 26 15 27 16 28 17 30 18 31 19 32 80 33 20 34 79 35 21 36
REMARK SMILES IDX 22 37 23 38 73 39 24 40 78 41 72 42 74 43 25 44 77 45 71 46
REMARK SMILES IDX 70 47 26 49 58 50 38 51 57 52 39 53 42 54 56 55 75 56 40 57
REMARK SMILES IDX 41 58 55 60 76 61 43 62 27 63 28 64 36 65 29 66 30 67 34 68
REMARK SMILES IDX 37 69 31 70 32 71 35 72 33 73 59 74 60 75 68 76 61 77 62 78
REMARK SMILES IDX 66 79 69 80 63 81 64 82 67 83 65 84 44 85 45 86 53 87 46 88
REMARK SMILES IDX 47 89 51 90 54 91 48 92 49 93 52 94 50 95
REMARK H PARENT 10 6 3 14 86 24 15 29 74 48 42 59
REMARK Flexibility Score: inf
ROOT
ATOM      1  C   UNL A   1      31.755  30.544  26.848  1.00  0.00     0.023 C 
ENDROOT
BRANCH   1   2
ATOM      2  C   UNL A   1      32.065  29.811  25.547  1.00  0.00     0.116 C 
BRANCH   2   3
ATOM      3  N   UNL A   1      31.067  30.088  24.543  1.00  0.00    -0.352 N 
ATOM      4  C   UNL A   1      30.511  29.244  23.621  1.00  0.00     0.251 C 
ATOM      5  O   UNL A   1      29.584  29.643  22.920  1.00  0.00    -0.269 OA
ATOM      6  H   UNL A   1      30.740  31.017  24.517  1.00  0.00     0.163 HD
BRANCH   4   7
ATOM      7  C   UNL A   1      30.946  27.846  23.487  1.00  0.00     0.039 A 
ATOM      8  C   UNL A   1      32.186  24.487  22.853  1.00  0.00     0.034 A 
ATOM      9  C   UNL A   1      33.190  25.928  22.366  1.00  0.00     0.026 A 
ATOM     10  C   UNL A   1      30.652  24.708  23.798  1.00  0.00     0.026 A 
ATOM     11  C   UNL A   1      32.551  27.610  22.661  1.00  0.00     0.016 A 
ATOM     12  C   UNL A   1      30.030  26.415  24.122  1.00  0.00     0.016 A 
BRANCH   8  13
ATOM     13  N   UNL A   1      32.472  23.288  22.217  1.00  0.00    -0.382 N 
ATOM     14  H   UNL A   1      32.250  23.163  21.267  1.00  0.00     0.160 HD
BRANCH  13  15
ATOM     15  C   UNL A   1      33.110  22.206  22.979  1.00  0.00     0.079 C 
ATOM     16  C   UNL A   1      32.107  21.043  23.056  1.00  0.00     0.031 C 
BRANCH  15  17
ATOM     17  C   UNL A   1      33.715  22.475  24.396  1.00  0.00     0.022 C 
ATOM     18  C   UNL A   1      35.207  22.236  24.647  1.00  0.00     0.067 C 
ATOM     19  C   UNL A   1      32.929  21.860  25.544  1.00  0.00     0.067 C 
ATOM     20  C   UNL A   1      35.636  20.782  24.947  1.00  0.00     0.262 C 
ATOM     21  C   UNL A   1      33.574  20.583  26.107  1.00  0.00     0.262 C 
ATOM     22  N   UNL A   1      34.454  19.715  25.071  1.00  0.00    -0.337 N 
ATOM     23  C   UNL A   1      34.051  17.958  24.032  1.00  0.00     0.332 C 
ATOM     24  H   UNL A   1      34.450  18.711  24.889  1.00  0.00     0.347 HD
ENDBRANCH  15  17
ENDBRANCH  13  15
ENDBRANCH   8  13
ENDBRANCH   4   7
ENDBRANCH   2   3
ENDBRANCH   1   2
BRANCH   1  25
ATOM     25  C   UNL A   1      31.648  32.058  26.704  1.00  0.00     0.023 C 
BRANCH  25  26
ATOM     26  C   UNL A   1      32.780  32.831  27.359  1.00  0.00     0.116 C 
BRANCH  26  27
ATOM     27  N   UNL A   1      32.437  34.218  27.635  1.00  0.00    -0.352 N 
ATOM     28  C   UNL A   1      32.970  35.041  28.596  1.00  0.00     0.251 C 
ATOM     29  H   UNL A   1      31.739  34.614  27.064  1.00  0.00     0.163 HD
ATOM     30  O   UNL A   1      32.495  36.148  28.817  1.00  0.00    -0.269 OA
BRANCH  28  31
ATOM     31  C   UNL A   1      34.109  34.541  29.384  1.00  0.00     0.039 A 
ATOM     32  C   UNL A   1      33.868  33.926  30.612  1.00  0.00     0.014 A 
ATOM     33  C   UNL A   1      35.404  34.612  28.860  1.00  0.00     0.014 A 
ATOM     34  C   UNL A   1      34.926  33.331  31.294  1.00  0.00     0.010 A 
ATOM     35  C   UNL A   1      36.436  33.931  29.491  1.00  0.00     0.010 A 
ATOM     36  C   UNL A   1      36.211  33.298  30.723  1.00  0.00    -0.014 A 
BRANCH  36  37
ATOM     37  C   UNL A   1      37.339  32.632  31.416  1.00  0.00     0.031 A 
ATOM     38  C   UNL A   1      38.055  31.491  30.749  1.00  0.00     0.074 A 
ATOM     39  C   UNL A   1      37.690  33.028  32.655  1.00  0.00     0.049 A 
ATOM     40  N   UNL A   1      39.045  30.760  31.196  1.00  0.00    -0.248 NA
ATOM     41  C   UNL A   1      37.578  31.098  29.413  1.00  0.00     0.031 C 
ATOM     42  C   UNL A   1      37.037  34.091  33.421  1.00  0.00     0.029 A 
ATOM     43  N   UNL A   1      38.685  32.581  33.488  1.00  0.00    -0.354 N 
ATOM     44  C   UNL A   1      39.300  29.825  30.202  1.00  0.00     0.074 A 
ATOM     45  C   UNL A   1      38.316  30.028  29.163  1.00  0.00     0.031 C 
ATOM     46  C   UNL A   1      37.673  34.239  34.594  1.00  0.00     0.029 A 
ATOM     47  C   UNL A   1      38.746  33.256  34.683  1.00  0.00     0.049 A 
ATOM     48  H   UNL A   1      39.297  31.847  33.251  1.00  0.00     0.167 HD
ATOM     49  C   UNL A   1      40.291  28.904  30.142  1.00  0.00     0.037 A 
ATOM     50  C   UNL A   1      39.576  33.092  35.730  1.00  0.00     0.037 A 
ATOM     51  C   UNL A   1      41.274  28.715  31.175  1.00  0.00     0.049 A 
ATOM     52  C   UNL A   1      40.647  32.036  35.653  1.00  0.00     0.074 A 
ATOM     53  C   UNL A   1      42.342  27.836  31.201  1.00  0.00     0.029 A 
ATOM     54  N   UNL A   1      41.303  29.415  32.374  1.00  0.00    -0.354 N 
ATOM     55  N   UNL A   1      40.926  31.205  34.677  1.00  0.00    -0.248 NA
ATOM     56  C   UNL A   1      41.525  31.901  36.823  1.00  0.00     0.031 C 
ATOM     57  C   UNL A   1      42.980  27.960  32.438  1.00  0.00     0.029 A 
ATOM     58  C   UNL A   1      42.357  28.969  33.155  1.00  0.00     0.049 A 
ATOM     59  H   UNL A   1      40.670  30.124  32.631  1.00  0.00     0.167 HD
ATOM     60  C   UNL A   1      42.033  30.479  35.098  1.00  0.00     0.074 A 
ATOM     61  C   UNL A   1      42.382  30.979  36.410  1.00  0.00     0.031 C 
ATOM     62  C   UNL A   1      42.700  29.487  34.456  1.00  0.00     0.037 A 
BRANCH  49  63
ATOM     63  C   UNL A   1      40.357  28.034  28.919  1.00  0.00     0.064 A 
ATOM     64  C   UNL A   1      41.109  28.403  27.791  1.00  0.00     0.173 A 
ATOM     65  C   UNL A   1      39.685  26.803  28.881  1.00  0.00     0.173 A 
ATOM     66  F   UNL A   1      41.761  29.575  27.768  1.00  0.00    -0.203 F 
ATOM     67  C   UNL A   1      41.155  27.590  26.662  1.00  0.00     0.198 A 
ATOM     68  C   UNL A   1      39.764  25.975  27.765  1.00  0.00     0.198 A 
ATOM     69  F   UNL A   1      38.954  26.399  29.931  1.00  0.00    -0.203 F 
ATOM     70  F   UNL A   1      41.830  27.992  25.577  1.00  0.00    -0.200 F 
ATOM     71  C   UNL A   1      40.492  26.373  26.654  1.00  0.00     0.200 A 
ATOM     72  F   UNL A   1      39.135  24.792  27.765  1.00  0.00    -0.200 F 
ATOM     73  F   UNL A   1      40.545  25.587  25.570  1.00  0.00    -0.200 F 
ENDBRANCH  49  63
BRANCH  50  74
ATOM     74  C   UNL A   1      39.448  33.961  36.932  1.00  0.00     0.064 A 
ATOM     75  C   UNL A   1      40.066  35.219  36.983  1.00  0.00     0.173 A 
ATOM     76  C   UNL A   1      38.729  33.544  38.062  1.00  0.00     0.173 A 
ATOM     77  F   UNL A   1      40.780  35.656  35.935  1.00  0.00    -0.203 F 
ATOM     78  C   UNL A   1      40.000  36.010  38.129  1.00  0.00     0.198 A 
ATOM     79  C   UNL A   1      38.633  34.352  39.194  1.00  0.00     0.198 A 
ATOM     80  F   UNL A   1      38.111  32.354  38.065  1.00  0.00    -0.203 F 
ATOM     81  F   UNL A   1      40.654  37.178  38.171  1.00  0.00    -0.200 F 
ATOM     82  C   UNL A   1      39.279  35.577  39.232  1.00  0.00     0.200 A 
ATOM     83  F   UNL A   1      37.920  33.938  40.250  1.00  0.00    -0.200 F 
ATOM     84  F   UNL A   1      39.216  36.337  40.333  1.00  0.00    -0.200 F 
ENDBRANCH  50  74
BRANCH  62  85
ATOM     85  C   UNL A   1      43.911  28.917  35.138  1.00  0.00     0.064 A 
ATOM     86  C   UNL A   1      45.185  29.489  34.994  1.00  0.00     0.173 A 
ATOM     87  C   UNL A   1      43.787  27.798  35.976  1.00  0.00     0.173 A 
ATOM     88  F   UNL A   1      45.362  30.552  34.197  1.00  0.00    -0.203 F 
ATOM     89  C   UNL A   1      46.292  28.937  35.633  1.00  0.00     0.198 A 
ATOM     90  C   UNL A   1      44.889  27.274  36.646  1.00  0.00     0.198 A 
ATOM     91  F   UNL A   1      42.590  27.218  36.159  1.00  0.00    -0.203 F 
ATOM     92  F   UNL A   1      47.509  29.461  35.429  1.00  0.00    -0.200 F 
ATOM     93  C   UNL A   1      46.142  27.836  36.463  1.00  0.00     0.200 A 
ATOM     94  F   UNL A   1      44.738  26.224  37.463  1.00  0.00    -0.200 F 
ATOM     95  F   UNL A   1      47.209  27.312  37.083  1.00  0.00    -0.200 F 
ENDBRANCH  62  85
ENDBRANCH  36  37
ENDBRANCH  28  31
ENDBRANCH  26  27
ENDBRANCH  25  26
ENDBRANCH   1  25
TORSDOF 14
ENDMDL
MODEL 3
REMARK VINA RESULT:     -13.0      5.331     11.078
REMARK SMILES C[C@@H](Nc1ccc(C(=O)NCCCCNC(=O)c2ccc(-c3c4nc(c(-c5c(F)c(F)c(F)c(F)c5F)c5ccc([nH]5)c(-c5c(F)c(F)c(F)c(F)c5F)c5nc(c(-c6c(F)c(F)c(F)c(F)c6F)c6ccc3[nH]6)C=C5)C=C4)cc2)cc1)C1CC[NH+](C)CC1
REMARK SMILES IDX 12 1 11 2 10 3 8 4 9 5 7 7 4 8 5 9 82 10 6 11 81 12 3 13
REMARK SMILES IDX 2 15 1 16 83 17 84 18 89 19 85 20 88 21 86 22 87 23 13 25
REMARK SMILES IDX 14 26 15 27 16 28 17 30 18 31 19 32 80 33 20 34 79 35 21 36
REMARK SMILES IDX 22 37 23 38 73 39 24 40 78 41 72 42 74 43 25 44 77 45 71 46
REMARK SMILES IDX 70 47 26 49 58 50 38 51 57 52 39 53 42 54 56 55 75 56 40 57
REMARK SMILES IDX 41 58 55 60 76 61 43 62 27 63 28 64 36 65 29 66 30 67 34 68
REMARK SMILES IDX 37 69 31 70 32 71 35 72 33 73 59 74 60 75 68 76 61 77 62 78
REMARK SMILES IDX 66 79 69 80 63 81 64 82 67 83 65 84 44 85 45 86 53 87 46 88
REMARK SMILES IDX 47 89 51 90 54 91 48 92 49 93 52 94 50 95
REMARK H PARENT 10 6 3 14 86 24 15 29 74 48 42 59
REMARK Flexibility Score: inf
ROOT
ATOM      1  C   UNL A   1      37.328  21.346  24.757  1.00  0.00     0.023 C 
ENDROOT
BRANCH   1   2
ATOM      2  C   UNL A   1      36.092  21.255  25.647  1.00  0.00     0.116 C 
BRANCH   2   3
ATOM      3  N   UNL A   1      35.298  20.096  25.316  1.00  0.00    -0.352 N 
ATOM      4  C   UNL A   1      34.055  20.035  24.747  1.00  0.00     0.251 C 
ATOM      5  O   UNL A   1      33.588  18.942  24.435  1.00  0.00    -0.269 OA
ATOM      6  H   UNL A   1      35.708  19.227  25.529  1.00  0.00     0.163 HD
BRANCH   4   7
ATOM      7  C   UNL A   1      33.283  21.247  24.436  1.00  0.00     0.039 A 
ATOM      8  C   UNL A   1      31.089  24.077  23.804  1.00  0.00     0.034 A 
ATOM      9  C   UNL A   1      30.816  23.032  25.271  1.00  0.00     0.026 A 
ATOM     10  C   UNL A   1      32.542  23.821  22.746  1.00  0.00     0.026 A 
ATOM     11  C   UNL A   1      31.901  21.598  25.569  1.00  0.00     0.016 A 
ATOM     12  C   UNL A   1      33.655  22.386  23.074  1.00  0.00     0.016 A 
BRANCH   8  13
ATOM     13  N   UNL A   1      30.011  24.837  23.373  1.00  0.00    -0.382 N 
ATOM     14  H   UNL A   1      29.349  24.455  22.753  1.00  0.00     0.160 HD
BRANCH  13  15
ATOM     15  C   UNL A   1      29.870  26.219  23.851  1.00  0.00     0.079 C 
ATOM     16  C   UNL A   1      28.371  26.478  24.074  1.00  0.00     0.031 C 
BRANCH  15  17
ATOM     17  C   UNL A   1      30.499  27.408  23.054  1.00  0.00     0.022 C 
ATOM     18  C   UNL A   1      32.022  27.556  22.977  1.00  0.00     0.067 C 
ATOM     19  C   UNL A   1      29.900  28.769  23.378  1.00  0.00     0.067 C 
ATOM     20  C   UNL A   1      32.716  28.238  24.178  1.00  0.00     0.262 C 
ATOM     21  C   UNL A   1      30.790  29.623  24.295  1.00  0.00     0.262 C 
ATOM     22  N   UNL A   1      31.748  28.814  25.311  1.00  0.00    -0.337 N 
ATOM     23  C   UNL A   1      31.599  28.416  27.347  1.00  0.00     0.332 C 
ATOM     24  H   UNL A   1      31.909  28.950  26.308  1.00  0.00     0.347 HD
ENDBRANCH  15  17
ENDBRANCH  13  15
ENDBRANCH   8  13
ENDBRANCH   4   7
ENDBRANCH   2   3
ENDBRANCH   1   2
BRANCH   1  25
ATOM     25  C   UNL A   1      38.262  20.145  24.857  1.00  0.00     0.023 C 
BRANCH  25  26
ATOM     26  C   UNL A   1      39.243  20.209  26.014  1.00  0.00     0.116 C 
BRANCH  26  27
ATOM     27  N   UNL A   1      40.256  19.165  25.961  1.00  0.00    -0.352 N 
ATOM     28  C   UNL A   1      41.617  19.307  26.064  1.00  0.00     0.251 C 
ATOM     29  H   UNL A   1      39.924  18.246  25.837  1.00  0.00     0.163 HD
ATOM     30  O   UNL A   1      42.371  18.363  25.863  1.00  0.00    -0.269 OA
BRANCH  28  31
ATOM     31  C   UNL A   1      42.154  20.640  26.386  1.00  0.00     0.039 A 
ATOM     32  C   UNL A   1      42.456  21.519  25.347  1.00  0.00     0.014 A 
ATOM     33  C   UNL A   1      42.274  21.039  27.721  1.00  0.00     0.014 A 
ATOM     34  C   UNL A   1      42.832  22.826  25.650  1.00  0.00     0.010 A 
ATOM     35  C   UNL A   1      42.549  22.367  28.016  1.00  0.00     0.010 A 
ATOM     36  C   UNL A   1      42.848  23.270  26.985  1.00  0.00    -0.014 A 
BRANCH  36  37
ATOM     37  C   UNL A   1      43.205  24.668  27.321  1.00  0.00     0.031 A 
ATOM     38  C   UNL A   1      44.610  25.155  27.092  1.00  0.00     0.074 A 
ATOM     39  C   UNL A   1      42.282  25.482  27.867  1.00  0.00     0.049 A 
ATOM     40  N   UNL A   1      45.131  26.329  27.345  1.00  0.00    -0.248 NA
ATOM     41  C   UNL A   1      45.565  24.185  26.532  1.00  0.00     0.031 C 
ATOM     42  C   UNL A   1      40.902  25.107  28.180  1.00  0.00     0.029 A 
ATOM     43  N   UNL A   1      42.364  26.796  28.254  1.00  0.00    -0.354 N 
ATOM     44  C   UNL A   1      46.467  26.233  26.979  1.00  0.00     0.074 A 
ATOM     45  C   UNL A   1      46.697  24.870  26.561  1.00  0.00     0.031 C 
ATOM     46  C   UNL A   1      40.257  26.176  28.675  1.00  0.00     0.029 A 
ATOM     47  C   UNL A   1      41.187  27.297  28.756  1.00  0.00     0.049 A 
ATOM     48  H   UNL A   1      43.189  27.329  28.179  1.00  0.00     0.167 HD
ATOM     49  C   UNL A   1      47.409  27.206  26.958  1.00  0.00     0.037 A 
ATOM     50  C   UNL A   1      40.898  28.523  29.230  1.00  0.00     0.037 A 
ATOM     51  C   UNL A   1      47.168  28.564  27.366  1.00  0.00     0.049 A 
ATOM     52  C   UNL A   1      41.975  29.577  29.229  1.00  0.00     0.074 A 
ATOM     53  C   UNL A   1      48.041  29.638  27.350  1.00  0.00     0.029 A 
ATOM     54  N   UNL A   1      45.964  29.035  27.872  1.00  0.00    -0.354 N 
ATOM     55  N   UNL A   1      43.216  29.496  28.813  1.00  0.00    -0.248 NA
ATOM     56  C   UNL A   1      41.605  30.897  29.756  1.00  0.00     0.031 C 
ATOM     57  C   UNL A   1      47.386  30.741  27.904  1.00  0.00     0.029 A 
ATOM     58  C   UNL A   1      46.081  30.378  28.195  1.00  0.00     0.049 A 
ATOM     59  H   UNL A   1      45.148  28.495  27.984  1.00  0.00     0.167 HD
ATOM     60  C   UNL A   1      43.762  30.761  28.991  1.00  0.00     0.074 A 
ATOM     61  C   UNL A   1      42.710  31.593  29.537  1.00  0.00     0.031 C 
ATOM     62  C   UNL A   1      45.019  31.195  28.726  1.00  0.00     0.037 A 
BRANCH  49  63
ATOM     63  C   UNL A   1      48.782  26.832  26.478  1.00  0.00     0.064 A 
ATOM     64  C   UNL A   1      49.162  26.988  25.135  1.00  0.00     0.173 A 
ATOM     65  C   UNL A   1      49.741  26.337  27.374  1.00  0.00     0.173 A 
ATOM     66  F   UNL A   1      48.281  27.445  24.232  1.00  0.00    -0.203 F 
ATOM     67  C   UNL A   1      50.436  26.630  24.702  1.00  0.00     0.198 A 
ATOM     68  C   UNL A   1      51.026  26.016  26.946  1.00  0.00     0.198 A 
ATOM     69  F   UNL A   1      49.435  26.169  28.670  1.00  0.00    -0.203 F 
ATOM     70  F   UNL A   1      50.754  26.732  23.405  1.00  0.00    -0.200 F 
ATOM     71  C   UNL A   1      51.370  26.154  25.610  1.00  0.00     0.200 A 
ATOM     72  F   UNL A   1      51.933  25.571  27.827  1.00  0.00    -0.200 F 
ATOM     73  F   UNL A   1      52.599  25.819  25.194  1.00  0.00    -0.200 F 
ENDBRANCH  49  63
BRANCH  50  74
ATOM     74  C   UNL A   1      39.529  28.833  29.723  1.00  0.00     0.064 A 
ATOM     75  C   UNL A   1      38.564  29.393  28.873  1.00  0.00     0.173 A 
ATOM     76  C   UNL A   1      39.162  28.602  31.058  1.00  0.00     0.173 A 
ATOM     77  F   UNL A   1      38.870  29.649  27.592  1.00  0.00    -0.203 F 
ATOM     78  C   UNL A   1      37.300  29.741  29.345  1.00  0.00     0.198 A 
ATOM     79  C   UNL A   1      37.886  28.917  31.520  1.00  0.00     0.198 A 
ATOM     80  F   UNL A   1      40.043  28.062  31.913  1.00  0.00    -0.203 F 
ATOM     81  F   UNL A   1      36.421  30.332  28.525  1.00  0.00    -0.200 F 
ATOM     82  C   UNL A   1      36.961  29.499  30.668  1.00  0.00     0.200 A 
ATOM     83  F   UNL A   1      37.557  28.664  32.794  1.00  0.00    -0.200 F 
ATOM     84  F   UNL A   1      35.746  29.835  31.122  1.00  0.00    -0.200 F 
ENDBRANCH  50  74
BRANCH  62  85
ATOM     85  C   UNL A   1      45.312  32.649  28.969  1.00  0.00     0.064 A 
ATOM     86  C   UNL A   1      45.882  33.103  30.168  1.00  0.00     0.173 A 
ATOM     87  C   UNL A   1      45.046  33.598  27.970  1.00  0.00     0.173 A 
ATOM     88  F   UNL A   1      46.147  32.240  31.160  1.00  0.00    -0.203 F 
ATOM     89  C   UNL A   1      46.138  34.457  30.370  1.00  0.00     0.198 A 
ATOM     90  C   UNL A   1      45.340  34.945  28.160  1.00  0.00     0.198 A 
ATOM     91  F   UNL A   1      44.510  33.218  26.799  1.00  0.00    -0.203 F 
ATOM     92  F   UNL A   1      46.623  34.875  31.548  1.00  0.00    -0.200 F 
ATOM     93  C   UNL A   1      45.874  35.375  29.365  1.00  0.00     0.200 A 
ATOM     94  F   UNL A   1      45.104  35.827  27.179  1.00  0.00    -0.200 F 
ATOM     95  F   UNL A   1      46.128  36.677  29.559  1.00  0.00    -0.200 F 
ENDBRANCH  62  85
ENDBRANCH  36  37
ENDBRANCH  28  31
ENDBRANCH  26  27
ENDBRANCH  25  26
ENDBRANCH   1  25
TORSDOF 14
ENDMDL
