MODEL 1
REMARK VINA RESULT:     -12.8      0.000      0.000
REMARK SMILES CC[C@](NC(=O)c1cccc(CS(C)(=O)=O)c1)(C(=O)NCCCCNC(=O)c1ccc(-c2c3nc(c(-c4c(F)c(F)c(F)c(F)c4F)c4ccc([nH]4)c(-c4c(F)c(F)c(F)c(F)c4F)c4nc(c(-c5c(F)c(F)c(F)c(F)c5F)c5ccc2[nH]5)C=C4)C=C3)cc1)c1ccccc1
REMARK SMILES IDX 21 1 20 2 18 3 19 4 3 6 2 7 1 8 91 9 92 10 96 11 93 12 95 13
REMARK SMILES IDX 94 14 4 15 5 16 6 18 7 19 8 20 17 21 9 22 11 23 10 24 12 25
REMARK SMILES IDX 13 26 14 27 15 28 16 29 22 30 23 31 24 32 25 33 26 34 27 36
REMARK SMILES IDX 28 37 29 38 90 39 30 40 89 41 31 42 32 43 33 44 83 45 34 46
REMARK SMILES IDX 88 47 82 48 84 49 35 50 87 51 81 52 80 53 36 55 68 56 48 57
REMARK SMILES IDX 67 58 49 59 52 60 66 61 85 62 50 63 51 64 65 66 86 67 53 68
REMARK SMILES IDX 37 69 38 70 46 71 39 72 40 73 44 74 47 75 41 76 42 77 45 78
REMARK SMILES IDX 43 79 69 80 70 81 78 82 71 83 72 84 76 85 79 86 73 87 74 88
REMARK SMILES IDX 77 89 75 90 54 91 55 92 63 93 56 94 57 95 61 96 64 97 58 98
REMARK SMILES IDX 59 99 62 100 60 101
REMARK H PARENT 20 5 4 17 25 35 84 54 52 65
REMARK Flexibility Score: inf
ROOT
ATOM      1  C   UNL A   1      35.911  20.676  25.001  1.00  0.00     0.116 C 
ENDROOT
BRANCH   1   2
ATOM      2  N   UNL A   1      35.234  21.175  26.190  1.00  0.00    -0.354 N 
ATOM      3  C   UNL A   1      33.947  21.470  26.555  1.00  0.00     0.250 C 
ATOM      4  O   UNL A   1      33.778  21.498  27.784  1.00  0.00    -0.272 OA
ATOM      5  H   UNL A   1      35.868  21.346  26.924  1.00  0.00     0.163 HD
BRANCH   3   6
ATOM      6  C   UNL A   1      32.756  21.777  25.571  1.00  0.00     0.144 C 
BRANCH   6   7
ATOM      7  C   UNL A   1      33.285  22.952  24.640  1.00  0.00     0.040 C 
ATOM      8  C   UNL A   1      34.121  24.077  25.239  1.00  0.00     0.007 C 
ENDBRANCH   6   7
BRANCH   6   9
ATOM      9  C   UNL A   1      32.498  20.569  24.579  1.00  0.00    -0.013 A 
ATOM     10  C   UNL A   1      32.249  20.739  23.203  1.00  0.00     0.007 A 
ATOM     11  C   UNL A   1      32.609  19.231  25.034  1.00  0.00     0.007 A 
ATOM     12  C   UNL A   1      32.178  19.642  22.328  1.00  0.00     0.000 A 
ATOM     13  C   UNL A   1      32.558  18.140  24.157  1.00  0.00     0.000 A 
ATOM     14  C   UNL A   1      32.351  18.346  22.800  1.00  0.00     0.000 A 
ENDBRANCH   6   9
BRANCH   6  15
ATOM     15  N   UNL A   1      31.461  22.192  26.195  1.00  0.00    -0.334 N 
ATOM     16  C   UNL A   1      30.768  23.339  26.511  1.00  0.00     0.252 C 
ATOM     17  H   UNL A   1      30.944  21.399  26.463  1.00  0.00     0.165 HD
ATOM     18  O   UNL A   1      30.040  23.234  27.506  1.00  0.00    -0.269 OA
BRANCH  16  19
ATOM     19  C   UNL A   1      30.690  24.632  25.752  1.00  0.00     0.040 A 
ATOM     20  C   UNL A   1      30.326  24.577  24.396  1.00  0.00     0.014 A 
ATOM     21  C   UNL A   1      31.022  25.890  26.242  1.00  0.00     0.018 A 
ATOM     22  C   UNL A   1      30.334  25.725  23.592  1.00  0.00     0.001 A 
ATOM     23  C   UNL A   1      31.125  27.052  25.449  1.00  0.00    -0.032 A 
ATOM     24  C   UNL A   1      30.734  26.957  24.115  1.00  0.00     0.005 A 
BRANCH  23  25
ATOM     25  C   UNL A   1      31.501  28.357  26.115  1.00  0.00     0.172 C 
BRANCH  25  26
ATOM     26  S   UNL A   1      33.194  28.895  25.883  1.00  0.00     0.151 S 
ATOM     27  C   UNL A   1      33.501  30.287  26.948  1.00  0.00     0.158 C 
ATOM     28  O   UNL A   1      34.058  27.824  26.359  1.00  0.00    -0.229 OA
ATOM     29  O   UNL A   1      33.337  29.347  24.515  1.00  0.00    -0.229 OA
ENDBRANCH  25  26
ENDBRANCH  23  25
ENDBRANCH  16  19
ENDBRANCH   6  15
ENDBRANCH   3   6
ENDBRANCH   1   2
BRANCH   1  30
ATOM     30  C   UNL A   1      37.431  20.813  24.858  1.00  0.00     0.023 C 
BRANCH  30  31
ATOM     31  C   UNL A   1      38.351  19.594  24.998  1.00  0.00     0.023 C 
BRANCH  31  32
ATOM     32  C   UNL A   1      39.452  19.633  26.048  1.00  0.00     0.116 C 
BRANCH  32  33
ATOM     33  N   UNL A   1      40.612  18.815  25.784  1.00  0.00    -0.352 N 
ATOM     34  C   UNL A   1      41.935  19.160  25.969  1.00  0.00     0.251 C 
ATOM     35  H   UNL A   1      40.440  17.912  25.431  1.00  0.00     0.163 HD
ATOM     36  O   UNL A   1      42.819  18.353  25.690  1.00  0.00    -0.269 OA
BRANCH  34  37
ATOM     37  C   UNL A   1      42.321  20.520  26.447  1.00  0.00     0.039 A 
ATOM     38  C   UNL A   1      42.738  21.460  25.500  1.00  0.00     0.014 A 
ATOM     39  C   UNL A   1      42.331  20.877  27.797  1.00  0.00     0.014 A 
ATOM     40  C   UNL A   1      43.136  22.746  25.898  1.00  0.00     0.010 A 
ATOM     41  C   UNL A   1      42.668  22.189  28.184  1.00  0.00     0.010 A 
ATOM     42  C   UNL A   1      43.086  23.148  27.246  1.00  0.00    -0.014 A 
BRANCH  42  43
ATOM     43  C   UNL A   1      43.487  24.544  27.643  1.00  0.00     0.031 A 
ATOM     44  C   UNL A   1      44.930  25.003  27.586  1.00  0.00     0.074 A 
ATOM     45  C   UNL A   1      42.560  25.435  28.062  1.00  0.00     0.049 A 
ATOM     46  N   UNL A   1      45.435  26.197  27.809  1.00  0.00    -0.248 NA
ATOM     47  C   UNL A   1      45.945  23.988  27.271  1.00  0.00     0.031 C 
ATOM     48  C   UNL A   1      41.138  25.150  28.258  1.00  0.00     0.029 A 
ATOM     49  N   UNL A   1      42.670  26.771  28.384  1.00  0.00    -0.354 N 
ATOM     50  C   UNL A   1      46.814  26.065  27.681  1.00  0.00     0.074 A 
ATOM     51  C   UNL A   1      47.073  24.663  27.435  1.00  0.00     0.031 C 
ATOM     52  C   UNL A   1      40.500  26.283  28.597  1.00  0.00     0.029 A 
ATOM     53  C   UNL A   1      41.468  27.375  28.680  1.00  0.00     0.049 A 
ATOM     54  H   UNL A   1      43.529  27.252  28.401  1.00  0.00     0.167 HD
ATOM     55  C   UNL A   1      47.782  27.015  27.725  1.00  0.00     0.037 A 
ATOM     56  C   UNL A   1      41.165  28.658  28.967  1.00  0.00     0.037 A 
ATOM     57  C   UNL A   1      47.545  28.421  27.930  1.00  0.00     0.049 A 
ATOM     58  C   UNL A   1      42.251  29.704  28.989  1.00  0.00     0.074 A 
ATOM     59  C   UNL A   1      48.456  29.464  27.894  1.00  0.00     0.029 A 
ATOM     60  N   UNL A   1      46.311  28.984  28.218  1.00  0.00    -0.354 N 
ATOM     61  N   UNL A   1      43.531  29.578  28.744  1.00  0.00    -0.248 NA
ATOM     62  C   UNL A   1      41.842  31.079  29.316  1.00  0.00     0.031 C 
ATOM     63  C   UNL A   1      47.787  30.649  28.221  1.00  0.00     0.029 A 
ATOM     64  C   UNL A   1      46.445  30.355  28.392  1.00  0.00     0.049 A 
ATOM     65  H   UNL A   1      45.466  28.485  28.289  1.00  0.00     0.167 HD
ATOM     66  C   UNL A   1      44.070  30.857  28.846  1.00  0.00     0.074 A 
ATOM     67  C   UNL A   1      42.975  31.747  29.160  1.00  0.00     0.031 C 
ATOM     68  C   UNL A   1      45.357  31.251  28.690  1.00  0.00     0.037 A 
BRANCH  55  69
ATOM     69  C   UNL A   1      49.207  26.567  27.534  1.00  0.00     0.064 A 
ATOM     70  C   UNL A   1      49.762  26.393  26.256  1.00  0.00     0.173 A 
ATOM     71  C   UNL A   1      50.041  26.345  28.642  1.00  0.00     0.173 A 
ATOM     72  F   UNL A   1      49.013  26.594  25.161  1.00  0.00    -0.203 F 
ATOM     73  C   UNL A   1      51.078  25.965  26.095  1.00  0.00     0.198 A 
ATOM     74  C   UNL A   1      51.368  25.955  28.476  1.00  0.00     0.198 A 
ATOM     75  F   UNL A   1      49.573  26.515  29.887  1.00  0.00    -0.203 F 
ATOM     76  F   UNL A   1      51.562  25.744  24.864  1.00  0.00    -0.200 F 
ATOM     77  C   UNL A   1      51.881  25.753  27.204  1.00  0.00     0.200 A 
ATOM     78  F   UNL A   1      52.152  25.775  29.548  1.00  0.00    -0.200 F 
ATOM     79  F   UNL A   1      53.149  25.348  27.047  1.00  0.00    -0.200 F 
ENDBRANCH  55  69
BRANCH  56  80
ATOM     80  C   UNL A   1      39.750  29.058  29.209  1.00  0.00     0.064 A 
ATOM     81  C   UNL A   1      39.212  29.052  30.506  1.00  0.00     0.173 A 
ATOM     82  C   UNL A   1      38.897  29.416  28.155  1.00  0.00     0.173 A 
ATOM     83  F   UNL A   1      39.977  28.689  31.547  1.00  0.00    -0.203 F 
ATOM     84  C   UNL A   1      37.871  29.362  30.735  1.00  0.00     0.198 A 
ATOM     85  C   UNL A   1      37.566  29.759  28.389  1.00  0.00     0.198 A 
ATOM     86  F   UNL A   1      39.359  29.440  26.896  1.00  0.00    -0.203 F 
ATOM     87  F   UNL A   1      37.372  29.290  31.976  1.00  0.00    -0.200 F 
ATOM     88  C   UNL A   1      37.051  29.721  29.676  1.00  0.00     0.200 A 
ATOM     89  F   UNL A   1      36.781  30.119  27.365  1.00  0.00    -0.200 F 
ATOM     90  F   UNL A   1      35.764  30.020  29.895  1.00  0.00    -0.200 F 
ENDBRANCH  56  80
BRANCH  68  91
ATOM     91  C   UNL A   1      45.657  32.721  28.799  1.00  0.00     0.064 A 
ATOM     92  C   UNL A   1      45.495  33.598  27.715  1.00  0.00     0.173 A 
ATOM     93  C   UNL A   1      46.089  33.267  30.019  1.00  0.00     0.173 A 
ATOM     94  F   UNL A   1      45.097  33.131  26.522  1.00  0.00    -0.203 F 
ATOM     95  C   UNL A   1      45.789  34.955  27.838  1.00  0.00     0.198 A 
ATOM     96  C   UNL A   1      46.347  34.630  30.148  1.00  0.00     0.198 A 
ATOM     97  F   UNL A   1      46.254  32.479  31.092  1.00  0.00    -0.203 F 
ATOM     98  F   UNL A   1      45.685  35.761  26.772  1.00  0.00    -0.200 F 
ATOM     99  C   UNL A   1      46.208  35.471  29.055  1.00  0.00     0.200 A 
ATOM    100  F   UNL A   1      46.735  35.128  31.330  1.00  0.00    -0.200 F 
ATOM    101  F   UNL A   1      46.485  36.776  29.172  1.00  0.00    -0.200 F 
ENDBRANCH  68  91
ENDBRANCH  42  43
ENDBRANCH  34  37
ENDBRANCH  32  33
ENDBRANCH  31  32
ENDBRANCH  30  31
ENDBRANCH   1  30
TORSDOF 17
ENDMDL
MODEL 2
REMARK VINA RESULT:     -12.7      1.633      7.566
REMARK SMILES CC[C@](NC(=O)c1cccc(CS(C)(=O)=O)c1)(C(=O)NCCCCNC(=O)c1ccc(-c2c3nc(c(-c4c(F)c(F)c(F)c(F)c4F)c4ccc([nH]4)c(-c4c(F)c(F)c(F)c(F)c4F)c4nc(c(-c5c(F)c(F)c(F)c(F)c5F)c5ccc2[nH]5)C=C4)C=C3)cc1)c1ccccc1
REMARK SMILES IDX 21 1 20 2 18 3 19 4 3 6 2 7 1 8 91 9 92 10 96 11 93 12 95 13
REMARK SMILES IDX 94 14 4 15 5 16 6 18 7 19 8 20 17 21 9 22 11 23 10 24 12 25
REMARK SMILES IDX 13 26 14 27 15 28 16 29 22 30 23 31 24 32 25 33 26 34 27 36
REMARK SMILES IDX 28 37 29 38 90 39 30 40 89 41 31 42 32 43 33 44 83 45 34 46
REMARK SMILES IDX 88 47 82 48 84 49 35 50 87 51 81 52 80 53 36 55 68 56 48 57
REMARK SMILES IDX 67 58 49 59 52 60 66 61 85 62 50 63 51 64 65 66 86 67 53 68
REMARK SMILES IDX 37 69 38 70 46 71 39 72 40 73 44 74 47 75 41 76 42 77 45 78
REMARK SMILES IDX 43 79 69 80 70 81 78 82 71 83 72 84 76 85 79 86 73 87 74 88
REMARK SMILES IDX 77 89 75 90 54 91 55 92 63 93 56 94 57 95 61 96 64 97 58 98
REMARK SMILES IDX 59 99 62 100 60 101
REMARK H PARENT 20 5 4 17 25 35 84 54 52 65
REMARK Flexibility Score: inf
ROOT
ATOM      1  C   UNL A   1      35.798  21.075  24.896  1.00  0.00     0.116 C 
ENDROOT
BRANCH   1   2
ATOM      2  N   UNL A   1      35.383  21.894  26.027  1.00  0.00    -0.354 N 
ATOM      3  C   UNL A   1      34.304  22.673  26.350  1.00  0.00     0.250 C 
ATOM      4  O   UNL A   1      34.189  22.873  27.570  1.00  0.00    -0.272 OA
ATOM      5  H   UNL A   1      36.054  21.885  26.747  1.00  0.00     0.163 HD
BRANCH   3   6
ATOM      6  C   UNL A   1      33.284  23.306  25.331  1.00  0.00     0.144 C 
BRANCH   6   7
ATOM      7  C   UNL A   1      32.009  22.359  25.386  1.00  0.00     0.040 C 
ATOM      8  C   UNL A   1      32.137  20.889  25.007  1.00  0.00     0.007 C 
ENDBRANCH   6   7
BRANCH   6   9
ATOM      9  C   UNL A   1      32.758  24.713  25.835  1.00  0.00    -0.013 A 
ATOM     10  C   UNL A   1      33.589  25.841  25.980  1.00  0.00     0.007 A 
ATOM     11  C   UNL A   1      31.376  24.919  26.071  1.00  0.00     0.007 A 
ATOM     12  C   UNL A   1      33.062  27.108  26.281  1.00  0.00     0.000 A 
ATOM     13  C   UNL A   1      30.850  26.187  26.350  1.00  0.00     0.000 A 
ATOM     14  C   UNL A   1      31.693  27.285  26.446  1.00  0.00     0.000 A 
ENDBRANCH   6   9
BRANCH   6  15
ATOM     15  N   UNL A   1      33.743  23.427  23.912  1.00  0.00    -0.334 N 
ATOM     16  C   UNL A   1      33.433  24.121  22.763  1.00  0.00     0.252 C 
ATOM     17  H   UNL A   1      34.504  22.824  23.748  1.00  0.00     0.165 HD
ATOM     18  O   UNL A   1      33.675  23.505  21.718  1.00  0.00    -0.269 OA
BRANCH  16  19
ATOM     19  C   UNL A   1      32.963  25.539  22.618  1.00  0.00     0.040 A 
ATOM     20  C   UNL A   1      33.936  26.543  22.475  1.00  0.00     0.014 A 
ATOM     21  C   UNL A   1      31.645  25.977  22.689  1.00  0.00     0.018 A 
ATOM     22  C   UNL A   1      33.585  27.899  22.440  1.00  0.00     0.001 A 
ATOM     23  C   UNL A   1      31.257  27.332  22.743  1.00  0.00    -0.032 A 
ATOM     24  C   UNL A   1      32.253  28.293  22.577  1.00  0.00     0.005 A 
BRANCH  23  25
ATOM     25  C   UNL A   1      29.784  27.664  22.825  1.00  0.00     0.172 C 
BRANCH  25  26
ATOM     26  S   UNL A   1      29.364  29.401  22.700  1.00  0.00     0.151 S 
ATOM     27  C   UNL A   1      27.606  29.580  22.899  1.00  0.00     0.158 C 
ATOM     28  O   UNL A   1      29.971  30.076  23.839  1.00  0.00    -0.229 OA
ATOM     29  O   UNL A   1      29.704  29.850  21.365  1.00  0.00    -0.229 OA
ENDBRANCH  25  26
ENDBRANCH  23  25
ENDBRANCH  16  19
ENDBRANCH   6  15
ENDBRANCH   3   6
ENDBRANCH   1   2
BRANCH   1  30
ATOM     30  C   UNL A   1      37.282  20.952  24.530  1.00  0.00     0.023 C 
BRANCH  30  31
ATOM     31  C   UNL A   1      38.091  19.708  24.918  1.00  0.00     0.023 C 
BRANCH  31  32
ATOM     32  C   UNL A   1      39.161  19.844  25.992  1.00  0.00     0.116 C 
BRANCH  32  33
ATOM     33  N   UNL A   1      40.281  18.939  25.890  1.00  0.00    -0.352 N 
ATOM     34  C   UNL A   1      41.614  19.238  26.083  1.00  0.00     0.251 C 
ATOM     35  H   UNL A   1      40.071  18.006  25.656  1.00  0.00     0.163 HD
ATOM     36  O   UNL A   1      42.461  18.356  25.954  1.00  0.00    -0.269 OA
BRANCH  34  37
ATOM     37  C   UNL A   1      42.060  20.630  26.389  1.00  0.00     0.039 A 
ATOM     38  C   UNL A   1      42.323  21.489  25.319  1.00  0.00     0.014 A 
ATOM     39  C   UNL A   1      42.272  21.091  27.689  1.00  0.00     0.014 A 
ATOM     40  C   UNL A   1      42.767  22.801  25.549  1.00  0.00     0.010 A 
ATOM     41  C   UNL A   1      42.655  22.428  27.916  1.00  0.00     0.010 A 
ATOM     42  C   UNL A   1      42.920  23.308  26.853  1.00  0.00    -0.014 A 
BRANCH  42  43
ATOM     43  C   UNL A   1      43.368  24.729  27.073  1.00  0.00     0.031 A 
ATOM     44  C   UNL A   1      42.437  25.774  27.654  1.00  0.00     0.074 A 
ATOM     45  C   UNL A   1      44.626  25.112  26.758  1.00  0.00     0.049 A 
ATOM     46  N   UNL A   1      42.691  27.021  27.990  1.00  0.00    -0.248 NA
ATOM     47  C   UNL A   1      41.035  25.387  27.855  1.00  0.00     0.031 C 
ATOM     48  C   UNL A   1      45.634  24.266  26.117  1.00  0.00     0.029 A 
ATOM     49  N   UNL A   1      45.283  26.309  26.951  1.00  0.00    -0.354 N 
ATOM     50  C   UNL A   1      41.481  27.560  28.416  1.00  0.00     0.074 A 
ATOM     51  C   UNL A   1      40.482  26.531  28.228  1.00  0.00     0.031 C 
ATOM     52  C   UNL A   1      46.792  24.943  26.031  1.00  0.00     0.029 A 
ATOM     53  C   UNL A   1      46.608  26.285  26.578  1.00  0.00     0.049 A 
ATOM     54  H   UNL A   1      44.845  27.109  27.321  1.00  0.00     0.167 HD
ATOM     55  C   UNL A   1      41.218  28.779  28.950  1.00  0.00     0.037 A 
ATOM     56  C   UNL A   1      47.576  27.220  26.677  1.00  0.00     0.037 A 
ATOM     57  C   UNL A   1      42.203  29.805  29.183  1.00  0.00     0.049 A 
ATOM     58  C   UNL A   1      47.270  28.562  27.294  1.00  0.00     0.074 A 
ATOM     59  C   UNL A   1      42.041  31.032  29.806  1.00  0.00     0.029 A 
ATOM     60  N   UNL A   1      43.531  29.731  28.795  1.00  0.00    -0.354 N 
ATOM     61  N   UNL A   1      46.148  29.006  27.804  1.00  0.00    -0.248 NA
ATOM     62  C   UNL A   1      48.377  29.529  27.361  1.00  0.00     0.031 C 
ATOM     63  C   UNL A   1      43.254  31.726  29.741  1.00  0.00     0.029 A 
ATOM     64  C   UNL A   1      44.191  30.903  29.140  1.00  0.00     0.049 A 
ATOM     65  H   UNL A   1      43.946  28.961  28.343  1.00  0.00     0.167 HD
ATOM     66  C   UNL A   1      46.424  30.281  28.286  1.00  0.00     0.074 A 
ATOM     67  C   UNL A   1      47.823  30.534  28.023  1.00  0.00     0.031 C 
ATOM     68  C   UNL A   1      45.588  31.157  28.894  1.00  0.00     0.037 A 
BRANCH  55  69
ATOM     69  C   UNL A   1      39.793  29.077  29.339  1.00  0.00     0.064 A 
ATOM     70  C   UNL A   1      38.840  29.488  28.393  1.00  0.00     0.173 A 
ATOM     71  C   UNL A   1      39.366  28.914  30.666  1.00  0.00     0.173 A 
ATOM     72  F   UNL A   1      39.191  29.658  27.110  1.00  0.00    -0.203 F 
ATOM     73  C   UNL A   1      37.530  29.773  28.770  1.00  0.00     0.198 A 
ATOM     74  C   UNL A   1      38.045  29.162  31.032  1.00  0.00     0.198 A 
ATOM     75  F   UNL A   1      40.226  28.504  31.610  1.00  0.00    -0.203 F 
ATOM     76  F   UNL A   1      36.657  30.227  27.859  1.00  0.00    -0.200 F 
ATOM     77  C   UNL A   1      37.132  29.603  30.087  1.00  0.00     0.200 A 
ATOM     78  F   UNL A   1      37.655  28.973  32.300  1.00  0.00    -0.200 F 
ATOM     79  F   UNL A   1      35.868  29.872  30.446  1.00  0.00    -0.200 F 
ENDBRANCH  55  69
BRANCH  56  80
ATOM     80  C   UNL A   1      48.964  26.913  26.229  1.00  0.00     0.064 A 
ATOM     81  C   UNL A   1      49.357  27.135  24.900  1.00  0.00     0.173 A 
ATOM     82  C   UNL A   1      49.912  26.358  27.101  1.00  0.00     0.173 A 
ATOM     83  F   UNL A   1      48.480  27.637  24.017  1.00  0.00    -0.203 F 
ATOM     84  C   UNL A   1      50.633  26.791  24.455  1.00  0.00     0.198 A 
ATOM     85  C   UNL A   1      51.198  26.045  26.663  1.00  0.00     0.198 A 
ATOM     86  F   UNL A   1      49.590  26.125  28.382  1.00  0.00    -0.203 F 
ATOM     87  F   UNL A   1      50.959  26.961  23.167  1.00  0.00    -0.200 F 
ATOM     88  C   UNL A   1      51.554  26.252  25.339  1.00  0.00     0.200 A 
ATOM     89  F   UNL A   1      52.090  25.538  27.524  1.00  0.00    -0.200 F 
ATOM     90  F   UNL A   1      52.780  25.922  24.913  1.00  0.00    -0.200 F 
ENDBRANCH  56  80
BRANCH  68  91
ATOM     91  C   UNL A   1      46.168  32.460  29.374  1.00  0.00     0.064 A 
ATOM     92  C   UNL A   1      46.724  32.602  30.656  1.00  0.00     0.173 A 
ATOM     93  C   UNL A   1      46.192  33.579  28.526  1.00  0.00     0.173 A 
ATOM     94  F   UNL A   1      46.717  31.570  31.513  1.00  0.00    -0.203 F 
ATOM     95  C   UNL A   1      47.247  33.823  31.081  1.00  0.00     0.198 A 
ATOM     96  C   UNL A   1      46.748  34.787  28.942  1.00  0.00     0.198 A 
ATOM     97  F   UNL A   1      45.683  33.501  27.288  1.00  0.00    -0.203 F 
ATOM     98  F   UNL A   1      47.716  33.949  32.330  1.00  0.00    -0.200 F 
ATOM     99  C   UNL A   1      47.264  34.911  30.222  1.00  0.00     0.200 A 
ATOM    100  F   UNL A   1      46.780  35.832  28.104  1.00  0.00    -0.200 F 
ATOM    101  F   UNL A   1      47.772  36.081  30.632  1.00  0.00    -0.200 F 
ENDBRANCH  68  91
ENDBRANCH  42  43
ENDBRANCH  34  37
ENDBRANCH  32  33
ENDBRANCH  31  32
ENDBRANCH  30  31
ENDBRANCH   1  30
TORSDOF 17
ENDMDL
MODEL 3
REMARK VINA RESULT:     -12.7      5.096     10.579
REMARK SMILES CC[C@](NC(=O)c1cccc(CS(C)(=O)=O)c1)(C(=O)NCCCCNC(=O)c1ccc(-c2c3nc(c(-c4c(F)c(F)c(F)c(F)c4F)c4ccc([nH]4)c(-c4c(F)c(F)c(F)c(F)c4F)c4nc(c(-c5c(F)c(F)c(F)c(F)c5F)c5ccc2[nH]5)C=C4)C=C3)cc1)c1ccccc1
REMARK SMILES IDX 21 1 20 2 18 3 19 4 3 6 2 7 1 8 91 9 92 10 96 11 93 12 95 13
REMARK SMILES IDX 94 14 4 15 5 16 6 18 7 19 8 20 17 21 9 22 11 23 10 24 12 25
REMARK SMILES IDX 13 26 14 27 15 28 16 29 22 30 23 31 24 32 25 33 26 34 27 36
REMARK SMILES IDX 28 37 29 38 90 39 30 40 89 41 31 42 32 43 33 44 83 45 34 46
REMARK SMILES IDX 88 47 82 48 84 49 35 50 87 51 81 52 80 53 36 55 68 56 48 57
REMARK SMILES IDX 67 58 49 59 52 60 66 61 85 62 50 63 51 64 65 66 86 67 53 68
REMARK SMILES IDX 37 69 38 70 46 71 39 72 40 73 44 74 47 75 41 76 42 77 45 78
REMARK SMILES IDX 43 79 69 80 70 81 78 82 71 83 72 84 76 85 79 86 73 87 74 88
REMARK SMILES IDX 77 89 75 90 54 91 55 92 63 93 56 94 57 95 61 96 64 97 58 98
REMARK SMILES IDX 59 99 62 100 60 101
REMARK H PARENT 20 5 4 17 25 35 84 54 52 65
REMARK Flexibility Score: inf
ROOT
ATOM      1  C   UNL A   1      31.726  29.401  25.818  1.00  0.00     0.116 C 
ENDROOT
BRANCH   1   2
ATOM      2  N   UNL A   1      32.959  28.992  25.157  1.00  0.00    -0.354 N 
ATOM      3  C   UNL A   1      33.364  27.957  24.357  1.00  0.00     0.250 C 
ATOM      4  O   UNL A   1      34.391  28.211  23.707  1.00  0.00    -0.272 OA
ATOM      5  H   UNL A   1      33.692  29.626  25.332  1.00  0.00     0.163 HD
BRANCH   3   6
ATOM      6  C   UNL A   1      32.664  26.552  24.241  1.00  0.00     0.144 C 
BRANCH   6   7
ATOM      7  C   UNL A   1      31.808  26.629  22.904  1.00  0.00     0.040 C 
ATOM      8  C   UNL A   1      31.036  27.900  22.569  1.00  0.00     0.007 C 
ENDBRANCH   6   7
BRANCH   6   9
ATOM      9  C   UNL A   1      33.718  25.399  23.973  1.00  0.00    -0.013 A 
ATOM     10  C   UNL A   1      34.743  25.064  24.879  1.00  0.00     0.007 A 
ATOM     11  C   UNL A   1      33.603  24.576  22.824  1.00  0.00     0.007 A 
ATOM     12  C   UNL A   1      35.562  23.940  24.680  1.00  0.00     0.000 A 
ATOM     13  C   UNL A   1      34.406  23.443  22.639  1.00  0.00     0.000 A 
ATOM     14  C   UNL A   1      35.381  23.119  23.572  1.00  0.00     0.000 A 
ENDBRANCH   6   9
BRANCH   6  15
ATOM     15  N   UNL A   1      31.770  26.153  25.372  1.00  0.00    -0.334 N 
ATOM     16  C   UNL A   1      31.216  25.018  25.924  1.00  0.00     0.252 C 
ATOM     17  H   UNL A   1      31.491  26.948  25.881  1.00  0.00     0.165 HD
ATOM     18  O   UNL A   1      30.118  25.202  26.464  1.00  0.00    -0.269 OA
BRANCH  16  19
ATOM     19  C   UNL A   1      31.814  23.648  26.057  1.00  0.00     0.040 A 
ATOM     20  C   UNL A   1      32.537  23.357  27.227  1.00  0.00     0.014 A 
ATOM     21  C   UNL A   1      31.790  22.647  25.093  1.00  0.00     0.018 A 
ATOM     22  C   UNL A   1      33.214  22.139  27.381  1.00  0.00     0.001 A 
ATOM     23  C   UNL A   1      32.525  21.446  25.172  1.00  0.00    -0.032 A 
ATOM     24  C   UNL A   1      33.212  21.189  26.358  1.00  0.00     0.005 A 
BRANCH  23  25
ATOM     25  C   UNL A   1      32.409  20.445  24.044  1.00  0.00     0.172 C 
BRANCH  25  26
ATOM     26  S   UNL A   1      32.924  18.772  24.424  1.00  0.00     0.151 S 
ATOM     27  C   UNL A   1      32.534  17.726  23.040  1.00  0.00     0.158 C 
ATOM     28  O   UNL A   1      34.377  18.781  24.528  1.00  0.00    -0.229 OA
ATOM     29  O   UNL A   1      32.150  18.311  25.558  1.00  0.00    -0.229 OA
ENDBRANCH  25  26
ENDBRANCH  23  25
ENDBRANCH  16  19
ENDBRANCH   6  15
ENDBRANCH   3   6
ENDBRANCH   1   2
BRANCH   1  30
ATOM     30  C   UNL A   1      31.151  30.804  25.588  1.00  0.00     0.023 C 
BRANCH  30  31
ATOM     31  C   UNL A   1      31.131  31.844  26.714  1.00  0.00     0.023 C 
BRANCH  31  32
ATOM     32  C   UNL A   1      32.404  32.628  27.001  1.00  0.00     0.116 C 
BRANCH  32  33
ATOM     33  N   UNL A   1      32.224  33.968  27.506  1.00  0.00    -0.352 N 
ATOM     34  C   UNL A   1      33.016  34.625  28.425  1.00  0.00     0.251 C 
ATOM     35  H   UNL A   1      31.451  34.468  27.156  1.00  0.00     0.163 HD
ATOM     36  O   UNL A   1      32.730  35.771  28.765  1.00  0.00    -0.269 OA
BRANCH  34  37
ATOM     37  C   UNL A   1      34.184  33.951  29.064  1.00  0.00     0.039 A 
ATOM     38  C   UNL A   1      35.463  34.258  28.593  1.00  0.00     0.014 A 
ATOM     39  C   UNL A   1      34.051  32.995  30.073  1.00  0.00     0.014 A 
ATOM     40  C   UNL A   1      36.595  33.635  29.143  1.00  0.00     0.010 A 
ATOM     41  C   UNL A   1      35.194  32.423  30.666  1.00  0.00     0.010 A 
ATOM     42  C   UNL A   1      36.488  32.722  30.208  1.00  0.00    -0.014 A 
BRANCH  42  43
ATOM     43  C   UNL A   1      37.720  32.091  30.801  1.00  0.00     0.031 A 
ATOM     44  C   UNL A   1      38.191  32.431  32.201  1.00  0.00     0.074 A 
ATOM     45  C   UNL A   1      38.444  31.194  30.093  1.00  0.00     0.049 A 
ATOM     46  N   UNL A   1      39.181  31.913  32.895  1.00  0.00    -0.248 NA
ATOM     47  C   UNL A   1      37.486  33.511  32.903  1.00  0.00     0.031 C 
ATOM     48  C   UNL A   1      38.190  30.805  28.705  1.00  0.00     0.029 A 
ATOM     49  N   UNL A   1      39.535  30.429  30.450  1.00  0.00    -0.354 N 
ATOM     50  C   UNL A   1      39.223  32.618  34.094  1.00  0.00     0.074 A 
ATOM     51  C   UNL A   1      38.210  33.646  34.004  1.00  0.00     0.031 C 
ATOM     52  C   UNL A   1      39.049  29.834  28.352  1.00  0.00     0.029 A 
ATOM     53  C   UNL A   1      39.942  29.548  29.472  1.00  0.00     0.049 A 
ATOM     54  H   UNL A   1      39.982  30.504  31.323  1.00  0.00     0.167 HD
ATOM     55  C   UNL A   1      39.999  32.416  35.189  1.00  0.00     0.037 A 
ATOM     56  C   UNL A   1      40.907  28.605  29.472  1.00  0.00     0.037 A 
ATOM     57  C   UNL A   1      40.987  31.375  35.317  1.00  0.00     0.049 A 
ATOM     58  C   UNL A   1      41.744  28.381  30.707  1.00  0.00     0.074 A 
ATOM     59  C   UNL A   1      41.750  31.041  36.424  1.00  0.00     0.029 A 
ATOM     60  N   UNL A   1      41.358  30.505  34.304  1.00  0.00    -0.354 N 
ATOM     61  N   UNL A   1      41.683  28.976  31.872  1.00  0.00    -0.248 NA
ATOM     62  C   UNL A   1      42.779  27.337  30.627  1.00  0.00     0.031 C 
ATOM     63  C   UNL A   1      42.625  30.010  36.064  1.00  0.00     0.029 A 
ATOM     64  C   UNL A   1      42.359  29.655  34.752  1.00  0.00     0.049 A 
ATOM     65  H   UNL A   1      40.968  30.492  33.400  1.00  0.00     0.167 HD
ATOM     66  C   UNL A   1      42.637  28.355  32.671  1.00  0.00     0.074 A 
ATOM     67  C   UNL A   1      43.253  27.326  31.863  1.00  0.00     0.031 C 
ATOM     68  C   UNL A   1      42.967  28.618  33.959  1.00  0.00     0.037 A 
BRANCH  55  69
ATOM     69  C   UNL A   1      39.805  33.343  36.361  1.00  0.00     0.064 A 
ATOM     70  C   UNL A   1      38.929  33.030  37.413  1.00  0.00     0.173 A 
ATOM     71  C   UNL A   1      40.530  34.542  36.452  1.00  0.00     0.173 A 
ATOM     72  F   UNL A   1      38.213  31.896  37.380  1.00  0.00    -0.203 F 
ATOM     73  C   UNL A   1      38.749  33.903  38.483  1.00  0.00     0.198 A 
ATOM     74  C   UNL A   1      40.377  35.393  37.543  1.00  0.00     0.198 A 
ATOM     75  F   UNL A   1      41.396  34.885  35.487  1.00  0.00    -0.203 F 
ATOM     76  F   UNL A   1      37.858  33.610  39.441  1.00  0.00    -0.200 F 
ATOM     77  C   UNL A   1      39.478  35.080  38.551  1.00  0.00     0.200 A 
ATOM     78  F   UNL A   1      41.100  36.519  37.620  1.00  0.00    -0.200 F 
ATOM     79  F   UNL A   1      39.308  35.916  39.585  1.00  0.00    -0.200 F 
ENDBRANCH  55  69
BRANCH  56  80
ATOM     80  C   UNL A   1      41.112  27.743  28.274  1.00  0.00     0.064 A 
ATOM     81  C   UNL A   1      40.466  26.502  28.161  1.00  0.00     0.173 A 
ATOM     82  C   UNL A   1      41.983  28.118  27.240  1.00  0.00     0.173 A 
ATOM     83  F   UNL A   1      39.646  26.082  29.136  1.00  0.00    -0.203 F 
ATOM     84  C   UNL A   1      40.702  25.660  27.074  1.00  0.00     0.198 A 
ATOM     85  C   UNL A   1      42.192  27.290  26.138  1.00  0.00     0.198 A 
ATOM     86  F   UNL A   1      42.625  29.294  27.297  1.00  0.00    -0.203 F 
ATOM     87  F   UNL A   1      40.116  24.457  27.023  1.00  0.00    -0.200 F 
ATOM     88  C   UNL A   1      41.561  26.058  26.061  1.00  0.00     0.200 A 
ATOM     89  F   UNL A   1      43.010  27.685  25.154  1.00  0.00    -0.200 F 
ATOM     90  F   UNL A   1      41.787  25.251  25.017  1.00  0.00    -0.200 F 
ENDBRANCH  56  80
BRANCH  68  91
ATOM     91  C   UNL A   1      44.007  27.745  34.607  1.00  0.00     0.064 A 
ATOM     92  C   UNL A   1      45.367  28.091  34.624  1.00  0.00     0.173 A 
ATOM     93  C   UNL A   1      43.631  26.553  35.248  1.00  0.00     0.173 A 
ATOM     94  F   UNL A   1      45.786  29.212  34.018  1.00  0.00    -0.203 F 
ATOM     95  C   UNL A   1      46.313  27.261  35.224  1.00  0.00     0.198 A 
ATOM     96  C   UNL A   1      44.575  25.744  35.878  1.00  0.00     0.198 A 
ATOM     97  F   UNL A   1      42.345  26.173  35.271  1.00  0.00    -0.203 F 
ATOM     98  F   UNL A   1      47.613  27.584  35.173  1.00  0.00    -0.200 F 
ATOM     99  C   UNL A   1      45.916  26.093  35.855  1.00  0.00     0.200 A 
ATOM    100  F   UNL A   1      44.185  24.623  36.502  1.00  0.00    -0.200 F 
ATOM    101  F   UNL A   1      46.826  25.299  36.435  1.00  0.00    -0.200 F 
ENDBRANCH  68  91
ENDBRANCH  42  43
ENDBRANCH  34  37
ENDBRANCH  32  33
ENDBRANCH  31  32
ENDBRANCH  30  31
ENDBRANCH   1  30
TORSDOF 17
ENDMDL
