MODEL 1
REMARK VINA RESULT:     -11.3      0.000      0.000
REMARK SMILES CN(C)c1cc(C(F)(F)F)cc(-c2cccc(/C=C/C(=O)NCCCCNC(=O)c3ccc(-c4c5nc(c(-c6c(F)c(F)c(F)c(F)c6F)c6ccc([nH]6)c(-c6c(F)c(F)c(F)c(F)c6F)c6nc(c(-c7c(F)c(F)c(F)c(F)c7F)c7ccc4[nH]7)C=C6)C=C5)cc3)c2)n1
REMARK SMILES IDX 24 1 23 2 22 3 20 4 21 5 19 7 18 8 17 9 13 10 14 11 93 12
REMARK SMILES IDX 15 13 16 14 12 15 4 16 5 17 94 18 6 19 11 20 2 21 1 22 3 23
REMARK SMILES IDX 7 24 8 25 9 26 10 27 25 28 26 29 27 30 28 31 29 33 30 34
REMARK SMILES IDX 31 35 92 36 32 37 91 38 33 39 34 40 35 41 85 42 36 43 90 44
REMARK SMILES IDX 84 45 86 46 37 47 89 48 83 49 82 50 38 52 70 53 50 54 69 55
REMARK SMILES IDX 51 56 54 57 68 58 87 59 52 60 53 61 67 63 88 64 55 65 39 66
REMARK SMILES IDX 40 67 48 68 41 69 42 70 46 71 49 72 43 73 44 74 47 75 45 76
REMARK SMILES IDX 71 77 72 78 80 79 73 80 74 81 78 82 81 83 75 84 76 85 79 86
REMARK SMILES IDX 77 87 56 88 57 89 65 90 58 91 59 92 63 93 66 94 60 95 61 96
REMARK SMILES IDX 64 97 62 98
REMARK H PARENT 22 6 27 32 86 51 54 62
REMARK Flexibility Score: inf
ROOT
ATOM      1  C   UNL A   1      47.017  25.929  32.423  1.00  0.00     0.023 C 
ENDROOT
BRANCH   1   2
ATOM      2  C   UNL A   1      47.785  26.816  31.441  1.00  0.00     0.116 C 
BRANCH   2   3
ATOM      3  N   UNL A   1      47.016  27.991  31.075  1.00  0.00    -0.353 N 
ATOM      4  C   UNL A   1      46.432  28.324  29.890  1.00  0.00     0.243 C 
ATOM      5  O   UNL A   1      45.715  29.319  29.821  1.00  0.00    -0.270 OA
ATOM      6  H   UNL A   1      46.897  28.651  31.796  1.00  0.00     0.163 HD
BRANCH   4   7
ATOM      7  C   UNL A   1      46.580  27.450  28.705  1.00  0.00     0.072 C 
ATOM      8  C   UNL A   1      45.612  26.633  28.268  1.00  0.00     0.014 C 
BRANCH   8   9
ATOM      9  C   UNL A   1      45.733  25.752  27.103  1.00  0.00    -0.025 A 
ATOM     10  C   UNL A   1      45.082  23.659  26.014  1.00  0.00     0.001 A 
ATOM     11  C   UNL A   1      46.024  23.917  25.008  1.00  0.00     0.010 A 
ATOM     12  C   UNL A   1      44.951  24.588  27.059  1.00  0.00     0.018 A 
ATOM     13  C   UNL A   1      46.801  25.078  25.037  1.00  0.00     0.001 A 
ATOM     14  C   UNL A   1      46.658  25.990  26.081  1.00  0.00     0.008 A 
BRANCH  10  15
ATOM     15  C   UNL A   1      44.278  22.434  25.994  1.00  0.00     0.073 A 
ATOM     16  C   UNL A   1      44.176  20.207  25.287  1.00  0.00     0.129 A 
ATOM     17  C   UNL A   1      42.923  20.071  25.879  1.00  0.00     0.060 A 
ATOM     18  N   UNL A   1      44.838  21.380  25.356  1.00  0.00    -0.231 NA
ATOM     19  C   UNL A   1      42.341  21.148  26.558  1.00  0.00     0.061 A 
ATOM     20  C   UNL A   1      43.038  22.356  26.611  1.00  0.00     0.042 A 
BRANCH  16  21
ATOM     21  N   UNL A   1      44.787  19.129  24.655  1.00  0.00    -0.363 N 
ATOM     22  C   UNL A   1      44.921  19.166  23.208  1.00  0.00     0.144 C 
ATOM     23  C   UNL A   1      45.822  18.447  25.417  1.00  0.00     0.144 C 
ENDBRANCH  16  21
BRANCH  19  24
ATOM     24  C   UNL A   1      41.016  21.006  27.252  1.00  0.00     0.416 C 
ATOM     25  F   UNL A   1      40.738  22.071  28.054  1.00  0.00    -0.166 F 
ATOM     26  F   UNL A   1      39.976  20.918  26.376  1.00  0.00    -0.166 F 
ATOM     27  F   UNL A   1      40.928  19.904  28.047  1.00  0.00    -0.166 F 
ENDBRANCH  19  24
ENDBRANCH  10  15
ENDBRANCH   8   9
ENDBRANCH   4   7
ENDBRANCH   2   3
ENDBRANCH   1   2
BRANCH   1  28
ATOM     28  C   UNL A   1      47.899  25.156  33.407  1.00  0.00     0.023 C 
BRANCH  28  29
ATOM     29  C   UNL A   1      47.143  24.337  34.446  1.00  0.00     0.116 C 
BRANCH  29  30
ATOM     30  N   UNL A   1      47.436  24.722  35.818  1.00  0.00    -0.352 N 
ATOM     31  C   UNL A   1      46.863  25.733  36.557  1.00  0.00     0.251 C 
ATOM     32  H   UNL A   1      48.130  24.195  36.275  1.00  0.00     0.163 HD
ATOM     33  O   UNL A   1      47.274  26.004  37.676  1.00  0.00    -0.269 OA
BRANCH  31  34
ATOM     34  C   UNL A   1      45.769  26.522  35.956  1.00  0.00     0.039 A 
ATOM     35  C   UNL A   1      46.067  27.762  35.385  1.00  0.00     0.014 A 
ATOM     36  C   UNL A   1      44.470  26.013  35.909  1.00  0.00     0.014 A 
ATOM     37  C   UNL A   1      45.073  28.461  34.698  1.00  0.00     0.010 A 
ATOM     38  C   UNL A   1      43.497  26.679  35.172  1.00  0.00     0.010 A 
ATOM     39  C   UNL A   1      43.793  27.905  34.553  1.00  0.00    -0.014 A 
BRANCH  39  40
ATOM     40  C   UNL A   1      42.738  28.576  33.755  1.00  0.00     0.031 A 
ATOM     41  C   UNL A   1      41.786  29.524  34.425  1.00  0.00     0.074 A 
ATOM     42  C   UNL A   1      42.577  28.256  32.458  1.00  0.00     0.049 A 
ATOM     43  N   UNL A   1      40.712  30.097  33.947  1.00  0.00    -0.248 NA
ATOM     44  C   UNL A   1      42.064  29.844  35.834  1.00  0.00     0.031 C 
ATOM     45  C   UNL A   1      43.410  27.317  31.706  1.00  0.00     0.029 A 
ATOM     46  N   UNL A   1      41.637  28.669  31.546  1.00  0.00    -0.354 N 
ATOM     47  C   UNL A   1      40.172  30.821  35.002  1.00  0.00     0.074 A 
ATOM     48  C   UNL A   1      41.014  30.585  36.155  1.00  0.00     0.031 C 
ATOM     49  C   UNL A   1      42.952  27.233  30.447  1.00  0.00     0.029 A 
ATOM     50  C   UNL A   1      41.771  28.079  30.312  1.00  0.00     0.049 A 
ATOM     51  H   UNL A   1      40.934  29.326  31.756  1.00  0.00     0.167 HD
ATOM     52  C   UNL A   1      39.081  31.623  35.001  1.00  0.00     0.037 A 
ATOM     53  C   UNL A   1      41.016  28.200  29.204  1.00  0.00     0.037 A 
ATOM     54  C   UNL A   1      38.268  31.883  33.843  1.00  0.00     0.049 A 
ATOM     55  C   UNL A   1      39.818  29.110  29.226  1.00  0.00     0.074 A 
ATOM     56  C   UNL A   1      37.177  32.726  33.723  1.00  0.00     0.029 A 
ATOM     57  N   UNL A   1      38.463  31.302  32.598  1.00  0.00    -0.354 N 
ATOM     58  N   UNL A   1      39.345  29.830  30.213  1.00  0.00    -0.248 NA
ATOM     59  C   UNL A   1      39.053  29.228  27.976  1.00  0.00     0.031 C 
ATOM     60  C   UNL A   1      36.691  32.632  32.415  1.00  0.00     0.029 A 
ATOM     61  C   UNL A   1      37.505  31.761  31.707  1.00  0.00     0.049 A 
ATOM     62  H   UNL A   1      39.176  30.660  32.379  1.00  0.00     0.167 HD
ATOM     63  C   UNL A   1      38.248  30.508  29.700  1.00  0.00     0.074 A 
ATOM     64  C   UNL A   1      38.129  30.119  28.309  1.00  0.00     0.031 C 
ATOM     65  C   UNL A   1      37.415  31.376  30.323  1.00  0.00     0.037 A 
BRANCH  52  66
ATOM     66  C   UNL A   1      38.706  32.278  36.297  1.00  0.00     0.064 A 
ATOM     67  C   UNL A   1      37.985  31.591  37.285  1.00  0.00     0.173 A 
ATOM     68  C   UNL A   1      39.093  33.600  36.566  1.00  0.00     0.173 A 
ATOM     69  F   UNL A   1      37.580  30.330  37.071  1.00  0.00    -0.203 F 
ATOM     70  C   UNL A   1      37.638  32.214  38.481  1.00  0.00     0.198 A 
ATOM     71  C   UNL A   1      38.769  34.209  37.775  1.00  0.00     0.198 A 
ATOM     72  F   UNL A   1      39.788  34.299  35.656  1.00  0.00    -0.203 F 
ATOM     73  F   UNL A   1      36.904  31.554  39.388  1.00  0.00    -0.200 F 
ATOM     74  C   UNL A   1      38.035  33.519  38.728  1.00  0.00     0.200 A 
ATOM     75  F   UNL A   1      39.163  35.467  38.017  1.00  0.00    -0.200 F 
ATOM     76  F   UNL A   1      37.704  34.115  39.881  1.00  0.00    -0.200 F 
ENDBRANCH  52  66
BRANCH  53  77
ATOM     77  C   UNL A   1      41.386  27.456  27.973  1.00  0.00     0.064 A 
ATOM     78  C   UNL A   1      40.752  26.248  27.649  1.00  0.00     0.173 A 
ATOM     79  C   UNL A   1      42.373  27.933  27.098  1.00  0.00     0.173 A 
ATOM     80  F   UNL A   1      39.817  25.744  28.467  1.00  0.00    -0.203 F 
ATOM     81  C   UNL A   1      41.103  25.536  26.504  1.00  0.00     0.198 A 
ATOM     82  C   UNL A   1      42.705  27.232  25.941  1.00  0.00     0.198 A 
ATOM     83  F   UNL A   1      43.004  29.086  27.361  1.00  0.00    -0.203 F 
ATOM     84  F   UNL A   1      40.509  24.365  26.240  1.00  0.00    -0.200 F 
ATOM     85  C   UNL A   1      42.075  26.031  25.648  1.00  0.00     0.200 A 
ATOM     86  F   UNL A   1      43.636  27.719  25.109  1.00  0.00    -0.200 F 
ATOM     87  F   UNL A   1      42.409  25.347  24.545  1.00  0.00    -0.200 F 
ENDBRANCH  53  77
BRANCH  65  88
ATOM     88  C   UNL A   1      36.330  32.002  29.498  1.00  0.00     0.064 A 
ATOM     89  C   UNL A   1      35.251  31.251  29.011  1.00  0.00     0.173 A 
ATOM     90  C   UNL A   1      36.348  33.380  29.236  1.00  0.00     0.173 A 
ATOM     91  F   UNL A   1      35.199  29.928  29.223  1.00  0.00    -0.203 F 
ATOM     92  C   UNL A   1      34.236  31.856  28.275  1.00  0.00     0.198 A 
ATOM     93  C   UNL A   1      35.318  33.986  28.522  1.00  0.00     0.198 A 
ATOM     94  F   UNL A   1      37.357  34.141  29.686  1.00  0.00    -0.203 F 
ATOM     95  F   UNL A   1      33.232  31.115  27.786  1.00  0.00    -0.200 F 
ATOM     96  C   UNL A   1      34.266  33.223  28.038  1.00  0.00     0.200 A 
ATOM     97  F   UNL A   1      35.344  35.307  28.303  1.00  0.00    -0.200 F 
ATOM     98  F   UNL A   1      33.283  33.805  27.337  1.00  0.00    -0.200 F 
ENDBRANCH  65  88
ENDBRANCH  39  40
ENDBRANCH  31  34
ENDBRANCH  29  30
ENDBRANCH  28  29
ENDBRANCH   1  28
TORSDOF 15
ENDMDL
MODEL 2
REMARK VINA RESULT:     -10.8      4.668      9.691
REMARK SMILES CN(C)c1cc(C(F)(F)F)cc(-c2cccc(/C=C/C(=O)NCCCCNC(=O)c3ccc(-c4c5nc(c(-c6c(F)c(F)c(F)c(F)c6F)c6ccc([nH]6)c(-c6c(F)c(F)c(F)c(F)c6F)c6nc(c(-c7c(F)c(F)c(F)c(F)c7F)c7ccc4[nH]7)C=C6)C=C5)cc3)c2)n1
REMARK SMILES IDX 24 1 23 2 22 3 20 4 21 5 19 7 18 8 17 9 13 10 14 11 93 12
REMARK SMILES IDX 15 13 16 14 12 15 4 16 5 17 94 18 6 19 11 20 2 21 1 22 3 23
REMARK SMILES IDX 7 24 8 25 9 26 10 27 25 28 26 29 27 30 28 31 29 33 30 34
REMARK SMILES IDX 31 35 92 36 32 37 91 38 33 39 34 40 35 41 85 42 36 43 90 44
REMARK SMILES IDX 84 45 86 46 37 47 89 48 83 49 82 50 38 52 70 53 50 54 69 55
REMARK SMILES IDX 51 56 54 57 68 58 87 59 52 60 53 61 67 63 88 64 55 65 39 66
REMARK SMILES IDX 40 67 48 68 41 69 42 70 46 71 49 72 43 73 44 74 47 75 45 76
REMARK SMILES IDX 71 77 72 78 80 79 73 80 74 81 78 82 81 83 75 84 76 85 79 86
REMARK SMILES IDX 77 87 56 88 57 89 65 90 58 91 59 92 63 93 66 94 60 95 61 96
REMARK SMILES IDX 64 97 62 98
REMARK H PARENT 22 6 27 32 86 51 54 62
REMARK Flexibility Score: inf
ROOT
ATOM      1  C   UNL A   1      42.319  19.690  27.192  1.00  0.00     0.023 C 
ENDROOT
BRANCH   1   2
ATOM      2  C   UNL A   1      42.356  19.168  25.754  1.00  0.00     0.116 C 
BRANCH   2   3
ATOM      3  N   UNL A   1      43.646  18.586  25.434  1.00  0.00    -0.353 N 
ATOM      4  C   UNL A   1      44.789  19.178  24.987  1.00  0.00     0.243 C 
ATOM      5  O   UNL A   1      45.821  18.518  24.890  1.00  0.00    -0.270 OA
ATOM      6  H   UNL A   1      43.705  17.611  25.558  1.00  0.00     0.163 HD
BRANCH   4   7
ATOM      7  C   UNL A   1      44.824  20.630  24.701  1.00  0.00     0.072 C 
ATOM      8  C   UNL A   1      45.139  21.553  25.620  1.00  0.00     0.014 C 
BRANCH   8   9
ATOM      9  C   UNL A   1      45.175  22.996  25.367  1.00  0.00    -0.025 A 
ATOM     10  C   UNL A   1      46.530  24.995  24.966  1.00  0.00     0.001 A 
ATOM     11  C   UNL A   1      45.366  25.772  25.051  1.00  0.00     0.010 A 
ATOM     12  C   UNL A   1      46.417  23.604  25.130  1.00  0.00     0.018 A 
ATOM     13  C   UNL A   1      44.123  25.176  25.277  1.00  0.00     0.001 A 
ATOM     14  C   UNL A   1      44.028  23.794  25.437  1.00  0.00     0.008 A 
BRANCH  10  15
ATOM     15  C   UNL A   1      47.837  25.619  24.745  1.00  0.00     0.073 A 
ATOM     16  C   UNL A   1      49.099  27.001  23.343  1.00  0.00     0.129 A 
ATOM     17  C   UNL A   1      50.196  26.870  24.192  1.00  0.00     0.060 A 
ATOM     18  N   UNL A   1      47.936  26.381  23.631  1.00  0.00    -0.231 NA
ATOM     19  C   UNL A   1      50.099  26.099  25.356  1.00  0.00     0.061 A 
ATOM     20  C   UNL A   1      48.891  25.458  25.632  1.00  0.00     0.042 A 
BRANCH  16  21
ATOM     21  N   UNL A   1      49.167  27.806  22.210  1.00  0.00    -0.363 N 
ATOM     22  C   UNL A   1      50.297  27.635  21.311  1.00  0.00     0.144 C 
ATOM     23  C   UNL A   1      47.891  28.201  21.632  1.00  0.00     0.144 C 
ENDBRANCH  16  21
BRANCH  19  24
ATOM     24  C   UNL A   1      51.252  25.989  26.314  1.00  0.00     0.416 C 
ATOM     25  F   UNL A   1      50.959  25.198  27.383  1.00  0.00    -0.166 F 
ATOM     26  F   UNL A   1      52.358  25.442  25.737  1.00  0.00    -0.166 F 
ATOM     27  F   UNL A   1      51.652  27.184  26.829  1.00  0.00    -0.166 F 
ENDBRANCH  19  24
ENDBRANCH  10  15
ENDBRANCH   8   9
ENDBRANCH   4   7
ENDBRANCH   2   3
ENDBRANCH   1   2
BRANCH   1  28
ATOM     28  C   UNL A   1      42.245  21.214  27.314  1.00  0.00     0.023 C 
BRANCH  28  29
ATOM     29  C   UNL A   1      40.927  21.754  27.857  1.00  0.00     0.116 C 
BRANCH  29  30
ATOM     30  N   UNL A   1      39.823  21.655  26.914  1.00  0.00    -0.352 N 
ATOM     31  C   UNL A   1      39.019  22.667  26.440  1.00  0.00     0.251 C 
ATOM     32  H   UNL A   1      39.627  20.753  26.574  1.00  0.00     0.163 HD
ATOM     33  O   UNL A   1      38.064  22.423  25.716  1.00  0.00    -0.269 OA
BRANCH  31  34
ATOM     34  C   UNL A   1      39.298  24.055  26.860  1.00  0.00     0.039 A 
ATOM     35  C   UNL A   1      38.909  24.464  28.138  1.00  0.00     0.014 A 
ATOM     36  C   UNL A   1      39.989  24.926  26.015  1.00  0.00     0.014 A 
ATOM     37  C   UNL A   1      39.280  25.727  28.600  1.00  0.00     0.010 A 
ATOM     38  C   UNL A   1      40.410  26.160  26.498  1.00  0.00     0.010 A 
ATOM     39  C   UNL A   1      40.067  26.568  27.797  1.00  0.00    -0.014 A 
BRANCH  39  40
ATOM     40  C   UNL A   1      40.554  27.880  28.288  1.00  0.00     0.031 A 
ATOM     41  C   UNL A   1      42.017  28.077  28.560  1.00  0.00     0.074 A 
ATOM     42  C   UNL A   1      39.671  28.852  28.583  1.00  0.00     0.049 A 
ATOM     43  N   UNL A   1      42.627  29.086  29.127  1.00  0.00    -0.248 NA
ATOM     44  C   UNL A   1      42.911  26.975  28.171  1.00  0.00     0.031 C 
ATOM     45  C   UNL A   1      38.222  28.764  28.402  1.00  0.00     0.029 A 
ATOM     46  N   UNL A   1      39.864  30.101  29.121  1.00  0.00    -0.354 N 
ATOM     47  C   UNL A   1      43.967  28.729  29.187  1.00  0.00     0.074 A 
ATOM     48  C   UNL A   1      44.077  27.396  28.635  1.00  0.00     0.031 C 
ATOM     49  C   UNL A   1      37.657  29.911  28.813  1.00  0.00     0.029 A 
ATOM     50  C   UNL A   1      38.698  30.799  29.321  1.00  0.00     0.049 A 
ATOM     51  H   UNL A   1      40.754  30.461  29.342  1.00  0.00     0.167 HD
ATOM     52  C   UNL A   1      45.013  29.457  29.646  1.00  0.00     0.037 A 
ATOM     53  C   UNL A   1      38.495  32.013  29.866  1.00  0.00     0.037 A 
ATOM     54  C   UNL A   1      44.903  30.796  30.162  1.00  0.00     0.049 A 
ATOM     55  C   UNL A   1      39.676  32.808  30.354  1.00  0.00     0.074 A 
ATOM     56  C   UNL A   1      45.909  31.640  30.597  1.00  0.00     0.029 A 
ATOM     57  N   UNL A   1      43.709  31.488  30.306  1.00  0.00    -0.354 N 
ATOM     58  N   UNL A   1      40.945  32.483  30.360  1.00  0.00    -0.248 NA
ATOM     59  C   UNL A   1      39.395  34.141  30.907  1.00  0.00     0.031 C 
ATOM     60  C   UNL A   1      45.322  32.832  31.035  1.00  0.00     0.029 A 
ATOM     61  C   UNL A   1      43.954  32.746  30.833  1.00  0.00     0.049 A 
ATOM     62  H   UNL A   1      42.820  31.139  30.068  1.00  0.00     0.167 HD
ATOM     63  C   UNL A   1      41.617  33.577  30.887  1.00  0.00     0.074 A 
ATOM     64  C   UNL A   1      40.615  34.580  31.183  1.00  0.00     0.031 C 
ATOM     65  C   UNL A   1      42.945  33.737  31.104  1.00  0.00     0.037 A 
BRANCH  52  66
ATOM     66  C   UNL A   1      46.368  28.815  29.611  1.00  0.00     0.064 A 
ATOM     67  C   UNL A   1      46.841  28.040  30.681  1.00  0.00     0.173 A 
ATOM     68  C   UNL A   1      47.194  28.955  28.486  1.00  0.00     0.173 A 
ATOM     69  F   UNL A   1      46.095  27.887  31.785  1.00  0.00    -0.203 F 
ATOM     70  C   UNL A   1      48.104  27.455  30.637  1.00  0.00     0.198 A 
ATOM     71  C   UNL A   1      48.444  28.345  28.434  1.00  0.00     0.198 A 
ATOM     72  F   UNL A   1      46.786  29.682  27.434  1.00  0.00    -0.203 F 
ATOM     73  F   UNL A   1      48.555  26.762  31.692  1.00  0.00    -0.200 F 
ATOM     74  C   UNL A   1      48.901  27.603  29.512  1.00  0.00     0.200 A 
ATOM     75  F   UNL A   1      49.209  28.479  27.342  1.00  0.00    -0.200 F 
ATOM     76  F   UNL A   1      50.115  27.036  29.471  1.00  0.00    -0.200 F 
ENDBRANCH  52  66
BRANCH  53  77
ATOM     77  C   UNL A   1      37.118  32.562  29.956  1.00  0.00     0.064 A 
ATOM     78  C   UNL A   1      36.556  33.264  28.880  1.00  0.00     0.173 A 
ATOM     79  C   UNL A   1      36.337  32.398  31.109  1.00  0.00     0.173 A 
ATOM     80  F   UNL A   1      37.273  33.464  27.765  1.00  0.00    -0.203 F 
ATOM     81  C   UNL A   1      35.271  33.797  28.960  1.00  0.00     0.198 A 
ATOM     82  C   UNL A   1      35.043  32.909  31.179  1.00  0.00     0.198 A 
ATOM     83  F   UNL A   1      36.828  31.730  32.163  1.00  0.00    -0.203 F 
ATOM     84  F   UNL A   1      34.774  34.497  27.933  1.00  0.00    -0.200 F 
ATOM     85  C   UNL A   1      34.514  33.614  30.108  1.00  0.00     0.200 A 
ATOM     86  F   UNL A   1      34.310  32.721  32.284  1.00  0.00    -0.200 F 
ATOM     87  F   UNL A   1      33.276  34.123  30.183  1.00  0.00    -0.200 F 
ENDBRANCH  53  77
BRANCH  65  88
ATOM     88  C   UNL A   1      43.399  35.060  31.646  1.00  0.00     0.064 A 
ATOM     89  C   UNL A   1      43.749  36.120  30.799  1.00  0.00     0.173 A 
ATOM     90  C   UNL A   1      43.435  35.280  33.031  1.00  0.00     0.173 A 
ATOM     91  F   UNL A   1      43.745  35.951  29.469  1.00  0.00    -0.203 F 
ATOM     92  C   UNL A   1      44.137  37.352  31.321  1.00  0.00     0.198 A 
ATOM     93  C   UNL A   1      43.798  36.520  33.549  1.00  0.00     0.198 A 
ATOM     94  F   UNL A   1      43.104  34.297  33.881  1.00  0.00    -0.203 F 
ATOM     95  F   UNL A   1      44.503  38.342  30.496  1.00  0.00    -0.200 F 
ATOM     96  C   UNL A   1      44.153  37.553  32.694  1.00  0.00     0.200 A 
ATOM     97  F   UNL A   1      43.803  36.716  34.874  1.00  0.00    -0.200 F 
ATOM     98  F   UNL A   1      44.517  38.742  33.194  1.00  0.00    -0.200 F 
ENDBRANCH  65  88
ENDBRANCH  39  40
ENDBRANCH  31  34
ENDBRANCH  29  30
ENDBRANCH  28  29
ENDBRANCH   1  28
TORSDOF 15
ENDMDL
MODEL 3
REMARK VINA RESULT:     -10.7      4.740     10.105
REMARK SMILES CN(C)c1cc(C(F)(F)F)cc(-c2cccc(/C=C/C(=O)NCCCCNC(=O)c3ccc(-c4c5nc(c(-c6c(F)c(F)c(F)c(F)c6F)c6ccc([nH]6)c(-c6c(F)c(F)c(F)c(F)c6F)c6nc(c(-c7c(F)c(F)c(F)c(F)c7F)c7ccc4[nH]7)C=C6)C=C5)cc3)c2)n1
REMARK SMILES IDX 24 1 23 2 22 3 20 4 21 5 19 7 18 8 17 9 13 10 14 11 93 12
REMARK SMILES IDX 15 13 16 14 12 15 4 16 5 17 94 18 6 19 11 20 2 21 1 22 3 23
REMARK SMILES IDX 7 24 8 25 9 26 10 27 25 28 26 29 27 30 28 31 29 33 30 34
REMARK SMILES IDX 31 35 92 36 32 37 91 38 33 39 34 40 35 41 85 42 36 43 90 44
REMARK SMILES IDX 84 45 86 46 37 47 89 48 83 49 82 50 38 52 70 53 50 54 69 55
REMARK SMILES IDX 51 56 54 57 68 58 87 59 52 60 53 61 67 63 88 64 55 65 39 66
REMARK SMILES IDX 40 67 48 68 41 69 42 70 46 71 49 72 43 73 44 74 47 75 45 76
REMARK SMILES IDX 71 77 72 78 80 79 73 80 74 81 78 82 81 83 75 84 76 85 79 86
REMARK SMILES IDX 77 87 56 88 57 89 65 90 58 91 59 92 63 93 66 94 60 95 61 96
REMARK SMILES IDX 64 97 62 98
REMARK H PARENT 22 6 27 32 86 51 54 62
REMARK Flexibility Score: inf
ROOT
ATOM      1  C   UNL A   1      32.713  34.258  28.402  1.00  0.00     0.023 C 
ENDROOT
BRANCH   1   2
ATOM      2  C   UNL A   1      32.985  33.022  27.543  1.00  0.00     0.116 C 
BRANCH   2   3
ATOM      3  N   UNL A   1      34.303  32.474  27.806  1.00  0.00    -0.353 N 
ATOM      4  C   UNL A   1      34.750  31.189  27.733  1.00  0.00     0.243 C 
ATOM      5  O   UNL A   1      35.946  30.950  27.881  1.00  0.00    -0.270 OA
ATOM      6  H   UNL A   1      34.981  33.134  28.079  1.00  0.00     0.163 HD
BRANCH   4   7
ATOM      7  C   UNL A   1      33.823  30.087  27.392  1.00  0.00     0.072 C 
ATOM      8  C   UNL A   1      34.225  28.931  26.848  1.00  0.00     0.014 C 
BRANCH   8   9
ATOM      9  C   UNL A   1      33.329  27.826  26.493  1.00  0.00    -0.025 A 
ATOM     10  C   UNL A   1      33.097  25.524  25.691  1.00  0.00     0.001 A 
ATOM     11  C   UNL A   1      31.709  25.711  25.628  1.00  0.00     0.010 A 
ATOM     12  C   UNL A   1      33.896  26.596  26.125  1.00  0.00     0.018 A 
ATOM     13  C   UNL A   1      31.134  26.928  26.002  1.00  0.00     0.001 A 
ATOM     14  C   UNL A   1      31.941  27.982  26.431  1.00  0.00     0.008 A 
BRANCH  10  15
ATOM     15  C   UNL A   1      33.704  24.255  25.284  1.00  0.00     0.073 A 
ATOM     16  C   UNL A   1      33.315  22.143  24.356  1.00  0.00     0.129 A 
ATOM     17  C   UNL A   1      34.671  21.842  24.458  1.00  0.00     0.060 A 
ATOM     18  N   UNL A   1      32.850  23.342  24.764  1.00  0.00    -0.231 NA
ATOM     19  C   UNL A   1      35.566  22.785  24.978  1.00  0.00     0.061 A 
ATOM     20  C   UNL A   1      35.065  24.016  25.403  1.00  0.00     0.042 A 
BRANCH  16  21
ATOM     21  N   UNL A   1      32.423  21.235  23.794  1.00  0.00    -0.363 N 
ATOM     22  C   UNL A   1      32.002  21.447  22.419  1.00  0.00     0.144 C 
ATOM     23  C   UNL A   1      32.526  19.864  24.270  1.00  0.00     0.144 C 
ENDBRANCH  16  21
BRANCH  19  24
ATOM     24  C   UNL A   1      37.040  22.502  25.045  1.00  0.00     0.416 C 
ATOM     25  F   UNL A   1      37.778  23.641  25.155  1.00  0.00    -0.166 F 
ATOM     26  F   UNL A   1      37.375  21.736  26.121  1.00  0.00    -0.166 F 
ATOM     27  F   UNL A   1      37.523  21.845  23.955  1.00  0.00    -0.166 F 
ENDBRANCH  19  24
ENDBRANCH  10  15
ENDBRANCH   8   9
ENDBRANCH   4   7
ENDBRANCH   2   3
ENDBRANCH   1   2
BRANCH   1  28
ATOM     28  C   UNL A   1      33.950  34.841  29.091  1.00  0.00     0.023 C 
BRANCH  28  29
ATOM     29  C   UNL A   1      33.765  36.235  29.678  1.00  0.00     0.116 C 
BRANCH  29  30
ATOM     30  N   UNL A   1      32.632  36.341  30.584  1.00  0.00    -0.352 N 
ATOM     31  C   UNL A   1      32.509  35.823  31.854  1.00  0.00     0.251 C 
ATOM     32  H   UNL A   1      31.856  36.845  30.247  1.00  0.00     0.163 HD
ATOM     33  O   UNL A   1      31.457  35.913  32.470  1.00  0.00    -0.269 OA
BRANCH  31  34
ATOM     34  C   UNL A   1      33.659  35.110  32.446  1.00  0.00     0.039 A 
ATOM     35  C   UNL A   1      33.485  33.794  32.882  1.00  0.00     0.014 A 
ATOM     36  C   UNL A   1      34.911  35.722  32.518  1.00  0.00     0.014 A 
ATOM     37  C   UNL A   1      34.589  33.063  33.322  1.00  0.00     0.010 A 
ATOM     38  C   UNL A   1      36.020  34.974  32.899  1.00  0.00     0.010 A 
ATOM     39  C   UNL A   1      35.870  33.636  33.296  1.00  0.00    -0.014 A 
BRANCH  39  40
ATOM     40  C   UNL A   1      37.076  32.861  33.672  1.00  0.00     0.031 A 
ATOM     41  C   UNL A   1      37.774  33.150  34.969  1.00  0.00     0.074 A 
ATOM     42  C   UNL A   1      37.599  31.974  32.803  1.00  0.00     0.049 A 
ATOM     43  N   UNL A   1      38.916  32.695  35.417  1.00  0.00    -0.248 NA
ATOM     44  C   UNL A   1      37.110  34.104  35.872  1.00  0.00     0.031 C 
ATOM     45  C   UNL A   1      37.037  31.639  31.495  1.00  0.00     0.029 A 
ATOM     46  N   UNL A   1      38.736  31.209  32.883  1.00  0.00    -0.354 N 
ATOM     47  C   UNL A   1      39.120  33.329  36.636  1.00  0.00     0.074 A 
ATOM     48  C   UNL A   1      38.004  34.227  36.840  1.00  0.00     0.031 C 
ATOM     49  C   UNL A   1      37.825  30.730  30.898  1.00  0.00     0.029 A 
ATOM     50  C   UNL A   1      38.966  30.448  31.763  1.00  0.00     0.049 A 
ATOM     51  H   UNL A   1      39.330  31.207  33.668  1.00  0.00     0.167 HD
ATOM     52  C   UNL A   1      40.139  33.161  37.511  1.00  0.00     0.037 A 
ATOM     53  C   UNL A   1      39.991  29.627  31.465  1.00  0.00     0.037 A 
ATOM     54  C   UNL A   1      41.228  32.241  37.319  1.00  0.00     0.049 A 
ATOM     55  C   UNL A   1      41.103  29.446  32.463  1.00  0.00     0.074 A 
ATOM     56  C   UNL A   1      42.279  31.954  38.173  1.00  0.00     0.029 A 
ATOM     57  N   UNL A   1      41.403  31.451  36.191  1.00  0.00    -0.354 N 
ATOM     58  N   UNL A   1      41.261  30.010  33.635  1.00  0.00    -0.248 NA
ATOM     59  C   UNL A   1      42.176  28.511  32.097  1.00  0.00     0.031 C 
ATOM     60  C   UNL A   1      43.107  31.014  37.549  1.00  0.00     0.029 A 
ATOM     61  C   UNL A   1      42.550  30.685  36.324  1.00  0.00     0.049 A 
ATOM     62  H   UNL A   1      40.801  31.437  35.413  1.00  0.00     0.167 HD
ATOM     63  C   UNL A   1      42.431  29.479  34.160  1.00  0.00     0.074 A 
ATOM     64  C   UNL A   1      42.940  28.540  33.181  1.00  0.00     0.031 C 
ATOM     65  C   UNL A   1      43.029  29.743  35.346  1.00  0.00     0.037 A 
BRANCH  52  66
ATOM     66  C   UNL A   1      40.122  33.995  38.758  1.00  0.00     0.064 A 
ATOM     67  C   UNL A   1      39.472  33.560  39.923  1.00  0.00     0.173 A 
ATOM     68  C   UNL A   1      40.784  35.231  38.798  1.00  0.00     0.173 A 
ATOM     69  F   UNL A   1      38.812  32.392  39.932  1.00  0.00    -0.203 F 
ATOM     70  C   UNL A   1      39.458  34.348  41.071  1.00  0.00     0.198 A 
ATOM     71  C   UNL A   1      40.794  36.001  39.958  1.00  0.00     0.198 A 
ATOM     72  F   UNL A   1      41.426  35.690  37.712  1.00  0.00    -0.203 F 
ATOM     73  F   UNL A   1      38.786  33.935  42.155  1.00  0.00    -0.200 F 
ATOM     74  C   UNL A   1      40.124  35.563  41.090  1.00  0.00     0.200 A 
ATOM     75  F   UNL A   1      41.447  37.172  39.977  1.00  0.00    -0.200 F 
ATOM     76  F   UNL A   1      40.114  36.318  42.197  1.00  0.00    -0.200 F 
ENDBRANCH  52  66
BRANCH  53  77
ATOM     77  C   UNL A   1      39.999  28.893  30.175  1.00  0.00     0.064 A 
ATOM     78  C   UNL A   1      40.621  29.441  29.044  1.00  0.00     0.173 A 
ATOM     79  C   UNL A   1      39.392  27.636  30.042  1.00  0.00     0.173 A 
ATOM     80  F   UNL A   1      41.196  30.650  29.118  1.00  0.00    -0.203 F 
ATOM     81  C   UNL A   1      40.620  28.768  27.824  1.00  0.00     0.198 A 
ATOM     82  C   UNL A   1      39.414  26.952  28.828  1.00  0.00     0.198 A 
ATOM     83  F   UNL A   1      38.789  27.067  31.096  1.00  0.00    -0.203 F 
ATOM     84  F   UNL A   1      41.188  29.333  26.750  1.00  0.00    -0.200 F 
ATOM     85  C   UNL A   1      40.022  27.522  27.719  1.00  0.00     0.200 A 
ATOM     86  F   UNL A   1      38.846  25.743  28.732  1.00  0.00    -0.200 F 
ATOM     87  F   UNL A   1      40.026  26.872  26.546  1.00  0.00    -0.200 F 
ENDBRANCH  53  77
BRANCH  65  88
ATOM     88  C   UNL A   1      44.275  28.976  35.675  1.00  0.00     0.064 A 
ATOM     89  C   UNL A   1      44.227  27.756  36.363  1.00  0.00     0.173 A 
ATOM     90  C   UNL A   1      45.527  29.447  35.251  1.00  0.00     0.173 A 
ATOM     91  F   UNL A   1      43.055  27.274  36.801  1.00  0.00    -0.203 F 
ATOM     92  C   UNL A   1      45.392  27.041  36.629  1.00  0.00     0.198 A 
ATOM     93  C   UNL A   1      46.687  28.717  35.497  1.00  0.00     0.198 A 
ATOM     94  F   UNL A   1      45.623  30.607  34.585  1.00  0.00    -0.203 F 
ATOM     95  F   UNL A   1      45.329  25.894  37.320  1.00  0.00    -0.200 F 
ATOM     96  C   UNL A   1      46.618  27.518  36.190  1.00  0.00     0.200 A 
ATOM     97  F   UNL A   1      47.868  29.174  35.063  1.00  0.00    -0.200 F 
ATOM     98  F   UNL A   1      47.738  26.824  36.439  1.00  0.00    -0.200 F 
ENDBRANCH  65  88
ENDBRANCH  39  40
ENDBRANCH  31  34
ENDBRANCH  29  30
ENDBRANCH  28  29
ENDBRANCH   1  28
TORSDOF 15
ENDMDL
