MODEL 1
REMARK VINA RESULT:     -12.4      0.000      0.000
REMARK SMILES O=C(CN1C(=O)/C(=C\c2cccs2)SC1=S)Nc1ccccc1C(=O)NCCCCNC(=O)c1ccc(-c2c3nc(c(-c4c(F)c(F)c(F)c(F)c4F)c4ccc([nH]4)c(-c4c(F)c(F)c(F)c(F)c4F)c4nc(c(-c5c(F)c(F)c(F)c(F)c5F)c5ccc2[nH]5)C=C4)C=C3)cc1
REMARK SMILES IDX 27 1 26 2 24 3 25 4 23 6 18 7 19 8 20 9 22 10 21 11 17 12
REMARK SMILES IDX 1 13 2 14 3 16 4 17 5 18 15 19 6 20 7 21 14 22 16 23 8 24
REMARK SMILES IDX 9 25 10 26 13 27 11 28 12 29 28 30 29 31 30 32 31 33 32 34
REMARK SMILES IDX 33 36 34 37 35 38 96 39 36 40 95 41 37 42 38 43 39 44 89 45
REMARK SMILES IDX 40 46 94 47 88 48 90 49 41 50 93 51 87 52 86 53 42 55 74 56
REMARK SMILES IDX 54 57 73 58 55 59 58 60 72 61 91 62 56 63 57 64 71 66 92 67
REMARK SMILES IDX 59 68 43 69 44 70 52 71 45 72 46 73 50 74 53 75 47 76 48 77
REMARK SMILES IDX 51 78 49 79 75 80 76 81 84 82 77 83 78 84 82 85 85 86 79 87
REMARK SMILES IDX 80 88 83 89 81 90 60 91 61 92 69 93 62 94 63 95 67 96 70 97
REMARK SMILES IDX 64 98 65 99 68 100 66 101
REMARK H PARENT 26 5 17 15 31 35 90 54 58 65
REMARK Flexibility Score: inf
ROOT
ATOM      1  C   UNL A   1      32.062  28.732  26.350  1.00  0.00     0.116 C 
ENDROOT
BRANCH   1   2
ATOM      2  N   UNL A   1      32.584  28.700  25.010  1.00  0.00    -0.352 N 
ATOM      3  C   UNL A   1      31.904  28.930  23.824  1.00  0.00     0.253 C 
ATOM      4  O   UNL A   1      32.575  29.017  22.793  1.00  0.00    -0.269 OA
ATOM      5  H   UNL A   1      33.541  28.488  24.924  1.00  0.00     0.163 HD
BRANCH   3   6
ATOM      6  C   UNL A   1      30.409  28.868  23.715  1.00  0.00     0.063 A 
ATOM      7  C   UNL A   1      29.588  27.746  23.506  1.00  0.00     0.054 A 
ATOM      8  C   UNL A   1      28.262  27.951  23.069  1.00  0.00     0.027 A 
ATOM      9  C   UNL A   1      27.701  29.225  22.983  1.00  0.00     0.002 A 
ATOM     10  C   UNL A   1      29.810  30.152  23.662  1.00  0.00     0.016 A 
ATOM     11  C   UNL A   1      28.467  30.329  23.317  1.00  0.00     0.001 A 
BRANCH   7  12
ATOM     12  N   UNL A   1      29.929  26.382  23.639  1.00  0.00    -0.324 N 
ATOM     13  O   UNL A   1      30.075  26.119  25.927  1.00  0.00    -0.273 OA
ATOM     14  C   UNL A   1      30.230  25.682  24.791  1.00  0.00     0.244 C 
ATOM     15  H   UNL A   1      29.956  25.863  22.803  1.00  0.00     0.170 HD
BRANCH  14  16
ATOM     16  C   UNL A   1      30.987  24.346  24.540  1.00  0.00     0.227 C 
BRANCH  16  17
ATOM     17  N   UNL A   1      31.728  23.693  25.614  1.00  0.00    -0.283 N 
ATOM     18  C   UNL A   1      33.038  24.039  25.829  1.00  0.00     0.266 C 
ATOM     19  C   UNL A   1      31.130  23.041  26.680  1.00  0.00     0.148 C 
ATOM     20  O   UNL A   1      33.628  24.962  25.271  1.00  0.00    -0.268 OA
ATOM     21  C   UNL A   1      33.620  23.210  26.901  1.00  0.00     0.081 C 
ATOM     22  S   UNL A   1      32.343  22.688  27.926  1.00  0.00    -0.054 SA
ATOM     23  S   UNL A   1      29.527  22.626  26.873  1.00  0.00    -0.052 S 
ATOM     24  C   UNL A   1      34.866  22.718  26.925  1.00  0.00     0.040 C 
BRANCH  24  25
ATOM     25  C   UNL A   1      35.701  22.811  25.778  1.00  0.00     0.028 A 
ATOM     26  C   UNL A   1      36.734  23.679  25.471  1.00  0.00     0.020 A 
ATOM     27  S   UNL A   1      35.392  21.743  24.461  1.00  0.00    -0.144 S 
ATOM     28  C   UNL A   1      37.218  23.507  24.139  1.00  0.00     0.012 A 
ATOM     29  C   UNL A   1      36.552  22.507  23.471  1.00  0.00     0.065 A 
ENDBRANCH  24  25
ENDBRANCH  16  17
ENDBRANCH  14  16
ENDBRANCH   7  12
ENDBRANCH   3   6
ENDBRANCH   1   2
BRANCH   1  30
ATOM     30  C   UNL A   1      32.531  29.834  27.288  1.00  0.00     0.023 C 
BRANCH  30  31
ATOM     31  C   UNL A   1      32.213  31.273  26.872  1.00  0.00     0.023 C 
BRANCH  31  32
ATOM     32  C   UNL A   1      33.226  32.368  27.217  1.00  0.00     0.116 C 
BRANCH  32  33
ATOM     33  N   UNL A   1      32.647  33.650  27.600  1.00  0.00    -0.352 N 
ATOM     34  C   UNL A   1      33.098  34.585  28.511  1.00  0.00     0.251 C 
ATOM     35  H   UNL A   1      31.808  33.885  27.140  1.00  0.00     0.163 HD
ATOM     36  O   UNL A   1      32.457  35.618  28.682  1.00  0.00    -0.269 OA
BRANCH  34  37
ATOM     37  C   UNL A   1      34.294  34.305  29.345  1.00  0.00     0.039 A 
ATOM     38  C   UNL A   1      34.110  33.647  30.567  1.00  0.00     0.014 A 
ATOM     39  C   UNL A   1      35.585  34.588  28.897  1.00  0.00     0.014 A 
ATOM     40  C   UNL A   1      35.217  33.147  31.260  1.00  0.00     0.010 A 
ATOM     41  C   UNL A   1      36.681  34.016  29.543  1.00  0.00     0.010 A 
ATOM     42  C   UNL A   1      36.505  33.255  30.709  1.00  0.00    -0.014 A 
BRANCH  42  43
ATOM     43  C   UNL A   1      37.647  32.501  31.293  1.00  0.00     0.031 A 
ATOM     44  C   UNL A   1      38.200  32.860  32.641  1.00  0.00     0.074 A 
ATOM     45  C   UNL A   1      38.229  31.526  30.563  1.00  0.00     0.049 A 
ATOM     46  N   UNL A   1      39.202  32.324  33.294  1.00  0.00    -0.248 NA
ATOM     47  C   UNL A   1      37.562  33.985  33.341  1.00  0.00     0.031 C 
ATOM     48  C   UNL A   1      37.826  31.131  29.211  1.00  0.00     0.029 A 
ATOM     49  N   UNL A   1      39.284  30.693  30.846  1.00  0.00    -0.354 N 
ATOM     50  C   UNL A   1      39.314  33.045  34.475  1.00  0.00     0.074 A 
ATOM     51  C   UNL A   1      38.318  34.095  34.423  1.00  0.00     0.031 C 
ATOM     52  C   UNL A   1      38.594  30.112  28.799  1.00  0.00     0.029 A 
ATOM     53  C   UNL A   1      39.575  29.806  29.835  1.00  0.00     0.049 A 
ATOM     54  H   UNL A   1      39.784  30.726  31.692  1.00  0.00     0.167 HD
ATOM     55  C   UNL A   1      40.154  32.835  35.517  1.00  0.00     0.037 A 
ATOM     56  C   UNL A   1      40.525  28.856  29.751  1.00  0.00     0.037 A 
ATOM     57  C   UNL A   1      41.141  31.787  35.560  1.00  0.00     0.049 A 
ATOM     58  C   UNL A   1      41.455  28.653  30.919  1.00  0.00     0.074 A 
ATOM     59  C   UNL A   1      42.010  31.459  36.587  1.00  0.00     0.029 A 
ATOM     60  N   UNL A   1      41.400  30.901  34.522  1.00  0.00    -0.354 N 
ATOM     61  N   UNL A   1      41.492  29.286  32.066  1.00  0.00    -0.248 NA
ATOM     62  C   UNL A   1      42.468  27.597  30.783  1.00  0.00     0.031 C 
ATOM     63  C   UNL A   1      42.830  30.415  36.150  1.00  0.00     0.029 A 
ATOM     64  C   UNL A   1      42.431  30.046  34.876  1.00  0.00     0.049 A 
ATOM     65  H   UNL A   1      40.920  30.884  33.663  1.00  0.00     0.167 HD
ATOM     66  C   UNL A   1      42.508  28.688  32.799  1.00  0.00     0.074 A 
ATOM     67  C   UNL A   1      43.050  27.629  31.973  1.00  0.00     0.031 C 
ATOM     68  C   UNL A   1      42.953  28.990  34.044  1.00  0.00     0.037 A 
BRANCH  55  69
ATOM     69  C   UNL A   1      40.042  33.760  36.696  1.00  0.00     0.064 A 
ATOM     70  C   UNL A   1      39.143  33.510  37.746  1.00  0.00     0.173 A 
ATOM     71  C   UNL A   1      40.862  34.895  36.796  1.00  0.00     0.173 A 
ATOM     72  F   UNL A   1      38.330  32.444  37.699  1.00  0.00    -0.203 F 
ATOM     73  C   UNL A   1      39.044  34.379  38.830  1.00  0.00     0.198 A 
ATOM     74  C   UNL A   1      40.785  35.743  37.899  1.00  0.00     0.198 A 
ATOM     75  F   UNL A   1      41.747  35.179  35.828  1.00  0.00    -0.203 F 
ATOM     76  F   UNL A   1      38.139  34.147  39.791  1.00  0.00    -0.200 F 
ATOM     77  C   UNL A   1      39.868  35.490  38.909  1.00  0.00     0.200 A 
ATOM     78  F   UNL A   1      41.594  36.808  37.982  1.00  0.00    -0.200 F 
ATOM     79  F   UNL A   1      39.777  36.322  39.956  1.00  0.00    -0.200 F 
ENDBRANCH  55  69
BRANCH  56  80
ATOM     80  C   UNL A   1      40.634  28.008  28.533  1.00  0.00     0.064 A 
ATOM     81  C   UNL A   1      39.981  26.769  28.453  1.00  0.00     0.173 A 
ATOM     82  C   UNL A   1      41.398  28.410  27.426  1.00  0.00     0.173 A 
ATOM     83  F   UNL A   1      39.252  26.328  29.489  1.00  0.00    -0.203 F 
ATOM     84  C   UNL A   1      40.108  25.955  27.329  1.00  0.00     0.198 A 
ATOM     85  C   UNL A   1      41.498  27.610  26.289  1.00  0.00     0.198 A 
ATOM     86  F   UNL A   1      42.038  29.588  27.445  1.00  0.00    -0.203 F 
ATOM     87  F   UNL A   1      39.516  24.754  27.303  1.00  0.00    -0.200 F 
ATOM     88  C   UNL A   1      40.862  26.379  26.245  1.00  0.00     0.200 A 
ATOM     89  F   UNL A   1      42.213  28.032  25.237  1.00  0.00    -0.200 F 
ATOM     90  F   UNL A   1      40.981  25.599  25.162  1.00  0.00    -0.200 F 
ENDBRANCH  56  80
BRANCH  68  91
ATOM     91  C   UNL A   1      44.056  28.139  34.606  1.00  0.00     0.064 A 
ATOM     92  C   UNL A   1      45.406  28.499  34.482  1.00  0.00     0.173 A 
ATOM     93  C   UNL A   1      43.752  26.965  35.312  1.00  0.00     0.173 A 
ATOM     94  F   UNL A   1      45.751  29.603  33.802  1.00  0.00    -0.203 F 
ATOM     95  C   UNL A   1      46.412  27.700  35.020  1.00  0.00     0.198 A 
ATOM     96  C   UNL A   1      44.758  26.188  35.880  1.00  0.00     0.198 A 
ATOM     97  F   UNL A   1      42.477  26.577  35.465  1.00  0.00    -0.203 F 
ATOM     98  F   UNL A   1      47.696  28.036  34.844  1.00  0.00    -0.200 F 
ATOM     99  C   UNL A   1      46.087  26.551  35.726  1.00  0.00     0.200 A 
ATOM    100  F   UNL A   1      44.440  25.087  36.575  1.00  0.00    -0.200 F 
ATOM    101  F   UNL A   1      47.056  25.790  36.251  1.00  0.00    -0.200 F 
ENDBRANCH  68  91
ENDBRANCH  42  43
ENDBRANCH  34  37
ENDBRANCH  32  33
ENDBRANCH  31  32
ENDBRANCH  30  31
ENDBRANCH   1  30
TORSDOF 15
ENDMDL
MODEL 2
REMARK VINA RESULT:     -12.4      3.848      9.173
REMARK SMILES O=C(CN1C(=O)/C(=C\c2cccs2)SC1=S)Nc1ccccc1C(=O)NCCCCNC(=O)c1ccc(-c2c3nc(c(-c4c(F)c(F)c(F)c(F)c4F)c4ccc([nH]4)c(-c4c(F)c(F)c(F)c(F)c4F)c4nc(c(-c5c(F)c(F)c(F)c(F)c5F)c5ccc2[nH]5)C=C4)C=C3)cc1
REMARK SMILES IDX 27 1 26 2 24 3 25 4 23 6 18 7 19 8 20 9 22 10 21 11 17 12
REMARK SMILES IDX 1 13 2 14 3 16 4 17 5 18 15 19 6 20 7 21 14 22 16 23 8 24
REMARK SMILES IDX 9 25 10 26 13 27 11 28 12 29 28 30 29 31 30 32 31 33 32 34
REMARK SMILES IDX 33 36 34 37 35 38 96 39 36 40 95 41 37 42 38 43 39 44 89 45
REMARK SMILES IDX 40 46 94 47 88 48 90 49 41 50 93 51 87 52 86 53 42 55 74 56
REMARK SMILES IDX 54 57 73 58 55 59 58 60 72 61 91 62 56 63 57 64 71 66 92 67
REMARK SMILES IDX 59 68 43 69 44 70 52 71 45 72 46 73 50 74 53 75 47 76 48 77
REMARK SMILES IDX 51 78 49 79 75 80 76 81 84 82 77 83 78 84 82 85 85 86 79 87
REMARK SMILES IDX 80 88 83 89 81 90 60 91 61 92 69 93 62 94 63 95 67 96 70 97
REMARK SMILES IDX 64 98 65 99 68 100 66 101
REMARK H PARENT 26 5 17 15 31 35 90 54 58 65
REMARK Flexibility Score: inf
ROOT
ATOM      1  C   UNL A   1      42.693  19.479  26.329  1.00  0.00     0.116 C 
ENDROOT
BRANCH   1   2
ATOM      2  N   UNL A   1      41.384  19.015  25.955  1.00  0.00    -0.352 N 
ATOM      3  C   UNL A   1      40.208  19.746  25.881  1.00  0.00     0.253 C 
ATOM      4  O   UNL A   1      39.227  19.194  25.377  1.00  0.00    -0.269 OA
ATOM      5  H   UNL A   1      41.314  18.062  25.722  1.00  0.00     0.163 HD
BRANCH   3   6
ATOM      6  C   UNL A   1      40.026  21.070  26.562  1.00  0.00     0.063 A 
ATOM      7  C   UNL A   1      39.322  22.201  26.114  1.00  0.00     0.054 A 
ATOM      8  C   UNL A   1      39.583  23.446  26.725  1.00  0.00     0.027 A 
ATOM      9  C   UNL A   1      40.401  23.560  27.849  1.00  0.00     0.002 A 
ATOM     10  C   UNL A   1      40.820  21.199  27.730  1.00  0.00     0.016 A 
ATOM     11  C   UNL A   1      40.992  22.425  28.377  1.00  0.00     0.001 A 
BRANCH   7  12
ATOM     12  N   UNL A   1      38.378  22.279  25.066  1.00  0.00    -0.324 N 
ATOM     13  O   UNL A   1      36.544  23.215  26.108  1.00  0.00    -0.273 OA
ATOM     14  C   UNL A   1      37.059  22.684  25.129  1.00  0.00     0.244 C 
ATOM     15  H   UNL A   1      38.702  22.010  24.176  1.00  0.00     0.170 HD
BRANCH  14  16
ATOM     16  C   UNL A   1      36.198  22.226  23.917  1.00  0.00     0.227 C 
BRANCH  16  17
ATOM     17  N   UNL A   1      34.765  21.990  24.064  1.00  0.00    -0.283 N 
ATOM     18  C   UNL A   1      34.337  20.885  24.756  1.00  0.00     0.266 C 
ATOM     19  C   UNL A   1      33.800  22.971  23.906  1.00  0.00     0.148 C 
ATOM     20  O   UNL A   1      35.062  20.121  25.390  1.00  0.00    -0.268 OA
ATOM     21  C   UNL A   1      32.866  20.793  24.718  1.00  0.00     0.081 C 
ATOM     22  S   UNL A   1      32.236  22.376  24.495  1.00  0.00    -0.054 SA
ATOM     23  S   UNL A   1      33.979  24.511  23.290  1.00  0.00    -0.052 S 
ATOM     24  C   UNL A   1      32.153  19.666  24.597  1.00  0.00     0.040 C 
BRANCH  24  25
ATOM     25  C   UNL A   1      32.796  18.432  24.298  1.00  0.00     0.028 A 
ATOM     26  C   UNL A   1      33.317  17.940  23.115  1.00  0.00     0.020 A 
ATOM     27  S   UNL A   1      32.923  17.259  25.555  1.00  0.00    -0.144 S 
ATOM     28  C   UNL A   1      33.754  16.586  23.229  1.00  0.00     0.012 A 
ATOM     29  C   UNL A   1      33.566  16.086  24.497  1.00  0.00     0.065 A 
ENDBRANCH  24  25
ENDBRANCH  16  17
ENDBRANCH  14  16
ENDBRANCH   7  12
ENDBRANCH   3   6
ENDBRANCH   1   2
BRANCH   1  30
ATOM     30  C   UNL A   1      43.491  20.296  25.325  1.00  0.00     0.023 C 
BRANCH  30  31
ATOM     31  C   UNL A   1      44.001  21.659  25.798  1.00  0.00     0.023 C 
BRANCH  31  32
ATOM     32  C   UNL A   1      43.633  22.897  24.975  1.00  0.00     0.116 C 
BRANCH  32  33
ATOM     33  N   UNL A   1      44.751  23.763  24.623  1.00  0.00    -0.352 N 
ATOM     34  C   UNL A   1      45.035  25.050  25.040  1.00  0.00     0.251 C 
ATOM     35  H   UNL A   1      45.401  23.374  23.995  1.00  0.00     0.163 HD
ATOM     36  O   UNL A   1      46.047  25.608  24.625  1.00  0.00    -0.269 OA
BRANCH  34  37
ATOM     37  C   UNL A   1      44.080  25.787  25.905  1.00  0.00     0.039 A 
ATOM     38  C   UNL A   1      43.337  25.060  26.841  1.00  0.00     0.014 A 
ATOM     39  C   UNL A   1      43.983  27.179  25.872  1.00  0.00     0.014 A 
ATOM     40  C   UNL A   1      42.619  25.735  27.833  1.00  0.00     0.010 A 
ATOM     41  C   UNL A   1      43.338  27.851  26.910  1.00  0.00     0.010 A 
ATOM     42  C   UNL A   1      42.683  27.135  27.924  1.00  0.00    -0.014 A 
BRANCH  42  43
ATOM     43  C   UNL A   1      42.151  27.845  29.120  1.00  0.00     0.031 A 
ATOM     44  C   UNL A   1      42.851  27.756  30.444  1.00  0.00     0.074 A 
ATOM     45  C   UNL A   1      40.987  28.520  29.016  1.00  0.00     0.049 A 
ATOM     46  N   UNL A   1      42.520  28.293  31.593  1.00  0.00    -0.248 NA
ATOM     47  C   UNL A   1      44.071  26.936  30.495  1.00  0.00     0.031 C 
ATOM     48  C   UNL A   1      40.178  28.623  27.799  1.00  0.00     0.029 A 
ATOM     49  N   UNL A   1      40.277  29.243  29.943  1.00  0.00    -0.354 N 
ATOM     50  C   UNL A   1      43.486  27.876  32.498  1.00  0.00     0.074 A 
ATOM     51  C   UNL A   1      44.382  26.993  31.782  1.00  0.00     0.031 C 
ATOM     52  C   UNL A   1      39.107  29.393  28.042  1.00  0.00     0.029 A 
ATOM     53  C   UNL A   1      39.126  29.806  29.441  1.00  0.00     0.049 A 
ATOM     54  H   UNL A   1      40.564  29.351  30.878  1.00  0.00     0.167 HD
ATOM     55  C   UNL A   1      43.626  28.218  33.802  1.00  0.00     0.037 A 
ATOM     56  C   UNL A   1      38.189  30.566  30.041  1.00  0.00     0.037 A 
ATOM     57  C   UNL A   1      42.729  29.097  34.507  1.00  0.00     0.049 A 
ATOM     58  C   UNL A   1      38.362  30.920  31.495  1.00  0.00     0.074 A 
ATOM     59  C   UNL A   1      42.808  29.545  35.815  1.00  0.00     0.029 A 
ATOM     60  N   UNL A   1      41.580  29.656  33.964  1.00  0.00    -0.354 N 
ATOM     61  N   UNL A   1      39.328  30.589  32.317  1.00  0.00    -0.248 NA
ATOM     62  C   UNL A   1      37.320  31.760  32.101  1.00  0.00     0.031 C 
ATOM     63  C   UNL A   1      41.679  30.326  36.079  1.00  0.00     0.029 A 
ATOM     64  C   UNL A   1      40.929  30.422  34.918  1.00  0.00     0.049 A 
ATOM     65  H   UNL A   1      41.275  29.527  33.037  1.00  0.00     0.167 HD
ATOM     66  C   UNL A   1      39.028  31.203  33.525  1.00  0.00     0.074 A 
ATOM     67  C   UNL A   1      37.799  31.942  33.323  1.00  0.00     0.031 C 
ATOM     68  C   UNL A   1      39.709  31.158  34.697  1.00  0.00     0.037 A 
BRANCH  55  69
ATOM     69  C   UNL A   1      44.792  27.635  34.552  1.00  0.00     0.064 A 
ATOM     70  C   UNL A   1      44.722  26.368  35.152  1.00  0.00     0.173 A 
ATOM     71  C   UNL A   1      46.003  28.338  34.649  1.00  0.00     0.173 A 
ATOM     72  F   UNL A   1      43.587  25.656  35.096  1.00  0.00    -0.203 F 
ATOM     73  C   UNL A   1      45.807  25.843  35.850  1.00  0.00     0.198 A 
ATOM     74  C   UNL A   1      47.097  27.794  35.318  1.00  0.00     0.198 A 
ATOM     75  F   UNL A   1      46.130  29.549  34.086  1.00  0.00    -0.203 F 
ATOM     76  F   UNL A   1      45.696  24.655  36.461  1.00  0.00    -0.200 F 
ATOM     77  C   UNL A   1      46.995  26.552  35.927  1.00  0.00     0.200 A 
ATOM     78  F   UNL A   1      48.250  28.474  35.378  1.00  0.00    -0.200 F 
ATOM     79  F   UNL A   1      48.040  26.043  36.593  1.00  0.00    -0.200 F 
ENDBRANCH  55  69
BRANCH  56  80
ATOM     80  C   UNL A   1      37.019  31.065  29.268  1.00  0.00     0.064 A 
ATOM     81  C   UNL A   1      35.931  30.228  28.982  1.00  0.00     0.173 A 
ATOM     82  C   UNL A   1      36.966  32.383  28.789  1.00  0.00     0.173 A 
ATOM     83  F   UNL A   1      35.938  28.953  29.401  1.00  0.00    -0.203 F 
ATOM     84  C   UNL A   1      34.849  30.679  28.229  1.00  0.00     0.198 A 
ATOM     85  C   UNL A   1      35.869  32.844  28.063  1.00  0.00     0.198 A 
ATOM     86  F   UNL A   1      37.976  33.229  29.038  1.00  0.00    -0.203 F 
ATOM     87  F   UNL A   1      33.848  29.842  27.928  1.00  0.00    -0.200 F 
ATOM     88  C   UNL A   1      34.816  31.989  27.775  1.00  0.00     0.200 A 
ATOM     89  F   UNL A   1      35.833  34.115  27.642  1.00  0.00    -0.200 F 
ATOM     90  F   UNL A   1      33.775  32.425  27.054  1.00  0.00    -0.200 F 
ENDBRANCH  56  80
BRANCH  68  91
ATOM     91  C   UNL A   1      39.161  31.961  35.842  1.00  0.00     0.064 A 
ATOM     92  C   UNL A   1      38.265  31.410  36.771  1.00  0.00     0.173 A 
ATOM     93  C   UNL A   1      39.571  33.290  36.033  1.00  0.00     0.173 A 
ATOM     94  F   UNL A   1      37.830  30.150  36.625  1.00  0.00    -0.203 F 
ATOM     95  C   UNL A   1      37.778  32.170  37.832  1.00  0.00     0.198 A 
ATOM     96  C   UNL A   1      39.109  34.034  37.116  1.00  0.00     0.198 A 
ATOM     97  F   UNL A   1      40.430  33.863  35.178  1.00  0.00    -0.203 F 
ATOM     98  F   UNL A   1      36.882  31.640  38.675  1.00  0.00    -0.200 F 
ATOM     99  C   UNL A   1      38.207  33.477  38.008  1.00  0.00     0.200 A 
ATOM    100  F   UNL A   1      39.537  35.292  37.292  1.00  0.00    -0.200 F 
ATOM    101  F   UNL A   1      37.744  34.202  39.035  1.00  0.00    -0.200 F 
ENDBRANCH  68  91
ENDBRANCH  42  43
ENDBRANCH  34  37
ENDBRANCH  32  33
ENDBRANCH  31  32
ENDBRANCH  30  31
ENDBRANCH   1  30
TORSDOF 15
ENDMDL
MODEL 3
REMARK VINA RESULT:     -12.3      3.321      8.935
REMARK SMILES O=C(CN1C(=O)/C(=C\c2cccs2)SC1=S)Nc1ccccc1C(=O)NCCCCNC(=O)c1ccc(-c2c3nc(c(-c4c(F)c(F)c(F)c(F)c4F)c4ccc([nH]4)c(-c4c(F)c(F)c(F)c(F)c4F)c4nc(c(-c5c(F)c(F)c(F)c(F)c5F)c5ccc2[nH]5)C=C4)C=C3)cc1
REMARK SMILES IDX 27 1 26 2 24 3 25 4 23 6 18 7 19 8 20 9 22 10 21 11 17 12
REMARK SMILES IDX 1 13 2 14 3 16 4 17 5 18 15 19 6 20 7 21 14 22 16 23 8 24
REMARK SMILES IDX 9 25 10 26 13 27 11 28 12 29 28 30 29 31 30 32 31 33 32 34
REMARK SMILES IDX 33 36 34 37 35 38 96 39 36 40 95 41 37 42 38 43 39 44 89 45
REMARK SMILES IDX 40 46 94 47 88 48 90 49 41 50 93 51 87 52 86 53 42 55 74 56
REMARK SMILES IDX 54 57 73 58 55 59 58 60 72 61 91 62 56 63 57 64 71 66 92 67
REMARK SMILES IDX 59 68 43 69 44 70 52 71 45 72 46 73 50 74 53 75 47 76 48 77
REMARK SMILES IDX 51 78 49 79 75 80 76 81 84 82 77 83 78 84 82 85 85 86 79 87
REMARK SMILES IDX 80 88 83 89 81 90 60 91 61 92 69 93 62 94 63 95 67 96 70 97
REMARK SMILES IDX 64 98 65 99 68 100 66 101
REMARK H PARENT 26 5 17 15 31 35 90 54 58 65
REMARK Flexibility Score: inf
ROOT
ATOM      1  C   UNL A   1      41.238  20.159  26.570  1.00  0.00     0.116 C 
ENDROOT
BRANCH   1   2
ATOM      2  N   UNL A   1      40.055  19.668  25.915  1.00  0.00    -0.352 N 
ATOM      3  C   UNL A   1      38.944  20.390  25.507  1.00  0.00     0.253 C 
ATOM      4  O   UNL A   1      38.109  19.803  24.814  1.00  0.00    -0.269 OA
ATOM      5  H   UNL A   1      40.031  18.701  25.735  1.00  0.00     0.163 HD
BRANCH   3   6
ATOM      6  C   UNL A   1      38.619  21.756  26.035  1.00  0.00     0.063 A 
ATOM      7  C   UNL A   1      37.544  22.597  25.698  1.00  0.00     0.054 A 
ATOM      8  C   UNL A   1      37.628  23.966  26.027  1.00  0.00     0.027 A 
ATOM      9  C   UNL A   1      38.670  24.478  26.800  1.00  0.00     0.002 A 
ATOM     10  C   UNL A   1      39.647  22.284  26.855  1.00  0.00     0.016 A 
ATOM     11  C   UNL A   1      39.665  23.625  27.249  1.00  0.00     0.001 A 
BRANCH   7  12
ATOM     12  N   UNL A   1      36.357  22.258  25.012  1.00  0.00    -0.324 N 
ATOM     13  O   UNL A   1      36.654  23.269  22.959  1.00  0.00    -0.273 OA
ATOM     14  C   UNL A   1      35.944  22.665  23.758  1.00  0.00     0.244 C 
ATOM     15  H   UNL A   1      35.744  21.653  25.489  1.00  0.00     0.170 HD
BRANCH  14  16
ATOM     16  C   UNL A   1      34.421  22.480  23.502  1.00  0.00     0.227 C 
BRANCH  16  17
ATOM     17  N   UNL A   1      33.440  22.883  24.505  1.00  0.00    -0.283 N 
ATOM     18  C   UNL A   1      32.754  24.059  24.335  1.00  0.00     0.266 C 
ATOM     19  C   UNL A   1      32.858  22.011  25.410  1.00  0.00     0.148 C 
ATOM     20  O   UNL A   1      32.794  24.764  23.329  1.00  0.00    -0.268 OA
ATOM     21  C   UNL A   1      31.877  24.315  25.493  1.00  0.00     0.081 C 
ATOM     22  S   UNL A   1      31.490  22.804  26.215  1.00  0.00    -0.054 SA
ATOM     23  S   UNL A   1      33.284  20.435  25.751  1.00  0.00    -0.052 S 
ATOM     24  C   UNL A   1      31.646  25.509  26.054  1.00  0.00     0.040 C 
BRANCH  24  25
ATOM     25  C   UNL A   1      32.409  26.647  25.671  1.00  0.00     0.028 A 
ATOM     26  C   UNL A   1      33.692  27.037  26.005  1.00  0.00     0.020 A 
ATOM     27  S   UNL A   1      31.650  27.835  24.678  1.00  0.00    -0.144 S 
ATOM     28  C   UNL A   1      34.020  28.333  25.503  1.00  0.00     0.012 A 
ATOM     29  C   UNL A   1      32.985  28.889  24.790  1.00  0.00     0.065 A 
ENDBRANCH  24  25
ENDBRANCH  16  17
ENDBRANCH  14  16
ENDBRANCH   7  12
ENDBRANCH   3   6
ENDBRANCH   1   2
BRANCH   1  30
ATOM     30  C   UNL A   1      42.509  20.321  25.750  1.00  0.00     0.023 C 
BRANCH  30  31
ATOM     31  C   UNL A   1      43.300  21.616  25.957  1.00  0.00     0.023 C 
BRANCH  31  32
ATOM     32  C   UNL A   1      43.011  22.799  25.029  1.00  0.00     0.116 C 
BRANCH  32  33
ATOM     33  N   UNL A   1      44.175  23.593  24.655  1.00  0.00    -0.352 N 
ATOM     34  C   UNL A   1      44.544  24.861  25.059  1.00  0.00     0.251 C 
ATOM     35  H   UNL A   1      44.790  23.161  24.018  1.00  0.00     0.163 HD
ATOM     36  O   UNL A   1      45.582  25.353  24.626  1.00  0.00    -0.269 OA
BRANCH  34  37
ATOM     37  C   UNL A   1      43.650  25.660  25.935  1.00  0.00     0.039 A 
ATOM     38  C   UNL A   1      42.844  24.981  26.855  1.00  0.00     0.014 A 
ATOM     39  C   UNL A   1      43.671  27.056  25.928  1.00  0.00     0.014 A 
ATOM     40  C   UNL A   1      42.181  25.696  27.857  1.00  0.00     0.010 A 
ATOM     41  C   UNL A   1      43.080  27.760  26.976  1.00  0.00     0.010 A 
ATOM     42  C   UNL A   1      42.362  27.084  27.975  1.00  0.00    -0.014 A 
BRANCH  42  43
ATOM     43  C   UNL A   1      41.887  27.813  29.182  1.00  0.00     0.031 A 
ATOM     44  C   UNL A   1      42.587  27.662  30.501  1.00  0.00     0.074 A 
ATOM     45  C   UNL A   1      40.769  28.566  29.093  1.00  0.00     0.049 A 
ATOM     46  N   UNL A   1      42.299  28.207  31.657  1.00  0.00    -0.248 NA
ATOM     47  C   UNL A   1      43.750  26.763  30.534  1.00  0.00     0.031 C 
ATOM     48  C   UNL A   1      39.962  28.737  27.883  1.00  0.00     0.029 A 
ATOM     49  N   UNL A   1      40.115  29.324  30.033  1.00  0.00    -0.354 N 
ATOM     50  C   UNL A   1      43.240  27.716  32.552  1.00  0.00     0.074 A 
ATOM     51  C   UNL A   1      44.071  26.783  31.819  1.00  0.00     0.031 C 
ATOM     52  C   UNL A   1      38.946  29.574  28.142  1.00  0.00     0.029 A 
ATOM     53  C   UNL A   1      39.001  29.968  29.545  1.00  0.00     0.049 A 
ATOM     54  H   UNL A   1      40.414  29.402  30.967  1.00  0.00     0.167 HD
ATOM     55  C   UNL A   1      43.410  28.032  33.858  1.00  0.00     0.037 A 
ATOM     56  C   UNL A   1      38.121  30.782  30.160  1.00  0.00     0.037 A 
ATOM     57  C   UNL A   1      42.579  28.962  34.579  1.00  0.00     0.049 A 
ATOM     58  C   UNL A   1      38.326  31.107  31.616  1.00  0.00     0.074 A 
ATOM     59  C   UNL A   1      42.695  29.388  35.891  1.00  0.00     0.029 A 
ATOM     60  N   UNL A   1      41.467  29.603  34.049  1.00  0.00    -0.354 N 
ATOM     61  N   UNL A   1      39.273  30.703  32.428  1.00  0.00    -0.248 NA
ATOM     62  C   UNL A   1      37.346  32.008  32.239  1.00  0.00     0.031 C 
ATOM     63  C   UNL A   1      41.623  30.240  36.171  1.00  0.00     0.029 A 
ATOM     64  C   UNL A   1      40.874  30.399  35.016  1.00  0.00     0.049 A 
ATOM     65  H   UNL A   1      41.148  29.505  33.123  1.00  0.00     0.167 HD
ATOM     66  C   UNL A   1      39.021  31.321  33.645  1.00  0.00     0.074 A 
ATOM     67  C   UNL A   1      37.843  32.143  33.460  1.00  0.00     0.031 C 
ATOM     68  C   UNL A   1      39.704  31.218  34.812  1.00  0.00     0.037 A 
BRANCH  55  69
ATOM     69  C   UNL A   1      44.539  27.365  34.593  1.00  0.00     0.064 A 
ATOM     70  C   UNL A   1      45.825  27.929  34.637  1.00  0.00     0.173 A 
ATOM     71  C   UNL A   1      44.330  26.163  35.286  1.00  0.00     0.173 A 
ATOM     72  F   UNL A   1      46.082  29.074  33.987  1.00  0.00    -0.203 F 
ATOM     73  C   UNL A   1      46.864  27.297  35.316  1.00  0.00     0.198 A 
ATOM     74  C   UNL A   1      45.364  25.552  35.993  1.00  0.00     0.198 A 
ATOM     75  F   UNL A   1      43.120  25.583  35.287  1.00  0.00    -0.203 F 
ATOM     76  F   UNL A   1      48.094  27.828  35.296  1.00  0.00    -0.200 F 
ATOM     77  C   UNL A   1      46.632  26.114  35.998  1.00  0.00     0.200 A 
ATOM     78  F   UNL A   1      45.134  24.416  36.666  1.00  0.00    -0.200 F 
ATOM     79  F   UNL A   1      47.631  25.510  36.656  1.00  0.00    -0.200 F 
ENDBRANCH  55  69
BRANCH  56  80
ATOM     80  C   UNL A   1      36.982  31.367  29.401  1.00  0.00     0.064 A 
ATOM     81  C   UNL A   1      36.983  32.717  29.021  1.00  0.00     0.173 A 
ATOM     82  C   UNL A   1      35.865  30.595  29.046  1.00  0.00     0.173 A 
ATOM     83  F   UNL A   1      38.018  33.505  29.350  1.00  0.00    -0.203 F 
ATOM     84  C   UNL A   1      35.904  33.279  28.341  1.00  0.00     0.198 A 
ATOM     85  C   UNL A   1      34.800  31.150  28.337  1.00  0.00     0.198 A 
ATOM     86  F   UNL A   1      35.813  29.297  29.377  1.00  0.00    -0.203 F 
ATOM     87  F   UNL A   1      35.910  34.584  28.038  1.00  0.00    -0.200 F 
ATOM     88  C   UNL A   1      34.816  32.493  27.995  1.00  0.00     0.200 A 
ATOM     89  F   UNL A   1      33.759  30.382  27.989  1.00  0.00    -0.200 F 
ATOM     90  F   UNL A   1      33.779  33.030  27.337  1.00  0.00    -0.200 F 
ENDBRANCH  56  80
BRANCH  68  91
ATOM     91  C   UNL A   1      39.218  32.042  35.970  1.00  0.00     0.064 A 
ATOM     92  C   UNL A   1      38.293  31.542  36.899  1.00  0.00     0.173 A 
ATOM     93  C   UNL A   1      39.717  33.339  36.172  1.00  0.00     0.173 A 
ATOM     94  F   UNL A   1      37.775  30.315  36.741  1.00  0.00    -0.203 F 
ATOM     95  C   UNL A   1      37.865  32.320  37.971  1.00  0.00     0.198 A 
ATOM     96  C   UNL A   1      39.312  34.100  37.266  1.00  0.00     0.198 A 
ATOM     97  F   UNL A   1      40.608  33.863  35.318  1.00  0.00    -0.203 F 
ATOM     98  F   UNL A   1      36.941  31.841  38.815  1.00  0.00    -0.200 F 
ATOM     99  C   UNL A   1      38.381  33.594  38.159  1.00  0.00     0.200 A 
ATOM    100  F   UNL A   1      39.825  35.324  37.454  1.00  0.00    -0.200 F 
ATOM    101  F   UNL A   1      37.974  34.336  39.197  1.00  0.00    -0.200 F 
ENDBRANCH  68  91
ENDBRANCH  42  43
ENDBRANCH  34  37
ENDBRANCH  32  33
ENDBRANCH  31  32
ENDBRANCH  30  31
ENDBRANCH   1  30
TORSDOF 15
ENDMDL
