MODEL 1
REMARK VINA RESULT:     -12.3      0.000      0.000
REMARK SMILES C[C@]12C=CC(=O)C=C1CC[C@H]1[C@H]2[C@H](O)C[C@]2(C)[C@H]1CC[C@]2(O)C(=O)COC(=O)CCC(=O)NCCCCNC(=O)c1ccc(-c2c3nc(c(-c4c(F)c(F)c(F)c(F)c4F)c4ccc([nH]4)c(-c4c(F)c(F)c(F)c(F)c4F)c4nc(c(-c5c(F)c(F)c(F)c(F)c5F)c5ccc2[nH]5)C=C4)C=C3)cc1
REMARK SMILES IDX 31 1 32 2 33 3 30 5 29 6 27 7 28 8 26 9 25 10 23 11 24 12
REMARK SMILES IDX 21 13 1 14 2 15 3 16 8 17 12 18 4 19 7 20 9 21 11 22 13 23
REMARK SMILES IDX 5 24 10 25 18 26 15 27 6 28 16 29 19 30 17 31 20 32 14 33
REMARK SMILES IDX 22 35 34 37 35 38 36 39 37 40 38 41 39 42 40 44 41 45 42 46
REMARK SMILES IDX 103 47 43 48 102 49 44 50 45 51 46 52 96 53 47 54 101 55
REMARK SMILES IDX 95 56 97 57 48 58 100 59 94 60 93 61 49 63 81 64 61 65 80 66
REMARK SMILES IDX 62 67 65 68 79 69 98 70 63 71 64 72 78 74 99 75 66 76 50 77
REMARK SMILES IDX 51 78 59 79 52 80 53 81 57 82 60 83 54 84 55 85 58 86 56 87
REMARK SMILES IDX 82 88 83 89 91 90 84 91 85 92 89 93 92 94 86 95 87 96 90 97
REMARK SMILES IDX 88 98 67 99 68 100 76 101 69 102 70 103 74 104 77 105 71 106
REMARK SMILES IDX 72 107 75 108 73 109
REMARK H PARENT 33 4 14 34 22 36 38 43 97 62 65 73
REMARK Flexibility Score: inf
ROOT
ATOM      1  C   UNL A   1      36.241  33.504  28.695  1.00  0.00     0.220 C 
ATOM      2  O   UNL A   1      37.445  33.536  28.962  1.00  0.00    -0.275 OA
ATOM      3  N   UNL A   1      35.621  34.676  28.388  1.00  0.00    -0.356 N 
ATOM      4  H   UNL A   1      36.203  35.469  28.438  1.00  0.00     0.163 HD
ENDROOT
BRANCH   1   5
ATOM      5  C   UNL A   1      35.477  32.203  28.764  1.00  0.00     0.111 C 
BRANCH   5   6
ATOM      6  C   UNL A   1      36.232  31.105  28.028  1.00  0.00     0.132 C 
BRANCH   6   7
ATOM      7  C   UNL A   1      35.340  29.974  27.581  1.00  0.00     0.306 C 
ATOM      8  O   UNL A   1      35.749  28.870  27.257  1.00  0.00    -0.252 OA
BRANCH   7   9
ATOM      9  O   UNL A   1      34.038  30.350  27.603  1.00  0.00    -0.458 OA
BRANCH   9  10
ATOM     10  C   UNL A   1      33.048  29.433  27.134  1.00  0.00     0.311 C 
BRANCH  10  11
ATOM     11  C   UNL A   1      32.003  29.981  26.125  1.00  0.00     0.202 C 
ATOM     12  O   UNL A   1      31.399  31.011  26.418  1.00  0.00    -0.293 OA
BRANCH  11  13
ATOM     13  C   UNL A   1      31.769  29.212  24.795  1.00  0.00     0.132 C 
ATOM     14  C   UNL A   1      33.297  23.131  27.050  1.00  0.00     0.021 C 
ATOM     15  C   UNL A   1      32.863  23.401  25.581  1.00  0.00     0.013 C 
ATOM     16  C   UNL A   1      31.642  22.504  25.272  1.00  0.00    -0.012 C 
ATOM     17  C   UNL A   1      33.956  22.903  24.610  1.00  0.00    -0.056 C 
ATOM     18  C   UNL A   1      32.567  24.956  25.489  1.00  0.00     0.035 C 
ATOM     19  C   UNL A   1      31.779  21.163  25.379  1.00  0.00     0.048 C 
ATOM     20  C   UNL A   1      34.014  21.605  24.237  1.00  0.00     0.052 C 
ATOM     21  C   UNL A   1      34.842  23.845  23.854  1.00  0.00     0.032 C 
ATOM     22  C   UNL A   1      32.908  25.531  24.108  1.00  0.00    -0.000 C 
ATOM     23  C   UNL A   1      31.176  25.411  25.990  1.00  0.00     0.119 C 
ATOM     24  C   UNL A   1      33.008  20.621  24.703  1.00  0.00     0.178 C 
ATOM     25  C   UNL A   1      34.404  25.291  23.841  1.00  0.00     0.009 C 
ATOM     26  C   UNL A   1      32.606  27.035  23.931  1.00  0.00     0.002 C 
ATOM     27  C   UNL A   1      31.107  26.947  26.020  1.00  0.00     0.042 C 
ATOM     28  O   UNL A   1      33.174  19.418  24.545  1.00  0.00    -0.290 OA
ATOM     29  C   UNL A   1      31.381  27.651  24.671  1.00  0.00     0.009 C 
ATOM     30  C   UNL A   1      33.739  27.993  24.276  1.00  0.00     0.008 C 
ATOM     31  C   UNL A   1      30.146  27.444  23.737  1.00  0.00     0.015 C 
ATOM     32  C   UNL A   1      33.083  29.327  24.023  1.00  0.00     0.044 C 
BRANCH  23  33
ATOM     33  O   UNL A   1      30.110  24.920  25.188  1.00  0.00    -0.393 OA
ATOM     34  H   UNL A   1      29.276  25.001  25.675  1.00  0.00     0.210 HD
ENDBRANCH  23  33
BRANCH  13  35
ATOM     35  O   UNL A   1      30.743  29.965  24.161  1.00  0.00    -0.381 OA
ATOM     36  H   UNL A   1      30.820  30.897  24.419  1.00  0.00     0.212 HD
ENDBRANCH  13  35
ENDBRANCH  11  13
ENDBRANCH  10  11
ENDBRANCH   9  10
ENDBRANCH   7   9
ENDBRANCH   6   7
ENDBRANCH   5   6
ENDBRANCH   1   5
BRANCH   3  37
ATOM     37  C   UNL A   1      34.251  34.959  27.998  1.00  0.00     0.116 C 
BRANCH  37  38
ATOM     38  C   UNL A   1      33.265  34.759  29.153  1.00  0.00     0.023 C 
BRANCH  38  39
ATOM     39  C   UNL A   1      32.904  36.017  29.935  1.00  0.00     0.023 C 
BRANCH  39  40
ATOM     40  C   UNL A   1      32.269  35.780  31.302  1.00  0.00     0.116 C 
BRANCH  40  41
ATOM     41  N   UNL A   1      32.651  36.721  32.353  1.00  0.00    -0.352 N 
ATOM     42  C   UNL A   1      33.762  36.702  33.181  1.00  0.00     0.251 C 
ATOM     43  H   UNL A   1      32.034  37.476  32.491  1.00  0.00     0.163 HD
ATOM     44  O   UNL A   1      33.977  37.578  34.001  1.00  0.00    -0.269 OA
BRANCH  42  45
ATOM     45  C   UNL A   1      34.661  35.539  33.161  1.00  0.00     0.039 A 
ATOM     46  C   UNL A   1      35.783  35.610  32.327  1.00  0.00     0.014 A 
ATOM     47  C   UNL A   1      34.481  34.470  34.032  1.00  0.00     0.014 A 
ATOM     48  C   UNL A   1      36.803  34.681  32.479  1.00  0.00     0.010 A 
ATOM     49  C   UNL A   1      35.545  33.616  34.263  1.00  0.00     0.010 A 
ATOM     50  C   UNL A   1      36.724  33.734  33.508  1.00  0.00    -0.014 A 
BRANCH  50  51
ATOM     51  C   UNL A   1      37.876  32.869  33.839  1.00  0.00     0.031 A 
ATOM     52  C   UNL A   1      38.657  33.137  35.088  1.00  0.00     0.074 A 
ATOM     53  C   UNL A   1      38.264  31.924  32.960  1.00  0.00     0.049 A 
ATOM     54  N   UNL A   1      39.775  32.597  35.496  1.00  0.00    -0.248 NA
ATOM     55  C   UNL A   1      38.137  34.190  35.975  1.00  0.00     0.031 C 
ATOM     56  C   UNL A   1      37.607  31.630  31.683  1.00  0.00     0.029 A 
ATOM     57  N   UNL A   1      39.315  31.045  32.999  1.00  0.00    -0.354 N 
ATOM     58  C   UNL A   1      40.103  33.265  36.666  1.00  0.00     0.074 A 
ATOM     59  C   UNL A   1      39.105  34.291  36.870  1.00  0.00     0.031 C 
ATOM     60  C   UNL A   1      38.251  30.619  31.077  1.00  0.00     0.029 A 
ATOM     61  C   UNL A   1      39.388  30.225  31.899  1.00  0.00     0.049 A 
ATOM     62  H   UNL A   1      39.957  31.004  33.745  1.00  0.00     0.167 HD
ATOM     63  C   UNL A   1      41.132  33.019  37.509  1.00  0.00     0.037 A 
ATOM     64  C   UNL A   1      40.282  29.266  31.593  1.00  0.00     0.037 A 
ATOM     65  C   UNL A   1      42.087  31.965  37.310  1.00  0.00     0.049 A 
ATOM     66  C   UNL A   1      41.398  28.993  32.564  1.00  0.00     0.074 A 
ATOM     67  C   UNL A   1      43.132  31.579  38.128  1.00  0.00     0.029 A 
ATOM     68  N   UNL A   1      42.104  31.119  36.208  1.00  0.00    -0.354 N 
ATOM     69  N   UNL A   1      41.667  29.586  33.702  1.00  0.00    -0.248 NA
ATOM     70  C   UNL A   1      42.333  27.916  32.212  1.00  0.00     0.031 C 
ATOM     71  C   UNL A   1      43.804  30.522  37.504  1.00  0.00     0.029 A 
ATOM     72  C   UNL A   1      43.150  30.220  36.319  1.00  0.00     0.049 A 
ATOM     73  H   UNL A   1      41.466  31.155  35.459  1.00  0.00     0.167 HD
ATOM     74  C   UNL A   1      42.781  28.941  34.216  1.00  0.00     0.074 A 
ATOM     75  C   UNL A   1      43.130  27.898  33.271  1.00  0.00     0.031 C 
ATOM     76  C   UNL A   1      43.460  29.186  35.364  1.00  0.00     0.037 A 
BRANCH  63  77
ATOM     77  C   UNL A   1      41.259  33.902  38.716  1.00  0.00     0.064 A 
ATOM     78  C   UNL A   1      40.574  33.622  39.909  1.00  0.00     0.173 A 
ATOM     79  C   UNL A   1      42.072  35.045  38.680  1.00  0.00     0.173 A 
ATOM     80  F   UNL A   1      39.768  32.552  39.989  1.00  0.00    -0.203 F 
ATOM     81  C   UNL A   1      40.669  34.471  41.007  1.00  0.00     0.198 A 
ATOM     82  C   UNL A   1      42.190  35.874  39.792  1.00  0.00     0.198 A 
ATOM     83  F   UNL A   1      42.747  35.360  37.566  1.00  0.00    -0.203 F 
ATOM     84  F   UNL A   1      39.954  34.216  42.112  1.00  0.00    -0.200 F 
ATOM     85  C   UNL A   1      41.481  35.594  40.951  1.00  0.00     0.200 A 
ATOM     86  F   UNL A   1      42.983  36.954  39.739  1.00  0.00    -0.200 F 
ATOM     87  F   UNL A   1      41.572  36.411  42.009  1.00  0.00    -0.200 F 
ENDBRANCH  63  77
BRANCH  64  88
ATOM     88  C   UNL A   1      40.137  28.477  30.341  1.00  0.00     0.064 A 
ATOM     89  C   UNL A   1      40.742  28.905  29.151  1.00  0.00     0.173 A 
ATOM     90  C   UNL A   1      39.400  27.284  30.304  1.00  0.00     0.173 A 
ATOM     91  F   UNL A   1      41.446  30.046  29.131  1.00  0.00    -0.203 F 
ATOM     92  C   UNL A   1      40.597  28.183  27.967  1.00  0.00     0.198 A 
ATOM     93  C   UNL A   1      39.278  26.549  29.126  1.00  0.00     0.198 A 
ATOM     94  F   UNL A   1      38.808  26.825  31.416  1.00  0.00    -0.203 F 
ATOM     95  F   UNL A   1      41.150  28.639  26.836  1.00  0.00    -0.200 F 
ATOM     96  C   UNL A   1      39.869  27.002  27.957  1.00  0.00     0.200 A 
ATOM     97  F   UNL A   1      38.586  25.401  29.124  1.00  0.00    -0.200 F 
ATOM     98  F   UNL A   1      39.732  26.307  26.819  1.00  0.00    -0.200 F 
ENDBRANCH  64  88
BRANCH  76  99
ATOM     99  C   UNL A   1      44.624  28.293  35.673  1.00  0.00     0.064 A 
ATOM    100  C   UNL A   1      45.926  28.618  35.267  1.00  0.00     0.173 A 
ATOM    101  C   UNL A   1      44.437  27.126  36.429  1.00  0.00     0.173 A 
ATOM    102  F   UNL A   1      46.148  29.716  34.529  1.00  0.00    -0.203 F 
ATOM    103  C   UNL A   1      46.999  27.793  35.591  1.00  0.00     0.198 A 
ATOM    104  C   UNL A   1      45.517  26.320  36.776  1.00  0.00     0.198 A 
ATOM    105  F   UNL A   1      43.211  26.778  36.845  1.00  0.00    -0.203 F 
ATOM    106  F   UNL A   1      48.229  28.100  35.158  1.00  0.00    -0.200 F 
ATOM    107  C   UNL A   1      46.795  26.651  36.352  1.00  0.00     0.200 A 
ATOM    108  F   UNL A   1      45.321  25.225  37.522  1.00  0.00    -0.200 F 
ATOM    109  F   UNL A   1      47.832  25.866  36.672  1.00  0.00    -0.200 F 
ENDBRANCH  76  99
ENDBRANCH  50  51
ENDBRANCH  42  45
ENDBRANCH  40  41
ENDBRANCH  39  40
ENDBRANCH  38  39
ENDBRANCH  37  38
ENDBRANCH   3  37
TORSDOF 19
ENDMDL
MODEL 2
REMARK VINA RESULT:     -12.2      3.490      9.978
REMARK SMILES C[C@]12C=CC(=O)C=C1CC[C@H]1[C@H]2[C@H](O)C[C@]2(C)[C@H]1CC[C@]2(O)C(=O)COC(=O)CCC(=O)NCCCCNC(=O)c1ccc(-c2c3nc(c(-c4c(F)c(F)c(F)c(F)c4F)c4ccc([nH]4)c(-c4c(F)c(F)c(F)c(F)c4F)c4nc(c(-c5c(F)c(F)c(F)c(F)c5F)c5ccc2[nH]5)C=C4)C=C3)cc1
REMARK SMILES IDX 31 1 32 2 33 3 30 5 29 6 27 7 28 8 26 9 25 10 23 11 24 12
REMARK SMILES IDX 21 13 1 14 2 15 3 16 8 17 12 18 4 19 7 20 9 21 11 22 13 23
REMARK SMILES IDX 5 24 10 25 18 26 15 27 6 28 16 29 19 30 17 31 20 32 14 33
REMARK SMILES IDX 22 35 34 37 35 38 36 39 37 40 38 41 39 42 40 44 41 45 42 46
REMARK SMILES IDX 103 47 43 48 102 49 44 50 45 51 46 52 96 53 47 54 101 55
REMARK SMILES IDX 95 56 97 57 48 58 100 59 94 60 93 61 49 63 81 64 61 65 80 66
REMARK SMILES IDX 62 67 65 68 79 69 98 70 63 71 64 72 78 74 99 75 66 76 50 77
REMARK SMILES IDX 51 78 59 79 52 80 53 81 57 82 60 83 54 84 55 85 58 86 56 87
REMARK SMILES IDX 82 88 83 89 91 90 84 91 85 92 89 93 92 94 86 95 87 96 90 97
REMARK SMILES IDX 88 98 67 99 68 100 76 101 69 102 70 103 74 104 77 105 71 106
REMARK SMILES IDX 72 107 75 108 73 109
REMARK H PARENT 33 4 14 34 22 36 38 43 97 62 65 73
REMARK Flexibility Score: inf
ROOT
ATOM      1  C   UNL A   1      39.594  22.854  26.869  1.00  0.00     0.220 C 
ATOM      2  O   UNL A   1      40.090  21.741  27.060  1.00  0.00    -0.275 OA
ATOM      3  N   UNL A   1      40.200  23.932  27.437  1.00  0.00    -0.356 N 
ATOM      4  H   UNL A   1      40.985  23.713  27.988  1.00  0.00     0.163 HD
ENDROOT
BRANCH   1   5
ATOM      5  C   UNL A   1      38.318  22.996  26.072  1.00  0.00     0.111 C 
BRANCH   5   6
ATOM      6  C   UNL A   1      37.956  21.674  25.410  1.00  0.00     0.132 C 
BRANCH   6   7
ATOM      7  C   UNL A   1      36.471  21.490  25.233  1.00  0.00     0.306 C 
ATOM      8  O   UNL A   1      35.943  20.425  24.954  1.00  0.00    -0.252 OA
BRANCH   7   9
ATOM      9  O   UNL A   1      35.813  22.658  25.439  1.00  0.00    -0.458 OA
BRANCH   9  10
ATOM     10  C   UNL A   1      35.538  23.500  24.320  1.00  0.00     0.311 C 
BRANCH  10  11
ATOM     11  C   UNL A   1      34.045  23.797  24.012  1.00  0.00     0.202 C 
ATOM     12  O   UNL A   1      33.639  23.602  22.869  1.00  0.00    -0.293 OA
BRANCH  11  13
ATOM     13  C   UNL A   1      33.133  24.322  25.157  1.00  0.00     0.132 C 
ATOM     14  C   UNL A   1      30.221  29.243  21.736  1.00  0.00     0.021 C 
ATOM     15  C   UNL A   1      29.887  28.939  23.224  1.00  0.00     0.013 C 
ATOM     16  C   UNL A   1      28.363  28.699  23.331  1.00  0.00    -0.012 C 
ATOM     17  C   UNL A   1      30.136  30.195  24.087  1.00  0.00    -0.056 C 
ATOM     18  C   UNL A   1      30.772  27.685  23.625  1.00  0.00     0.035 C 
ATOM     19  C   UNL A   1      27.523  29.691  22.958  1.00  0.00     0.048 C 
ATOM     20  C   UNL A   1      29.199  31.164  24.190  1.00  0.00     0.052 C 
ATOM     21  C   UNL A   1      31.298  30.300  25.027  1.00  0.00     0.032 C 
ATOM     22  C   UNL A   1      31.201  27.725  25.098  1.00  0.00    -0.000 C 
ATOM     23  C   UNL A   1      30.214  26.302  23.212  1.00  0.00     0.119 C 
ATOM     24  C   UNL A   1      27.881  31.037  23.523  1.00  0.00     0.178 C 
ATOM     25  C   UNL A   1      32.019  29.007  25.328  1.00  0.00     0.009 C 
ATOM     26  C   UNL A   1      32.032  26.513  25.572  1.00  0.00     0.002 C 
ATOM     27  C   UNL A   1      31.261  25.211  23.492  1.00  0.00     0.042 C 
ATOM     28  O   UNL A   1      27.118  31.991  23.436  1.00  0.00    -0.290 OA
ATOM     29  C   UNL A   1      31.740  25.111  24.958  1.00  0.00     0.009 C 
ATOM     30  C   UNL A   1      33.544  26.642  25.441  1.00  0.00     0.008 C 
ATOM     31  C   UNL A   1      30.599  24.478  25.818  1.00  0.00     0.015 C 
ATOM     32  C   UNL A   1      34.000  25.298  25.951  1.00  0.00     0.044 C 
BRANCH  23  33
ATOM     33  O   UNL A   1      29.009  25.966  23.886  1.00  0.00    -0.393 OA
ATOM     34  H   UNL A   1      28.282  25.927  23.246  1.00  0.00     0.210 HD
ENDBRANCH  23  33
BRANCH  13  35
ATOM     35  O   UNL A   1      32.863  23.152  25.919  1.00  0.00    -0.381 OA
ATOM     36  H   UNL A   1      33.599  22.987  26.529  1.00  0.00     0.212 HD
ENDBRANCH  13  35
ENDBRANCH  11  13
ENDBRANCH  10  11
ENDBRANCH   9  10
ENDBRANCH   7   9
ENDBRANCH   6   7
ENDBRANCH   5   6
ENDBRANCH   1   5
BRANCH   3  37
ATOM     37  C   UNL A   1      39.888  25.348  27.369  1.00  0.00     0.116 C 
BRANCH  37  38
ATOM     38  C   UNL A   1      41.050  26.173  26.806  1.00  0.00     0.023 C 
BRANCH  38  39
ATOM     39  C   UNL A   1      41.588  25.715  25.455  1.00  0.00     0.023 C 
BRANCH  39  40
ATOM     40  C   UNL A   1      42.884  24.910  25.504  1.00  0.00     0.116 C 
BRANCH  40  41
ATOM     41  N   UNL A   1      44.030  25.509  24.823  1.00  0.00    -0.352 N 
ATOM     42  C   UNL A   1      44.945  26.433  25.301  1.00  0.00     0.251 C 
ATOM     43  H   UNL A   1      44.172  25.215  23.894  1.00  0.00     0.163 HD
ATOM     44  O   UNL A   1      45.882  26.827  24.629  1.00  0.00    -0.269 OA
BRANCH  42  45
ATOM     45  C   UNL A   1      44.731  27.051  26.618  1.00  0.00     0.039 A 
ATOM     46  C   UNL A   1      44.530  28.435  26.651  1.00  0.00     0.014 A 
ATOM     47  C   UNL A   1      44.599  26.278  27.767  1.00  0.00     0.014 A 
ATOM     48  C   UNL A   1      44.044  29.024  27.811  1.00  0.00     0.010 A 
ATOM     49  C   UNL A   1      44.007  26.844  28.883  1.00  0.00     0.010 A 
ATOM     50  C   UNL A   1      43.701  28.215  28.902  1.00  0.00    -0.014 A 
BRANCH  50  51
ATOM     51  C   UNL A   1      42.987  28.772  30.070  1.00  0.00     0.031 A 
ATOM     52  C   UNL A   1      41.579  29.257  29.905  1.00  0.00     0.074 A 
ATOM     53  C   UNL A   1      43.649  28.930  31.233  1.00  0.00     0.049 A 
ATOM     54  N   UNL A   1      40.822  29.902  30.752  1.00  0.00    -0.248 NA
ATOM     55  C   UNL A   1      40.956  29.028  28.591  1.00  0.00     0.031 C 
ATOM     56  C   UNL A   1      45.044  28.549  31.475  1.00  0.00     0.029 A 
ATOM     57  N   UNL A   1      43.243  29.465  32.427  1.00  0.00    -0.354 N 
ATOM     58  C   UNL A   1      39.650  30.180  30.064  1.00  0.00     0.074 A 
ATOM     59  C   UNL A   1      39.819  29.693  28.713  1.00  0.00     0.031 C 
ATOM     60  C   UNL A   1      45.365  28.835  32.747  1.00  0.00     0.029 A 
ATOM     61  C   UNL A   1      44.218  29.456  33.396  1.00  0.00     0.049 A 
ATOM     62  H   UNL A   1      42.337  29.823  32.578  1.00  0.00     0.167 HD
ATOM     63  C   UNL A   1      38.524  30.765  30.532  1.00  0.00     0.037 A 
ATOM     64  C   UNL A   1      44.181  29.906  34.664  1.00  0.00     0.037 A 
ATOM     65  C   UNL A   1      38.362  31.202  31.891  1.00  0.00     0.049 A 
ATOM     66  C   UNL A   1      42.906  30.524  35.167  1.00  0.00     0.074 A 
ATOM     67  C   UNL A   1      37.246  31.747  32.497  1.00  0.00     0.029 A 
ATOM     68  N   UNL A   1      39.355  31.133  32.861  1.00  0.00    -0.354 N 
ATOM     69  N   UNL A   1      41.777  30.726  34.530  1.00  0.00    -0.248 NA
ATOM     70  C   UNL A   1      42.894  30.971  36.566  1.00  0.00     0.031 C 
ATOM     71  C   UNL A   1      37.574  32.042  33.825  1.00  0.00     0.029 A 
ATOM     72  C   UNL A   1      38.880  31.638  34.059  1.00  0.00     0.049 A 
ATOM     73  H   UNL A   1      40.261  30.777  32.717  1.00  0.00     0.167 HD
ATOM     74  C   UNL A   1      40.914  31.298  35.452  1.00  0.00     0.074 A 
ATOM     75  C   UNL A   1      41.646  31.396  36.700  1.00  0.00     0.031 C 
ATOM     76  C   UNL A   1      39.633  31.709  35.286  1.00  0.00     0.037 A 
BRANCH  63  77
ATOM     77  C   UNL A   1      37.391  30.948  29.566  1.00  0.00     0.064 A 
ATOM     78  C   UNL A   1      37.145  32.183  28.944  1.00  0.00     0.173 A 
ATOM     79  C   UNL A   1      36.536  29.878  29.260  1.00  0.00     0.173 A 
ATOM     80  F   UNL A   1      37.920  33.242  29.219  1.00  0.00    -0.203 F 
ATOM     81  C   UNL A   1      36.065  32.349  28.082  1.00  0.00     0.198 A 
ATOM     82  C   UNL A   1      35.477  30.040  28.370  1.00  0.00     0.198 A 
ATOM     83  F   UNL A   1      36.724  28.678  29.827  1.00  0.00    -0.203 F 
ATOM     84  F   UNL A   1      35.814  33.554  27.551  1.00  0.00    -0.200 F 
ATOM     85  C   UNL A   1      35.236  31.277  27.790  1.00  0.00     0.200 A 
ATOM     86  F   UNL A   1      34.681  29.000  28.083  1.00  0.00    -0.200 F 
ATOM     87  F   UNL A   1      34.196  31.437  26.960  1.00  0.00    -0.200 F 
ENDBRANCH  63  77
BRANCH  64  88
ATOM     88  C   UNL A   1      45.369  29.757  35.546  1.00  0.00     0.064 A 
ATOM     89  C   UNL A   1      45.501  28.644  36.387  1.00  0.00     0.173 A 
ATOM     90  C   UNL A   1      46.395  30.714  35.567  1.00  0.00     0.173 A 
ATOM     91  F   UNL A   1      44.540  27.708  36.414  1.00  0.00    -0.203 F 
ATOM     92  C   UNL A   1      46.600  28.503  37.232  1.00  0.00     0.198 A 
ATOM     93  C   UNL A   1      47.507  30.559  36.393  1.00  0.00     0.198 A 
ATOM     94  F   UNL A   1      46.323  31.794  34.776  1.00  0.00    -0.203 F 
ATOM     95  F   UNL A   1      46.678  27.450  38.057  1.00  0.00    -0.200 F 
ATOM     96  C   UNL A   1      47.606  29.459  37.230  1.00  0.00     0.200 A 
ATOM     97  F   UNL A   1      48.484  31.477  36.377  1.00  0.00    -0.200 F 
ATOM     98  F   UNL A   1      48.665  29.321  38.040  1.00  0.00    -0.200 F 
ENDBRANCH  64  88
BRANCH  76  99
ATOM     99  C   UNL A   1      38.935  32.269  36.488  1.00  0.00     0.064 A 
ATOM    100  C   UNL A   1      38.070  31.486  37.265  1.00  0.00     0.173 A 
ATOM    101  C   UNL A   1      39.177  33.590  36.893  1.00  0.00     0.173 A 
ATOM    102  F   UNL A   1      37.797  30.222  36.906  1.00  0.00    -0.203 F 
ATOM    103  C   UNL A   1      37.456  32.013  38.397  1.00  0.00     0.198 A 
ATOM    104  C   UNL A   1      38.584  34.104  38.043  1.00  0.00     0.198 A 
ATOM    105  F   UNL A   1      40.002  34.375  36.185  1.00  0.00    -0.203 F 
ATOM    106  F   UNL A   1      36.600  31.261  39.103  1.00  0.00    -0.200 F 
ATOM    107  C   UNL A   1      37.720  33.317  38.789  1.00  0.00     0.200 A 
ATOM    108  F   UNL A   1      38.851  35.359  38.428  1.00  0.00    -0.200 F 
ATOM    109  F   UNL A   1      37.136  33.819  39.886  1.00  0.00    -0.200 F 
ENDBRANCH  76  99
ENDBRANCH  50  51
ENDBRANCH  42  45
ENDBRANCH  40  41
ENDBRANCH  39  40
ENDBRANCH  38  39
ENDBRANCH  37  38
ENDBRANCH   3  37
TORSDOF 19
ENDMDL
MODEL 3
REMARK VINA RESULT:     -12.2      4.983      7.645
REMARK SMILES C[C@]12C=CC(=O)C=C1CC[C@H]1[C@H]2[C@H](O)C[C@]2(C)[C@H]1CC[C@]2(O)C(=O)COC(=O)CCC(=O)NCCCCNC(=O)c1ccc(-c2c3nc(c(-c4c(F)c(F)c(F)c(F)c4F)c4ccc([nH]4)c(-c4c(F)c(F)c(F)c(F)c4F)c4nc(c(-c5c(F)c(F)c(F)c(F)c5F)c5ccc2[nH]5)C=C4)C=C3)cc1
REMARK SMILES IDX 31 1 32 2 33 3 30 5 29 6 27 7 28 8 26 9 25 10 23 11 24 12
REMARK SMILES IDX 21 13 1 14 2 15 3 16 8 17 12 18 4 19 7 20 9 21 11 22 13 23
REMARK SMILES IDX 5 24 10 25 18 26 15 27 6 28 16 29 19 30 17 31 20 32 14 33
REMARK SMILES IDX 22 35 34 37 35 38 36 39 37 40 38 41 39 42 40 44 41 45 42 46
REMARK SMILES IDX 103 47 43 48 102 49 44 50 45 51 46 52 96 53 47 54 101 55
REMARK SMILES IDX 95 56 97 57 48 58 100 59 94 60 93 61 49 63 81 64 61 65 80 66
REMARK SMILES IDX 62 67 65 68 79 69 98 70 63 71 64 72 78 74 99 75 66 76 50 77
REMARK SMILES IDX 51 78 59 79 52 80 53 81 57 82 60 83 54 84 55 85 58 86 56 87
REMARK SMILES IDX 82 88 83 89 91 90 84 91 85 92 89 93 92 94 86 95 87 96 90 97
REMARK SMILES IDX 88 98 67 99 68 100 76 101 69 102 70 103 74 104 77 105 71 106
REMARK SMILES IDX 72 107 75 108 73 109
REMARK H PARENT 33 4 14 34 22 36 38 43 97 62 65 73
REMARK Flexibility Score: inf
ROOT
ATOM      1  C   UNL A   1      34.695  30.464  27.548  1.00  0.00     0.220 C 
ATOM      2  O   UNL A   1      33.998  31.467  27.380  1.00  0.00    -0.275 OA
ATOM      3  N   UNL A   1      35.862  30.601  28.235  1.00  0.00    -0.356 N 
ATOM      4  H   UNL A   1      36.061  31.523  28.518  1.00  0.00     0.163 HD
ENDROOT
BRANCH   1   5
ATOM      5  C   UNL A   1      34.282  29.137  26.954  1.00  0.00     0.111 C 
BRANCH   5   6
ATOM      6  C   UNL A   1      33.390  29.355  25.740  1.00  0.00     0.132 C 
BRANCH   6   7
ATOM      7  C   UNL A   1      31.938  29.061  26.016  1.00  0.00     0.306 C 
ATOM      8  O   UNL A   1      31.406  29.208  27.106  1.00  0.00    -0.252 OA
BRANCH   7   9
ATOM      9  O   UNL A   1      31.311  28.630  24.893  1.00  0.00    -0.458 OA
BRANCH   9  10
ATOM     10  C   UNL A   1      30.800  27.298  24.858  1.00  0.00     0.311 C 
BRANCH  10  11
ATOM     11  C   UNL A   1      31.779  26.158  25.250  1.00  0.00     0.202 C 
ATOM     12  O   UNL A   1      31.702  25.693  26.385  1.00  0.00    -0.293 OA
BRANCH  11  13
ATOM     13  C   UNL A   1      32.806  25.654  24.197  1.00  0.00     0.132 C 
ATOM     14  C   UNL A   1      32.153  19.137  25.422  1.00  0.00     0.021 C 
ATOM     15  C   UNL A   1      33.119  19.699  24.341  1.00  0.00     0.013 C 
ATOM     16  C   UNL A   1      32.760  19.037  22.991  1.00  0.00    -0.012 C 
ATOM     17  C   UNL A   1      34.561  19.223  24.626  1.00  0.00    -0.056 C 
ATOM     18  C   UNL A   1      32.935  21.273  24.363  1.00  0.00     0.035 C 
ATOM     19  C   UNL A   1      32.832  17.690  22.889  1.00  0.00     0.048 C 
ATOM     20  C   UNL A   1      34.985  18.007  24.214  1.00  0.00     0.052 C 
ATOM     21  C   UNL A   1      35.618  20.148  25.146  1.00  0.00     0.032 C 
ATOM     22  C   UNL A   1      34.236  22.015  24.028  1.00  0.00    -0.000 C 
ATOM     23  C   UNL A   1      31.723  21.825  23.574  1.00  0.00     0.119 C 
ATOM     24  C   UNL A   1      34.105  17.105  23.434  1.00  0.00     0.178 C 
ATOM     25  C   UNL A   1      35.298  21.623  25.069  1.00  0.00     0.009 C 
ATOM     26  C   UNL A   1      34.122  23.555  23.989  1.00  0.00     0.002 C 
ATOM     27  C   UNL A   1      31.563  23.330  23.843  1.00  0.00     0.042 C 
ATOM     28  O   UNL A   1      34.403  15.934  23.244  1.00  0.00    -0.290 OA
ATOM     29  C   UNL A   1      32.793  24.201  23.496  1.00  0.00     0.009 C 
ATOM     30  C   UNL A   1      34.399  24.282  25.298  1.00  0.00     0.008 C 
ATOM     31  C   UNL A   1      32.904  24.317  21.943  1.00  0.00     0.015 C 
ATOM     32  C   UNL A   1      34.165  25.716  24.893  1.00  0.00     0.044 C 
BRANCH  23  33
ATOM     33  O   UNL A   1      31.835  21.619  22.172  1.00  0.00    -0.393 OA
ATOM     34  H   UNL A   1      32.637  22.055  21.845  1.00  0.00     0.210 HD
ENDBRANCH  23  33
BRANCH  13  35
ATOM     35  O   UNL A   1      32.721  26.631  23.168  1.00  0.00    -0.381 OA
ATOM     36  H   UNL A   1      31.845  27.050  23.191  1.00  0.00     0.212 HD
ENDBRANCH  13  35
ENDBRANCH  11  13
ENDBRANCH  10  11
ENDBRANCH   9  10
ENDBRANCH   7   9
ENDBRANCH   6   7
ENDBRANCH   5   6
ENDBRANCH   1   5
BRANCH   3  37
ATOM     37  C   UNL A   1      36.862  29.623  28.625  1.00  0.00     0.116 C 
BRANCH  37  38
ATOM     38  C   UNL A   1      37.363  29.842  30.056  1.00  0.00     0.023 C 
BRANCH  38  39
ATOM     39  C   UNL A   1      36.278  29.985  31.117  1.00  0.00     0.023 C 
BRANCH  39  40
ATOM     40  C   UNL A   1      35.904  31.419  31.483  1.00  0.00     0.116 C 
BRANCH  40  41
ATOM     41  N   UNL A   1      36.008  31.761  32.900  1.00  0.00    -0.352 N 
ATOM     42  C   UNL A   1      37.140  32.032  33.652  1.00  0.00     0.251 C 
ATOM     43  H   UNL A   1      35.155  31.805  33.389  1.00  0.00     0.163 HD
ATOM     44  O   UNL A   1      37.080  32.339  34.830  1.00  0.00    -0.269 OA
BRANCH  42  45
ATOM     45  C   UNL A   1      38.470  31.842  33.055  1.00  0.00     0.039 A 
ATOM     46  C   UNL A   1      39.239  30.775  33.531  1.00  0.00     0.014 A 
ATOM     47  C   UNL A   1      38.893  32.604  31.971  1.00  0.00     0.014 A 
ATOM     48  C   UNL A   1      40.364  30.375  32.821  1.00  0.00     0.010 A 
ATOM     49  C   UNL A   1      39.942  32.135  31.200  1.00  0.00     0.010 A 
ATOM     50  C   UNL A   1      40.667  31.002  31.605  1.00  0.00    -0.014 A 
BRANCH  50  51
ATOM     51  C   UNL A   1      41.722  30.472  30.716  1.00  0.00     0.031 A 
ATOM     52  C   UNL A   1      42.928  31.313  30.430  1.00  0.00     0.074 A 
ATOM     53  C   UNL A   1      41.531  29.290  30.098  1.00  0.00     0.049 A 
ATOM     54  N   UNL A   1      43.897  31.106  29.579  1.00  0.00    -0.248 NA
ATOM     55  C   UNL A   1      43.033  32.583  31.167  1.00  0.00     0.031 C 
ATOM     56  C   UNL A   1      40.357  28.426  30.260  1.00  0.00     0.029 A 
ATOM     57  N   UNL A   1      42.312  28.616  29.197  1.00  0.00    -0.354 N 
ATOM     58  C   UNL A   1      44.706  32.230  29.658  1.00  0.00     0.074 A 
ATOM     59  C   UNL A   1      44.082  33.143  30.589  1.00  0.00     0.031 C 
ATOM     60  C   UNL A   1      40.513  27.325  29.509  1.00  0.00     0.029 A 
ATOM     61  C   UNL A   1      41.771  27.423  28.782  1.00  0.00     0.049 A 
ATOM     62  H   UNL A   1      43.181  28.954  28.877  1.00  0.00     0.167 HD
ATOM     63  C   UNL A   1      45.881  32.461  29.028  1.00  0.00     0.037 A 
ATOM     64  C   UNL A   1      42.244  26.517  27.905  1.00  0.00     0.037 A 
ATOM     65  C   UNL A   1      46.505  31.519  28.140  1.00  0.00     0.049 A 
ATOM     66  C   UNL A   1      43.568  26.786  27.243  1.00  0.00     0.074 A 
ATOM     67  C   UNL A   1      47.723  31.615  27.496  1.00  0.00     0.029 A 
ATOM     68  N   UNL A   1      45.952  30.297  27.778  1.00  0.00    -0.354 N 
ATOM     69  N   UNL A   1      44.360  27.823  27.370  1.00  0.00    -0.248 NA
ATOM     70  C   UNL A   1      44.067  25.758  26.320  1.00  0.00     0.031 C 
ATOM     71  C   UNL A   1      47.893  30.466  26.716  1.00  0.00     0.029 A 
ATOM     72  C   UNL A   1      46.801  29.634  26.909  1.00  0.00     0.049 A 
ATOM     73  H   UNL A   1      45.085  29.954  28.094  1.00  0.00     0.167 HD
ATOM     74  C   UNL A   1      45.461  27.564  26.568  1.00  0.00     0.074 A 
ATOM     75  C   UNL A   1      45.241  26.263  25.970  1.00  0.00     0.031 C 
ATOM     76  C   UNL A   1      46.555  28.332  26.342  1.00  0.00     0.037 A 
BRANCH  63  77
ATOM     77  C   UNL A   1      46.556  33.774  29.292  1.00  0.00     0.064 A 
ATOM     78  C   UNL A   1      46.311  34.903  28.495  1.00  0.00     0.173 A 
ATOM     79  C   UNL A   1      47.465  33.906  30.354  1.00  0.00     0.173 A 
ATOM     80  F   UNL A   1      45.467  34.824  27.456  1.00  0.00    -0.203 F 
ATOM     81  C   UNL A   1      46.976  36.104  28.727  1.00  0.00     0.198 A 
ATOM     82  C   UNL A   1      48.103  35.118  30.603  1.00  0.00     0.198 A 
ATOM     83  F   UNL A   1      47.738  32.859  31.145  1.00  0.00    -0.203 F 
ATOM     84  F   UNL A   1      46.773  37.148  27.912  1.00  0.00    -0.200 F 
ATOM     85  C   UNL A   1      47.867  36.213  29.784  1.00  0.00     0.200 A 
ATOM     86  F   UNL A   1      48.958  35.225  31.631  1.00  0.00    -0.200 F 
ATOM     87  F   UNL A   1      48.507  37.369  30.007  1.00  0.00    -0.200 F 
ENDBRANCH  63  77
BRANCH  64  88
ATOM     88  C   UNL A   1      41.484  25.268  27.635  1.00  0.00     0.064 A 
ATOM     89  C   UNL A   1      40.375  25.275  26.778  1.00  0.00     0.173 A 
ATOM     90  C   UNL A   1      41.848  24.044  28.218  1.00  0.00     0.173 A 
ATOM     91  F   UNL A   1      39.978  26.422  26.208  1.00  0.00    -0.203 F 
ATOM     92  C   UNL A   1      39.644  24.114  26.533  1.00  0.00     0.198 A 
ATOM     93  C   UNL A   1      41.133  22.879  27.950  1.00  0.00     0.198 A 
ATOM     94  F   UNL A   1      42.907  23.980  29.037  1.00  0.00    -0.203 F 
ATOM     95  F   UNL A   1      38.562  24.160  25.744  1.00  0.00    -0.200 F 
ATOM     96  C   UNL A   1      40.027  22.915  27.115  1.00  0.00     0.200 A 
ATOM     97  F   UNL A   1      41.516  21.719  28.503  1.00  0.00    -0.200 F 
ATOM     98  F   UNL A   1      39.327  21.798  26.876  1.00  0.00    -0.200 F 
ENDBRANCH  64  88
BRANCH  76  99
ATOM     99  C   UNL A   1      47.608  27.769  25.436  1.00  0.00     0.064 A 
ATOM    100  C   UNL A   1      47.499  27.856  24.041  1.00  0.00     0.173 A 
ATOM    101  C   UNL A   1      48.763  27.183  25.974  1.00  0.00     0.173 A 
ATOM    102  F   UNL A   1      46.404  28.394  23.482  1.00  0.00    -0.203 F 
ATOM    103  C   UNL A   1      48.501  27.357  23.216  1.00  0.00     0.198 A 
ATOM    104  C   UNL A   1      49.777  26.712  25.146  1.00  0.00     0.198 A 
ATOM    105  F   UNL A   1      48.916  27.083  27.303  1.00  0.00    -0.203 F 
ATOM    106  F   UNL A   1      48.358  27.412  21.884  1.00  0.00    -0.200 F 
ATOM    107  C   UNL A   1      49.642  26.794  23.768  1.00  0.00     0.200 A 
ATOM    108  F   UNL A   1      50.885  26.181  25.681  1.00  0.00    -0.200 F 
ATOM    109  F   UNL A   1      50.612  26.324  22.970  1.00  0.00    -0.200 F 
ENDBRANCH  76  99
ENDBRANCH  50  51
ENDBRANCH  42  45
ENDBRANCH  40  41
ENDBRANCH  39  40
ENDBRANCH  38  39
ENDBRANCH  37  38
ENDBRANCH   3  37
TORSDOF 19
ENDMDL
