MODEL 1
REMARK VINA RESULT:     -13.7      0.000      0.000
REMARK SMILES O=C(Cn1cnc(-c2ccccc2)c1-c1ccccc1)NCCCCNC(=O)c1ccc(-c2c3nc(c(-c4c(F)c(F)c(F)c(F)c4F)c4ccc([nH]4)c(-c4c(F)c(F)c(F)c(F)c4F)c4nc(c(-c5c(F)c(F)c(F)c(F)c5F)c5ccc2[nH]5)C=C4)C=C3)cc1
REMARK SMILES IDX 23 1 22 2 21 3 1 4 2 5 3 7 4 8 5 9 14 10 6 11 7 12 15 13
REMARK SMILES IDX 16 14 20 15 17 16 19 17 18 18 8 19 9 20 13 21 10 22 12 23
REMARK SMILES IDX 11 24 24 25 25 26 26 27 27 28 28 30 29 31 30 32 91 33 31 34
REMARK SMILES IDX 90 35 32 36 33 37 34 38 84 39 35 40 89 41 83 42 85 43 36 44
REMARK SMILES IDX 88 45 82 46 81 47 37 49 69 50 49 51 68 52 50 53 53 54 67 55
REMARK SMILES IDX 86 56 51 57 52 58 66 60 87 61 54 62 38 63 39 64 47 65 40 66
REMARK SMILES IDX 41 67 45 68 48 69 42 70 43 71 46 72 44 73 70 74 71 75 79 76
REMARK SMILES IDX 72 77 73 78 77 79 80 80 74 81 75 82 78 83 76 84 55 85 56 86
REMARK SMILES IDX 64 87 57 88 58 89 62 90 65 91 59 92 60 93 63 94 61 95
REMARK H PARENT 21 6 26 29 85 48 53 59
REMARK Flexibility Score: inf
ROOT
ATOM      1  C   UNL A   1      35.602  21.545  25.058  1.00  0.00     0.023 C 
ENDROOT
BRANCH   1   2
ATOM      2  C   UNL A   1      34.371  21.986  24.258  1.00  0.00     0.116 C 
BRANCH   2   3
ATOM      3  N   UNL A   1      34.422  23.382  23.855  1.00  0.00    -0.355 N 
ATOM      4  O   UNL A   1      32.691  24.073  25.198  1.00  0.00    -0.273 OA
ATOM      5  C   UNL A   1      33.574  24.337  24.386  1.00  0.00     0.239 C 
ATOM      6  H   UNL A   1      35.084  23.658  23.182  1.00  0.00     0.163 HD
BRANCH   5   7
ATOM      7  C   UNL A   1      33.773  25.748  23.864  1.00  0.00     0.223 C 
BRANCH   7   8
ATOM      8  N   UNL A   1      32.632  26.310  23.154  1.00  0.00    -0.321 N 
ATOM      9  C   UNL A   1      32.190  25.944  21.911  1.00  0.00     0.201 A 
ATOM     10  C   UNL A   1      31.806  27.324  23.611  1.00  0.00     0.076 A 
ATOM     11  N   UNL A   1      31.102  26.592  21.569  1.00  0.00    -0.236 NA
ATOM     12  C   UNL A   1      30.888  27.494  22.580  1.00  0.00     0.096 A 
BRANCH  10  13
ATOM     13  C   UNL A   1      31.917  28.019  24.893  1.00  0.00     0.000 A 
ATOM     14  C   UNL A   1      31.455  27.399  26.063  1.00  0.00     0.010 A 
ATOM     15  C   UNL A   1      32.384  29.338  24.964  1.00  0.00     0.010 A 
ATOM     16  C   UNL A   1      31.444  28.086  27.278  1.00  0.00     0.001 A 
ATOM     17  C   UNL A   1      32.378  30.023  26.183  1.00  0.00     0.001 A 
ATOM     18  C   UNL A   1      31.905  29.400  27.336  1.00  0.00     0.000 A 
ENDBRANCH  10  13
BRANCH  12  19
ATOM     19  C   UNL A   1      29.836  28.493  22.540  1.00  0.00     0.002 A 
ATOM     20  C   UNL A   1      28.577  28.213  23.081  1.00  0.00     0.010 A 
ATOM     21  C   UNL A   1      30.075  29.752  21.971  1.00  0.00     0.010 A 
ATOM     22  C   UNL A   1      27.582  29.194  23.085  1.00  0.00     0.001 A 
ATOM     23  C   UNL A   1      29.078  30.727  21.968  1.00  0.00     0.001 A 
ATOM     24  C   UNL A   1      27.833  30.450  22.531  1.00  0.00     0.000 A 
ENDBRANCH  12  19
ENDBRANCH   7   8
ENDBRANCH   5   7
ENDBRANCH   2   3
ENDBRANCH   1   2
BRANCH   1  25
ATOM     25  C   UNL A   1      36.954  22.115  24.606  1.00  0.00     0.023 C 
BRANCH  25  26
ATOM     26  C   UNL A   1      37.748  22.817  25.697  1.00  0.00     0.116 C 
BRANCH  26  27
ATOM     27  N   UNL A   1      38.770  21.976  26.324  1.00  0.00    -0.352 N 
ATOM     28  C   UNL A   1      39.994  22.376  26.848  1.00  0.00     0.251 C 
ATOM     29  H   UNL A   1      38.566  21.015  26.382  1.00  0.00     0.163 HD
ATOM     30  O   UNL A   1      40.913  21.590  26.995  1.00  0.00    -0.269 OA
BRANCH  28  31
ATOM     31  C   UNL A   1      40.153  23.793  27.235  1.00  0.00     0.039 A 
ATOM     32  C   UNL A   1      39.121  24.727  27.111  1.00  0.00     0.014 A 
ATOM     33  C   UNL A   1      41.378  24.158  27.777  1.00  0.00     0.014 A 
ATOM     34  C   UNL A   1      39.318  26.012  27.620  1.00  0.00     0.010 A 
ATOM     35  C   UNL A   1      41.491  25.332  28.463  1.00  0.00     0.010 A 
ATOM     36  C   UNL A   1      40.504  26.297  28.313  1.00  0.00    -0.014 A 
BRANCH  36  37
ATOM     37  C   UNL A   1      40.728  27.571  28.981  1.00  0.00     0.031 A 
ATOM     38  C   UNL A   1      41.773  28.423  28.361  1.00  0.00     0.074 A 
ATOM     39  C   UNL A   1      39.881  28.041  29.924  1.00  0.00     0.049 A 
ATOM     40  N   UNL A   1      42.888  28.799  28.893  1.00  0.00    -0.248 NA
ATOM     41  C   UNL A   1      41.633  28.804  26.946  1.00  0.00     0.031 C 
ATOM     42  C   UNL A   1      38.634  27.441  30.418  1.00  0.00     0.029 A 
ATOM     43  N   UNL A   1      39.898  29.238  30.565  1.00  0.00    -0.354 N 
ATOM     44  C   UNL A   1      43.508  29.621  27.958  1.00  0.00     0.074 A 
ATOM     45  C   UNL A   1      42.785  29.444  26.726  1.00  0.00     0.031 C 
ATOM     46  C   UNL A   1      37.909  28.373  31.076  1.00  0.00     0.029 A 
ATOM     47  C   UNL A   1      38.705  29.578  31.195  1.00  0.00     0.049 A 
ATOM     48  H   UNL A   1      40.693  29.820  30.583  1.00  0.00     0.167 HD
ATOM     49  C   UNL A   1      44.416  30.557  28.353  1.00  0.00     0.037 A 
ATOM     50  C   UNL A   1      38.394  30.780  31.744  1.00  0.00     0.037 A 
ATOM     51  C   UNL A   1      44.871  30.295  29.698  1.00  0.00     0.049 A 
ATOM     52  C   UNL A   1      39.680  31.479  32.005  1.00  0.00     0.074 A 
ATOM     53  C   UNL A   1      45.497  29.227  30.315  1.00  0.00     0.029 A 
ATOM     54  N   UNL A   1      44.336  31.044  30.719  1.00  0.00    -0.354 N 
ATOM     55  N   UNL A   1      40.549  31.079  32.892  1.00  0.00    -0.248 NA
ATOM     56  C   UNL A   1      40.215  32.316  30.941  1.00  0.00     0.031 C 
ATOM     57  C   UNL A   1      44.865  29.118  31.590  1.00  0.00     0.029 A 
ATOM     58  C   UNL A   1      43.962  30.174  31.711  1.00  0.00     0.049 A 
ATOM     59  H   UNL A   1      44.240  32.023  30.735  1.00  0.00     0.167 HD
ATOM     60  C   UNL A   1      41.779  31.219  32.266  1.00  0.00     0.074 A 
ATOM     61  C   UNL A   1      41.517  32.059  31.097  1.00  0.00     0.031 C 
ATOM     62  C   UNL A   1      42.824  30.395  32.573  1.00  0.00     0.037 A 
BRANCH  49  63
ATOM     63  C   UNL A   1      44.611  31.902  27.695  1.00  0.00     0.064 A 
ATOM     64  C   UNL A   1      45.769  32.118  26.920  1.00  0.00     0.173 A 
ATOM     65  C   UNL A   1      43.887  33.064  28.040  1.00  0.00     0.173 A 
ATOM     66  F   UNL A   1      46.539  31.087  26.538  1.00  0.00    -0.203 F 
ATOM     67  C   UNL A   1      46.220  33.403  26.606  1.00  0.00     0.198 A 
ATOM     68  C   UNL A   1      44.312  34.341  27.677  1.00  0.00     0.198 A 
ATOM     69  F   UNL A   1      42.810  33.029  28.831  1.00  0.00    -0.203 F 
ATOM     70  F   UNL A   1      47.398  33.561  25.990  1.00  0.00    -0.200 F 
ATOM     71  C   UNL A   1      45.496  34.514  26.994  1.00  0.00     0.200 A 
ATOM     72  F   UNL A   1      43.602  35.407  28.076  1.00  0.00    -0.200 F 
ATOM     73  F   UNL A   1      45.959  35.747  26.755  1.00  0.00    -0.200 F 
ENDBRANCH  49  63
BRANCH  50  74
ATOM     74  C   UNL A   1      37.084  31.479  31.758  1.00  0.00     0.064 A 
ATOM     75  C   UNL A   1      36.505  31.901  32.966  1.00  0.00     0.173 A 
ATOM     76  C   UNL A   1      36.508  31.997  30.579  1.00  0.00     0.173 A 
ATOM     77  F   UNL A   1      37.009  31.484  34.138  1.00  0.00    -0.203 F 
ATOM     78  C   UNL A   1      35.446  32.816  32.996  1.00  0.00     0.198 A 
ATOM     79  C   UNL A   1      35.445  32.903  30.611  1.00  0.00     0.198 A 
ATOM     80  F   UNL A   1      37.020  31.700  29.377  1.00  0.00    -0.203 F 
ATOM     81  F   UNL A   1      34.966  33.243  34.173  1.00  0.00    -0.200 F 
ATOM     82  C   UNL A   1      34.927  33.326  31.820  1.00  0.00     0.200 A 
ATOM     83  F   UNL A   1      34.960  33.403  29.466  1.00  0.00    -0.200 F 
ATOM     84  F   UNL A   1      33.954  34.247  31.851  1.00  0.00    -0.200 F 
ENDBRANCH  50  74
BRANCH  62  85
ATOM     85  C   UNL A   1      42.685  29.495  33.772  1.00  0.00     0.064 A 
ATOM     86  C   UNL A   1      42.124  28.205  33.736  1.00  0.00     0.173 A 
ATOM     87  C   UNL A   1      43.257  29.905  34.983  1.00  0.00     0.173 A 
ATOM     88  F   UNL A   1      41.660  27.685  32.595  1.00  0.00    -0.203 F 
ATOM     89  C   UNL A   1      42.082  27.397  34.870  1.00  0.00     0.198 A 
ATOM     90  C   UNL A   1      43.250  29.081  36.105  1.00  0.00     0.198 A 
ATOM     91  F   UNL A   1      43.865  31.099  35.068  1.00  0.00    -0.203 F 
ATOM     92  F   UNL A   1      41.520  26.179  34.808  1.00  0.00    -0.200 F 
ATOM     93  C   UNL A   1      42.648  27.834  36.053  1.00  0.00     0.200 A 
ATOM     94  F   UNL A   1      43.847  29.488  37.233  1.00  0.00    -0.200 F 
ATOM     95  F   UNL A   1      42.638  27.045  37.137  1.00  0.00    -0.200 F 
ENDBRANCH  62  85
ENDBRANCH  36  37
ENDBRANCH  28  31
ENDBRANCH  26  27
ENDBRANCH  25  26
ENDBRANCH   1  25
TORSDOF 14
ENDMDL
MODEL 2
REMARK VINA RESULT:     -13.5      3.415      8.909
REMARK SMILES O=C(Cn1cnc(-c2ccccc2)c1-c1ccccc1)NCCCCNC(=O)c1ccc(-c2c3nc(c(-c4c(F)c(F)c(F)c(F)c4F)c4ccc([nH]4)c(-c4c(F)c(F)c(F)c(F)c4F)c4nc(c(-c5c(F)c(F)c(F)c(F)c5F)c5ccc2[nH]5)C=C4)C=C3)cc1
REMARK SMILES IDX 23 1 22 2 21 3 1 4 2 5 3 7 4 8 5 9 14 10 6 11 7 12 15 13
REMARK SMILES IDX 16 14 20 15 17 16 19 17 18 18 8 19 9 20 13 21 10 22 12 23
REMARK SMILES IDX 11 24 24 25 25 26 26 27 27 28 28 30 29 31 30 32 91 33 31 34
REMARK SMILES IDX 90 35 32 36 33 37 34 38 84 39 35 40 89 41 83 42 85 43 36 44
REMARK SMILES IDX 88 45 82 46 81 47 37 49 69 50 49 51 68 52 50 53 53 54 67 55
REMARK SMILES IDX 86 56 51 57 52 58 66 60 87 61 54 62 38 63 39 64 47 65 40 66
REMARK SMILES IDX 41 67 45 68 48 69 42 70 43 71 46 72 44 73 70 74 71 75 79 76
REMARK SMILES IDX 72 77 73 78 77 79 80 80 74 81 75 82 78 83 76 84 55 85 56 86
REMARK SMILES IDX 64 87 57 88 58 89 62 90 65 91 59 92 60 93 63 94 61 95
REMARK H PARENT 21 6 26 29 85 48 53 59
REMARK Flexibility Score: inf
ROOT
ATOM      1  C   UNL A   1      34.163  29.198  27.293  1.00  0.00     0.023 C 
ENDROOT
BRANCH   1   2
ATOM      2  C   UNL A   1      33.126  28.101  27.022  1.00  0.00     0.116 C 
BRANCH   2   3
ATOM      3  N   UNL A   1      33.441  27.294  25.855  1.00  0.00    -0.355 N 
ATOM      4  O   UNL A   1      31.633  27.973  24.611  1.00  0.00    -0.273 OA
ATOM      5  C   UNL A   1      32.663  27.311  24.711  1.00  0.00     0.239 C 
ATOM      6  H   UNL A   1      34.235  26.714  25.880  1.00  0.00     0.163 HD
BRANCH   5   7
ATOM      7  C   UNL A   1      33.144  26.418  23.582  1.00  0.00     0.223 C 
BRANCH   7   8
ATOM      8  N   UNL A   1      32.547  25.090  23.550  1.00  0.00    -0.321 N 
ATOM      9  C   UNL A   1      31.244  24.793  23.252  1.00  0.00     0.201 A 
ATOM     10  C   UNL A   1      33.195  23.898  23.830  1.00  0.00     0.076 A 
ATOM     11  N   UNL A   1      31.027  23.500  23.247  1.00  0.00    -0.236 NA
ATOM     12  C   UNL A   1      32.205  22.936  23.663  1.00  0.00     0.096 A 
BRANCH  10  13
ATOM     13  C   UNL A   1      34.601  23.745  24.205  1.00  0.00     0.000 A 
ATOM     14  C   UNL A   1      35.502  23.164  23.302  1.00  0.00     0.010 A 
ATOM     15  C   UNL A   1      35.047  24.073  25.491  1.00  0.00     0.010 A 
ATOM     16  C   UNL A   1      36.820  22.902  23.679  1.00  0.00     0.001 A 
ATOM     17  C   UNL A   1      36.368  23.815  25.866  1.00  0.00     0.001 A 
ATOM     18  C   UNL A   1      37.252  23.226  24.964  1.00  0.00     0.000 A 
ENDBRANCH  10  13
BRANCH  12  19
ATOM     19  C   UNL A   1      32.359  21.513  23.904  1.00  0.00     0.002 A 
ATOM     20  C   UNL A   1      32.639  21.042  25.191  1.00  0.00     0.010 A 
ATOM     21  C   UNL A   1      32.214  20.595  22.854  1.00  0.00     0.010 A 
ATOM     22  C   UNL A   1      32.738  19.669  25.430  1.00  0.00     0.001 A 
ATOM     23  C   UNL A   1      32.322  19.225  23.092  1.00  0.00     0.001 A 
ATOM     24  C   UNL A   1      32.577  18.762  24.382  1.00  0.00     0.000 A 
ENDBRANCH  12  19
ENDBRANCH   7   8
ENDBRANCH   5   7
ENDBRANCH   2   3
ENDBRANCH   1   2
BRANCH   1  25
ATOM     25  C   UNL A   1      33.633  30.635  27.388  1.00  0.00     0.023 C 
BRANCH  25  26
ATOM     26  C   UNL A   1      34.685  31.683  27.715  1.00  0.00     0.116 C 
BRANCH  26  27
ATOM     27  N   UNL A   1      34.576  32.236  29.067  1.00  0.00    -0.352 N 
ATOM     28  C   UNL A   1      35.283  31.851  30.201  1.00  0.00     0.251 C 
ATOM     29  H   UNL A   1      33.927  32.965  29.186  1.00  0.00     0.163 HD
ATOM     30  O   UNL A   1      34.870  32.089  31.321  1.00  0.00    -0.269 OA
BRANCH  28  31
ATOM     31  C   UNL A   1      36.567  31.145  30.012  1.00  0.00     0.039 A 
ATOM     32  C   UNL A   1      37.781  31.820  29.856  1.00  0.00     0.014 A 
ATOM     33  C   UNL A   1      36.526  29.757  30.038  1.00  0.00     0.014 A 
ATOM     34  C   UNL A   1      38.959  31.074  29.811  1.00  0.00     0.010 A 
ATOM     35  C   UNL A   1      37.680  29.051  30.214  1.00  0.00     0.010 A 
ATOM     36  C   UNL A   1      38.897  29.687  30.012  1.00  0.00    -0.014 A 
BRANCH  36  37
ATOM     37  C   UNL A   1      40.091  28.860  30.106  1.00  0.00     0.031 A 
ATOM     38  C   UNL A   1      40.549  28.584  31.492  1.00  0.00     0.074 A 
ATOM     39  C   UNL A   1      40.584  28.192  29.039  1.00  0.00     0.049 A 
ATOM     40  N   UNL A   1      41.665  28.948  32.029  1.00  0.00    -0.248 NA
ATOM     41  C   UNL A   1      39.619  27.943  32.434  1.00  0.00     0.031 C 
ATOM     42  C   UNL A   1      40.051  28.129  27.671  1.00  0.00     0.029 A 
ATOM     43  N   UNL A   1      41.620  27.317  28.985  1.00  0.00    -0.354 N 
ATOM     44  C   UNL A   1      41.669  28.420  33.316  1.00  0.00     0.074 A 
ATOM     45  C   UNL A   1      40.324  27.972  33.568  1.00  0.00     0.031 C 
ATOM     46  C   UNL A   1      40.610  27.090  27.012  1.00  0.00     0.029 A 
ATOM     47  C   UNL A   1      41.652  26.523  27.844  1.00  0.00     0.049 A 
ATOM     48  H   UNL A   1      42.297  27.250  29.698  1.00  0.00     0.167 HD
ATOM     49  C   UNL A   1      42.843  28.184  33.965  1.00  0.00     0.037 A 
ATOM     50  C   UNL A   1      42.461  25.455  27.623  1.00  0.00     0.037 A 
ATOM     51  C   UNL A   1      43.934  28.879  33.322  1.00  0.00     0.049 A 
ATOM     52  C   UNL A   1      43.613  25.590  28.552  1.00  0.00     0.074 A 
ATOM     53  C   UNL A   1      44.198  30.206  33.037  1.00  0.00     0.029 A 
ATOM     54  N   UNL A   1      44.767  28.155  32.503  1.00  0.00    -0.354 N 
ATOM     55  N   UNL A   1      44.508  26.534  28.457  1.00  0.00    -0.248 NA
ATOM     56  C   UNL A   1      43.487  24.982  29.870  1.00  0.00     0.031 C 
ATOM     57  C   UNL A   1      44.772  30.193  31.730  1.00  0.00     0.029 A 
ATOM     58  C   UNL A   1      44.905  28.862  31.335  1.00  0.00     0.049 A 
ATOM     59  H   UNL A   1      45.187  27.292  32.715  1.00  0.00     0.167 HD
ATOM     60  C   UNL A   1      44.721  26.949  29.764  1.00  0.00     0.074 A 
ATOM     61  C   UNL A   1      44.124  25.903  30.596  1.00  0.00     0.031 C 
ATOM     62  C   UNL A   1      45.080  28.236  30.045  1.00  0.00     0.037 A 
BRANCH  49  63
ATOM     63  C   UNL A   1      43.082  27.046  34.929  1.00  0.00     0.064 A 
ATOM     64  C   UNL A   1      43.315  27.346  36.288  1.00  0.00     0.173 A 
ATOM     65  C   UNL A   1      43.399  25.729  34.536  1.00  0.00     0.173 A 
ATOM     66  F   UNL A   1      43.056  28.569  36.774  1.00  0.00    -0.203 F 
ATOM     67  C   UNL A   1      43.915  26.428  37.155  1.00  0.00     0.198 A 
ATOM     68  C   UNL A   1      43.947  24.799  35.419  1.00  0.00     0.198 A 
ATOM     69  F   UNL A   1      43.304  25.317  33.268  1.00  0.00    -0.203 F 
ATOM     70  F   UNL A   1      44.244  26.805  38.397  1.00  0.00    -0.200 F 
ATOM     71  C   UNL A   1      44.239  25.159  36.716  1.00  0.00     0.200 A 
ATOM     72  F   UNL A   1      44.268  23.578  34.969  1.00  0.00    -0.200 F 
ATOM     73  F   UNL A   1      44.877  24.301  37.523  1.00  0.00    -0.200 F 
ENDBRANCH  49  63
BRANCH  50  74
ATOM     74  C   UNL A   1      42.149  24.190  26.911  1.00  0.00     0.064 A 
ATOM     75  C   UNL A   1      43.118  23.552  26.118  1.00  0.00     0.173 A 
ATOM     76  C   UNL A   1      40.998  23.434  27.212  1.00  0.00     0.173 A 
ATOM     77  F   UNL A   1      44.261  24.184  25.809  1.00  0.00    -0.203 F 
ATOM     78  C   UNL A   1      42.965  22.228  25.690  1.00  0.00     0.198 A 
ATOM     79  C   UNL A   1      40.842  22.115  26.776  1.00  0.00     0.198 A 
ATOM     80  F   UNL A   1      40.039  23.930  28.005  1.00  0.00    -0.203 F 
ATOM     81  F   UNL A   1      43.944  21.635  24.991  1.00  0.00    -0.200 F 
ATOM     82  C   UNL A   1      41.835  21.507  26.032  1.00  0.00     0.200 A 
ATOM     83  F   UNL A   1      39.751  21.421  27.126  1.00  0.00    -0.200 F 
ATOM     84  F   UNL A   1      41.716  20.221  25.672  1.00  0.00    -0.200 F 
ENDBRANCH  50  74
BRANCH  62  85
ATOM     85  C   UNL A   1      45.471  29.127  28.897  1.00  0.00     0.064 A 
ATOM     86  C   UNL A   1      46.746  29.141  28.301  1.00  0.00     0.173 A 
ATOM     87  C   UNL A   1      44.479  29.909  28.291  1.00  0.00     0.173 A 
ATOM     88  F   UNL A   1      47.723  28.340  28.739  1.00  0.00    -0.203 F 
ATOM     89  C   UNL A   1      47.027  29.945  27.198  1.00  0.00     0.198 A 
ATOM     90  C   UNL A   1      44.750  30.681  27.165  1.00  0.00     0.198 A 
ATOM     91  F   UNL A   1      43.226  29.891  28.771  1.00  0.00    -0.203 F 
ATOM     92  F   UNL A   1      48.260  29.952  26.667  1.00  0.00    -0.200 F 
ATOM     93  C   UNL A   1      46.028  30.712  26.628  1.00  0.00     0.200 A 
ATOM     94  F   UNL A   1      43.765  31.379  26.585  1.00  0.00    -0.200 F 
ATOM     95  F   UNL A   1      46.286  31.461  25.547  1.00  0.00    -0.200 F 
ENDBRANCH  62  85
ENDBRANCH  36  37
ENDBRANCH  28  31
ENDBRANCH  26  27
ENDBRANCH  25  26
ENDBRANCH   1  25
TORSDOF 14
ENDMDL
MODEL 3
REMARK VINA RESULT:     -13.5      3.182      9.070
REMARK SMILES O=C(Cn1cnc(-c2ccccc2)c1-c1ccccc1)NCCCCNC(=O)c1ccc(-c2c3nc(c(-c4c(F)c(F)c(F)c(F)c4F)c4ccc([nH]4)c(-c4c(F)c(F)c(F)c(F)c4F)c4nc(c(-c5c(F)c(F)c(F)c(F)c5F)c5ccc2[nH]5)C=C4)C=C3)cc1
REMARK SMILES IDX 23 1 22 2 21 3 1 4 2 5 3 7 4 8 5 9 14 10 6 11 7 12 15 13
REMARK SMILES IDX 16 14 20 15 17 16 19 17 18 18 8 19 9 20 13 21 10 22 12 23
REMARK SMILES IDX 11 24 24 25 25 26 26 27 27 28 28 30 29 31 30 32 91 33 31 34
REMARK SMILES IDX 90 35 32 36 33 37 34 38 84 39 35 40 89 41 83 42 85 43 36 44
REMARK SMILES IDX 88 45 82 46 81 47 37 49 69 50 49 51 68 52 50 53 53 54 67 55
REMARK SMILES IDX 86 56 51 57 52 58 66 60 87 61 54 62 38 63 39 64 47 65 40 66
REMARK SMILES IDX 41 67 45 68 48 69 42 70 43 71 46 72 44 73 70 74 71 75 79 76
REMARK SMILES IDX 72 77 73 78 77 79 80 80 74 81 75 82 78 83 76 84 55 85 56 86
REMARK SMILES IDX 64 87 57 88 58 89 62 90 65 91 59 92 60 93 63 94 61 95
REMARK H PARENT 21 6 26 29 85 48 53 59
REMARK Flexibility Score: inf
ROOT
ATOM      1  C   UNL A   1      31.815  29.524  25.576  1.00  0.00     0.023 C 
ENDROOT
BRANCH   1   2
ATOM      2  C   UNL A   1      31.705  28.193  24.822  1.00  0.00     0.116 C 
BRANCH   2   3
ATOM      3  N   UNL A   1      32.077  27.046  25.633  1.00  0.00    -0.355 N 
ATOM      4  O   UNL A   1      32.337  25.594  23.871  1.00  0.00    -0.273 OA
ATOM      5  C   UNL A   1      32.390  25.818  25.078  1.00  0.00     0.239 C 
ATOM      6  H   UNL A   1      32.108  27.146  26.611  1.00  0.00     0.163 HD
BRANCH   5   7
ATOM      7  C   UNL A   1      32.771  24.733  26.068  1.00  0.00     0.223 C 
BRANCH   7   8
ATOM      8  N   UNL A   1      32.289  23.399  25.737  1.00  0.00    -0.321 N 
ATOM      9  C   UNL A   1      31.022  22.921  25.938  1.00  0.00     0.201 A 
ATOM     10  C   UNL A   1      33.038  22.379  25.174  1.00  0.00     0.076 A 
ATOM     11  N   UNL A   1      30.882  21.700  25.480  1.00  0.00    -0.236 NA
ATOM     12  C   UNL A   1      32.134  21.328  25.061  1.00  0.00     0.096 A 
BRANCH  10  13
ATOM     13  C   UNL A   1      34.450  22.447  24.798  1.00  0.00     0.000 A 
ATOM     14  C   UNL A   1      34.814  22.983  23.554  1.00  0.00     0.010 A 
ATOM     15  C   UNL A   1      35.444  21.892  25.614  1.00  0.00     0.010 A 
ATOM     16  C   UNL A   1      36.142  22.953  23.126  1.00  0.00     0.001 A 
ATOM     17  C   UNL A   1      36.775  21.868  25.187  1.00  0.00     0.001 A 
ATOM     18  C   UNL A   1      37.122  22.393  23.943  1.00  0.00     0.000 A 
ENDBRANCH  10  13
BRANCH  12  19
ATOM     19  C   UNL A   1      32.443  19.993  24.582  1.00  0.00     0.002 A 
ATOM     20  C   UNL A   1      32.903  19.015  25.470  1.00  0.00     0.010 A 
ATOM     21  C   UNL A   1      32.270  19.666  23.230  1.00  0.00     0.010 A 
ATOM     22  C   UNL A   1      33.153  17.717  25.015  1.00  0.00     0.001 A 
ATOM     23  C   UNL A   1      32.528  18.373  22.776  1.00  0.00     0.001 A 
ATOM     24  C   UNL A   1      32.963  17.397  23.671  1.00  0.00     0.000 A 
ENDBRANCH  12  19
ENDBRANCH   7   8
ENDBRANCH   5   7
ENDBRANCH   2   3
ENDBRANCH   1   2
BRANCH   1  25
ATOM     25  C   UNL A   1      32.231  29.443  27.051  1.00  0.00     0.023 C 
BRANCH  25  26
ATOM     26  C   UNL A   1      33.700  29.734  27.316  1.00  0.00     0.116 C 
BRANCH  26  27
ATOM     27  N   UNL A   1      34.057  31.150  27.205  1.00  0.00    -0.352 N 
ATOM     28  C   UNL A   1      35.123  31.807  27.810  1.00  0.00     0.251 C 
ATOM     29  H   UNL A   1      33.475  31.700  26.634  1.00  0.00     0.163 HD
ATOM     30  O   UNL A   1      35.121  33.014  27.967  1.00  0.00    -0.269 OA
BRANCH  28  31
ATOM     31  C   UNL A   1      36.275  30.997  28.255  1.00  0.00     0.039 A 
ATOM     32  C   UNL A   1      36.399  29.637  27.954  1.00  0.00     0.014 A 
ATOM     33  C   UNL A   1      37.269  31.660  28.962  1.00  0.00     0.014 A 
ATOM     34  C   UNL A   1      37.580  28.981  28.305  1.00  0.00     0.010 A 
ATOM     35  C   UNL A   1      38.496  31.082  29.106  1.00  0.00     0.010 A 
ATOM     36  C   UNL A   1      38.632  29.721  28.864  1.00  0.00    -0.014 A 
BRANCH  36  37
ATOM     37  C   UNL A   1      39.937  29.136  29.138  1.00  0.00     0.031 A 
ATOM     38  C   UNL A   1      40.214  28.875  30.573  1.00  0.00     0.074 A 
ATOM     39  C   UNL A   1      40.718  28.639  28.152  1.00  0.00     0.049 A 
ATOM     40  N   UNL A   1      41.134  29.415  31.299  1.00  0.00    -0.248 NA
ATOM     41  C   UNL A   1      39.291  28.012  31.329  1.00  0.00     0.031 C 
ATOM     42  C   UNL A   1      40.434  28.554  26.713  1.00  0.00     0.029 A 
ATOM     43  N   UNL A   1      41.903  27.984  28.251  1.00  0.00    -0.354 N 
ATOM     44  C   UNL A   1      41.037  28.824  32.555  1.00  0.00     0.074 A 
ATOM     45  C   UNL A   1      39.786  28.110  32.566  1.00  0.00     0.031 C 
ATOM     46  C   UNL A   1      41.286  27.682  26.132  1.00  0.00     0.029 A 
ATOM     47  C   UNL A   1      42.274  27.279  27.112  1.00  0.00     0.049 A 
ATOM     48  H   UNL A   1      42.456  28.008  29.066  1.00  0.00     0.167 HD
ATOM     49  C   UNL A   1      42.115  28.782  33.386  1.00  0.00     0.037 A 
ATOM     50  C   UNL A   1      43.305  26.401  27.004  1.00  0.00     0.037 A 
ATOM     51  C   UNL A   1      43.134  29.709  32.954  1.00  0.00     0.049 A 
ATOM     52  C   UNL A   1      44.244  26.702  28.117  1.00  0.00     0.074 A 
ATOM     53  C   UNL A   1      43.170  31.077  32.751  1.00  0.00     0.029 A 
ATOM     54  N   UNL A   1      44.215  29.209  32.268  1.00  0.00    -0.354 N 
ATOM     55  N   UNL A   1      44.935  27.805  28.197  1.00  0.00    -0.248 NA
ATOM     56  C   UNL A   1      44.032  26.006  29.378  1.00  0.00     0.031 C 
ATOM     57  C   UNL A   1      43.936  31.250  31.559  1.00  0.00     0.029 A 
ATOM     58  C   UNL A   1      44.394  29.995  31.159  1.00  0.00     0.049 A 
ATOM     59  H   UNL A   1      44.760  28.431  32.527  1.00  0.00     0.167 HD
ATOM     60  C   UNL A   1      44.849  28.176  29.531  1.00  0.00     0.074 A 
ATOM     61  C   UNL A   1      44.348  26.989  30.225  1.00  0.00     0.031 C 
ATOM     62  C   UNL A   1      44.894  29.491  29.901  1.00  0.00     0.037 A 
BRANCH  49  63
ATOM     63  C   UNL A   1      42.419  27.657  34.348  1.00  0.00     0.064 A 
ATOM     64  C   UNL A   1      43.006  26.476  33.848  1.00  0.00     0.173 A 
ATOM     65  C   UNL A   1      41.886  27.565  35.651  1.00  0.00     0.173 A 
ATOM     66  F   UNL A   1      43.540  26.444  32.618  1.00  0.00    -0.203 F 
ATOM     67  C   UNL A   1      42.966  25.273  34.559  1.00  0.00     0.198 A 
ATOM     68  C   UNL A   1      41.898  26.376  36.379  1.00  0.00     0.198 A 
ATOM     69  F   UNL A   1      41.234  28.577  36.232  1.00  0.00    -0.203 F 
ATOM     70  F   UNL A   1      43.410  24.147  33.985  1.00  0.00    -0.200 F 
ATOM     71  C   UNL A   1      42.402  25.223  35.819  1.00  0.00     0.200 A 
ATOM     72  F   UNL A   1      41.333  26.345  37.594  1.00  0.00    -0.200 F 
ATOM     73  F   UNL A   1      42.300  24.059  36.474  1.00  0.00    -0.200 F 
ENDBRANCH  49  63
BRANCH  50  74
ATOM     74  C   UNL A   1      43.371  25.143  26.218  1.00  0.00     0.064 A 
ATOM     75  C   UNL A   1      44.430  24.905  25.326  1.00  0.00     0.173 A 
ATOM     76  C   UNL A   1      42.557  24.033  26.526  1.00  0.00     0.173 A 
ATOM     77  F   UNL A   1      45.274  25.897  25.000  1.00  0.00    -0.203 F 
ATOM     78  C   UNL A   1      44.686  23.630  24.809  1.00  0.00     0.198 A 
ATOM     79  C   UNL A   1      42.809  22.763  26.003  1.00  0.00     0.198 A 
ATOM     80  F   UNL A   1      41.554  24.141  27.408  1.00  0.00    -0.203 F 
ATOM     81  F   UNL A   1      45.747  23.432  24.014  1.00  0.00    -0.200 F 
ATOM     82  C   UNL A   1      43.884  22.558  25.159  1.00  0.00     0.200 A 
ATOM     83  F   UNL A   1      42.036  21.728  26.361  1.00  0.00    -0.200 F 
ATOM     84  F   UNL A   1      44.166  21.326  24.712  1.00  0.00    -0.200 F 
ENDBRANCH  50  74
BRANCH  62  85
ATOM     85  C   UNL A   1      45.278  30.505  28.858  1.00  0.00     0.064 A 
ATOM     86  C   UNL A   1      46.604  30.815  28.501  1.00  0.00     0.173 A 
ATOM     87  C   UNL A   1      44.262  31.097  28.097  1.00  0.00     0.173 A 
ATOM     88  F   UNL A   1      47.639  30.209  29.093  1.00  0.00    -0.203 F 
ATOM     89  C   UNL A   1      46.892  31.719  27.480  1.00  0.00     0.198 A 
ATOM     90  C   UNL A   1      44.552  31.970  27.052  1.00  0.00     0.198 A 
ATOM     91  F   UNL A   1      42.977  30.795  28.344  1.00  0.00    -0.203 F 
ATOM     92  F   UNL A   1      48.168  32.010  27.180  1.00  0.00    -0.200 F 
ATOM     93  C   UNL A   1      45.866  32.293  26.754  1.00  0.00     0.200 A 
ATOM     94  F   UNL A   1      43.555  32.481  26.317  1.00  0.00    -0.200 F 
ATOM     95  F   UNL A   1      46.141  33.138  25.751  1.00  0.00    -0.200 F 
ENDBRANCH  62  85
ENDBRANCH  36  37
ENDBRANCH  28  31
ENDBRANCH  26  27
ENDBRANCH  25  26
ENDBRANCH   1  25
TORSDOF 14
ENDMDL
