MODEL 1
REMARK VINA RESULT:     -12.0      0.000      0.000
REMARK SMILES C[C@@H](CCO)Sc1cc(C(=O)NCCCCNC(=O)c2ccc(-c3c4nc(c(-c5c(F)c(F)c(F)c(F)c5F)c5ccc([nH]5)c(-c5c(F)c(F)c(F)c(F)c5F)c5nc(c(-c6c(F)c(F)c(F)c(F)c6F)c6ccc3[nH]6)C=C5)C=C4)cc2)c2ccccc2n1
REMARK SMILES IDX 13 1 12 2 10 3 11 4 9 6 7 7 8 8 89 9 88 10 83 11 87 12 84 13
REMARK SMILES IDX 86 14 85 15 6 16 2 17 1 18 3 19 4 20 5 21 14 23 15 24 16 25
REMARK SMILES IDX 17 26 18 27 19 29 20 30 21 31 82 32 22 33 81 34 23 35 24 36
REMARK SMILES IDX 25 37 75 38 26 39 80 40 74 41 76 42 27 43 79 44 73 45 72 46
REMARK SMILES IDX 28 48 60 49 40 50 59 51 41 52 44 53 58 54 77 55 42 56 43 57
REMARK SMILES IDX 57 59 78 60 45 61 29 62 30 63 38 64 31 65 32 66 36 67 39 68
REMARK SMILES IDX 33 69 34 70 37 71 35 72 61 73 62 74 70 75 63 76 64 77 68 78
REMARK SMILES IDX 71 79 65 80 66 81 69 82 67 83 46 84 47 85 55 86 48 87 49 88
REMARK SMILES IDX 53 89 56 90 50 91 51 92 54 93 52 94
REMARK H PARENT 12 5 5 22 17 28 76 47 44 58
REMARK Flexibility Score: inf
ROOT
ATOM      1  C   UNL A   1      37.320  23.321  25.607  1.00  0.00     0.116 C 
ENDROOT
BRANCH   1   2
ATOM      2  N   UNL A   1      36.194  23.103  26.490  1.00  0.00    -0.352 N 
ATOM      3  C   UNL A   1      34.835  23.128  26.313  1.00  0.00     0.252 C 
ATOM      4  O   UNL A   1      34.162  23.143  27.349  1.00  0.00    -0.269 OA
ATOM      5  H   UNL A   1      36.461  22.890  27.413  1.00  0.00     0.163 HD
BRANCH   3   6
ATOM      6  C   UNL A   1      34.117  22.991  25.010  1.00  0.00     0.051 A 
ATOM      7  C   UNL A   1      33.317  24.290  23.154  1.00  0.00     0.098 A 
ATOM      8  C   UNL A   1      34.024  24.216  24.334  1.00  0.00     0.050 A 
ATOM      9  N   UNL A   1      32.710  23.226  22.608  1.00  0.00    -0.241 NA
ATOM     10  C   UNL A   1      32.814  22.043  23.217  1.00  0.00     0.072 A 
ATOM     11  C   UNL A   1      33.565  21.837  24.395  1.00  0.00     0.013 A 
ATOM     12  C   UNL A   1      32.152  20.979  22.619  1.00  0.00     0.029 A 
ATOM     13  C   UNL A   1      33.733  20.495  24.803  1.00  0.00     0.011 A 
ATOM     14  C   UNL A   1      32.226  19.683  23.125  1.00  0.00     0.002 A 
ATOM     15  C   UNL A   1      33.042  19.435  24.212  1.00  0.00     0.001 A 
BRANCH   7  16
ATOM     16  S   UNL A   1      33.255  25.827  22.270  1.00  0.00    -0.103 SA
BRANCH  16  17
ATOM     17  C   UNL A   1      32.983  27.064  23.601  1.00  0.00     0.052 C 
ATOM     18  C   UNL A   1      33.827  28.333  23.489  1.00  0.00     0.020 C 
BRANCH  17  19
ATOM     19  C   UNL A   1      31.502  27.315  23.944  1.00  0.00     0.043 C 
BRANCH  19  20
ATOM     20  C   UNL A   1      30.479  27.242  22.812  1.00  0.00     0.157 C 
BRANCH  20  21
ATOM     21  O   UNL A   1      30.664  28.271  21.851  1.00  0.00    -0.396 OA
ATOM     22  H   UNL A   1      30.982  29.073  22.294  1.00  0.00     0.210 HD
ENDBRANCH  20  21
ENDBRANCH  19  20
ENDBRANCH  17  19
ENDBRANCH  16  17
ENDBRANCH   7  16
ENDBRANCH   3   6
ENDBRANCH   1   2
BRANCH   1  23
ATOM     23  C   UNL A   1      37.396  22.145  24.623  1.00  0.00     0.023 C 
BRANCH  23  24
ATOM     24  C   UNL A   1      37.876  20.829  25.220  1.00  0.00     0.023 C 
BRANCH  24  25
ATOM     25  C   UNL A   1      39.224  20.919  25.916  1.00  0.00     0.116 C 
BRANCH  25  26
ATOM     26  N   UNL A   1      39.967  19.661  25.912  1.00  0.00    -0.352 N 
ATOM     27  C   UNL A   1      41.310  19.454  26.118  1.00  0.00     0.251 C 
ATOM     28  H   UNL A   1      39.433  18.853  25.738  1.00  0.00     0.163 HD
ATOM     29  O   UNL A   1      41.803  18.338  26.003  1.00  0.00    -0.269 OA
BRANCH  27  30
ATOM     30  C   UNL A   1      42.159  20.617  26.429  1.00  0.00     0.039 A 
ATOM     31  C   UNL A   1      42.705  21.354  25.376  1.00  0.00     0.014 A 
ATOM     32  C   UNL A   1      42.294  21.044  27.752  1.00  0.00     0.014 A 
ATOM     33  C   UNL A   1      43.293  22.589  25.644  1.00  0.00     0.010 A 
ATOM     34  C   UNL A   1      42.802  22.309  28.005  1.00  0.00     0.010 A 
ATOM     35  C   UNL A   1      43.285  23.101  26.952  1.00  0.00    -0.014 A 
BRANCH  35  36
ATOM     36  C   UNL A   1      43.733  24.482  27.247  1.00  0.00     0.031 A 
ATOM     37  C   UNL A   1      42.745  25.495  27.743  1.00  0.00     0.074 A 
ATOM     38  C   UNL A   1      44.998  24.846  26.959  1.00  0.00     0.049 A 
ATOM     39  N   UNL A   1      42.900  26.780  27.926  1.00  0.00    -0.248 NA
ATOM     40  C   UNL A   1      41.389  25.003  28.036  1.00  0.00     0.031 C 
ATOM     41  C   UNL A   1      46.032  23.962  26.413  1.00  0.00     0.029 A 
ATOM     42  N   UNL A   1      45.625  26.061  27.065  1.00  0.00    -0.354 N 
ATOM     43  C   UNL A   1      41.661  27.253  28.331  1.00  0.00     0.074 A 
ATOM     44  C   UNL A   1      40.751  26.128  28.321  1.00  0.00     0.031 C 
ATOM     45  C   UNL A   1      47.167  24.660  26.250  1.00  0.00     0.029 A 
ATOM     46  C   UNL A   1      46.932  26.047  26.639  1.00  0.00     0.049 A 
ATOM     47  H   UNL A   1      45.181  26.868  27.413  1.00  0.00     0.167 HD
ATOM     48  C   UNL A   1      41.319  28.510  28.701  1.00  0.00     0.037 A 
ATOM     49  C   UNL A   1      47.832  27.044  26.561  1.00  0.00     0.037 A 
ATOM     50  C   UNL A   1      42.240  29.613  28.751  1.00  0.00     0.049 A 
ATOM     51  C   UNL A   1      47.428  28.429  26.983  1.00  0.00     0.074 A 
ATOM     52  C   UNL A   1      42.017  30.901  29.204  1.00  0.00     0.029 A 
ATOM     53  N   UNL A   1      43.561  29.556  28.333  1.00  0.00    -0.354 N 
ATOM     54  N   UNL A   1      46.273  28.850  27.436  1.00  0.00    -0.248 NA
ATOM     55  C   UNL A   1      48.451  29.479  26.877  1.00  0.00     0.031 C 
ATOM     56  C   UNL A   1      43.195  31.635  29.025  1.00  0.00     0.029 A 
ATOM     57  C   UNL A   1      44.160  30.794  28.493  1.00  0.00     0.049 A 
ATOM     58  H   UNL A   1      44.007  28.755  27.976  1.00  0.00     0.167 HD
ATOM     59  C   UNL A   1      46.432  30.206  27.685  1.00  0.00     0.074 A 
ATOM     60  C   UNL A   1      47.801  30.536  27.346  1.00  0.00     0.031 C 
ATOM     61  C   UNL A   1      45.524  31.099  28.148  1.00  0.00     0.037 A 
BRANCH  48  62
ATOM     62  C   UNL A   1      39.893  28.750  29.093  1.00  0.00     0.064 A 
ATOM     63  C   UNL A   1      38.930  29.142  28.151  1.00  0.00     0.173 A 
ATOM     64  C   UNL A   1      39.479  28.562  30.419  1.00  0.00     0.173 A 
ATOM     65  F   UNL A   1      39.281  29.350  26.873  1.00  0.00    -0.203 F 
ATOM     66  C   UNL A   1      37.609  29.363  28.528  1.00  0.00     0.198 A 
ATOM     67  C   UNL A   1      38.151  28.759  30.788  1.00  0.00     0.198 A 
ATOM     68  F   UNL A   1      40.361  28.186  31.358  1.00  0.00    -0.203 F 
ATOM     69  F   UNL A   1      36.717  29.783  27.621  1.00  0.00    -0.200 F 
ATOM     70  C   UNL A   1      37.218  29.165  29.845  1.00  0.00     0.200 A 
ATOM     71  F   UNL A   1      37.773  28.559  32.058  1.00  0.00    -0.200 F 
ATOM     72  F   UNL A   1      35.945  29.375  30.205  1.00  0.00    -0.200 F 
ENDBRANCH  48  62
BRANCH  49  73
ATOM     73  C   UNL A   1      49.208  26.766  26.076  1.00  0.00     0.064 A 
ATOM     74  C   UNL A   1      49.550  26.984  24.734  1.00  0.00     0.173 A 
ATOM     75  C   UNL A   1      50.205  26.281  26.934  1.00  0.00     0.173 A 
ATOM     76  F   UNL A   1      48.624  27.428  23.872  1.00  0.00    -0.203 F 
ATOM     77  C   UNL A   1      50.834  26.713  24.266  1.00  0.00     0.198 A 
ATOM     78  C   UNL A   1      51.495  26.032  26.470  1.00  0.00     0.198 A 
ATOM     79  F   UNL A   1      49.927  26.059  28.227  1.00  0.00    -0.203 F 
ATOM     80  F   UNL A   1      51.125  26.896  22.970  1.00  0.00    -0.200 F 
ATOM     81  C   UNL A   1      51.807  26.243  25.135  1.00  0.00     0.200 A 
ATOM     82  F   UNL A   1      52.434  25.588  27.315  1.00  0.00    -0.200 F 
ATOM     83  F   UNL A   1      53.042  25.985  24.685  1.00  0.00    -0.200 F 
ENDBRANCH  49  73
BRANCH  61  84
ATOM     84  C   UNL A   1      45.984  32.514  28.323  1.00  0.00     0.064 A 
ATOM     85  C   UNL A   1      45.839  33.459  27.298  1.00  0.00     0.173 A 
ATOM     86  C   UNL A   1      46.523  32.941  29.546  1.00  0.00     0.173 A 
ATOM     87  F   UNL A   1      45.343  33.092  26.107  1.00  0.00    -0.203 F 
ATOM     88  C   UNL A   1      46.228  34.782  27.488  1.00  0.00     0.198 A 
ATOM     89  C   UNL A   1      46.890  34.269  29.740  1.00  0.00     0.198 A 
ATOM     90  F   UNL A   1      46.677  32.073  30.557  1.00  0.00    -0.203 F 
ATOM     91  F   UNL A   1      46.111  35.663  26.485  1.00  0.00    -0.200 F 
ATOM     92  C   UNL A   1      46.745  35.187  28.710  1.00  0.00     0.200 A 
ATOM     93  F   UNL A   1      47.379  34.662  30.923  1.00  0.00    -0.200 F 
ATOM     94  F   UNL A   1      47.110  36.464  28.893  1.00  0.00    -0.200 F 
ENDBRANCH  61  84
ENDBRANCH  35  36
ENDBRANCH  27  30
ENDBRANCH  25  26
ENDBRANCH  24  25
ENDBRANCH  23  24
ENDBRANCH   1  23
TORSDOF 16
ENDMDL
MODEL 2
REMARK VINA RESULT:     -11.9      5.813     11.179
REMARK SMILES C[C@@H](CCO)Sc1cc(C(=O)NCCCCNC(=O)c2ccc(-c3c4nc(c(-c5c(F)c(F)c(F)c(F)c5F)c5ccc([nH]5)c(-c5c(F)c(F)c(F)c(F)c5F)c5nc(c(-c6c(F)c(F)c(F)c(F)c6F)c6ccc3[nH]6)C=C5)C=C4)cc2)c2ccccc2n1
REMARK SMILES IDX 13 1 12 2 10 3 11 4 9 6 7 7 8 8 89 9 88 10 83 11 87 12 84 13
REMARK SMILES IDX 86 14 85 15 6 16 2 17 1 18 3 19 4 20 5 21 14 23 15 24 16 25
REMARK SMILES IDX 17 26 18 27 19 29 20 30 21 31 82 32 22 33 81 34 23 35 24 36
REMARK SMILES IDX 25 37 75 38 26 39 80 40 74 41 76 42 27 43 79 44 73 45 72 46
REMARK SMILES IDX 28 48 60 49 40 50 59 51 41 52 44 53 58 54 77 55 42 56 43 57
REMARK SMILES IDX 57 59 78 60 45 61 29 62 30 63 38 64 31 65 32 66 36 67 39 68
REMARK SMILES IDX 33 69 34 70 37 71 35 72 61 73 62 74 70 75 63 76 64 77 68 78
REMARK SMILES IDX 71 79 65 80 66 81 69 82 67 83 46 84 47 85 55 86 48 87 49 88
REMARK SMILES IDX 53 89 56 90 50 91 51 92 54 93 52 94
REMARK H PARENT 12 5 5 22 17 28 76 47 44 58
REMARK Flexibility Score: inf
ROOT
ATOM      1  C   UNL A   1      33.853  29.344  27.028  1.00  0.00     0.116 C 
ENDROOT
BRANCH   1   2
ATOM      2  N   UNL A   1      34.093  29.227  25.606  1.00  0.00    -0.352 N 
ATOM      3  C   UNL A   1      33.751  28.294  24.662  1.00  0.00     0.252 C 
ATOM      4  O   UNL A   1      34.341  28.386  23.581  1.00  0.00    -0.269 OA
ATOM      5  H   UNL A   1      34.613  29.978  25.237  1.00  0.00     0.163 HD
BRANCH   3   6
ATOM      6  C   UNL A   1      32.644  27.296  24.776  1.00  0.00     0.051 A 
ATOM      7  C   UNL A   1      32.196  25.058  25.527  1.00  0.00     0.098 A 
ATOM      8  C   UNL A   1      33.066  26.120  25.414  1.00  0.00     0.050 A 
ATOM      9  N   UNL A   1      30.942  25.099  25.055  1.00  0.00    -0.241 NA
ATOM     10  C   UNL A   1      30.508  26.220  24.475  1.00  0.00     0.072 A 
ATOM     11  C   UNL A   1      31.291  27.390  24.361  1.00  0.00     0.013 A 
ATOM     12  C   UNL A   1      29.208  26.203  23.988  1.00  0.00     0.029 A 
ATOM     13  C   UNL A   1      30.624  28.546  23.897  1.00  0.00     0.011 A 
ATOM     14  C   UNL A   1      28.619  27.325  23.410  1.00  0.00     0.002 A 
ATOM     15  C   UNL A   1      29.325  28.513  23.386  1.00  0.00     0.001 A 
BRANCH   7  16
ATOM     16  S   UNL A   1      32.713  23.597  26.390  1.00  0.00    -0.103 SA
BRANCH  16  17
ATOM     17  C   UNL A   1      33.131  22.434  25.031  1.00  0.00     0.052 C 
ATOM     18  C   UNL A   1      32.087  21.352  24.759  1.00  0.00     0.020 C 
BRANCH  17  19
ATOM     19  C   UNL A   1      33.688  23.110  23.762  1.00  0.00     0.043 C 
BRANCH  19  20
ATOM     20  C   UNL A   1      32.925  22.923  22.453  1.00  0.00     0.157 C 
BRANCH  20  21
ATOM     21  O   UNL A   1      31.816  23.804  22.347  1.00  0.00    -0.396 OA
ATOM     22  H   UNL A   1      31.029  23.380  22.721  1.00  0.00     0.210 HD
ENDBRANCH  20  21
ENDBRANCH  19  20
ENDBRANCH  17  19
ENDBRANCH  16  17
ENDBRANCH   7  16
ENDBRANCH   3   6
ENDBRANCH   1   2
BRANCH   1  23
ATOM     23  C   UNL A   1      32.421  29.858  27.235  1.00  0.00     0.023 C 
BRANCH  23  24
ATOM     24  C   UNL A   1      32.196  31.318  26.867  1.00  0.00     0.023 C 
BRANCH  24  25
ATOM     25  C   UNL A   1      33.156  32.282  27.543  1.00  0.00     0.116 C 
BRANCH  25  26
ATOM     26  N   UNL A   1      32.630  33.639  27.668  1.00  0.00    -0.352 N 
ATOM     27  C   UNL A   1      33.059  34.659  28.484  1.00  0.00     0.251 C 
ATOM     28  H   UNL A   1      31.862  33.851  27.090  1.00  0.00     0.163 HD
ATOM     29  O   UNL A   1      32.458  35.725  28.534  1.00  0.00    -0.269 OA
BRANCH  27  30
ATOM     30  C   UNL A   1      34.232  34.421  29.343  1.00  0.00     0.039 A 
ATOM     31  C   UNL A   1      34.037  33.898  30.622  1.00  0.00     0.014 A 
ATOM     32  C   UNL A   1      35.517  34.592  28.824  1.00  0.00     0.014 A 
ATOM     33  C   UNL A   1      35.137  33.436  31.343  1.00  0.00     0.010 A 
ATOM     34  C   UNL A   1      36.598  34.055  29.506  1.00  0.00     0.010 A 
ATOM     35  C   UNL A   1      36.414  33.453  30.761  1.00  0.00    -0.014 A 
BRANCH  35  36
ATOM     36  C   UNL A   1      37.575  32.807  31.417  1.00  0.00     0.031 A 
ATOM     37  C   UNL A   1      38.239  31.631  30.766  1.00  0.00     0.074 A 
ATOM     38  C   UNL A   1      37.951  33.210  32.647  1.00  0.00     0.049 A 
ATOM     39  N   UNL A   1      39.170  30.842  31.236  1.00  0.00    -0.248 NA
ATOM     40  C   UNL A   1      37.764  31.269  29.421  1.00  0.00     0.031 C 
ATOM     41  C   UNL A   1      37.338  34.303  33.407  1.00  0.00     0.029 A 
ATOM     42  N   UNL A   1      38.927  32.732  33.485  1.00  0.00    -0.354 N 
ATOM     43  C   UNL A   1      39.376  29.881  30.257  1.00  0.00     0.074 A 
ATOM     44  C   UNL A   1      38.439  30.153  29.189  1.00  0.00     0.031 C 
ATOM     45  C   UNL A   1      37.964  34.422  34.588  1.00  0.00     0.029 A 
ATOM     46  C   UNL A   1      38.992  33.391  34.689  1.00  0.00     0.049 A 
ATOM     47  H   UNL A   1      39.523  31.985  33.246  1.00  0.00     0.167 HD
ATOM     48  C   UNL A   1      40.281  28.875  30.243  1.00  0.00     0.037 A 
ATOM     49  C   UNL A   1      39.784  33.178  35.755  1.00  0.00     0.037 A 
ATOM     50  C   UNL A   1      41.238  28.638  31.289  1.00  0.00     0.049 A 
ATOM     51  C   UNL A   1      40.784  32.057  35.711  1.00  0.00     0.074 A 
ATOM     52  C   UNL A   1      42.261  27.707  31.328  1.00  0.00     0.029 A 
ATOM     53  N   UNL A   1      41.289  29.340  32.485  1.00  0.00    -0.354 N 
ATOM     54  N   UNL A   1      41.022  31.199  34.749  1.00  0.00    -0.248 NA
ATOM     55  C   UNL A   1      41.624  31.871  36.903  1.00  0.00     0.031 C 
ATOM     56  C   UNL A   1      42.908  27.821  32.563  1.00  0.00     0.029 A 
ATOM     57  C   UNL A   1      42.310  28.846  33.279  1.00  0.00     0.049 A 
ATOM     58  H   UNL A   1      40.688  30.080  32.732  1.00  0.00     0.167 HD
ATOM     59  C   UNL A   1      42.045  30.383  35.210  1.00  0.00     0.074 A 
ATOM     60  C   UNL A   1      42.395  30.857  36.533  1.00  0.00     0.031 C 
ATOM     61  C   UNL A   1      42.639  29.333  34.594  1.00  0.00     0.037 A 
BRANCH  48  62
ATOM     62  C   UNL A   1      40.286  27.967  29.052  1.00  0.00     0.064 A 
ATOM     63  C   UNL A   1      41.024  28.274  27.899  1.00  0.00     0.173 A 
ATOM     64  C   UNL A   1      39.565  26.765  29.070  1.00  0.00     0.173 A 
ATOM     65  F   UNL A   1      41.718  29.420  27.826  1.00  0.00    -0.203 F 
ATOM     66  C   UNL A   1      41.019  27.423  26.798  1.00  0.00     0.198 A 
ATOM     67  C   UNL A   1      39.583  25.903  27.977  1.00  0.00     0.198 A 
ATOM     68  F   UNL A   1      38.844  26.425  30.149  1.00  0.00    -0.203 F 
ATOM     69  F   UNL A   1      41.694  27.759  25.690  1.00  0.00    -0.200 F 
ATOM     70  C   UNL A   1      40.304  26.235  26.840  1.00  0.00     0.200 A 
ATOM     71  F   UNL A   1      38.899  24.752  28.022  1.00  0.00    -0.200 F 
ATOM     72  F   UNL A   1      40.304  25.415  25.781  1.00  0.00    -0.200 F 
ENDBRANCH  48  62
BRANCH  49  73
ATOM     73  C   UNL A   1      39.672  34.053  36.950  1.00  0.00     0.064 A 
ATOM     74  C   UNL A   1      38.876  33.676  38.041  1.00  0.00     0.173 A 
ATOM     75  C   UNL A   1      40.353  35.276  37.030  1.00  0.00     0.173 A 
ATOM     76  F   UNL A   1      38.190  32.524  38.000  1.00  0.00    -0.203 F 
ATOM     77  C   UNL A   1      38.754  34.496  39.160  1.00  0.00     0.198 A 
ATOM     78  C   UNL A   1      40.247  36.086  38.160  1.00  0.00     0.198 A 
ATOM     79  F   UNL A   1      41.129  35.680  36.014  1.00  0.00    -0.203 F 
ATOM     80  F   UNL A   1      37.957  34.128  40.173  1.00  0.00    -0.200 F 
ATOM     81  C   UNL A   1      39.444  35.698  39.221  1.00  0.00     0.200 A 
ATOM     82  F   UNL A   1      40.924  37.240  38.219  1.00  0.00    -0.200 F 
ATOM     83  F   UNL A   1      39.328  36.485  40.299  1.00  0.00    -0.200 F 
ENDBRANCH  49  73
BRANCH  61  84
ATOM     84  C   UNL A   1      43.731  28.630  35.339  1.00  0.00     0.064 A 
ATOM     85  C   UNL A   1      43.456  27.553  36.192  1.00  0.00     0.173 A 
ATOM     86  C   UNL A   1      45.072  29.003  35.156  1.00  0.00     0.173 A 
ATOM     87  F   UNL A   1      42.188  27.172  36.410  1.00  0.00    -0.203 F 
ATOM     88  C   UNL A   1      44.483  26.879  36.846  1.00  0.00     0.198 A 
ATOM     89  C   UNL A   1      46.098  28.312  35.793  1.00  0.00     0.198 A 
ATOM     90  F   UNL A   1      45.384  30.026  34.347  1.00  0.00    -0.203 F 
ATOM     91  F   UNL A   1      44.196  25.871  37.681  1.00  0.00    -0.200 F 
ATOM     92  C   UNL A   1      45.803  27.253  36.639  1.00  0.00     0.200 A 
ATOM     93  F   UNL A   1      47.373  28.668  35.585  1.00  0.00    -0.200 F 
ATOM     94  F   UNL A   1      46.792  26.596  37.262  1.00  0.00    -0.200 F 
ENDBRANCH  61  84
ENDBRANCH  35  36
ENDBRANCH  27  30
ENDBRANCH  25  26
ENDBRANCH  24  25
ENDBRANCH  23  24
ENDBRANCH   1  23
TORSDOF 16
ENDMDL
MODEL 3
REMARK VINA RESULT:     -11.8      1.230      2.442
REMARK SMILES C[C@@H](CCO)Sc1cc(C(=O)NCCCCNC(=O)c2ccc(-c3c4nc(c(-c5c(F)c(F)c(F)c(F)c5F)c5ccc([nH]5)c(-c5c(F)c(F)c(F)c(F)c5F)c5nc(c(-c6c(F)c(F)c(F)c(F)c6F)c6ccc3[nH]6)C=C5)C=C4)cc2)c2ccccc2n1
REMARK SMILES IDX 13 1 12 2 10 3 11 4 9 6 7 7 8 8 89 9 88 10 83 11 87 12 84 13
REMARK SMILES IDX 86 14 85 15 6 16 2 17 1 18 3 19 4 20 5 21 14 23 15 24 16 25
REMARK SMILES IDX 17 26 18 27 19 29 20 30 21 31 82 32 22 33 81 34 23 35 24 36
REMARK SMILES IDX 25 37 75 38 26 39 80 40 74 41 76 42 27 43 79 44 73 45 72 46
REMARK SMILES IDX 28 48 60 49 40 50 59 51 41 52 44 53 58 54 77 55 42 56 43 57
REMARK SMILES IDX 57 59 78 60 45 61 29 62 30 63 38 64 31 65 32 66 36 67 39 68
REMARK SMILES IDX 33 69 34 70 37 71 35 72 61 73 62 74 70 75 63 76 64 77 68 78
REMARK SMILES IDX 71 79 65 80 66 81 69 82 67 83 46 84 47 85 55 86 48 87 49 88
REMARK SMILES IDX 53 89 56 90 50 91 51 92 54 93 52 94
REMARK H PARENT 12 5 5 22 17 28 76 47 44 58
REMARK Flexibility Score: inf
ROOT
ATOM      1  C   UNL A   1      36.921  23.347  25.121  1.00  0.00     0.116 C 
ENDROOT
BRANCH   1   2
ATOM      2  N   UNL A   1      36.256  23.385  23.837  1.00  0.00    -0.352 N 
ATOM      3  C   UNL A   1      34.960  23.607  23.450  1.00  0.00     0.252 C 
ATOM      4  O   UNL A   1      34.695  23.315  22.279  1.00  0.00    -0.269 OA
ATOM      5  H   UNL A   1      36.863  23.218  23.080  1.00  0.00     0.163 HD
BRANCH   3   6
ATOM      6  C   UNL A   1      33.907  24.293  24.258  1.00  0.00     0.051 A 
ATOM      7  C   UNL A   1      33.273  26.463  25.073  1.00  0.00     0.098 A 
ATOM      8  C   UNL A   1      34.104  25.681  24.300  1.00  0.00     0.050 A 
ATOM      9  N   UNL A   1      32.265  25.951  25.793  1.00  0.00    -0.241 NA
ATOM     10  C   UNL A   1      32.038  24.637  25.742  1.00  0.00     0.072 A 
ATOM     11  C   UNL A   1      32.784  23.750  24.936  1.00  0.00     0.013 A 
ATOM     12  C   UNL A   1      30.994  24.158  26.521  1.00  0.00     0.029 A 
ATOM     13  C   UNL A   1      32.298  22.427  24.846  1.00  0.00     0.011 A 
ATOM     14  C   UNL A   1      30.622  22.816  26.515  1.00  0.00     0.002 A 
ATOM     15  C   UNL A   1      31.264  21.947  25.652  1.00  0.00     0.001 A 
BRANCH   7  16
ATOM     16  S   UNL A   1      33.486  28.224  25.072  1.00  0.00    -0.103 SA
BRANCH  16  17
ATOM     17  C   UNL A   1      33.030  28.701  23.358  1.00  0.00     0.052 C 
ATOM     18  C   UNL A   1      34.146  28.551  22.325  1.00  0.00     0.020 C 
BRANCH  17  19
ATOM     19  C   UNL A   1      31.659  28.171  22.893  1.00  0.00     0.043 C 
BRANCH  19  20
ATOM     20  C   UNL A   1      30.545  29.184  22.638  1.00  0.00     0.157 C 
BRANCH  20  21
ATOM     21  O   UNL A   1      30.739  29.904  21.430  1.00  0.00    -0.396 OA
ATOM     22  H   UNL A   1      31.378  29.434  20.872  1.00  0.00     0.210 HD
ENDBRANCH  20  21
ENDBRANCH  19  20
ENDBRANCH  17  19
ENDBRANCH  16  17
ENDBRANCH   7  16
ENDBRANCH   3   6
ENDBRANCH   1   2
BRANCH   1  23
ATOM     23  C   UNL A   1      36.831  21.915  25.668  1.00  0.00     0.023 C 
BRANCH  23  24
ATOM     24  C   UNL A   1      37.881  20.950  25.137  1.00  0.00     0.023 C 
BRANCH  24  25
ATOM     25  C   UNL A   1      39.207  21.005  25.878  1.00  0.00     0.116 C 
BRANCH  25  26
ATOM     26  N   UNL A   1      39.946  19.746  25.849  1.00  0.00    -0.352 N 
ATOM     27  C   UNL A   1      41.286  19.528  26.062  1.00  0.00     0.251 C 
ATOM     28  H   UNL A   1      39.411  18.944  25.648  1.00  0.00     0.163 HD
ATOM     29  O   UNL A   1      41.776  18.414  25.922  1.00  0.00    -0.269 OA
BRANCH  27  30
ATOM     30  C   UNL A   1      42.136  20.679  26.411  1.00  0.00     0.039 A 
ATOM     31  C   UNL A   1      42.678  21.454  25.383  1.00  0.00     0.014 A 
ATOM     32  C   UNL A   1      42.276  21.058  27.748  1.00  0.00     0.014 A 
ATOM     33  C   UNL A   1      43.267  22.678  25.693  1.00  0.00     0.010 A 
ATOM     34  C   UNL A   1      42.785  22.313  28.045  1.00  0.00     0.010 A 
ATOM     35  C   UNL A   1      43.264  23.142  27.019  1.00  0.00    -0.014 A 
BRANCH  35  36
ATOM     36  C   UNL A   1      43.714  24.512  27.362  1.00  0.00     0.031 A 
ATOM     37  C   UNL A   1      42.717  25.522  27.847  1.00  0.00     0.074 A 
ATOM     38  C   UNL A   1      44.991  24.871  27.127  1.00  0.00     0.049 A 
ATOM     39  N   UNL A   1      42.877  26.802  28.066  1.00  0.00    -0.248 NA
ATOM     40  C   UNL A   1      41.348  25.037  28.082  1.00  0.00     0.031 C 
ATOM     41  C   UNL A   1      46.036  23.990  26.596  1.00  0.00     0.029 A 
ATOM     42  N   UNL A   1      45.624  26.077  27.283  1.00  0.00    -0.354 N 
ATOM     43  C   UNL A   1      41.628  27.276  28.439  1.00  0.00     0.074 A 
ATOM     44  C   UNL A   1      40.710  26.160  28.370  1.00  0.00     0.031 C 
ATOM     45  C   UNL A   1      47.181  24.681  26.488  1.00  0.00     0.029 A 
ATOM     46  C   UNL A   1      46.945  26.061  26.902  1.00  0.00     0.049 A 
ATOM     47  H   UNL A   1      45.175  26.880  27.634  1.00  0.00     0.167 HD
ATOM     48  C   UNL A   1      41.285  28.527  28.827  1.00  0.00     0.037 A 
ATOM     49  C   UNL A   1      47.855  27.051  26.878  1.00  0.00     0.037 A 
ATOM     50  C   UNL A   1      42.212  29.620  28.934  1.00  0.00     0.049 A 
ATOM     51  C   UNL A   1      47.449  28.430  27.318  1.00  0.00     0.074 A 
ATOM     52  C   UNL A   1      41.986  30.900  29.410  1.00  0.00     0.029 A 
ATOM     53  N   UNL A   1      43.547  29.561  28.561  1.00  0.00    -0.354 N 
ATOM     54  N   UNL A   1      46.282  28.851  27.741  1.00  0.00    -0.248 NA
ATOM     55  C   UNL A   1      48.484  29.472  27.273  1.00  0.00     0.031 C 
ATOM     56  C   UNL A   1      43.175  31.626  29.289  1.00  0.00     0.029 A 
ATOM     57  C   UNL A   1      44.151  30.789  28.770  1.00  0.00     0.049 A 
ATOM     58  H   UNL A   1      43.998  28.764  28.200  1.00  0.00     0.167 HD
ATOM     59  C   UNL A   1      46.444  30.199  28.027  1.00  0.00     0.074 A 
ATOM     60  C   UNL A   1      47.827  30.524  27.744  1.00  0.00     0.031 C 
ATOM     61  C   UNL A   1      45.528  31.089  28.480  1.00  0.00     0.037 A 
BRANCH  48  62
ATOM     62  C   UNL A   1      39.849  28.772  29.175  1.00  0.00     0.064 A 
ATOM     63  C   UNL A   1      39.361  28.554  30.472  1.00  0.00     0.173 A 
ATOM     64  C   UNL A   1      38.954  29.253  28.208  1.00  0.00     0.173 A 
ATOM     65  F   UNL A   1      40.174  28.078  31.428  1.00  0.00    -0.203 F 
ATOM     66  C   UNL A   1      38.024  28.783  30.783  1.00  0.00     0.198 A 
ATOM     67  C   UNL A   1      37.623  29.508  28.529  1.00  0.00     0.198 A 
ATOM     68  F   UNL A   1      39.371  29.480  26.953  1.00  0.00    -0.203 F 
ATOM     69  F   UNL A   1      37.570  28.523  32.016  1.00  0.00    -0.200 F 
ATOM     70  C   UNL A   1      37.157  29.267  29.813  1.00  0.00     0.200 A 
ATOM     71  F   UNL A   1      36.789  29.982  27.594  1.00  0.00    -0.200 F 
ATOM     72  F   UNL A   1      35.872  29.491  30.115  1.00  0.00    -0.200 F 
ENDBRANCH  48  62
BRANCH  49  73
ATOM     73  C   UNL A   1      49.245  26.772  26.434  1.00  0.00     0.064 A 
ATOM     74  C   UNL A   1      50.206  26.309  27.343  1.00  0.00     0.173 A 
ATOM     75  C   UNL A   1      49.640  26.958  25.102  1.00  0.00     0.173 A 
ATOM     76  F   UNL A   1      49.878  26.135  28.632  1.00  0.00    -0.203 F 
ATOM     77  C   UNL A   1      51.516  26.057  26.939  1.00  0.00     0.198 A 
ATOM     78  C   UNL A   1      50.945  26.684  24.695  1.00  0.00     0.198 A 
ATOM     79  F   UNL A   1      48.757  27.396  24.194  1.00  0.00    -0.203 F 
ATOM     80  F   UNL A   1      52.425  25.650  27.837  1.00  0.00    -0.200 F 
ATOM     81  C   UNL A   1      51.882  26.239  25.614  1.00  0.00     0.200 A 
ATOM     82  F   UNL A   1      51.292  26.851  23.412  1.00  0.00    -0.200 F 
ATOM     83  F   UNL A   1      53.141  25.994  25.226  1.00  0.00    -0.200 F 
ENDBRANCH  49  73
BRANCH  61  84
ATOM     84  C   UNL A   1      45.993  32.495  28.704  1.00  0.00     0.064 A 
ATOM     85  C   UNL A   1      46.553  32.891  29.927  1.00  0.00     0.173 A 
ATOM     86  C   UNL A   1      45.929  33.440  27.669  1.00  0.00     0.173 A 
ATOM     87  F   UNL A   1      46.619  32.026  30.950  1.00  0.00    -0.203 F 
ATOM     88  C   UNL A   1      47.023  34.189  30.109  1.00  0.00     0.198 A 
ATOM     89  C   UNL A   1      46.421  34.730  27.847  1.00  0.00     0.198 A 
ATOM     90  F   UNL A   1      45.405  33.106  26.480  1.00  0.00    -0.203 F 
ATOM     91  F   UNL A   1      47.525  34.556  31.296  1.00  0.00    -0.200 F 
ATOM     92  C   UNL A   1      46.964  35.104  29.068  1.00  0.00     0.200 A 
ATOM     93  F   UNL A   1      46.373  35.609  26.838  1.00  0.00    -0.200 F 
ATOM     94  F   UNL A   1      47.426  36.349  29.243  1.00  0.00    -0.200 F 
ENDBRANCH  61  84
ENDBRANCH  35  36
ENDBRANCH  27  30
ENDBRANCH  25  26
ENDBRANCH  24  25
ENDBRANCH  23  24
ENDBRANCH   1  23
TORSDOF 16
ENDMDL
