MODEL 1
REMARK VINA RESULT:     -13.4      0.000      0.000
REMARK SMILES C[NH+]1CCC(NC(=O)N[C@H]2C=C[C@H](C(=O)NCCCCNC(=O)c3ccc(-c4c5nc(c(-c6c(F)c(F)c(F)c(F)c6F)c6ccc([nH]6)c(-c6c(F)c(F)c(F)c(F)c6F)c6nc(c(-c7c(F)c(F)c(F)c(F)c7F)c7ccc4[nH]7)C=C6)C=C5)cc3)C2)CC1
REMARK SMILES IDX 18 1 17 2 16 3 14 4 15 5 13 7 10 8 11 9 87 10 12 11 9 12
REMARK SMILES IDX 6 13 7 14 8 16 5 18 1 19 2 20 3 21 89 22 4 24 88 25 19 26
REMARK SMILES IDX 20 27 21 28 22 29 23 31 24 32 25 33 86 34 26 35 85 36 27 37
REMARK SMILES IDX 28 38 29 39 79 40 30 41 84 42 78 43 80 44 31 45 83 46 77 47
REMARK SMILES IDX 76 48 32 50 64 51 44 52 63 53 45 54 48 55 62 56 81 57 46 58
REMARK SMILES IDX 47 59 61 61 82 62 49 63 33 64 34 65 42 66 35 67 36 68 40 69
REMARK SMILES IDX 43 70 37 71 38 72 41 73 39 74 65 75 66 76 74 77 67 78 68 79
REMARK SMILES IDX 72 80 75 81 69 82 70 83 73 84 71 85 50 86 51 87 59 88 52 89
REMARK SMILES IDX 53 90 57 91 60 92 54 93 55 94 58 95 56 96
REMARK H PARENT 16 6 6 15 9 17 2 23 21 30 80 49 48 60
REMARK Flexibility Score: inf
ROOT
ATOM      1  C   UNL A   1      31.934  30.518  26.702  1.00  0.00     0.023 C 
ENDROOT
BRANCH   1   2
ATOM      2  C   UNL A   1      33.420  30.155  26.820  1.00  0.00     0.116 C 
BRANCH   2   3
ATOM      3  N   UNL A   1      33.916  29.400  25.679  1.00  0.00    -0.356 N 
ATOM      4  C   UNL A   1      33.371  28.296  25.067  1.00  0.00     0.227 C 
ATOM      5  O   UNL A   1      33.868  27.899  24.014  1.00  0.00    -0.274 OA
ATOM      6  H   UNL A   1      34.761  29.725  25.292  1.00  0.00     0.163 HD
BRANCH   4   7
ATOM      7  C   UNL A   1      32.166  27.621  25.718  1.00  0.00     0.103 C 
ATOM      8  C   UNL A   1      31.374  25.297  25.585  1.00  0.00     0.107 C 
ATOM      9  C   UNL A   1      30.540  26.203  24.752  1.00  0.00    -0.006 C 
ATOM     10  C   UNL A   1      32.440  26.191  26.225  1.00  0.00     0.047 C 
ATOM     11  C   UNL A   1      31.009  27.458  24.768  1.00  0.00    -0.016 C 
BRANCH   8  12
ATOM     12  N   UNL A   1      30.596  24.430  26.456  1.00  0.00    -0.332 N 
ATOM     13  N   UNL A   1      31.539  22.288  26.905  1.00  0.00    -0.335 N 
ATOM     14  C   UNL A   1      30.584  23.212  26.995  1.00  0.00     0.315 C 
ATOM     15  H   UNL A   1      31.279  21.425  27.302  1.00  0.00     0.165 HD
ATOM     16  O   UNL A   1      29.577  22.907  27.644  1.00  0.00    -0.249 OA
ATOM     17  H   UNL A   1      29.791  24.914  26.750  1.00  0.00     0.165 HD
BRANCH  13  18
ATOM     18  C   UNL A   1      32.873  22.274  26.352  1.00  0.00     0.095 C 
ATOM     19  C   UNL A   1      36.979  21.752  25.427  1.00  0.00     0.332 C 
ATOM     20  N   UNL A   1      35.709  21.643  26.152  1.00  0.00    -0.337 N 
ATOM     21  C   UNL A   1      34.717  20.910  25.357  1.00  0.00     0.264 C 
ATOM     22  C   UNL A   1      35.253  22.978  26.568  1.00  0.00     0.264 C 
ATOM     23  H   UNL A   1      35.846  21.098  27.002  1.00  0.00     0.347 HD
ATOM     24  C   UNL A   1      33.338  20.861  26.017  1.00  0.00     0.086 C 
ATOM     25  C   UNL A   1      33.894  22.937  27.270  1.00  0.00     0.086 C 
ENDBRANCH  13  18
ENDBRANCH   8  12
ENDBRANCH   4   7
ENDBRANCH   2   3
ENDBRANCH   1   2
BRANCH   1  26
ATOM     26  C   UNL A   1      31.638  32.020  26.769  1.00  0.00     0.023 C 
BRANCH  26  27
ATOM     27  C   UNL A   1      32.765  32.872  27.356  1.00  0.00     0.116 C 
BRANCH  27  28
ATOM     28  N   UNL A   1      32.381  34.237  27.681  1.00  0.00    -0.352 N 
ATOM     29  C   UNL A   1      32.957  35.085  28.605  1.00  0.00     0.251 C 
ATOM     30  H   UNL A   1      31.616  34.602  27.180  1.00  0.00     0.163 HD
ATOM     31  O   UNL A   1      32.470  36.191  28.818  1.00  0.00    -0.269 OA
BRANCH  29  32
ATOM     32  C   UNL A   1      34.134  34.633  29.385  1.00  0.00     0.039 A 
ATOM     33  C   UNL A   1      33.937  34.137  30.677  1.00  0.00     0.014 A 
ATOM     34  C   UNL A   1      35.419  34.655  28.837  1.00  0.00     0.014 A 
ATOM     35  C   UNL A   1      35.010  33.580  31.380  1.00  0.00     0.010 A 
ATOM     36  C   UNL A   1      36.471  34.032  29.506  1.00  0.00     0.010 A 
ATOM     37  C   UNL A   1      36.277  33.478  30.780  1.00  0.00    -0.014 A 
BRANCH  37  38
ATOM     38  C   UNL A   1      37.395  32.773  31.461  1.00  0.00     0.031 A 
ATOM     39  C   UNL A   1      38.079  31.605  30.806  1.00  0.00     0.074 A 
ATOM     40  C   UNL A   1      37.748  33.137  32.710  1.00  0.00     0.049 A 
ATOM     41  N   UNL A   1      39.048  30.850  31.262  1.00  0.00    -0.248 NA
ATOM     42  C   UNL A   1      37.589  31.213  29.475  1.00  0.00     0.031 C 
ATOM     43  C   UNL A   1      37.112  34.198  33.493  1.00  0.00     0.029 A 
ATOM     44  N   UNL A   1      38.721  32.647  33.546  1.00  0.00    -0.354 N 
ATOM     45  C   UNL A   1      39.269  29.887  30.286  1.00  0.00     0.074 A 
ATOM     46  C   UNL A   1      38.299  30.120  29.237  1.00  0.00     0.031 C 
ATOM     47  C   UNL A   1      37.726  34.295  34.683  1.00  0.00     0.029 A 
ATOM     48  C   UNL A   1      38.781  33.290  34.759  1.00  0.00     0.049 A 
ATOM     49  H   UNL A   1      39.319  31.905  33.299  1.00  0.00     0.167 HD
ATOM     50  C   UNL A   1      40.210  28.913  30.254  1.00  0.00     0.037 A 
ATOM     51  C   UNL A   1      39.598  33.095  35.811  1.00  0.00     0.037 A 
ATOM     52  C   UNL A   1      41.198  28.702  31.279  1.00  0.00     0.049 A 
ATOM     53  C   UNL A   1      40.669  32.041  35.730  1.00  0.00     0.074 A 
ATOM     54  C   UNL A   1      42.243  27.794  31.299  1.00  0.00     0.029 A 
ATOM     55  N   UNL A   1      41.261  29.409  32.471  1.00  0.00    -0.354 N 
ATOM     56  N   UNL A   1      40.928  31.199  34.761  1.00  0.00    -0.248 NA
ATOM     57  C   UNL A   1      41.569  31.922  36.886  1.00  0.00     0.031 C 
ATOM     58  C   UNL A   1      42.916  27.927  32.519  1.00  0.00     0.029 A 
ATOM     59  C   UNL A   1      42.318  28.947  33.241  1.00  0.00     0.049 A 
ATOM     60  H   UNL A   1      40.647  30.132  32.732  1.00  0.00     0.167 HD
ATOM     61  C   UNL A   1      42.034  30.470  35.175  1.00  0.00     0.074 A 
ATOM     62  C   UNL A   1      42.407  30.980  36.478  1.00  0.00     0.031 C 
ATOM     63  C   UNL A   1      42.681  29.466  34.534  1.00  0.00     0.037 A 
BRANCH  50  64
ATOM     64  C   UNL A   1      40.224  28.004  29.059  1.00  0.00     0.064 A 
ATOM     65  C   UNL A   1      40.949  28.324  27.900  1.00  0.00     0.173 A 
ATOM     66  C   UNL A   1      39.527  26.787  29.080  1.00  0.00     0.173 A 
ATOM     67  F   UNL A   1      41.623  29.482  27.824  1.00  0.00    -0.203 F 
ATOM     68  C   UNL A   1      40.949  27.476  26.797  1.00  0.00     0.198 A 
ATOM     69  C   UNL A   1      39.553  25.927  27.987  1.00  0.00     0.198 A 
ATOM     70  F   UNL A   1      38.823  26.430  30.165  1.00  0.00    -0.203 F 
ATOM     71  F   UNL A   1      41.605  27.828  25.683  1.00  0.00    -0.200 F 
ATOM     72  C   UNL A   1      40.256  26.275  26.842  1.00  0.00     0.200 A 
ATOM     73  F   UNL A   1      38.893  24.761  28.036  1.00  0.00    -0.200 F 
ATOM     74  F   UNL A   1      40.259  25.457  25.780  1.00  0.00    -0.200 F 
ENDBRANCH  50  64
BRANCH  51  75
ATOM     75  C   UNL A   1      39.466  33.951  37.018  1.00  0.00     0.064 A 
ATOM     76  C   UNL A   1      40.061  35.220  37.068  1.00  0.00     0.173 A 
ATOM     77  C   UNL A   1      38.742  33.524  38.139  1.00  0.00     0.173 A 
ATOM     78  F   UNL A   1      40.780  35.663  36.027  1.00  0.00    -0.203 F 
ATOM     79  C   UNL A   1      39.954  36.020  38.204  1.00  0.00     0.198 A 
ATOM     80  C   UNL A   1      38.614  34.336  39.264  1.00  0.00     0.198 A 
ATOM     81  F   UNL A   1      38.147  32.321  38.137  1.00  0.00    -0.203 F 
ATOM     82  F   UNL A   1      40.568  37.210  38.241  1.00  0.00    -0.200 F 
ATOM     83  C   UNL A   1      39.226  35.579  39.299  1.00  0.00     0.200 A 
ATOM     84  F   UNL A   1      37.899  33.913  40.316  1.00  0.00    -0.200 F 
ATOM     85  F   UNL A   1      39.120  36.352  40.389  1.00  0.00    -0.200 F 
ENDBRANCH  51  75
BRANCH  63  86
ATOM     86  C   UNL A   1      43.877  28.873  35.219  1.00  0.00     0.064 A 
ATOM     87  C   UNL A   1      45.170  29.376  35.010  1.00  0.00     0.173 A 
ATOM     88  C   UNL A   1      43.724  27.804  36.115  1.00  0.00     0.173 A 
ATOM     89  F   UNL A   1      45.370  30.387  34.151  1.00  0.00    -0.203 F 
ATOM     90  C   UNL A   1      46.269  28.812  35.652  1.00  0.00     0.198 A 
ATOM     91  C   UNL A   1      44.822  27.261  36.777  1.00  0.00     0.198 A 
ATOM     92  F   UNL A   1      42.508  27.291  36.354  1.00  0.00    -0.203 F 
ATOM     93  F   UNL A   1      47.501  29.276  35.400  1.00  0.00    -0.200 F 
ATOM     94  C   UNL A   1      46.094  27.759  36.538  1.00  0.00     0.200 A 
ATOM     95  F   UNL A   1      44.649  26.252  37.642  1.00  0.00    -0.200 F 
ATOM     96  F   UNL A   1      47.153  27.219  37.157  1.00  0.00    -0.200 F 
ENDBRANCH  63  86
ENDBRANCH  37  38
ENDBRANCH  29  32
ENDBRANCH  27  28
ENDBRANCH  26  27
ENDBRANCH   1  26
TORSDOF 13
ENDMDL
MODEL 2
REMARK VINA RESULT:     -13.4      0.624      7.235
REMARK SMILES C[NH+]1CCC(NC(=O)N[C@H]2C=C[C@H](C(=O)NCCCCNC(=O)c3ccc(-c4c5nc(c(-c6c(F)c(F)c(F)c(F)c6F)c6ccc([nH]6)c(-c6c(F)c(F)c(F)c(F)c6F)c6nc(c(-c7c(F)c(F)c(F)c(F)c7F)c7ccc4[nH]7)C=C6)C=C5)cc3)C2)CC1
REMARK SMILES IDX 18 1 17 2 16 3 14 4 15 5 13 7 10 8 11 9 87 10 12 11 9 12
REMARK SMILES IDX 6 13 7 14 8 16 5 18 1 19 2 20 3 21 89 22 4 24 88 25 19 26
REMARK SMILES IDX 20 27 21 28 22 29 23 31 24 32 25 33 86 34 26 35 85 36 27 37
REMARK SMILES IDX 28 38 29 39 79 40 30 41 84 42 78 43 80 44 31 45 83 46 77 47
REMARK SMILES IDX 76 48 32 50 64 51 44 52 63 53 45 54 48 55 62 56 81 57 46 58
REMARK SMILES IDX 47 59 61 61 82 62 49 63 33 64 34 65 42 66 35 67 36 68 40 69
REMARK SMILES IDX 43 70 37 71 38 72 41 73 39 74 65 75 66 76 74 77 67 78 68 79
REMARK SMILES IDX 72 80 75 81 69 82 70 83 73 84 71 85 50 86 51 87 59 88 52 89
REMARK SMILES IDX 53 90 57 91 60 92 54 93 55 94 58 95 56 96
REMARK H PARENT 16 6 6 15 9 17 2 23 21 30 80 49 48 60
REMARK Flexibility Score: inf
ROOT
ATOM      1  C   UNL A   1      31.827  30.691  26.182  1.00  0.00     0.023 C 
ENDROOT
BRANCH   1   2
ATOM      2  C   UNL A   1      33.255  30.247  26.525  1.00  0.00     0.116 C 
BRANCH   2   3
ATOM      3  N   UNL A   1      33.830  29.352  25.533  1.00  0.00    -0.356 N 
ATOM      4  C   UNL A   1      33.368  28.133  25.094  1.00  0.00     0.227 C 
ATOM      5  O   UNL A   1      33.921  27.604  24.131  1.00  0.00    -0.274 OA
ATOM      6  H   UNL A   1      34.668  29.661  25.119  1.00  0.00     0.163 HD
BRANCH   4   7
ATOM      7  C   UNL A   1      32.181  27.500  25.816  1.00  0.00     0.103 C 
ATOM      8  C   UNL A   1      31.213  25.248  25.622  1.00  0.00     0.107 C 
ATOM      9  C   UNL A   1      30.375  26.261  24.928  1.00  0.00    -0.006 C 
ATOM     10  C   UNL A   1      32.395  26.024  26.209  1.00  0.00     0.047 C 
ATOM     11  C   UNL A   1      30.933  27.477  24.974  1.00  0.00    -0.016 C 
BRANCH   8  12
ATOM     12  N   UNL A   1      30.456  24.379  26.510  1.00  0.00    -0.332 N 
ATOM     13  N   UNL A   1      31.357  22.201  26.852  1.00  0.00    -0.335 N 
ATOM     14  C   UNL A   1      30.436  23.149  27.017  1.00  0.00     0.315 C 
ATOM     15  H   UNL A   1      31.092  21.335  27.241  1.00  0.00     0.165 HD
ATOM     16  O   UNL A   1      29.456  22.855  27.711  1.00  0.00    -0.249 OA
ATOM     17  H   UNL A   1      29.682  24.879  26.859  1.00  0.00     0.165 HD
BRANCH  13  18
ATOM     18  C   UNL A   1      32.659  22.164  26.230  1.00  0.00     0.095 C 
ATOM     19  C   UNL A   1      36.665  21.476  25.019  1.00  0.00     0.332 C 
ATOM     20  N   UNL A   1      35.425  21.364  25.793  1.00  0.00    -0.337 N 
ATOM     21  C   UNL A   1      34.344  20.814  24.968  1.00  0.00     0.264 C 
ATOM     22  C   UNL A   1      35.094  22.661  26.402  1.00  0.00     0.264 C 
ATOM     23  H   UNL A   1      35.558  20.703  26.558  1.00  0.00     0.347 HD
ATOM     24  C   UNL A   1      32.997  20.777  25.691  1.00  0.00     0.086 C 
ATOM     25  C   UNL A   1      33.769  22.625  27.166  1.00  0.00     0.086 C 
ENDBRANCH  13  18
ENDBRANCH   8  12
ENDBRANCH   4   7
ENDBRANCH   2   3
ENDBRANCH   1   2
BRANCH   1  26
ATOM     26  C   UNL A   1      31.483  32.120  26.613  1.00  0.00     0.023 C 
BRANCH  26  27
ATOM     27  C   UNL A   1      32.586  32.840  27.390  1.00  0.00     0.116 C 
BRANCH  27  28
ATOM     28  N   UNL A   1      32.278  34.220  27.734  1.00  0.00    -0.352 N 
ATOM     29  C   UNL A   1      32.930  35.038  28.634  1.00  0.00     0.251 C 
ATOM     30  H   UNL A   1      31.508  34.621  27.268  1.00  0.00     0.163 HD
ATOM     31  O   UNL A   1      32.503  36.164  28.870  1.00  0.00    -0.269 OA
BRANCH  29  32
ATOM     32  C   UNL A   1      34.120  34.532  29.360  1.00  0.00     0.039 A 
ATOM     33  C   UNL A   1      33.939  33.912  30.600  1.00  0.00     0.014 A 
ATOM     34  C   UNL A   1      35.400  34.624  28.810  1.00  0.00     0.014 A 
ATOM     35  C   UNL A   1      35.025  33.306  31.241  1.00  0.00     0.010 A 
ATOM     36  C   UNL A   1      36.465  33.956  29.410  1.00  0.00     0.010 A 
ATOM     37  C   UNL A   1      36.288  33.281  30.627  1.00  0.00    -0.014 A 
BRANCH  37  38
ATOM     38  C   UNL A   1      37.421  32.531  31.231  1.00  0.00     0.031 A 
ATOM     39  C   UNL A   1      37.936  32.885  32.598  1.00  0.00     0.074 A 
ATOM     40  C   UNL A   1      38.042  31.574  30.512  1.00  0.00     0.049 A 
ATOM     41  N   UNL A   1      38.934  32.364  33.269  1.00  0.00    -0.248 NA
ATOM     42  C   UNL A   1      37.261  33.993  33.292  1.00  0.00     0.031 C 
ATOM     43  C   UNL A   1      37.699  31.188  29.143  1.00  0.00     0.029 A 
ATOM     44  N   UNL A   1      39.101  30.759  30.830  1.00  0.00    -0.354 N 
ATOM     45  C   UNL A   1      39.016  33.090  34.451  1.00  0.00     0.074 A 
ATOM     46  C   UNL A   1      38.003  34.121  34.382  1.00  0.00     0.031 C 
ATOM     47  C   UNL A   1      38.513  30.196  28.748  1.00  0.00     0.029 A 
ATOM     48  C   UNL A   1      39.452  29.892  29.823  1.00  0.00     0.049 A 
ATOM     49  H   UNL A   1      39.566  30.793  31.698  1.00  0.00     0.167 HD
ATOM     50  C   UNL A   1      39.843  32.899  35.506  1.00  0.00     0.037 A 
ATOM     51  C   UNL A   1      40.416  28.955  29.774  1.00  0.00     0.037 A 
ATOM     52  C   UNL A   1      40.827  31.852  35.590  1.00  0.00     0.049 A 
ATOM     53  C   UNL A   1      41.289  28.728  30.979  1.00  0.00     0.074 A 
ATOM     54  C   UNL A   1      41.656  31.528  36.651  1.00  0.00     0.029 A 
ATOM     55  N   UNL A   1      41.117  30.958  34.570  1.00  0.00    -0.354 N 
ATOM     56  N   UNL A   1      41.293  29.359  32.126  1.00  0.00    -0.248 NA
ATOM     57  C   UNL A   1      42.279  27.646  30.885  1.00  0.00     0.031 C 
ATOM     58  C   UNL A   1      42.473  30.461  36.259  1.00  0.00     0.029 A 
ATOM     59  C   UNL A   1      42.123  30.093  34.970  1.00  0.00     0.049 A 
ATOM     60  H   UNL A   1      40.674  30.941  33.691  1.00  0.00     0.167 HD
ATOM     61  C   UNL A   1      42.264  28.738  32.900  1.00  0.00     0.074 A 
ATOM     62  C   UNL A   1      42.817  27.668  32.096  1.00  0.00     0.031 C 
ATOM     63  C   UNL A   1      42.662  29.029  34.162  1.00  0.00     0.037 A 
BRANCH  50  64
ATOM     64  C   UNL A   1      39.709  33.841  36.668  1.00  0.00     0.064 A 
ATOM     65  C   UNL A   1      40.364  35.083  36.685  1.00  0.00     0.173 A 
ATOM     66  C   UNL A   1      38.898  33.513  37.763  1.00  0.00     0.173 A 
ATOM     67  F   UNL A   1      41.161  35.440  35.667  1.00  0.00    -0.203 F 
ATOM     68  C   UNL A   1      40.236  35.946  37.770  1.00  0.00     0.198 A 
ATOM     69  C   UNL A   1      38.748  34.390  38.834  1.00  0.00     0.198 A 
ATOM     70  F   UNL A   1      38.245  32.341  37.794  1.00  0.00    -0.203 F 
ATOM     71  F   UNL A   1      40.913  37.102  37.788  1.00  0.00    -0.200 F 
ATOM     72  C   UNL A   1      39.425  35.601  38.841  1.00  0.00     0.200 A 
ATOM     73  F   UNL A   1      37.955  34.061  39.863  1.00  0.00    -0.200 F 
ATOM     74  F   UNL A   1      39.301  36.433  39.885  1.00  0.00    -0.200 F 
ENDBRANCH  50  64
BRANCH  51  75
ATOM     75  C   UNL A   1      40.579  28.125  28.552  1.00  0.00     0.064 A 
ATOM     76  C   UNL A   1      41.383  28.561  27.490  1.00  0.00     0.173 A 
ATOM     77  C   UNL A   1      39.943  26.882  28.425  1.00  0.00     0.173 A 
ATOM     78  F   UNL A   1      41.995  29.751  27.559  1.00  0.00    -0.203 F 
ATOM     79  C   UNL A   1      41.526  27.794  26.335  1.00  0.00     0.198 A 
ATOM     80  C   UNL A   1      40.108  26.105  27.280  1.00  0.00     0.198 A 
ATOM     81  F   UNL A   1      39.170  26.418  29.418  1.00  0.00    -0.203 F 
ATOM     82  F   UNL A   1      42.265  28.254  25.316  1.00  0.00    -0.200 F 
ATOM     83  C   UNL A   1      40.893  26.564  26.234  1.00  0.00     0.200 A 
ATOM     84  F   UNL A   1      39.506  24.911  27.191  1.00  0.00    -0.200 F 
ATOM     85  F   UNL A   1      41.035  25.826  25.125  1.00  0.00    -0.200 F 
ENDBRANCH  51  75
BRANCH  63  86
ATOM     86  C   UNL A   1      43.728  28.160  34.763  1.00  0.00     0.064 A 
ATOM     87  C   UNL A   1      45.085  28.508  34.697  1.00  0.00     0.173 A 
ATOM     88  C   UNL A   1      43.384  26.977  35.435  1.00  0.00     0.173 A 
ATOM     89  F   UNL A   1      45.466  29.621  34.052  1.00  0.00    -0.203 F 
ATOM     90  C   UNL A   1      46.062  27.688  35.257  1.00  0.00     0.198 A 
ATOM     91  C   UNL A   1      44.360  26.174  36.018  1.00  0.00     0.198 A 
ATOM     92  F   UNL A   1      42.099  26.603  35.531  1.00  0.00    -0.203 F 
ATOM     93  F   UNL A   1      47.356  28.014  35.139  1.00  0.00    -0.200 F 
ATOM     94  C   UNL A   1      45.698  26.526  35.921  1.00  0.00     0.200 A 
ATOM     95  F   UNL A   1      44.007  25.058  36.669  1.00  0.00    -0.200 F 
ATOM     96  F   UNL A   1      46.639  25.740  36.462  1.00  0.00    -0.200 F 
ENDBRANCH  63  86
ENDBRANCH  37  38
ENDBRANCH  29  32
ENDBRANCH  27  28
ENDBRANCH  26  27
ENDBRANCH   1  26
TORSDOF 13
ENDMDL
MODEL 3
REMARK VINA RESULT:     -13.3      0.646      7.410
REMARK SMILES C[NH+]1CCC(NC(=O)N[C@H]2C=C[C@H](C(=O)NCCCCNC(=O)c3ccc(-c4c5nc(c(-c6c(F)c(F)c(F)c(F)c6F)c6ccc([nH]6)c(-c6c(F)c(F)c(F)c(F)c6F)c6nc(c(-c7c(F)c(F)c(F)c(F)c7F)c7ccc4[nH]7)C=C6)C=C5)cc3)C2)CC1
REMARK SMILES IDX 18 1 17 2 16 3 14 4 15 5 13 7 10 8 11 9 87 10 12 11 9 12
REMARK SMILES IDX 6 13 7 14 8 16 5 18 1 19 2 20 3 21 89 22 4 24 88 25 19 26
REMARK SMILES IDX 20 27 21 28 22 29 23 31 24 32 25 33 86 34 26 35 85 36 27 37
REMARK SMILES IDX 28 38 29 39 79 40 30 41 84 42 78 43 80 44 31 45 83 46 77 47
REMARK SMILES IDX 76 48 32 50 64 51 44 52 63 53 45 54 48 55 62 56 81 57 46 58
REMARK SMILES IDX 47 59 61 61 82 62 49 63 33 64 34 65 42 66 35 67 36 68 40 69
REMARK SMILES IDX 43 70 37 71 38 72 41 73 39 74 65 75 66 76 74 77 67 78 68 79
REMARK SMILES IDX 72 80 75 81 69 82 70 83 73 84 71 85 50 86 51 87 59 88 52 89
REMARK SMILES IDX 53 90 57 91 60 92 54 93 55 94 58 95 56 96
REMARK H PARENT 16 6 6 15 9 17 2 23 21 30 80 49 48 60
REMARK Flexibility Score: inf
ROOT
ATOM      1  C   UNL A   1      31.803  30.559  26.445  1.00  0.00     0.023 C 
ENDROOT
BRANCH   1   2
ATOM      2  C   UNL A   1      33.269  30.165  26.673  1.00  0.00     0.116 C 
BRANCH   2   3
ATOM      3  N   UNL A   1      33.832  29.395  25.575  1.00  0.00    -0.356 N 
ATOM      4  C   UNL A   1      33.330  28.277  24.953  1.00  0.00     0.227 C 
ATOM      5  O   UNL A   1      33.887  27.867  23.935  1.00  0.00    -0.274 OA
ATOM      6  H   UNL A   1      34.695  29.721  25.228  1.00  0.00     0.163 HD
BRANCH   4   7
ATOM      7  C   UNL A   1      32.096  27.603  25.548  1.00  0.00     0.103 C 
ATOM      8  C   UNL A   1      31.424  25.238  25.571  1.00  0.00     0.107 C 
ATOM      9  C   UNL A   1      30.640  26.015  24.576  1.00  0.00    -0.006 C 
ATOM     10  C   UNL A   1      32.380  26.244  26.219  1.00  0.00     0.047 C 
ATOM     11  C   UNL A   1      31.049  27.289  24.513  1.00  0.00    -0.016 C 
BRANCH   8  12
ATOM     12  N   UNL A   1      30.602  24.416  26.444  1.00  0.00    -0.332 N 
ATOM     13  N   UNL A   1      31.380  22.196  26.823  1.00  0.00    -0.335 N 
ATOM     14  C   UNL A   1      30.505  23.191  26.958  1.00  0.00     0.315 C 
ATOM     15  H   UNL A   1      31.062  21.348  27.209  1.00  0.00     0.165 HD
ATOM     16  O   UNL A   1      29.494  22.953  27.628  1.00  0.00    -0.249 OA
ATOM     17  H   UNL A   1      29.846  24.956  26.770  1.00  0.00     0.165 HD
BRANCH  13  18
ATOM     18  C   UNL A   1      32.694  22.088  26.234  1.00  0.00     0.095 C 
ATOM     19  C   UNL A   1      36.716  21.250  25.180  1.00  0.00     0.332 C 
ATOM     20  N   UNL A   1      35.459  21.223  25.935  1.00  0.00    -0.337 N 
ATOM     21  C   UNL A   1      34.388  20.608  25.142  1.00  0.00     0.264 C 
ATOM     22  C   UNL A   1      35.131  22.576  26.410  1.00  0.00     0.264 C 
ATOM     23  H   UNL A   1      35.568  20.637  26.761  1.00  0.00     0.347 HD
ATOM     24  C   UNL A   1      33.027  20.653  25.836  1.00  0.00     0.086 C 
ATOM     25  C   UNL A   1      33.790  22.626  27.146  1.00  0.00     0.086 C 
ENDBRANCH  13  18
ENDBRANCH   8  12
ENDBRANCH   4   7
ENDBRANCH   2   3
ENDBRANCH   1   2
BRANCH   1  26
ATOM     26  C   UNL A   1      31.484  32.026  26.751  1.00  0.00     0.023 C 
BRANCH  26  27
ATOM     27  C   UNL A   1      32.656  32.838  27.301  1.00  0.00     0.116 C 
BRANCH  27  28
ATOM     28  N   UNL A   1      32.319  34.204  27.676  1.00  0.00    -0.352 N 
ATOM     29  C   UNL A   1      32.947  35.010  28.603  1.00  0.00     0.251 C 
ATOM     30  H   UNL A   1      31.548  34.602  27.211  1.00  0.00     0.163 HD
ATOM     31  O   UNL A   1      32.497  36.122  28.862  1.00  0.00    -0.269 OA
BRANCH  29  32
ATOM     32  C   UNL A   1      34.137  34.507  29.330  1.00  0.00     0.039 A 
ATOM     33  C   UNL A   1      33.955  33.868  30.561  1.00  0.00     0.014 A 
ATOM     34  C   UNL A   1      35.420  34.621  28.789  1.00  0.00     0.014 A 
ATOM     35  C   UNL A   1      35.044  33.266  31.199  1.00  0.00     0.010 A 
ATOM     36  C   UNL A   1      36.489  33.956  29.387  1.00  0.00     0.010 A 
ATOM     37  C   UNL A   1      36.312  33.262  30.594  1.00  0.00    -0.014 A 
BRANCH  37  38
ATOM     38  C   UNL A   1      37.449  32.517  31.195  1.00  0.00     0.031 A 
ATOM     39  C   UNL A   1      37.960  32.867  32.564  1.00  0.00     0.074 A 
ATOM     40  C   UNL A   1      38.076  31.567  30.472  1.00  0.00     0.049 A 
ATOM     41  N   UNL A   1      38.961  32.349  33.233  1.00  0.00    -0.248 NA
ATOM     42  C   UNL A   1      37.278  33.967  33.263  1.00  0.00     0.031 C 
ATOM     43  C   UNL A   1      37.736  31.186  29.101  1.00  0.00     0.029 A 
ATOM     44  N   UNL A   1      39.140  30.757  30.786  1.00  0.00    -0.354 N 
ATOM     45  C   UNL A   1      39.038  33.069  34.418  1.00  0.00     0.074 A 
ATOM     46  C   UNL A   1      38.018  34.094  34.355  1.00  0.00     0.031 C 
ATOM     47  C   UNL A   1      38.558  30.202  28.701  1.00  0.00     0.029 A 
ATOM     48  C   UNL A   1      39.497  29.898  29.775  1.00  0.00     0.049 A 
ATOM     49  H   UNL A   1      39.604  30.790  31.654  1.00  0.00     0.167 HD
ATOM     50  C   UNL A   1      39.865  32.878  35.473  1.00  0.00     0.037 A 
ATOM     51  C   UNL A   1      40.468  28.967  29.722  1.00  0.00     0.037 A 
ATOM     52  C   UNL A   1      40.856  31.837  35.553  1.00  0.00     0.049 A 
ATOM     53  C   UNL A   1      41.341  28.740  30.926  1.00  0.00     0.074 A 
ATOM     54  C   UNL A   1      41.686  31.513  36.613  1.00  0.00     0.029 A 
ATOM     55  N   UNL A   1      41.153  30.950  34.529  1.00  0.00    -0.354 N 
ATOM     56  N   UNL A   1      41.340  29.365  32.077  1.00  0.00    -0.248 NA
ATOM     57  C   UNL A   1      42.338  27.665  30.828  1.00  0.00     0.031 C 
ATOM     58  C   UNL A   1      42.510  30.453  36.216  1.00  0.00     0.029 A 
ATOM     59  C   UNL A   1      42.164  30.089  34.925  1.00  0.00     0.049 A 
ATOM     60  H   UNL A   1      40.710  30.935  33.649  1.00  0.00     0.167 HD
ATOM     61  C   UNL A   1      42.314  28.746  32.848  1.00  0.00     0.074 A 
ATOM     62  C   UNL A   1      42.875  27.684  32.039  1.00  0.00     0.031 C 
ATOM     63  C   UNL A   1      42.710  29.033  34.113  1.00  0.00     0.037 A 
BRANCH  50  64
ATOM     64  C   UNL A   1      39.725  33.814  36.640  1.00  0.00     0.064 A 
ATOM     65  C   UNL A   1      38.920  33.495  37.745  1.00  0.00     0.173 A 
ATOM     66  C   UNL A   1      40.422  35.030  36.666  1.00  0.00     0.173 A 
ATOM     67  F   UNL A   1      38.223  32.349  37.764  1.00  0.00    -0.203 F 
ATOM     68  C   UNL A   1      38.794  34.373  38.818  1.00  0.00     0.198 A 
ATOM     69  C   UNL A   1      40.317  35.893  37.754  1.00  0.00     0.198 A 
ATOM     70  F   UNL A   1      41.209  35.381  35.639  1.00  0.00    -0.203 F 
ATOM     71  F   UNL A   1      37.978  34.070  39.837  1.00  0.00    -0.200 F 
ATOM     72  C   UNL A   1      39.496  35.568  38.824  1.00  0.00     0.200 A 
ATOM     73  F   UNL A   1      41.006  37.043  37.764  1.00  0.00    -0.200 F 
ATOM     74  F   UNL A   1      39.376  36.413  39.858  1.00  0.00    -0.200 F 
ENDBRANCH  50  64
BRANCH  51  75
ATOM     75  C   UNL A   1      40.637  28.144  28.496  1.00  0.00     0.064 A 
ATOM     76  C   UNL A   1      40.002  26.901  28.373  1.00  0.00     0.173 A 
ATOM     77  C   UNL A   1      41.429  28.584  27.427  1.00  0.00     0.173 A 
ATOM     78  F   UNL A   1      39.250  26.430  29.378  1.00  0.00    -0.203 F 
ATOM     79  C   UNL A   1      40.170  26.117  27.233  1.00  0.00     0.198 A 
ATOM     80  C   UNL A   1      41.575  27.811  26.277  1.00  0.00     0.198 A 
ATOM     81  F   UNL A   1      42.051  29.770  27.494  1.00  0.00    -0.203 F 
ATOM     82  F   UNL A   1      39.586  24.913  27.158  1.00  0.00    -0.200 F 
ATOM     83  C   UNL A   1      40.953  26.575  26.183  1.00  0.00     0.200 A 
ATOM     84  F   UNL A   1      42.321  28.262  25.259  1.00  0.00    -0.200 F 
ATOM     85  F   UNL A   1      41.110  25.823  25.086  1.00  0.00    -0.200 F 
ENDBRANCH  51  75
BRANCH  63  86
ATOM     86  C   UNL A   1      43.781  28.168  34.709  1.00  0.00     0.064 A 
ATOM     87  C   UNL A   1      45.136  28.523  34.643  1.00  0.00     0.173 A 
ATOM     88  C   UNL A   1      43.443  26.981  35.378  1.00  0.00     0.173 A 
ATOM     89  F   UNL A   1      45.510  29.640  34.002  1.00  0.00    -0.203 F 
ATOM     90  C   UNL A   1      46.117  27.707  35.200  1.00  0.00     0.198 A 
ATOM     91  C   UNL A   1      44.424  26.182  35.958  1.00  0.00     0.198 A 
ATOM     92  F   UNL A   1      42.160  26.600  35.474  1.00  0.00    -0.203 F 
ATOM     93  F   UNL A   1      47.410  28.040  35.081  1.00  0.00    -0.200 F 
ATOM     94  C   UNL A   1      45.760  26.540  35.861  1.00  0.00     0.200 A 
ATOM     95  F   UNL A   1      44.078  25.062  36.606  1.00  0.00    -0.200 F 
ATOM     96  F   UNL A   1      46.706  25.758  36.399  1.00  0.00    -0.200 F 
ENDBRANCH  63  86
ENDBRANCH  37  38
ENDBRANCH  29  32
ENDBRANCH  27  28
ENDBRANCH  26  27
ENDBRANCH   1  26
TORSDOF 13
ENDMDL
