MODEL 1
REMARK VINA RESULT:     -13.5      0.000      0.000
REMARK SMILES COc1ccc(N2C(=O)/C(=C/c3c(C(=O)NCCCCNC(=O)c4ccc(-c5c6nc(c(-c7c(F)c(F)c(F)c(F)c7F)c7ccc([nH]7)c(-c7c(F)c(F)c(F)c(F)c7F)c7nc(c(-c8c(F)c(F)c(F)c(F)c8F)c8ccc5[nH]8)C=C7)C=C6)cc4)[nH]c4cc(OC)ccc34)SC2=S)cc1
REMARK SMILES IDX 18 1 17 2 16 3 14 4 15 5 13 7 12 8 95 9 87 10 88 11 94 12
REMARK SMILES IDX 89 14 93 15 90 16 11 17 7 18 8 19 97 20 9 21 10 22 96 23
REMARK SMILES IDX 98 24 6 25 3 26 4 27 100 28 5 29 99 30 2 31 1 32 91 33 92 34
REMARK SMILES IDX 19 35 20 36 21 37 22 38 23 40 24 41 25 42 86 43 26 44 85 45
REMARK SMILES IDX 27 46 28 47 29 48 79 49 30 50 84 51 78 52 80 53 31 54 83 55
REMARK SMILES IDX 77 56 76 57 32 59 64 60 44 61 63 62 45 63 48 64 62 65 81 66
REMARK SMILES IDX 46 67 47 68 61 70 82 71 49 72 33 73 34 74 42 75 35 76 36 77
REMARK SMILES IDX 40 78 43 79 37 80 38 81 41 82 39 83 65 84 66 85 74 86 67 87
REMARK SMILES IDX 68 88 72 89 75 90 69 91 70 92 73 93 71 94 50 95 51 96 59 97
REMARK SMILES IDX 52 98 53 99 57 100 60 101 54 102 55 103 58 104 56 105
REMARK H PARENT 16 6 87 13 21 39 80 58 48 69
REMARK Flexibility Score: inf
ROOT
ATOM      1  C   UNL A   1      37.836  23.029  25.660  1.00  0.00     0.023 C 
ENDROOT
BRANCH   1   2
ATOM      2  C   UNL A   1      36.361  23.420  25.698  1.00  0.00     0.116 C 
BRANCH   2   3
ATOM      3  N   UNL A   1      35.631  23.112  26.919  1.00  0.00    -0.351 N 
ATOM      4  C   UNL A   1      34.576  22.237  27.086  1.00  0.00     0.268 C 
ATOM      5  O   UNL A   1      34.021  22.201  28.185  1.00  0.00    -0.268 OA
ATOM      6  H   UNL A   1      35.928  23.588  27.728  1.00  0.00     0.163 HD
BRANCH   4   7
ATOM      7  C   UNL A   1      34.086  21.446  25.979  1.00  0.00     0.112 A 
ATOM      8  C   UNL A   1      32.915  21.407  25.208  1.00  0.00     0.014 A 
ATOM      9  C   UNL A   1      32.930  20.012  24.634  1.00  0.00     0.008 A 
ATOM     10  N   UNL A   1      34.941  20.538  25.419  1.00  0.00    -0.350 N 
ATOM     11  C   UNL A   1      34.227  19.526  24.856  1.00  0.00     0.050 A 
ATOM     12  C   UNL A   1      32.082  19.046  23.990  1.00  0.00     0.015 A 
ATOM     13  H   UNL A   1      35.924  20.606  25.423  1.00  0.00     0.167 HD
ATOM     14  C   UNL A   1      34.693  18.235  24.565  1.00  0.00     0.073 A 
ATOM     15  C   UNL A   1      32.552  17.702  23.683  1.00  0.00     0.047 A 
ATOM     16  C   UNL A   1      33.848  17.300  23.989  1.00  0.00     0.120 A 
BRANCH   8  17
ATOM     17  C   UNL A   1      31.929  22.527  25.327  1.00  0.00     0.032 C 
ATOM     18  N   UNL A   1      31.536  25.706  23.371  1.00  0.00    -0.261 N 
ATOM     19  C   UNL A   1      31.113  24.911  24.486  1.00  0.00     0.270 C 
ATOM     20  C   UNL A   1      32.130  24.989  22.356  1.00  0.00     0.152 C 
ATOM     21  O   UNL A   1      30.549  25.306  25.498  1.00  0.00    -0.268 OA
ATOM     22  C   UNL A   1      31.605  23.441  24.342  1.00  0.00     0.081 C 
ATOM     23  S   UNL A   1      31.924  23.255  22.644  1.00  0.00    -0.054 SA
ATOM     24  S   UNL A   1      32.899  25.566  20.995  1.00  0.00    -0.051 S 
BRANCH  18  25
ATOM     25  C   UNL A   1      31.361  27.185  23.293  1.00  0.00     0.051 A 
ATOM     26  C   UNL A   1      29.730  30.390  24.002  1.00  0.00     0.119 A 
ATOM     27  C   UNL A   1      31.406  29.784  24.985  1.00  0.00     0.048 A 
ATOM     28  C   UNL A   1      29.122  29.289  22.701  1.00  0.00     0.048 A 
ATOM     29  C   UNL A   1      32.156  28.194  24.502  1.00  0.00     0.030 A 
ATOM     30  C   UNL A   1      29.951  27.758  22.401  1.00  0.00     0.030 A 
BRANCH  26  31
ATOM     31  O   UNL A   1      28.988  31.569  24.120  1.00  0.00    -0.497 OA
ATOM     32  C   UNL A   1      28.883  32.513  23.066  1.00  0.00     0.278 C 
ENDBRANCH  26  31
ENDBRANCH  18  25
ENDBRANCH   8  17
BRANCH  16  33
ATOM     33  O   UNL A   1      34.436  16.071  23.894  1.00  0.00    -0.497 OA
ATOM     34  C   UNL A   1      35.096  15.477  24.997  1.00  0.00     0.278 C 
ENDBRANCH  16  33
ENDBRANCH   4   7
ENDBRANCH   2   3
ENDBRANCH   1   2
BRANCH   1  35
ATOM     35  C   UNL A   1      38.145  21.600  25.217  1.00  0.00     0.023 C 
BRANCH  35  36
ATOM     36  C   UNL A   1      38.788  20.624  26.207  1.00  0.00     0.116 C 
BRANCH  36  37
ATOM     37  N   UNL A   1      39.678  19.546  25.844  1.00  0.00    -0.352 N 
ATOM     38  C   UNL A   1      41.067  19.561  26.042  1.00  0.00     0.251 C 
ATOM     39  H   UNL A   1      39.283  18.745  25.430  1.00  0.00     0.163 HD
ATOM     40  O   UNL A   1      41.759  18.589  25.758  1.00  0.00    -0.269 OA
BRANCH  38  41
ATOM     41  C   UNL A   1      41.728  20.799  26.550  1.00  0.00     0.039 A 
ATOM     42  C   UNL A   1      42.048  22.121  25.459  1.00  0.00     0.014 A 
ATOM     43  C   UNL A   1      41.828  21.105  28.307  1.00  0.00     0.014 A 
ATOM     44  C   UNL A   1      42.444  23.772  25.999  1.00  0.00     0.010 A 
ATOM     45  C   UNL A   1      42.259  22.974  28.981  1.00  0.00     0.010 A 
ATOM     46  C   UNL A   1      42.559  24.262  27.710  1.00  0.00    -0.014 A 
BRANCH  46  47
ATOM     47  C   UNL A   1      42.913  25.712  27.906  1.00  0.00     0.031 A 
ATOM     48  C   UNL A   1      44.228  26.258  27.411  1.00  0.00     0.074 A 
ATOM     49  C   UNL A   1      41.984  26.604  28.324  1.00  0.00     0.049 A 
ATOM     50  N   UNL A   1      44.692  27.486  27.399  1.00  0.00    -0.248 NA
ATOM     51  C   UNL A   1      45.135  25.285  26.802  1.00  0.00     0.031 C 
ATOM     52  C   UNL A   1      40.596  26.295  28.675  1.00  0.00     0.029 A 
ATOM     53  N   UNL A   1      42.065  27.969  28.530  1.00  0.00    -0.354 N 
ATOM     54  C   UNL A   1      45.932  27.423  26.766  1.00  0.00     0.074 A 
ATOM     55  C   UNL A   1      46.148  26.042  26.408  1.00  0.00     0.031 C 
ATOM     56  C   UNL A   1      39.978  27.413  29.091  1.00  0.00     0.029 A 
ATOM     57  C   UNL A   1      40.932  28.518  29.090  1.00  0.00     0.049 A 
ATOM     58  H   UNL A   1      42.859  28.500  28.297  1.00  0.00     0.167 HD
ATOM     59  C   UNL A   1      46.826  28.416  26.530  1.00  0.00     0.037 A 
ATOM     60  C   UNL A   1      40.700  29.750  29.595  1.00  0.00     0.037 A 
ATOM     61  C   UNL A   1      46.655  29.776  26.969  1.00  0.00     0.049 A 
ATOM     62  C   UNL A   1      41.788  30.792  29.520  1.00  0.00     0.074 A 
ATOM     63  C   UNL A   1      47.534  30.840  26.854  1.00  0.00     0.029 A 
ATOM     64  N   UNL A   1      45.541  30.250  27.644  1.00  0.00    -0.354 N 
ATOM     65  N   UNL A   1      42.968  30.715  28.951  1.00  0.00    -0.248 NA
ATOM     66  C   UNL A   1      41.518  32.094  30.151  1.00  0.00     0.031 C 
ATOM     67  C   UNL A   1      46.994  31.927  27.544  1.00  0.00     0.029 A 
ATOM     68  C   UNL A   1      45.733  31.576  27.995  1.00  0.00     0.049 A 
ATOM     69  H   UNL A   1      44.734  29.722  27.842  1.00  0.00     0.167 HD
ATOM     70  C   UNL A   1      43.557  31.962  29.116  1.00  0.00     0.074 A 
ATOM     71  C   UNL A   1      42.607  32.782  29.836  1.00  0.00     0.031 C 
ATOM     72  C   UNL A   1      44.772  32.390  28.696  1.00  0.00     0.037 A 
BRANCH  59  73
ATOM     73  C   UNL A   1      48.118  28.051  25.848  1.00  0.00     0.064 A 
ATOM     74  C   UNL A   1      49.318  27.890  26.557  1.00  0.00     0.173 A 
ATOM     75  C   UNL A   1      48.146  27.822  24.462  1.00  0.00     0.173 A 
ATOM     76  F   UNL A   1      49.355  28.108  27.881  1.00  0.00    -0.203 F 
ATOM     77  C   UNL A   1      50.499  27.541  25.902  1.00  0.00     0.198 A 
ATOM     78  C   UNL A   1      49.319  27.439  23.816  1.00  0.00     0.198 A 
ATOM     79  F   UNL A   1      47.028  27.955  23.732  1.00  0.00    -0.203 F 
ATOM     80  F   UNL A   1      51.644  27.443  26.592  1.00  0.00    -0.200 F 
ATOM     81  C   UNL A   1      50.496  27.309  24.535  1.00  0.00     0.200 A 
ATOM     82  F   UNL A   1      49.308  27.199  22.498  1.00  0.00    -0.200 F 
ATOM     83  F   UNL A   1      51.630  26.967  23.908  1.00  0.00    -0.200 F 
ENDBRANCH  59  73
BRANCH  60  84
ATOM     84  C   UNL A   1      39.407  30.055  30.279  1.00  0.00     0.064 A 
ATOM     85  C   UNL A   1      39.250  29.899  31.663  1.00  0.00     0.173 A 
ATOM     86  C   UNL A   1      38.282  30.474  29.548  1.00  0.00     0.173 A 
ATOM     87  F   UNL A   1      40.278  29.471  32.410  1.00  0.00    -0.203 F 
ATOM     88  C   UNL A   1      38.022  30.133  32.285  1.00  0.00     0.198 A 
ATOM     89  C   UNL A   1      37.066  30.744  30.175  1.00  0.00     0.198 A 
ATOM     90  F   UNL A   1      38.362  30.627  28.218  1.00  0.00    -0.203 F 
ATOM     91  F   UNL A   1      37.889  29.921  33.602  1.00  0.00    -0.200 F 
ATOM     92  C   UNL A   1      36.935  30.564  31.542  1.00  0.00     0.200 A 
ATOM     93  F   UNL A   1      36.023  31.176  29.452  1.00  0.00    -0.200 F 
ATOM     94  F   UNL A   1      35.758  30.795  32.141  1.00  0.00    -0.200 F 
ENDBRANCH  60  84
BRANCH  72  95
ATOM     95  C   UNL A   1      45.137  33.827  28.935  1.00  0.00     0.064 A 
ATOM     96  C   UNL A   1      45.838  34.241  30.076  1.00  0.00     0.173 A 
ATOM     97  C   UNL A   1      44.850  34.793  27.955  1.00  0.00     0.173 A 
ATOM     98  F   UNL A   1      46.129  33.361  31.047  1.00  0.00    -0.203 F 
ATOM     99  C   UNL A   1      46.222  35.570  30.236  1.00  0.00     0.198 A 
ATOM    100  C   UNL A   1      45.270  36.110  28.100  1.00  0.00     0.198 A 
ATOM    101  F   UNL A   1      44.190  34.448  26.838  1.00  0.00    -0.203 F 
ATOM    102  F   UNL A   1      46.855  35.953  31.354  1.00  0.00    -0.200 F 
ATOM    103  C   UNL A   1      45.950  36.500  29.243  1.00  0.00     0.200 A 
ATOM    104  F   UNL A   1      45.027  37.000  27.127  1.00  0.00    -0.200 F 
ATOM    105  F   UNL A   1      46.342  37.773  29.389  1.00  0.00    -0.200 F 
ENDBRANCH  72  95
ENDBRANCH  46  47
ENDBRANCH  38  41
ENDBRANCH  36  37
ENDBRANCH  35  36
ENDBRANCH   1  35
TORSDOF 15
ENDMDL
MODEL 2
REMARK VINA RESULT:     -13.5      0.579      6.979
REMARK SMILES COc1ccc(N2C(=O)/C(=C/c3c(C(=O)NCCCCNC(=O)c4ccc(-c5c6nc(c(-c7c(F)c(F)c(F)c(F)c7F)c7ccc([nH]7)c(-c7c(F)c(F)c(F)c(F)c7F)c7nc(c(-c8c(F)c(F)c(F)c(F)c8F)c8ccc5[nH]8)C=C7)C=C6)cc4)[nH]c4cc(OC)ccc34)SC2=S)cc1
REMARK SMILES IDX 18 1 17 2 16 3 14 4 15 5 13 7 12 8 95 9 87 10 88 11 94 12
REMARK SMILES IDX 89 14 93 15 90 16 11 17 7 18 8 19 97 20 9 21 10 22 96 23
REMARK SMILES IDX 98 24 6 25 3 26 4 27 100 28 5 29 99 30 2 31 1 32 91 33 92 34
REMARK SMILES IDX 19 35 20 36 21 37 22 38 23 40 24 41 25 42 86 43 26 44 85 45
REMARK SMILES IDX 27 46 28 47 29 48 79 49 30 50 84 51 78 52 80 53 31 54 83 55
REMARK SMILES IDX 77 56 76 57 32 59 64 60 44 61 63 62 45 63 48 64 62 65 81 66
REMARK SMILES IDX 46 67 47 68 61 70 82 71 49 72 33 73 34 74 42 75 35 76 36 77
REMARK SMILES IDX 40 78 43 79 37 80 38 81 41 82 39 83 65 84 66 85 74 86 67 87
REMARK SMILES IDX 68 88 72 89 75 90 69 91 70 92 73 93 71 94 50 95 51 96 59 97
REMARK SMILES IDX 52 98 53 99 57 100 60 101 54 102 55 103 58 104 56 105
REMARK H PARENT 16 6 87 13 21 39 80 58 48 69
REMARK Flexibility Score: inf
ROOT
ATOM      1  C   UNL A   1      37.776  23.242  25.595  1.00  0.00     0.023 C 
ENDROOT
BRANCH   1   2
ATOM      2  C   UNL A   1      36.281  23.542  25.677  1.00  0.00     0.116 C 
BRANCH   2   3
ATOM      3  N   UNL A   1      35.605  23.184  26.914  1.00  0.00    -0.351 N 
ATOM      4  C   UNL A   1      34.593  22.264  27.100  1.00  0.00     0.268 C 
ATOM      5  O   UNL A   1      34.076  22.187  28.215  1.00  0.00    -0.268 OA
ATOM      6  H   UNL A   1      35.909  23.658  27.722  1.00  0.00     0.163 HD
BRANCH   4   7
ATOM      7  C   UNL A   1      34.098  21.472  25.996  1.00  0.00     0.112 A 
ATOM      8  C   UNL A   1      32.926  21.435  25.226  1.00  0.00     0.014 A 
ATOM      9  C   UNL A   1      32.937  20.039  24.655  1.00  0.00     0.008 A 
ATOM     10  N   UNL A   1      34.950  20.560  25.436  1.00  0.00    -0.350 N 
ATOM     11  C   UNL A   1      34.232  19.549  24.876  1.00  0.00     0.050 A 
ATOM     12  C   UNL A   1      32.085  19.073  24.015  1.00  0.00     0.015 A 
ATOM     13  H   UNL A   1      35.933  20.625  25.439  1.00  0.00     0.167 HD
ATOM     14  C   UNL A   1      34.694  18.257  24.587  1.00  0.00     0.073 A 
ATOM     15  C   UNL A   1      32.550  17.728  23.710  1.00  0.00     0.047 A 
ATOM     16  C   UNL A   1      33.846  17.323  24.015  1.00  0.00     0.120 A 
BRANCH   8  17
ATOM     17  C   UNL A   1      31.944  22.558  25.345  1.00  0.00     0.032 C 
ATOM     18  N   UNL A   1      31.551  25.730  23.376  1.00  0.00    -0.261 N 
ATOM     19  C   UNL A   1      31.131  24.941  24.496  1.00  0.00     0.270 C 
ATOM     20  C   UNL A   1      32.139  25.006  22.362  1.00  0.00     0.152 C 
ATOM     21  O   UNL A   1      30.572  25.341  25.509  1.00  0.00    -0.268 OA
ATOM     22  C   UNL A   1      31.618  23.468  24.356  1.00  0.00     0.081 C 
ATOM     23  S   UNL A   1      31.929  23.274  22.659  1.00  0.00    -0.054 SA
ATOM     24  S   UNL A   1      32.903  25.576  20.995  1.00  0.00    -0.051 S 
BRANCH  18  25
ATOM     25  C   UNL A   1      31.380  27.208  23.293  1.00  0.00     0.051 A 
ATOM     26  C   UNL A   1      29.742  30.417  23.969  1.00  0.00     0.119 A 
ATOM     27  C   UNL A   1      31.402  29.811  24.980  1.00  0.00     0.048 A 
ATOM     28  C   UNL A   1      29.154  29.315  22.660  1.00  0.00     0.048 A 
ATOM     29  C   UNL A   1      32.156  28.218  24.512  1.00  0.00     0.030 A 
ATOM     30  C   UNL A   1      29.986  27.782  22.376  1.00  0.00     0.030 A 
BRANCH  26  31
ATOM     31  O   UNL A   1      29.000  31.598  24.072  1.00  0.00    -0.497 OA
ATOM     32  C   UNL A   1      29.106  32.651  23.128  1.00  0.00     0.278 C 
ENDBRANCH  26  31
ENDBRANCH  18  25
ENDBRANCH   8  17
BRANCH  16  33
ATOM     33  O   UNL A   1      34.429  16.092  23.920  1.00  0.00    -0.497 OA
ATOM     34  C   UNL A   1      35.143  15.525  25.004  1.00  0.00     0.278 C 
ENDBRANCH  16  33
ENDBRANCH   4   7
ENDBRANCH   2   3
ENDBRANCH   1   2
BRANCH   1  35
ATOM     35  C   UNL A   1      38.158  21.819  25.192  1.00  0.00     0.023 C 
BRANCH  35  36
ATOM     36  C   UNL A   1      38.890  20.919  26.192  1.00  0.00     0.116 C 
BRANCH  36  37
ATOM     37  N   UNL A   1      39.708  19.783  25.837  1.00  0.00    -0.352 N 
ATOM     38  C   UNL A   1      41.098  19.716  26.018  1.00  0.00     0.251 C 
ATOM     39  H   UNL A   1      39.260  19.002  25.441  1.00  0.00     0.163 HD
ATOM     40  O   UNL A   1      41.725  18.700  25.742  1.00  0.00    -0.269 OA
BRANCH  38  41
ATOM     41  C   UNL A   1      41.840  20.919  26.498  1.00  0.00     0.039 A 
ATOM     42  C   UNL A   1      42.243  22.193  25.377  1.00  0.00     0.014 A 
ATOM     43  C   UNL A   1      41.963  21.256  28.248  1.00  0.00     0.014 A 
ATOM     44  C   UNL A   1      42.747  23.826  25.881  1.00  0.00     0.010 A 
ATOM     45  C   UNL A   1      42.517  23.108  28.879  1.00  0.00     0.010 A 
ATOM     46  C   UNL A   1      42.898  24.345  27.580  1.00  0.00    -0.014 A 
BRANCH  46  47
ATOM     47  C   UNL A   1      43.347  25.773  27.744  1.00  0.00     0.031 A 
ATOM     48  C   UNL A   1      42.416  26.814  28.311  1.00  0.00     0.074 A 
ATOM     49  C   UNL A   1      44.651  26.111  27.601  1.00  0.00     0.049 A 
ATOM     50  N   UNL A   1      42.629  28.073  28.616  1.00  0.00    -0.248 NA
ATOM     51  C   UNL A   1      41.061  26.358  28.619  1.00  0.00     0.031 C 
ATOM     52  C   UNL A   1      45.739  25.201  27.236  1.00  0.00     0.029 A 
ATOM     53  N   UNL A   1      45.293  27.327  27.745  1.00  0.00    -0.354 N 
ATOM     54  C   UNL A   1      41.436  28.542  29.166  1.00  0.00     0.074 A 
ATOM     55  C   UNL A   1      40.508  27.437  29.153  1.00  0.00     0.031 C 
ATOM     56  C   UNL A   1      46.889  25.889  27.141  1.00  0.00     0.029 A 
ATOM     57  C   UNL A   1      46.623  27.303  27.385  1.00  0.00     0.049 A 
ATOM     58  H   UNL A   1      44.841  28.137  28.074  1.00  0.00     0.167 HD
ATOM     59  C   UNL A   1      41.128  29.786  29.611  1.00  0.00     0.037 A 
ATOM     60  C   UNL A   1      47.514  28.305  27.218  1.00  0.00     0.037 A 
ATOM     61  C   UNL A   1      42.021  30.912  29.538  1.00  0.00     0.049 A 
ATOM     62  C   UNL A   1      47.092  29.723  27.514  1.00  0.00     0.074 A 
ATOM     63  C   UNL A   1      41.780  32.231  29.885  1.00  0.00     0.029 A 
ATOM     64  N   UNL A   1      43.316  30.859  29.048  1.00  0.00    -0.354 N 
ATOM     65  N   UNL A   1      45.955  30.161  27.999  1.00  0.00    -0.248 NA
ATOM     66  C   UNL A   1      48.072  30.788  27.244  1.00  0.00     0.031 C 
ATOM     67  C   UNL A   1      42.893  32.989  29.514  1.00  0.00     0.029 A 
ATOM     68  C   UNL A   1      43.868  32.129  29.037  1.00  0.00     0.049 A 
ATOM     69  H   UNL A   1      43.775  30.039  28.753  1.00  0.00     0.167 HD
ATOM     70  C   UNL A   1      46.098  31.537  28.133  1.00  0.00     0.074 A 
ATOM     71  C   UNL A   1      47.433  31.864  27.681  1.00  0.00     0.031 C 
ATOM     72  C   UNL A   1      45.206  32.442  28.602  1.00  0.00     0.037 A 
BRANCH  59  73
ATOM     73  C   UNL A   1      39.734  30.022  30.129  1.00  0.00     0.064 A 
ATOM     74  C   UNL A   1      38.635  30.184  29.271  1.00  0.00     0.173 A 
ATOM     75  C   UNL A   1      39.489  30.049  31.513  1.00  0.00     0.173 A 
ATOM     76  F   UNL A   1      38.810  30.179  27.941  1.00  0.00    -0.203 F 
ATOM     77  C   UNL A   1      37.352  30.390  29.778  1.00  0.00     0.198 A 
ATOM     78  C   UNL A   1      38.201  30.220  32.015  1.00  0.00     0.198 A 
ATOM     79  F   UNL A   1      40.499  29.894  32.382  1.00  0.00    -0.203 F 
ATOM     80  F   UNL A   1      36.327  30.593  28.940  1.00  0.00    -0.200 F 
ATOM     81  C   UNL A   1      37.136  30.400  31.148  1.00  0.00     0.200 A 
ATOM     82  F   UNL A   1      37.994  30.212  33.339  1.00  0.00    -0.200 F 
ATOM     83  F   UNL A   1      35.901  30.591  31.633  1.00  0.00    -0.200 F 
ENDBRANCH  59  73
BRANCH  60  84
ATOM     84  C   UNL A   1      48.880  28.019  26.683  1.00  0.00     0.064 A 
ATOM     85  C   UNL A   1      49.105  27.793  25.318  1.00  0.00     0.173 A 
ATOM     86  C   UNL A   1      49.990  27.927  27.541  1.00  0.00     0.173 A 
ATOM     87  F   UNL A   1      48.080  27.834  24.454  1.00  0.00    -0.203 F 
ATOM     88  C   UNL A   1      50.375  27.471  24.836  1.00  0.00     0.198 A 
ATOM     89  C   UNL A   1      51.265  27.644  27.054  1.00  0.00     0.198 A 
ATOM     90  F   UNL A   1      49.839  28.118  28.860  1.00  0.00    -0.203 F 
ATOM     91  F   UNL A   1      50.548  27.205  23.534  1.00  0.00    -0.200 F 
ATOM     92  C   UNL A   1      51.455  27.407  25.703  1.00  0.00     0.200 A 
ATOM     93  F   UNL A   1      52.308  27.599  27.895  1.00  0.00    -0.200 F 
ATOM     94  F   UNL A   1      52.676  27.105  25.237  1.00  0.00    -0.200 F 
ENDBRANCH  60  84
BRANCH  72  95
ATOM     95  C   UNL A   1      45.647  33.873  28.721  1.00  0.00     0.064 A 
ATOM     96  C   UNL A   1      46.333  34.352  29.846  1.00  0.00     0.173 A 
ATOM     97  C   UNL A   1      45.449  34.757  27.647  1.00  0.00     0.173 A 
ATOM     98  F   UNL A   1      46.540  33.553  30.903  1.00  0.00    -0.203 F 
ATOM     99  C   UNL A   1      46.789  35.667  29.897  1.00  0.00     0.198 A 
ATOM    100  C   UNL A   1      45.941  36.057  27.686  1.00  0.00     0.198 A 
ATOM    101  F   UNL A   1      44.806  34.347  26.543  1.00  0.00    -0.203 F 
ATOM    102  F   UNL A   1      47.406  36.117  30.999  1.00  0.00    -0.200 F 
ATOM    103  C   UNL A   1      46.604  36.514  28.813  1.00  0.00     0.200 A 
ATOM    104  F   UNL A   1      45.782  36.864  26.628  1.00  0.00    -0.200 F 
ATOM    105  F   UNL A   1      47.066  37.771  28.857  1.00  0.00    -0.200 F 
ENDBRANCH  72  95
ENDBRANCH  46  47
ENDBRANCH  38  41
ENDBRANCH  36  37
ENDBRANCH  35  36
ENDBRANCH   1  35
TORSDOF 15
ENDMDL
MODEL 3
REMARK VINA RESULT:     -13.4      0.908      2.194
REMARK SMILES COc1ccc(N2C(=O)/C(=C/c3c(C(=O)NCCCCNC(=O)c4ccc(-c5c6nc(c(-c7c(F)c(F)c(F)c(F)c7F)c7ccc([nH]7)c(-c7c(F)c(F)c(F)c(F)c7F)c7nc(c(-c8c(F)c(F)c(F)c(F)c8F)c8ccc5[nH]8)C=C7)C=C6)cc4)[nH]c4cc(OC)ccc34)SC2=S)cc1
REMARK SMILES IDX 18 1 17 2 16 3 14 4 15 5 13 7 12 8 95 9 87 10 88 11 94 12
REMARK SMILES IDX 89 14 93 15 90 16 11 17 7 18 8 19 97 20 9 21 10 22 96 23
REMARK SMILES IDX 98 24 6 25 3 26 4 27 100 28 5 29 99 30 2 31 1 32 91 33 92 34
REMARK SMILES IDX 19 35 20 36 21 37 22 38 23 40 24 41 25 42 86 43 26 44 85 45
REMARK SMILES IDX 27 46 28 47 29 48 79 49 30 50 84 51 78 52 80 53 31 54 83 55
REMARK SMILES IDX 77 56 76 57 32 59 64 60 44 61 63 62 45 63 48 64 62 65 81 66
REMARK SMILES IDX 46 67 47 68 61 70 82 71 49 72 33 73 34 74 42 75 35 76 36 77
REMARK SMILES IDX 40 78 43 79 37 80 38 81 41 82 39 83 65 84 66 85 74 86 67 87
REMARK SMILES IDX 68 88 72 89 75 90 69 91 70 92 73 93 71 94 50 95 51 96 59 97
REMARK SMILES IDX 52 98 53 99 57 100 60 101 54 102 55 103 58 104 56 105
REMARK H PARENT 16 6 87 13 21 39 80 58 48 69
REMARK Flexibility Score: inf
ROOT
ATOM      1  C   UNL A   1      37.718  22.899  25.611  1.00  0.00     0.023 C 
ENDROOT
BRANCH   1   2
ATOM      2  C   UNL A   1      36.209  23.120  25.551  1.00  0.00     0.116 C 
BRANCH   2   3
ATOM      3  N   UNL A   1      35.462  22.899  26.780  1.00  0.00    -0.351 N 
ATOM      4  C   UNL A   1      34.420  22.020  27.001  1.00  0.00     0.268 C 
ATOM      5  O   UNL A   1      33.846  22.063  28.089  1.00  0.00    -0.268 OA
ATOM      6  H   UNL A   1      35.736  23.444  27.552  1.00  0.00     0.163 HD
BRANCH   4   7
ATOM      7  C   UNL A   1      33.965  21.132  25.954  1.00  0.00     0.112 A 
ATOM      8  C   UNL A   1      32.762  20.921  25.263  1.00  0.00     0.014 A 
ATOM      9  C   UNL A   1      32.915  19.517  24.734  1.00  0.00     0.008 A 
ATOM     10  N   UNL A   1      34.890  20.314  25.367  1.00  0.00    -0.350 N 
ATOM     11  C   UNL A   1      34.273  19.201  24.885  1.00  0.00     0.050 A 
ATOM     12  C   UNL A   1      32.155  18.430  24.178  1.00  0.00     0.015 A 
ATOM     13  H   UNL A   1      35.855  20.501  25.304  1.00  0.00     0.167 HD
ATOM     14  C   UNL A   1      34.877  17.967  24.604  1.00  0.00     0.073 A 
ATOM     15  C   UNL A   1      32.768  17.142  23.883  1.00  0.00     0.047 A 
ATOM     16  C   UNL A   1      34.121  16.914  24.115  1.00  0.00     0.120 A 
BRANCH   8  17
ATOM     17  C   UNL A   1      31.654  21.917  25.412  1.00  0.00     0.032 C 
ATOM     18  N   UNL A   1      31.597  25.646  24.998  1.00  0.00    -0.261 N 
ATOM     19  C   UNL A   1      30.892  24.461  25.387  1.00  0.00     0.270 C 
ATOM     20  C   UNL A   1      32.645  25.425  24.131  1.00  0.00     0.152 C 
ATOM     21  O   UNL A   1      29.921  24.394  26.130  1.00  0.00    -0.268 OA
ATOM     22  C   UNL A   1      31.614  23.185  24.864  1.00  0.00     0.081 C 
ATOM     23  S   UNL A   1      32.602  23.752  23.553  1.00  0.00    -0.054 SA
ATOM     24  S   UNL A   1      33.794  26.508  23.599  1.00  0.00    -0.051 S 
BRANCH  18  25
ATOM     25  C   UNL A   1      31.250  27.014  25.480  1.00  0.00     0.051 A 
ATOM     26  C   UNL A   1      31.931  30.495  26.403  1.00  0.00     0.119 A 
ATOM     27  C   UNL A   1      31.101  29.989  24.615  1.00  0.00     0.048 A 
ATOM     28  C   UNL A   1      32.253  29.133  27.551  1.00  0.00     0.048 A 
ATOM     29  C   UNL A   1      30.759  28.227  24.297  1.00  0.00     0.030 A 
ATOM     30  C   UNL A   1      31.901  27.476  27.053  1.00  0.00     0.030 A 
BRANCH  26  31
ATOM     31  O   UNL A   1      32.243  31.751  26.934  1.00  0.00    -0.497 OA
ATOM     32  C   UNL A   1      31.536  32.928  26.577  1.00  0.00     0.278 C 
ENDBRANCH  26  31
ENDBRANCH  18  25
ENDBRANCH   8  17
BRANCH  16  33
ATOM     33  O   UNL A   1      34.849  15.762  24.020  1.00  0.00    -0.497 OA
ATOM     34  C   UNL A   1      35.696  15.331  25.070  1.00  0.00     0.278 C 
ENDBRANCH  16  33
ENDBRANCH   4   7
ENDBRANCH   2   3
ENDBRANCH   1   2
BRANCH   1  35
ATOM     35  C   UNL A   1      38.224  21.554  25.092  1.00  0.00     0.023 C 
BRANCH  35  36
ATOM     36  C   UNL A   1      38.799  20.531  26.076  1.00  0.00     0.116 C 
BRANCH  36  37
ATOM     37  N   UNL A   1      39.699  19.458  25.722  1.00  0.00    -0.352 N 
ATOM     38  C   UNL A   1      41.083  19.472  25.950  1.00  0.00     0.251 C 
ATOM     39  H   UNL A   1      39.314  18.662  25.290  1.00  0.00     0.163 HD
ATOM     40  O   UNL A   1      41.781  18.504  25.671  1.00  0.00    -0.269 OA
BRANCH  38  41
ATOM     41  C   UNL A   1      41.731  20.704  26.487  1.00  0.00     0.039 A 
ATOM     42  C   UNL A   1      42.072  22.040  25.419  1.00  0.00     0.014 A 
ATOM     43  C   UNL A   1      41.793  20.989  28.249  1.00  0.00     0.014 A 
ATOM     44  C   UNL A   1      42.454  23.685  25.987  1.00  0.00     0.010 A 
ATOM     45  C   UNL A   1      42.208  22.851  28.955  1.00  0.00     0.010 A 
ATOM     46  C   UNL A   1      42.532  24.154  27.706  1.00  0.00    -0.014 A 
BRANCH  46  47
ATOM     47  C   UNL A   1      42.880  25.602  27.927  1.00  0.00     0.031 A 
ATOM     48  C   UNL A   1      44.217  26.148  27.495  1.00  0.00     0.074 A 
ATOM     49  C   UNL A   1      41.935  26.494  28.308  1.00  0.00     0.049 A 
ATOM     50  N   UNL A   1      44.683  27.375  27.511  1.00  0.00    -0.248 NA
ATOM     51  C   UNL A   1      45.148  25.177  26.921  1.00  0.00     0.031 C 
ATOM     52  C   UNL A   1      40.532  26.186  28.595  1.00  0.00     0.029 A 
ATOM     53  N   UNL A   1      42.009  27.857  28.526  1.00  0.00    -0.354 N 
ATOM     54  C   UNL A   1      45.951  27.314  26.934  1.00  0.00     0.074 A 
ATOM     55  C   UNL A   1      46.180  25.934  26.578  1.00  0.00     0.031 C 
ATOM     56  C   UNL A   1      39.897  27.303  28.989  1.00  0.00     0.029 A 
ATOM     57  C   UNL A   1      40.853  28.405  29.038  1.00  0.00     0.049 A 
ATOM     58  H   UNL A   1      42.814  28.388  28.333  1.00  0.00     0.167 HD
ATOM     59  C   UNL A   1      46.857  28.305  26.746  1.00  0.00     0.037 A 
ATOM     60  C   UNL A   1      40.601  29.635  29.540  1.00  0.00     0.037 A 
ATOM     61  C   UNL A   1      46.669  29.663  27.184  1.00  0.00     0.049 A 
ATOM     62  C   UNL A   1      41.694  30.675  29.520  1.00  0.00     0.074 A 
ATOM     63  C   UNL A   1      47.554  30.726  27.116  1.00  0.00     0.029 A 
ATOM     64  N   UNL A   1      45.526  30.136  27.811  1.00  0.00    -0.354 N 
ATOM     65  N   UNL A   1      42.898  30.598  29.005  1.00  0.00    -0.248 NA
ATOM     66  C   UNL A   1      41.398  31.974  30.146  1.00  0.00     0.031 C 
ATOM     67  C   UNL A   1      46.986  31.810  27.787  1.00  0.00     0.029 A 
ATOM     68  C   UNL A   1      45.704  31.459  28.179  1.00  0.00     0.049 A 
ATOM     69  H   UNL A   1      44.710  29.609  27.970  1.00  0.00     0.167 HD
ATOM     70  C   UNL A   1      43.481  31.843  29.204  1.00  0.00     0.074 A 
ATOM     71  C   UNL A   1      42.502  32.661  29.885  1.00  0.00     0.031 C 
ATOM     72  C   UNL A   1      44.715  32.271  28.841  1.00  0.00     0.037 A 
BRANCH  59  73
ATOM     73  C   UNL A   1      48.177  27.942  26.120  1.00  0.00     0.064 A 
ATOM     74  C   UNL A   1      48.326  27.771  24.735  1.00  0.00     0.173 A 
ATOM     75  C   UNL A   1      49.324  27.801  26.921  1.00  0.00     0.173 A 
ATOM     76  F   UNL A   1      47.265  27.882  23.923  1.00  0.00    -0.203 F 
ATOM     77  C   UNL A   1      49.564  27.447  24.180  1.00  0.00     0.198 A 
ATOM     78  C   UNL A   1      50.565  27.511  26.360  1.00  0.00     0.198 A 
ATOM     79  F   UNL A   1      49.244  27.958  28.250  1.00  0.00    -0.203 F 
ATOM     80  F   UNL A   1      49.672  27.237  22.861  1.00  0.00    -0.200 F 
ATOM     81  C   UNL A   1      50.683  27.324  24.992  1.00  0.00     0.200 A 
ATOM     82  F   UNL A   1      51.646  27.411  27.145  1.00  0.00    -0.200 F 
ATOM     83  F   UNL A   1      51.872  27.019  24.456  1.00  0.00    -0.200 F 
ENDBRANCH  59  73
BRANCH  60  84
ATOM     84  C   UNL A   1      39.279  29.938  30.166  1.00  0.00     0.064 A 
ATOM     85  C   UNL A   1      38.216  30.472  29.424  1.00  0.00     0.173 A 
ATOM     86  C   UNL A   1      39.065  29.734  31.540  1.00  0.00     0.173 A 
ATOM     87  F   UNL A   1      38.371  30.720  28.115  1.00  0.00    -0.203 F 
ATOM     88  C   UNL A   1      37.003  30.804  30.030  1.00  0.00     0.198 A 
ATOM     89  C   UNL A   1      37.840  30.030  32.138  1.00  0.00     0.198 A 
ATOM     90  F   UNL A   1      40.047  29.240  32.309  1.00  0.00    -0.203 F 
ATOM     91  F   UNL A   1      36.026  31.366  29.305  1.00  0.00    -0.200 F 
ATOM     92  C   UNL A   1      36.814  30.574  31.384  1.00  0.00     0.200 A 
ATOM     93  F   UNL A   1      37.658  29.790  33.444  1.00  0.00    -0.200 F 
ATOM     94  F   UNL A   1      35.646  30.887  31.963  1.00  0.00    -0.200 F 
ENDBRANCH  60  84
BRANCH  72  95
ATOM     95  C   UNL A   1      45.072  33.706  29.105  1.00  0.00     0.064 A 
ATOM     96  C   UNL A   1      44.724  34.737  28.222  1.00  0.00     0.173 A 
ATOM     97  C   UNL A   1      45.702  34.058  30.311  1.00  0.00     0.173 A 
ATOM     98  F   UNL A   1      44.130  34.455  27.053  1.00  0.00    -0.203 F 
ATOM     99  C   UNL A   1      45.008  36.065  28.528  1.00  0.00     0.198 A 
ATOM    100  C   UNL A   1      45.948  35.389  30.631  1.00  0.00     0.198 A 
ATOM    101  F   UNL A   1      46.048  33.111  31.196  1.00  0.00    -0.203 F 
ATOM    102  F   UNL A   1      44.705  37.033  27.651  1.00  0.00    -0.200 F 
ATOM    103  C   UNL A   1      45.608  36.392  29.736  1.00  0.00     0.200 A 
ATOM    104  F   UNL A   1      46.505  35.702  31.809  1.00  0.00    -0.200 F 
ATOM    105  F   UNL A   1      45.859  37.673  30.038  1.00  0.00    -0.200 F 
ENDBRANCH  72  95
ENDBRANCH  46  47
ENDBRANCH  38  41
ENDBRANCH  36  37
ENDBRANCH  35  36
ENDBRANCH   1  35
TORSDOF 15
ENDMDL
