MODEL 1
REMARK VINA RESULT:     -11.7      0.000      0.000
REMARK SMILES O=C(CNS(=O)(=O)c1ccccc1)N[C@@H](CO)C(=O)NCCCCNC(=O)c1ccc(-c2c3nc(c(-c4c(F)c(F)c(F)c(F)c4F)c4ccc([nH]4)c(-c4c(F)c(F)c(F)c(F)c4F)c4nc(c(-c5c(F)c(F)c(F)c(F)c5F)c5ccc2[nH]5)C=C4)C=C3)cc1
REMARK SMILES IDX 21 1 20 2 18 3 19 4 15 6 14 7 1 8 2 9 3 11 4 12 5 14 6 15
REMARK SMILES IDX 7 16 8 17 9 18 13 19 10 20 12 21 11 22 16 23 17 24 22 26
REMARK SMILES IDX 23 27 24 28 25 29 26 30 27 32 28 33 29 34 90 35 30 36 89 37
REMARK SMILES IDX 31 38 32 39 33 40 83 41 34 42 88 43 82 44 84 45 35 46 87 47
REMARK SMILES IDX 81 48 80 49 36 51 68 52 48 53 67 54 49 55 52 56 66 57 85 58
REMARK SMILES IDX 50 59 51 60 65 62 86 63 53 64 37 65 38 66 46 67 39 68 40 69
REMARK SMILES IDX 44 70 47 71 41 72 42 73 45 74 43 75 69 76 70 77 78 78 71 79
REMARK SMILES IDX 72 80 76 81 79 82 73 83 74 84 77 85 75 86 54 87 55 88 63 89
REMARK SMILES IDX 56 90 57 91 61 92 64 93 58 94 59 95 62 96 60 97
REMARK H PARENT 20 5 14 10 4 13 17 25 25 31 84 50 52 61
REMARK Flexibility Score: inf
ROOT
ATOM      1  C   UNL A   1      31.575  29.753  25.228  1.00  0.00     0.116 C 
ENDROOT
BRANCH   1   2
ATOM      2  N   UNL A   1      32.562  29.354  24.244  1.00  0.00    -0.354 N 
ATOM      3  C   UNL A   1      32.427  28.682  23.067  1.00  0.00     0.244 C 
ATOM      4  O   UNL A   1      33.394  28.711  22.299  1.00  0.00    -0.273 OA
ATOM      5  H   UNL A   1      33.487  29.613  24.464  1.00  0.00     0.163 HD
BRANCH   3   6
ATOM      6  C   UNL A   1      31.119  27.989  22.650  1.00  0.00     0.197 C 
BRANCH   6   7
ATOM      7  N   UNL A   1      30.615  27.065  23.666  1.00  0.00    -0.341 N 
ATOM      8  O   UNL A   1      32.114  25.401  23.211  1.00  0.00    -0.274 OA
ATOM      9  C   UNL A   1      31.223  25.858  23.920  1.00  0.00     0.235 C 
ATOM     10  H   UNL A   1      29.815  27.316  24.184  1.00  0.00     0.164 HD
BRANCH   9  11
ATOM     11  C   UNL A   1      30.673  25.110  25.129  1.00  0.00     0.198 C 
BRANCH  11  12
ATOM     12  N   UNL A   1      30.638  23.646  24.874  1.00  0.00    -0.202 NA
ATOM     13  H   UNL A   1      30.943  23.486  23.914  1.00  0.00     0.141 HD
BRANCH  12  14
ATOM     14  S   UNL A   1      31.614  22.711  25.898  1.00  0.00     0.241 S 
ATOM     15  O   UNL A   1      31.461  23.248  27.231  1.00  0.00    -0.207 OA
ATOM     16  O   UNL A   1      31.310  21.333  25.587  1.00  0.00    -0.207 OA
BRANCH  14  17
ATOM     17  C   UNL A   1      33.246  23.055  25.311  1.00  0.00     0.082 A 
ATOM     18  C   UNL A   1      33.726  22.405  24.170  1.00  0.00     0.022 A 
ATOM     19  C   UNL A   1      34.051  23.953  26.018  1.00  0.00     0.022 A 
ATOM     20  C   UNL A   1      35.032  22.648  23.743  1.00  0.00     0.001 A 
ATOM     21  C   UNL A   1      35.355  24.187  25.587  1.00  0.00     0.001 A 
ATOM     22  C   UNL A   1      35.845  23.533  24.454  1.00  0.00     0.000 A 
ENDBRANCH  14  17
ENDBRANCH  12  14
ENDBRANCH  11  12
ENDBRANCH   9  11
ENDBRANCH   6   7
BRANCH   6  23
ATOM     23  C   UNL A   1      30.082  28.997  22.130  1.00  0.00     0.191 C 
BRANCH  23  24
ATOM     24  O   UNL A   1      30.662  30.206  21.638  1.00  0.00    -0.394 OA
ATOM     25  H   UNL A   1      31.615  30.078  21.508  1.00  0.00     0.210 HD
ENDBRANCH  23  24
ENDBRANCH   6  23
ENDBRANCH   3   6
ENDBRANCH   1   2
BRANCH   1  26
ATOM     26  C   UNL A   1      32.218  30.293  26.503  1.00  0.00     0.023 C 
BRANCH  26  27
ATOM     27  C   UNL A   1      31.802  31.713  26.887  1.00  0.00     0.023 C 
BRANCH  27  28
ATOM     28  C   UNL A   1      32.928  32.613  27.381  1.00  0.00     0.116 C 
BRANCH  28  29
ATOM     29  N   UNL A   1      32.502  33.983  27.629  1.00  0.00    -0.352 N 
ATOM     30  C   UNL A   1      32.999  34.886  28.541  1.00  0.00     0.251 C 
ATOM     31  H   UNL A   1      31.760  34.307  27.070  1.00  0.00     0.163 HD
ATOM     32  O   UNL A   1      32.461  35.973  28.706  1.00  0.00    -0.269 OA
BRANCH  30  33
ATOM     33  C   UNL A   1      34.175  34.508  29.349  1.00  0.00     0.039 A 
ATOM     34  C   UNL A   1      33.981  33.842  30.562  1.00  0.00     0.014 A 
ATOM     35  C   UNL A   1      35.465  34.754  28.872  1.00  0.00     0.014 A 
ATOM     36  C   UNL A   1      35.084  33.339  31.255  1.00  0.00     0.010 A 
ATOM     37  C   UNL A   1      36.554  34.194  29.526  1.00  0.00     0.010 A 
ATOM     38  C   UNL A   1      36.374  33.471  30.717  1.00  0.00    -0.014 A 
BRANCH  38  39
ATOM     39  C   UNL A   1      37.559  32.853  31.361  1.00  0.00     0.031 A 
ATOM     40  C   UNL A   1      38.235  31.683  30.709  1.00  0.00     0.074 A 
ATOM     41  C   UNL A   1      37.949  33.266  32.582  1.00  0.00     0.049 A 
ATOM     42  N   UNL A   1      39.159  30.888  31.182  1.00  0.00    -0.248 NA
ATOM     43  C   UNL A   1      37.778  31.338  29.354  1.00  0.00     0.031 C 
ATOM     44  C   UNL A   1      37.343  34.360  33.340  1.00  0.00     0.029 A 
ATOM     45  N   UNL A   1      38.931  32.788  33.414  1.00  0.00    -0.354 N 
ATOM     46  C   UNL A   1      39.371  29.932  30.200  1.00  0.00     0.074 A 
ATOM     47  C   UNL A   1      38.450  30.221  29.121  1.00  0.00     0.031 C 
ATOM     48  C   UNL A   1      37.966  34.472  34.525  1.00  0.00     0.029 A 
ATOM     49  C   UNL A   1      38.987  33.434  34.624  1.00  0.00     0.049 A 
ATOM     50  H   UNL A   1      39.538  32.053  33.167  1.00  0.00     0.167 HD
ATOM     51  C   UNL A   1      40.263  28.913  30.191  1.00  0.00     0.037 A 
ATOM     52  C   UNL A   1      39.760  33.201  35.702  1.00  0.00     0.037 A 
ATOM     53  C   UNL A   1      41.199  28.649  31.251  1.00  0.00     0.049 A 
ATOM     54  C   UNL A   1      40.763  32.081  35.661  1.00  0.00     0.074 A 
ATOM     55  C   UNL A   1      42.186  27.681  31.313  1.00  0.00     0.029 A 
ATOM     56  N   UNL A   1      41.265  29.363  32.440  1.00  0.00    -0.354 N 
ATOM     57  N   UNL A   1      40.989  31.211  34.708  1.00  0.00    -0.248 NA
ATOM     58  C   UNL A   1      41.618  31.913  36.844  1.00  0.00     0.031 C 
ATOM     59  C   UNL A   1      42.829  27.790  32.551  1.00  0.00     0.029 A 
ATOM     60  C   UNL A   1      42.269  28.851  33.244  1.00  0.00     0.049 A 
ATOM     61  H   UNL A   1      40.685  30.123  32.674  1.00  0.00     0.167 HD
ATOM     62  C   UNL A   1      42.027  30.409  35.161  1.00  0.00     0.074 A 
ATOM     63  C   UNL A   1      42.392  30.901  36.474  1.00  0.00     0.031 C 
ATOM     64  C   UNL A   1      42.624  29.360  34.545  1.00  0.00     0.037 A 
BRANCH  51  65
ATOM     65  C   UNL A   1      40.259  28.008  28.994  1.00  0.00     0.064 A 
ATOM     66  C   UNL A   1      39.554  26.796  28.992  1.00  0.00     0.173 A 
ATOM     67  C   UNL A   1      40.969  28.359  27.835  1.00  0.00     0.173 A 
ATOM     68  F   UNL A   1      38.872  26.410  30.080  1.00  0.00    -0.203 F 
ATOM     69  C   UNL A   1      39.593  25.947  27.888  1.00  0.00     0.198 A 
ATOM     70  C   UNL A   1      40.981  27.521  26.722  1.00  0.00     0.198 A 
ATOM     71  F   UNL A   1      41.657  29.508  27.784  1.00  0.00    -0.203 F 
ATOM     72  F   UNL A   1      38.963  24.765  27.933  1.00  0.00    -0.200 F 
ATOM     73  C   UNL A   1      40.302  26.312  26.754  1.00  0.00     0.200 A 
ATOM     74  F   UNL A   1      41.659  27.879  25.623  1.00  0.00    -0.200 F 
ATOM     75  F   UNL A   1      40.341  25.492  25.694  1.00  0.00    -0.200 F 
ENDBRANCH  51  65
BRANCH  52  76
ATOM     76  C   UNL A   1      39.626  34.065  36.901  1.00  0.00     0.064 A 
ATOM     77  C   UNL A   1      38.809  33.682  37.973  1.00  0.00     0.173 A 
ATOM     78  C   UNL A   1      40.328  35.274  37.013  1.00  0.00     0.173 A 
ATOM     79  F   UNL A   1      38.102  32.544  37.902  1.00  0.00    -0.203 F 
ATOM     80  C   UNL A   1      38.692  34.480  39.109  1.00  0.00     0.198 A 
ATOM     81  C   UNL A   1      40.229  36.059  38.160  1.00  0.00     0.198 A 
ATOM     82  F   UNL A   1      41.128  35.680  36.017  1.00  0.00    -0.203 F 
ATOM     83  F   UNL A   1      37.881  34.104  40.107  1.00  0.00    -0.200 F 
ATOM     84  C   UNL A   1      39.406  35.663  39.204  1.00  0.00     0.200 A 
ATOM     85  F   UNL A   1      40.931  37.196  38.254  1.00  0.00    -0.200 F 
ATOM     86  F   UNL A   1      39.302  36.425  40.302  1.00  0.00    -0.200 F 
ENDBRANCH  52  76
BRANCH  64  87
ATOM     87  C   UNL A   1      43.760  28.695  35.264  1.00  0.00     0.064 A 
ATOM     88  C   UNL A   1      45.086  29.116  35.090  1.00  0.00     0.173 A 
ATOM     89  C   UNL A   1      43.510  27.662  36.178  1.00  0.00     0.173 A 
ATOM     90  F   UNL A   1      45.376  30.090  34.214  1.00  0.00    -0.203 F 
ATOM     91  C   UNL A   1      46.125  28.512  35.794  1.00  0.00     0.198 A 
ATOM     92  C   UNL A   1      44.547  27.077  36.899  1.00  0.00     0.198 A 
ATOM     93  F   UNL A   1      42.257  27.229  36.383  1.00  0.00    -0.203 F 
ATOM     94  F   UNL A   1      47.389  28.904  35.587  1.00  0.00    -0.200 F 
ATOM     95  C   UNL A   1      45.853  27.500  36.704  1.00  0.00     0.200 A 
ATOM     96  F   UNL A   1      44.282  26.106  37.785  1.00  0.00    -0.200 F 
ATOM     97  F   UNL A   1      46.853  26.927  37.388  1.00  0.00    -0.200 F 
ENDBRANCH  64  87
ENDBRANCH  38  39
ENDBRANCH  30  33
ENDBRANCH  28  29
ENDBRANCH  27  28
ENDBRANCH  26  27
ENDBRANCH   1  26
TORSDOF 18
ENDMDL
MODEL 2
REMARK VINA RESULT:     -11.6      2.072      3.852
REMARK SMILES O=C(CNS(=O)(=O)c1ccccc1)N[C@@H](CO)C(=O)NCCCCNC(=O)c1ccc(-c2c3nc(c(-c4c(F)c(F)c(F)c(F)c4F)c4ccc([nH]4)c(-c4c(F)c(F)c(F)c(F)c4F)c4nc(c(-c5c(F)c(F)c(F)c(F)c5F)c5ccc2[nH]5)C=C4)C=C3)cc1
REMARK SMILES IDX 21 1 20 2 18 3 19 4 15 6 14 7 1 8 2 9 3 11 4 12 5 14 6 15
REMARK SMILES IDX 7 16 8 17 9 18 13 19 10 20 12 21 11 22 16 23 17 24 22 26
REMARK SMILES IDX 23 27 24 28 25 29 26 30 27 32 28 33 29 34 90 35 30 36 89 37
REMARK SMILES IDX 31 38 32 39 33 40 83 41 34 42 88 43 82 44 84 45 35 46 87 47
REMARK SMILES IDX 81 48 80 49 36 51 68 52 48 53 67 54 49 55 52 56 66 57 85 58
REMARK SMILES IDX 50 59 51 60 65 62 86 63 53 64 37 65 38 66 46 67 39 68 40 69
REMARK SMILES IDX 44 70 47 71 41 72 42 73 45 74 43 75 69 76 70 77 78 78 71 79
REMARK SMILES IDX 72 80 76 81 79 82 73 83 74 84 77 85 75 86 54 87 55 88 63 89
REMARK SMILES IDX 56 90 57 91 61 92 64 93 58 94 59 95 62 96 60 97
REMARK H PARENT 20 5 14 10 4 13 17 25 25 31 84 50 52 61
REMARK Flexibility Score: inf
ROOT
ATOM      1  C   UNL A   1      32.040  25.885  26.472  1.00  0.00     0.116 C 
ENDROOT
BRANCH   1   2
ATOM      2  N   UNL A   1      31.142  24.801  26.814  1.00  0.00    -0.354 N 
ATOM      3  C   UNL A   1      31.351  23.457  26.882  1.00  0.00     0.244 C 
ATOM      4  O   UNL A   1      30.485  22.789  27.457  1.00  0.00    -0.273 OA
ATOM      5  H   UNL A   1      30.224  25.084  27.033  1.00  0.00     0.163 HD
BRANCH   3   6
ATOM      6  C   UNL A   1      32.633  22.786  26.360  1.00  0.00     0.197 C 
BRANCH   6   7
ATOM      7  N   UNL A   1      32.939  23.145  24.975  1.00  0.00    -0.341 N 
ATOM      8  O   UNL A   1      32.304  21.138  24.085  1.00  0.00    -0.274 OA
ATOM      9  C   UNL A   1      32.663  22.300  23.925  1.00  0.00     0.235 C 
ATOM     10  H   UNL A   1      33.356  24.018  24.789  1.00  0.00     0.164 HD
BRANCH   9  11
ATOM     11  C   UNL A   1      32.881  22.909  22.544  1.00  0.00     0.198 C 
BRANCH  11  12
ATOM     12  N   UNL A   1      32.059  24.135  22.373  1.00  0.00    -0.202 NA
ATOM     13  H   UNL A   1      31.433  24.210  23.173  1.00  0.00     0.141 HD
BRANCH  12  14
ATOM     14  S   UNL A   1      32.937  25.582  22.255  1.00  0.00     0.241 S 
ATOM     15  O   UNL A   1      33.972  25.529  23.262  1.00  0.00    -0.207 OA
ATOM     16  O   UNL A   1      33.239  25.750  20.852  1.00  0.00    -0.207 OA
BRANCH  14  17
ATOM     17  C   UNL A   1      31.742  26.805  22.707  1.00  0.00     0.082 A 
ATOM     18  C   UNL A   1      30.429  26.422  22.996  1.00  0.00     0.022 A 
ATOM     19  C   UNL A   1      32.120  28.150  22.737  1.00  0.00     0.022 A 
ATOM     20  C   UNL A   1      29.484  27.399  23.304  1.00  0.00     0.001 A 
ATOM     21  C   UNL A   1      31.168  29.121  23.041  1.00  0.00     0.001 A 
ATOM     22  C   UNL A   1      29.852  28.746  23.321  1.00  0.00     0.000 A 
ENDBRANCH  14  17
ENDBRANCH  12  14
ENDBRANCH  11  12
ENDBRANCH   9  11
ENDBRANCH   6   7
BRANCH   6  23
ATOM     23  C   UNL A   1      33.805  22.958  27.340  1.00  0.00     0.191 C 
BRANCH  23  24
ATOM     24  O   UNL A   1      34.601  21.782  27.483  1.00  0.00    -0.394 OA
ATOM     25  H   UNL A   1      34.063  21.000  27.281  1.00  0.00     0.210 HD
ENDBRANCH  23  24
ENDBRANCH   6  23
ENDBRANCH   3   6
ENDBRANCH   1   2
BRANCH   1  26
ATOM     26  C   UNL A   1      31.325  27.232  26.421  1.00  0.00     0.023 C 
BRANCH  26  27
ATOM     27  C   UNL A   1      32.017  28.363  27.180  1.00  0.00     0.023 C 
BRANCH  27  28
ATOM     28  C   UNL A   1      32.838  29.320  26.323  1.00  0.00     0.116 C 
BRANCH  28  29
ATOM     29  N   UNL A   1      32.510  30.721  26.548  1.00  0.00    -0.352 N 
ATOM     30  C   UNL A   1      33.237  31.676  27.219  1.00  0.00     0.251 C 
ATOM     31  H   UNL A   1      31.654  31.024  26.168  1.00  0.00     0.163 HD
ATOM     32  O   UNL A   1      32.774  32.793  27.417  1.00  0.00    -0.269 OA
BRANCH  30  33
ATOM     33  C   UNL A   1      34.574  31.324  27.735  1.00  0.00     0.039 A 
ATOM     34  C   UNL A   1      35.533  32.330  27.883  1.00  0.00     0.014 A 
ATOM     35  C   UNL A   1      34.851  30.013  28.132  1.00  0.00     0.014 A 
ATOM     36  C   UNL A   1      36.742  32.039  28.517  1.00  0.00     0.010 A 
ATOM     37  C   UNL A   1      36.025  29.743  28.823  1.00  0.00     0.010 A 
ATOM     38  C   UNL A   1      36.976  30.755  29.034  1.00  0.00    -0.014 A 
BRANCH  38  39
ATOM     39  C   UNL A   1      38.197  30.433  29.814  1.00  0.00     0.031 A 
ATOM     40  C   UNL A   1      39.201  29.467  29.259  1.00  0.00     0.074 A 
ATOM     41  C   UNL A   1      38.337  30.913  31.064  1.00  0.00     0.049 A 
ATOM     42  N   UNL A   1      40.231  28.912  29.844  1.00  0.00    -0.248 NA
ATOM     43  C   UNL A   1      38.994  29.038  27.867  1.00  0.00     0.031 C 
ATOM     44  C   UNL A   1      37.406  31.821  31.734  1.00  0.00     0.029 A 
ATOM     45  N   UNL A   1      39.307  30.676  32.007  1.00  0.00    -0.354 N 
ATOM     46  C   UNL A   1      40.774  28.046  28.906  1.00  0.00     0.074 A 
ATOM     47  C   UNL A   1      39.936  28.118  27.727  1.00  0.00     0.031 C 
ATOM     48  C   UNL A   1      37.848  32.065  32.978  1.00  0.00     0.029 A 
ATOM     49  C   UNL A   1      39.071  31.302  33.206  1.00  0.00     0.049 A 
ATOM     50  H   UNL A   1      40.096  30.111  31.840  1.00  0.00     0.167 HD
ATOM     51  C   UNL A   1      41.879  27.272  29.012  1.00  0.00     0.037 A 
ATOM     52  C   UNL A   1      39.753  31.249  34.366  1.00  0.00     0.037 A 
ATOM     53  C   UNL A   1      42.728  27.228  30.173  1.00  0.00     0.049 A 
ATOM     54  C   UNL A   1      40.993  30.403  34.454  1.00  0.00     0.074 A 
ATOM     55  C   UNL A   1      43.905  26.525  30.358  1.00  0.00     0.029 A 
ATOM     56  N   UNL A   1      42.488  27.923  31.350  1.00  0.00    -0.354 N 
ATOM     57  N   UNL A   1      41.527  29.624  33.545  1.00  0.00    -0.248 NA
ATOM     58  C   UNL A   1      41.727  30.432  35.726  1.00  0.00     0.031 C 
ATOM     59  C   UNL A   1      44.361  26.770  31.658  1.00  0.00     0.029 A 
ATOM     60  C   UNL A   1      43.490  27.658  32.269  1.00  0.00     0.049 A 
ATOM     61  H   UNL A   1      41.720  28.518  31.507  1.00  0.00     0.167 HD
ATOM     62  C   UNL A   1      42.669  29.090  34.122  1.00  0.00     0.074 A 
ATOM     63  C   UNL A   1      42.757  29.640  35.460  1.00  0.00     0.031 C 
ATOM     64  C   UNL A   1      43.566  28.222  33.592  1.00  0.00     0.037 A 
BRANCH  51  65
ATOM     65  C   UNL A   1      42.226  26.406  27.836  1.00  0.00     0.064 A 
ATOM     66  C   UNL A   1      41.650  25.139  27.661  1.00  0.00     0.173 A 
ATOM     67  C   UNL A   1      43.145  26.850  26.872  1.00  0.00     0.173 A 
ATOM     68  F   UNL A   1      40.778  24.664  28.562  1.00  0.00    -0.203 F 
ATOM     69  C   UNL A   1      42.012  24.330  26.586  1.00  0.00     0.198 A 
ATOM     70  C   UNL A   1      43.481  26.051  25.782  1.00  0.00     0.198 A 
ATOM     71  F   UNL A   1      43.720  28.055  26.990  1.00  0.00    -0.203 F 
ATOM     72  F   UNL A   1      41.497  23.099  26.475  1.00  0.00    -0.200 F 
ATOM     73  C   UNL A   1      42.923  24.788  25.646  1.00  0.00     0.200 A 
ATOM     74  F   UNL A   1      44.354  26.498  24.869  1.00  0.00    -0.200 F 
ATOM     75  F   UNL A   1      43.273  24.007  24.615  1.00  0.00    -0.200 F 
ENDBRANCH  51  65
BRANCH  52  76
ATOM     76  C   UNL A   1      39.283  32.041  35.529  1.00  0.00     0.064 A 
ATOM     77  C   UNL A   1      38.437  31.472  36.491  1.00  0.00     0.173 A 
ATOM     78  C   UNL A   1      39.687  33.371  35.720  1.00  0.00     0.173 A 
ATOM     79  F   UNL A   1      38.008  30.210  36.340  1.00  0.00    -0.203 F 
ATOM     80  C   UNL A   1      38.007  32.204  37.595  1.00  0.00     0.198 A 
ATOM     81  C   UNL A   1      39.275  34.095  36.836  1.00  0.00     0.198 A 
ATOM     82  F   UNL A   1      40.502  33.958  34.831  1.00  0.00    -0.203 F 
ATOM     83  F   UNL A   1      37.175  31.645  38.483  1.00  0.00    -0.200 F 
ATOM     84  C   UNL A   1      38.431  33.512  37.769  1.00  0.00     0.200 A 
ATOM     85  F   UNL A   1      39.697  35.355  37.009  1.00  0.00    -0.200 F 
ATOM     86  F   UNL A   1      38.024  34.213  38.837  1.00  0.00    -0.200 F 
ENDBRANCH  52  76
BRANCH  64  87
ATOM     87  C   UNL A   1      44.741  27.842  34.443  1.00  0.00     0.064 A 
ATOM     88  C   UNL A   1      45.915  28.607  34.458  1.00  0.00     0.173 A 
ATOM     89  C   UNL A   1      44.668  26.728  35.292  1.00  0.00     0.173 A 
ATOM     90  F   UNL A   1      46.037  29.672  33.651  1.00  0.00    -0.203 F 
ATOM     91  C   UNL A   1      46.983  28.261  35.283  1.00  0.00     0.198 A 
ATOM     92  C   UNL A   1      45.727  26.399  36.133  1.00  0.00     0.198 A 
ATOM     93  F   UNL A   1      43.563  25.968  35.318  1.00  0.00    -0.203 F 
ATOM     94  F   UNL A   1      48.110  28.984  35.256  1.00  0.00    -0.200 F 
ATOM     95  C   UNL A   1      46.884  27.162  36.125  1.00  0.00     0.200 A 
ATOM     96  F   UNL A   1      45.626  25.343  36.954  1.00  0.00    -0.200 F 
ATOM     97  F   UNL A   1      47.908  26.836  36.924  1.00  0.00    -0.200 F 
ENDBRANCH  64  87
ENDBRANCH  38  39
ENDBRANCH  30  33
ENDBRANCH  28  29
ENDBRANCH  27  28
ENDBRANCH  26  27
ENDBRANCH   1  26
TORSDOF 18
ENDMDL
MODEL 3
REMARK VINA RESULT:     -11.5      1.169      2.235
REMARK SMILES O=C(CNS(=O)(=O)c1ccccc1)N[C@@H](CO)C(=O)NCCCCNC(=O)c1ccc(-c2c3nc(c(-c4c(F)c(F)c(F)c(F)c4F)c4ccc([nH]4)c(-c4c(F)c(F)c(F)c(F)c4F)c4nc(c(-c5c(F)c(F)c(F)c(F)c5F)c5ccc2[nH]5)C=C4)C=C3)cc1
REMARK SMILES IDX 21 1 20 2 18 3 19 4 15 6 14 7 1 8 2 9 3 11 4 12 5 14 6 15
REMARK SMILES IDX 7 16 8 17 9 18 13 19 10 20 12 21 11 22 16 23 17 24 22 26
REMARK SMILES IDX 23 27 24 28 25 29 26 30 27 32 28 33 29 34 90 35 30 36 89 37
REMARK SMILES IDX 31 38 32 39 33 40 83 41 34 42 88 43 82 44 84 45 35 46 87 47
REMARK SMILES IDX 81 48 80 49 36 51 68 52 48 53 67 54 49 55 52 56 66 57 85 58
REMARK SMILES IDX 50 59 51 60 65 62 86 63 53 64 37 65 38 66 46 67 39 68 40 69
REMARK SMILES IDX 44 70 47 71 41 72 42 73 45 74 43 75 69 76 70 77 78 78 71 79
REMARK SMILES IDX 72 80 76 81 79 82 73 83 74 84 77 85 75 86 54 87 55 88 63 89
REMARK SMILES IDX 56 90 57 91 61 92 64 93 58 94 59 95 62 96 60 97
REMARK H PARENT 20 5 14 10 4 13 17 25 25 31 84 50 52 61
REMARK Flexibility Score: inf
ROOT
ATOM      1  C   UNL A   1      32.403  29.045  25.872  1.00  0.00     0.116 C 
ENDROOT
BRANCH   1   2
ATOM      2  N   UNL A   1      31.297  28.145  25.610  1.00  0.00    -0.354 N 
ATOM      3  C   UNL A   1      30.836  27.614  24.444  1.00  0.00     0.244 C 
ATOM      4  O   UNL A   1      30.045  26.669  24.540  1.00  0.00    -0.273 OA
ATOM      5  H   UNL A   1      30.793  27.872  26.412  1.00  0.00     0.163 HD
BRANCH   3   6
ATOM      6  C   UNL A   1      31.323  28.086  23.064  1.00  0.00     0.197 C 
BRANCH   6   7
ATOM      7  N   UNL A   1      31.590  26.979  22.145  1.00  0.00    -0.341 N 
ATOM      8  O   UNL A   1      33.845  27.335  22.024  1.00  0.00    -0.274 OA
ATOM      9  C   UNL A   1      32.867  26.641  21.762  1.00  0.00     0.235 C 
ATOM     10  H   UNL A   1      30.831  26.460  21.790  1.00  0.00     0.164 HD
BRANCH   9  11
ATOM     11  C   UNL A   1      32.968  25.355  20.949  1.00  0.00     0.198 C 
BRANCH  11  12
ATOM     12  N   UNL A   1      32.157  24.274  21.567  1.00  0.00    -0.202 NA
ATOM     13  H   UNL A   1      31.712  23.746  20.818  1.00  0.00     0.141 HD
BRANCH  12  14
ATOM     14  S   UNL A   1      33.023  23.185  22.536  1.00  0.00     0.241 S 
ATOM     15  O   UNL A   1      32.510  21.865  22.247  1.00  0.00    -0.207 OA
ATOM     16  O   UNL A   1      34.417  23.520  22.363  1.00  0.00    -0.207 OA
BRANCH  14  17
ATOM     17  C   UNL A   1      32.549  23.651  24.175  1.00  0.00     0.082 A 
ATOM     18  C   UNL A   1      31.396  23.105  24.747  1.00  0.00     0.022 A 
ATOM     19  C   UNL A   1      33.319  24.589  24.867  1.00  0.00     0.022 A 
ATOM     20  C   UNL A   1      31.005  23.516  26.021  1.00  0.00     0.001 A 
ATOM     21  C   UNL A   1      32.918  24.998  26.138  1.00  0.00     0.001 A 
ATOM     22  C   UNL A   1      31.762  24.464  26.712  1.00  0.00     0.000 A 
ENDBRANCH  14  17
ENDBRANCH  12  14
ENDBRANCH  11  12
ENDBRANCH   9  11
ENDBRANCH   6   7
BRANCH   6  23
ATOM     23  C   UNL A   1      30.423  29.191  22.490  1.00  0.00     0.191 C 
BRANCH  23  24
ATOM     24  O   UNL A   1      31.110  30.084  21.613  1.00  0.00    -0.394 OA
ATOM     25  H   UNL A   1      30.482  30.727  21.248  1.00  0.00     0.210 HD
ENDBRANCH  23  24
ENDBRANCH   6  23
ENDBRANCH   3   6
ENDBRANCH   1   2
BRANCH   1  26
ATOM     26  C   UNL A   1      32.011  30.508  25.685  1.00  0.00     0.023 C 
BRANCH  26  27
ATOM     27  C   UNL A   1      31.838  31.303  26.979  1.00  0.00     0.023 C 
BRANCH  27  28
ATOM     28  C   UNL A   1      32.974  32.262  27.314  1.00  0.00     0.116 C 
BRANCH  28  29
ATOM     29  N   UNL A   1      32.527  33.632  27.527  1.00  0.00    -0.352 N 
ATOM     30  C   UNL A   1      33.018  34.569  28.406  1.00  0.00     0.251 C 
ATOM     31  H   UNL A   1      31.773  33.926  26.967  1.00  0.00     0.163 HD
ATOM     32  O   UNL A   1      32.463  35.652  28.545  1.00  0.00    -0.269 OA
BRANCH  30  33
ATOM     33  C   UNL A   1      34.209  34.236  29.212  1.00  0.00     0.039 A 
ATOM     34  C   UNL A   1      34.039  33.601  30.446  1.00  0.00     0.014 A 
ATOM     35  C   UNL A   1      35.489  34.491  28.714  1.00  0.00     0.014 A 
ATOM     36  C   UNL A   1      35.158  33.138  31.140  1.00  0.00     0.010 A 
ATOM     37  C   UNL A   1      36.595  33.970  29.372  1.00  0.00     0.010 A 
ATOM     38  C   UNL A   1      36.440  33.277  30.585  1.00  0.00    -0.014 A 
BRANCH  38  39
ATOM     39  C   UNL A   1      37.643  32.700  31.233  1.00  0.00     0.031 A 
ATOM     40  C   UNL A   1      38.371  31.565  30.574  1.00  0.00     0.074 A 
ATOM     41  C   UNL A   1      38.005  33.113  32.462  1.00  0.00     0.049 A 
ATOM     42  N   UNL A   1      39.321  30.802  31.048  1.00  0.00    -0.248 NA
ATOM     43  C   UNL A   1      37.941  31.219  29.211  1.00  0.00     0.031 C 
ATOM     44  C   UNL A   1      37.349  34.174  33.228  1.00  0.00     0.029 A 
ATOM     45  N   UNL A   1      38.997  32.665  33.299  1.00  0.00    -0.354 N 
ATOM     46  C   UNL A   1      39.580  29.867  30.056  1.00  0.00     0.074 A 
ATOM     47  C   UNL A   1      38.658  30.132  28.972  1.00  0.00     0.031 C 
ATOM     48  C   UNL A   1      37.956  34.296  34.419  1.00  0.00     0.029 A 
ATOM     49  C   UNL A   1      39.016  33.298  34.517  1.00  0.00     0.049 A 
ATOM     50  H   UNL A   1      39.635  31.957  33.049  1.00  0.00     0.167 HD
ATOM     51  C   UNL A   1      40.512  28.884  30.044  1.00  0.00     0.037 A 
ATOM     52  C   UNL A   1      39.788  33.083  35.599  1.00  0.00     0.037 A 
ATOM     53  C   UNL A   1      41.448  28.644  31.111  1.00  0.00     0.049 A 
ATOM     54  C   UNL A   1      40.835  32.004  35.555  1.00  0.00     0.074 A 
ATOM     55  C   UNL A   1      42.472  27.716  31.170  1.00  0.00     0.029 A 
ATOM     56  N   UNL A   1      41.475  29.347  32.308  1.00  0.00    -0.354 N 
ATOM     57  N   UNL A   1      41.105  31.155  34.594  1.00  0.00    -0.248 NA
ATOM     58  C   UNL A   1      41.685  31.857  36.744  1.00  0.00     0.031 C 
ATOM     59  C   UNL A   1      43.099  27.835  32.416  1.00  0.00     0.029 A 
ATOM     60  C   UNL A   1      42.491  28.865  33.116  1.00  0.00     0.049 A 
ATOM     61  H   UNL A   1      40.862  30.080  32.545  1.00  0.00     0.167 HD
ATOM     62  C   UNL A   1      42.169  30.390  35.048  1.00  0.00     0.074 A 
ATOM     63  C   UNL A   1      42.502  30.880  36.370  1.00  0.00     0.031 C 
ATOM     64  C   UNL A   1      42.813  29.372  34.425  1.00  0.00     0.037 A 
BRANCH  51  65
ATOM     65  C   UNL A   1      40.555  27.994  28.837  1.00  0.00     0.064 A 
ATOM     66  C   UNL A   1      41.329  28.318  27.713  1.00  0.00     0.173 A 
ATOM     67  C   UNL A   1      39.813  26.803  28.804  1.00  0.00     0.173 A 
ATOM     68  F   UNL A   1      42.044  29.452  27.690  1.00  0.00    -0.203 F 
ATOM     69  C   UNL A   1      41.327  27.503  26.583  1.00  0.00     0.198 A 
ATOM     70  C   UNL A   1      39.838  25.975  27.684  1.00  0.00     0.198 A 
ATOM     71  F   UNL A   1      39.060  26.445  29.854  1.00  0.00    -0.203 F 
ATOM     72  F   UNL A   1      42.025  27.865  25.498  1.00  0.00    -0.200 F 
ATOM     73  C   UNL A   1      40.586  26.331  26.572  1.00  0.00     0.200 A 
ATOM     74  F   UNL A   1      39.129  24.838  27.678  1.00  0.00    -0.200 F 
ATOM     75  F   UNL A   1      40.583  25.550  25.482  1.00  0.00    -0.200 F 
ENDBRANCH  51  65
BRANCH  52  76
ATOM     76  C   UNL A   1      39.609  33.926  36.807  1.00  0.00     0.064 A 
ATOM     77  C   UNL A   1      38.829  33.482  37.883  1.00  0.00     0.173 A 
ATOM     78  C   UNL A   1      40.231  35.178  36.923  1.00  0.00     0.173 A 
ATOM     79  F   UNL A   1      38.199  32.301  37.808  1.00  0.00    -0.203 F 
ATOM     80  C   UNL A   1      38.671  34.261  39.027  1.00  0.00     0.198 A 
ATOM     81  C   UNL A   1      40.091  35.946  38.077  1.00  0.00     0.198 A 
ATOM     82  F   UNL A   1      40.993  35.644  35.923  1.00  0.00    -0.203 F 
ATOM     83  F   UNL A   1      37.896  33.826  40.029  1.00  0.00    -0.200 F 
ATOM     84  C   UNL A   1      39.306  35.489  39.125  1.00  0.00     0.200 A 
ATOM     85  F   UNL A   1      40.718  37.127  38.174  1.00  0.00    -0.200 F 
ATOM     86  F   UNL A   1      39.162  36.233  40.231  1.00  0.00    -0.200 F 
ENDBRANCH  52  76
BRANCH  64  87
ATOM     87  C   UNL A   1      43.968  28.745  35.148  1.00  0.00     0.064 A 
ATOM     88  C   UNL A   1      43.792  27.643  35.997  1.00  0.00     0.173 A 
ATOM     89  C   UNL A   1      45.272  29.220  34.945  1.00  0.00     0.173 A 
ATOM     90  F   UNL A   1      42.561  27.164  36.235  1.00  0.00    -0.203 F 
ATOM     91  C   UNL A   1      44.880  27.049  36.632  1.00  0.00     0.198 A 
ATOM     92  C   UNL A   1      46.360  28.609  35.561  1.00  0.00     0.198 A 
ATOM     93  F   UNL A   1      45.492  30.268  34.138  1.00  0.00    -0.203 F 
ATOM     94  F   UNL A   1      44.687  26.020  37.467  1.00  0.00    -0.200 F 
ATOM     95  C   UNL A   1      46.163  27.527  36.406  1.00  0.00     0.200 A 
ATOM     96  F   UNL A   1      47.600  29.065  35.335  1.00  0.00    -0.200 F 
ATOM     97  F   UNL A   1      47.209  26.948  37.010  1.00  0.00    -0.200 F 
ENDBRANCH  64  87
ENDBRANCH  38  39
ENDBRANCH  30  33
ENDBRANCH  28  29
ENDBRANCH  27  28
ENDBRANCH  26  27
ENDBRANCH   1  26
TORSDOF 18
ENDMDL
