MODEL 1
REMARK VINA RESULT:     -10.4      0.000      0.000
REMARK SMILES Cc1ccc(N2C(=O)/C(=C\c3ccccc3O[C@H](C)C(=O)NCCCCNC(=O)c3ccc(-c4c5nc(c(-c6c(F)c(F)c(F)c(F)c6F)c6ccc([nH]6)c(-c6c(F)c(F)c(F)c(F)c6F)c6nc(c(-c7c(F)c(F)c(F)c(F)c7F)c7ccc4[nH]7)C=C6)C=C5)cc3)SC2=S)c(C)c1
REMARK SMILES IDX 23 1 22 2 20 3 21 4 18 6 19 7 17 8 16 9 11 10 12 11 13 12
REMARK SMILES IDX 15 13 14 14 10 15 6 16 7 17 94 18 8 19 9 20 93 21 95 22 5 23
REMARK SMILES IDX 1 24 2 25 3 26 98 27 4 28 96 29 97 30 24 31 25 32 26 33
REMARK SMILES IDX 27 34 28 35 29 37 30 38 31 39 92 40 32 41 91 42 33 43 34 44
REMARK SMILES IDX 35 45 85 46 36 47 90 48 84 49 86 50 37 51 89 52 83 53 82 54
REMARK SMILES IDX 38 56 70 57 50 58 69 59 51 60 54 61 68 62 87 63 52 64 53 65
REMARK SMILES IDX 67 67 88 68 55 69 39 70 40 71 48 72 41 73 42 74 46 75 49 76
REMARK SMILES IDX 43 77 44 78 47 79 45 80 71 81 72 82 80 83 73 84 74 85 78 86
REMARK SMILES IDX 81 87 75 88 76 89 79 90 77 91 56 92 57 93 65 94 58 95 59 96
REMARK SMILES IDX 63 97 66 98 60 99 61 100 64 101 62 102
REMARK H PARENT 22 5 27 36 86 55 54 66
REMARK Flexibility Score: inf
ROOT
ATOM      1  C   UNL A   1      34.342  34.506  31.585  1.00  0.00     0.116 C 
ENDROOT
BRANCH   1   2
ATOM      2  N   UNL A   1      35.541  35.038  32.210  1.00  0.00    -0.353 N 
ATOM      3  C   UNL A   1      36.726  34.404  32.499  1.00  0.00     0.260 C 
ATOM      4  O   UNL A   1      37.641  35.081  32.975  1.00  0.00    -0.271 OA
ATOM      5  H   UNL A   1      35.500  35.990  32.461  1.00  0.00     0.163 HD
BRANCH   3   6
ATOM      6  C   UNL A   1      36.874  32.888  32.271  1.00  0.00     0.258 C 
ATOM      7  C   UNL A   1      37.664  32.677  30.984  1.00  0.00     0.064 C 
BRANCH   6   8
ATOM      8  O   UNL A   1      37.451  32.441  33.493  1.00  0.00    -0.480 OA
BRANCH   8   9
ATOM      9  C   UNL A   1      38.320  31.407  33.642  1.00  0.00     0.127 A 
ATOM     10  C   UNL A   1      39.598  31.785  34.112  1.00  0.00     0.018 A 
ATOM     11  C   UNL A   1      40.629  30.842  34.174  1.00  0.00     0.012 A 
ATOM     12  C   UNL A   1      40.382  29.518  33.819  1.00  0.00     0.001 A 
ATOM     13  C   UNL A   1      38.070  30.072  33.347  1.00  0.00     0.047 A 
ATOM     14  C   UNL A   1      39.102  29.132  33.426  1.00  0.00     0.004 A 
BRANCH  10  15
ATOM     15  C   UNL A   1      39.878  33.161  34.563  1.00  0.00     0.033 C 
ATOM     16  N   UNL A   1      39.002  33.684  38.085  1.00  0.00    -0.261 N 
ATOM     17  C   UNL A   1      39.172  32.840  36.990  1.00  0.00     0.270 C 
ATOM     18  C   UNL A   1      39.355  35.011  37.906  1.00  0.00     0.152 C 
ATOM     19  O   UNL A   1      38.946  31.637  36.962  1.00  0.00    -0.268 OA
ATOM     20  C   UNL A   1      39.668  33.614  35.810  1.00  0.00     0.081 C 
ATOM     21  S   UNL A   1      39.918  35.261  36.251  1.00  0.00    -0.054 SA
ATOM     22  S   UNL A   1      39.396  36.266  39.014  1.00  0.00    -0.051 S 
BRANCH  16  23
ATOM     23  C   UNL A   1      38.425  33.158  39.283  1.00  0.00     0.054 A 
ATOM     24  C   UNL A   1      36.566  31.202  42.665  1.00  0.00     0.044 C 
ATOM     25  C   UNL A   1      37.195  31.906  41.500  1.00  0.00    -0.051 A 
ATOM     26  C   UNL A   1      36.421  32.391  40.446  1.00  0.00     0.005 A 
ATOM     27  C   UNL A   1      38.583  32.068  41.450  1.00  0.00     0.009 A 
ATOM     28  C   UNL A   1      37.029  33.007  39.349  1.00  0.00     0.027 A 
ATOM     29  C   UNL A   1      39.212  32.703  40.362  1.00  0.00    -0.027 A 
ATOM     30  C   UNL A   1      40.709  32.855  40.432  1.00  0.00     0.046 C 
ENDBRANCH  16  23
ENDBRANCH  10  15
ENDBRANCH   8   9
ENDBRANCH   6   8
ENDBRANCH   3   6
ENDBRANCH   1   2
BRANCH   1  31
ATOM     31  C   UNL A   1      34.534  34.203  30.102  1.00  0.00     0.023 C 
BRANCH  31  32
ATOM     32  C   UNL A   1      34.360  32.736  29.721  1.00  0.00     0.023 C 
BRANCH  32  33
ATOM     33  C   UNL A   1      34.591  32.414  28.249  1.00  0.00     0.116 C 
BRANCH  33  34
ATOM     34  N   UNL A   1      34.031  31.134  27.838  1.00  0.00    -0.352 N 
ATOM     35  C   UNL A   1      34.648  29.910  27.746  1.00  0.00     0.251 C 
ATOM     36  H   UNL A   1      33.077  31.148  27.591  1.00  0.00     0.163 HD
ATOM     37  O   UNL A   1      34.050  28.942  27.286  1.00  0.00    -0.269 OA
BRANCH  35  38
ATOM     38  C   UNL A   1      36.058  29.776  28.165  1.00  0.00     0.039 A 
ATOM     39  C   UNL A   1      36.335  29.339  29.463  1.00  0.00     0.014 A 
ATOM     40  C   UNL A   1      37.097  30.035  27.268  1.00  0.00     0.014 A 
ATOM     41  C   UNL A   1      37.655  29.075  29.834  1.00  0.00     0.010 A 
ATOM     42  C   UNL A   1      38.403  29.706  27.616  1.00  0.00     0.010 A 
ATOM     43  C   UNL A   1      38.692  29.210  28.897  1.00  0.00    -0.014 A 
BRANCH  43  44
ATOM     44  C   UNL A   1      40.086  28.817  29.220  1.00  0.00     0.031 A 
ATOM     45  C   UNL A   1      40.989  29.777  29.940  1.00  0.00     0.074 A 
ATOM     46  C   UNL A   1      40.562  27.635  28.785  1.00  0.00     0.049 A 
ATOM     47  N   UNL A   1      42.268  29.672  30.200  1.00  0.00    -0.248 NA
ATOM     48  C   UNL A   1      40.380  31.033  30.403  1.00  0.00     0.031 C 
ATOM     49  C   UNL A   1      39.793  26.635  28.041  1.00  0.00     0.029 A 
ATOM     50  N   UNL A   1      41.813  27.082  28.888  1.00  0.00    -0.354 N 
ATOM     51  C   UNL A   1      42.618  30.853  30.841  1.00  0.00     0.074 A 
ATOM     52  C   UNL A   1      41.430  31.678  30.890  1.00  0.00     0.031 C 
ATOM     53  C   UNL A   1      40.586  25.588  27.764  1.00  0.00     0.029 A 
ATOM     54  C   UNL A   1      41.927  25.858  28.273  1.00  0.00     0.049 A 
ATOM     55  H   UNL A   1      42.560  27.521  29.357  1.00  0.00     0.167 HD
ATOM     56  C   UNL A   1      43.819  31.208  31.357  1.00  0.00     0.037 A 
ATOM     57  C   UNL A   1      42.997  25.055  28.122  1.00  0.00     0.037 A 
ATOM     58  C   UNL A   1      44.992  30.374  31.330  1.00  0.00     0.049 A 
ATOM     59  C   UNL A   1      44.323  25.482  28.689  1.00  0.00     0.074 A 
ATOM     60  C   UNL A   1      46.234  30.615  31.889  1.00  0.00     0.029 A 
ATOM     61  N   UNL A   1      45.065  29.136  30.708  1.00  0.00    -0.354 N 
ATOM     62  N   UNL A   1      44.629  26.573  29.346  1.00  0.00    -0.248 NA
ATOM     63  C   UNL A   1      45.455  24.565  28.490  1.00  0.00     0.031 C 
ATOM     64  C   UNL A   1      47.072  29.541  31.568  1.00  0.00     0.029 A 
ATOM     65  C   UNL A   1      46.340  28.613  30.847  1.00  0.00     0.049 A 
ATOM     66  H   UNL A   1      44.321  28.695  30.237  1.00  0.00     0.167 HD
ATOM     67  C   UNL A   1      45.978  26.466  29.656  1.00  0.00     0.074 A 
ATOM     68  C   UNL A   1      46.428  25.196  29.130  1.00  0.00     0.031 C 
ATOM     69  C   UNL A   1      46.771  27.345  30.316  1.00  0.00     0.037 A 
BRANCH  56  70
ATOM     70  C   UNL A   1      43.924  32.559  32.001  1.00  0.00     0.064 A 
ATOM     71  C   UNL A   1      44.143  33.717  31.241  1.00  0.00     0.173 A 
ATOM     72  C   UNL A   1      43.768  32.700  33.387  1.00  0.00     0.173 A 
ATOM     73  F   UNL A   1      44.312  33.633  29.913  1.00  0.00    -0.203 F 
ATOM     74  C   UNL A   1      44.226  34.967  31.849  1.00  0.00     0.198 A 
ATOM     75  C   UNL A   1      43.825  33.955  33.989  1.00  0.00     0.198 A 
ATOM     76  F   UNL A   1      43.552  31.624  34.157  1.00  0.00    -0.203 F 
ATOM     77  F   UNL A   1      44.480  36.055  31.109  1.00  0.00    -0.200 F 
ATOM     78  C   UNL A   1      44.060  35.086  33.221  1.00  0.00     0.200 A 
ATOM     79  F   UNL A   1      43.652  34.069  35.313  1.00  0.00    -0.200 F 
ATOM     80  F   UNL A   1      44.133  36.290  33.805  1.00  0.00    -0.200 F 
ENDBRANCH  56  70
BRANCH  57  81
ATOM     81  C   UNL A   1      42.858  23.760  27.407  1.00  0.00     0.064 A 
ATOM     82  C   UNL A   1      43.229  23.642  26.061  1.00  0.00     0.173 A 
ATOM     83  C   UNL A   1      42.352  22.620  28.048  1.00  0.00     0.173 A 
ATOM     84  F   UNL A   1      43.699  24.710  25.399  1.00  0.00    -0.203 F 
ATOM     85  C   UNL A   1      43.082  22.436  25.377  1.00  0.00     0.198 A 
ATOM     86  C   UNL A   1      42.228  21.409  27.371  1.00  0.00     0.198 A 
ATOM     87  F   UNL A   1      41.985  22.681  29.337  1.00  0.00    -0.203 F 
ATOM     88  F   UNL A   1      43.404  22.362  24.079  1.00  0.00    -0.200 F 
ATOM     89  C   UNL A   1      42.586  21.320  26.034  1.00  0.00     0.200 A 
ATOM     90  F   UNL A   1      41.760  20.330  28.011  1.00  0.00    -0.200 F 
ATOM     91  F   UNL A   1      42.447  20.161  25.377  1.00  0.00    -0.200 F 
ENDBRANCH  57  81
BRANCH  69  92
ATOM     92  C   UNL A   1      48.204  26.954  30.522  1.00  0.00     0.064 A 
ATOM     93  C   UNL A   1      48.593  26.141  31.597  1.00  0.00     0.173 A 
ATOM     94  C   UNL A   1      49.191  27.360  29.612  1.00  0.00     0.173 A 
ATOM     95  F   UNL A   1      47.688  25.742  32.503  1.00  0.00    -0.203 F 
ATOM     96  C   UNL A   1      49.923  25.765  31.762  1.00  0.00     0.198 A 
ATOM     97  C   UNL A   1      50.515  26.960  29.767  1.00  0.00     0.198 A 
ATOM     98  F   UNL A   1      48.869  28.134  28.565  1.00  0.00    -0.203 F 
ATOM     99  F   UNL A   1      50.280  25.021  32.820  1.00  0.00    -0.200 F 
ATOM    100  C   UNL A   1      50.881  26.168  30.844  1.00  0.00     0.200 A 
ATOM    101  F   UNL A   1      51.438  27.340  28.872  1.00  0.00    -0.200 F 
ATOM    102  F   UNL A   1      52.159  25.797  31.002  1.00  0.00    -0.200 F 
ENDBRANCH  69  92
ENDBRANCH  43  44
ENDBRANCH  35  38
ENDBRANCH  33  34
ENDBRANCH  32  33
ENDBRANCH  31  32
ENDBRANCH   1  31
TORSDOF 15
ENDMDL
MODEL 2
REMARK VINA RESULT:     -10.1      5.110     12.321
REMARK SMILES Cc1ccc(N2C(=O)/C(=C\c3ccccc3O[C@H](C)C(=O)NCCCCNC(=O)c3ccc(-c4c5nc(c(-c6c(F)c(F)c(F)c(F)c6F)c6ccc([nH]6)c(-c6c(F)c(F)c(F)c(F)c6F)c6nc(c(-c7c(F)c(F)c(F)c(F)c7F)c7ccc4[nH]7)C=C6)C=C5)cc3)SC2=S)c(C)c1
REMARK SMILES IDX 23 1 22 2 20 3 21 4 18 6 19 7 17 8 16 9 11 10 12 11 13 12
REMARK SMILES IDX 15 13 14 14 10 15 6 16 7 17 94 18 8 19 9 20 93 21 95 22 5 23
REMARK SMILES IDX 1 24 2 25 3 26 98 27 4 28 96 29 97 30 24 31 25 32 26 33
REMARK SMILES IDX 27 34 28 35 29 37 30 38 31 39 92 40 32 41 91 42 33 43 34 44
REMARK SMILES IDX 35 45 85 46 36 47 90 48 84 49 86 50 37 51 89 52 83 53 82 54
REMARK SMILES IDX 38 56 70 57 50 58 69 59 51 60 54 61 68 62 87 63 52 64 53 65
REMARK SMILES IDX 67 67 88 68 55 69 39 70 40 71 48 72 41 73 42 74 46 75 49 76
REMARK SMILES IDX 43 77 44 78 47 79 45 80 71 81 72 82 80 83 73 84 74 85 78 86
REMARK SMILES IDX 81 87 75 88 76 89 79 90 77 91 56 92 57 93 65 94 58 95 59 96
REMARK SMILES IDX 63 97 66 98 60 99 61 100 64 101 62 102
REMARK H PARENT 22 5 27 36 86 55 54 66
REMARK Flexibility Score: inf
ROOT
ATOM      1  C   UNL A   1      43.266  21.451  25.426  1.00  0.00     0.116 C 
ENDROOT
BRANCH   1   2
ATOM      2  N   UNL A   1      44.628  21.788  25.809  1.00  0.00    -0.353 N 
ATOM      3  C   UNL A   1      45.135  22.986  26.253  1.00  0.00     0.260 C 
ATOM      4  O   UNL A   1      46.322  23.020  26.588  1.00  0.00    -0.271 OA
ATOM      5  H   UNL A   1      45.279  21.052  25.743  1.00  0.00     0.163 HD
BRANCH   3   6
ATOM      6  C   UNL A   1      44.249  24.245  26.283  1.00  0.00     0.258 C 
ATOM      7  C   UNL A   1      43.525  24.283  27.624  1.00  0.00     0.064 C 
BRANCH   6   8
ATOM      8  O   UNL A   1      45.172  25.286  25.988  1.00  0.00    -0.480 OA
BRANCH   8   9
ATOM      9  C   UNL A   1      45.014  26.606  26.271  1.00  0.00     0.127 A 
ATOM     10  C   UNL A   1      46.015  27.144  27.112  1.00  0.00     0.018 A 
ATOM     11  C   UNL A   1      45.895  28.451  27.596  1.00  0.00     0.012 A 
ATOM     12  C   UNL A   1      44.813  29.239  27.209  1.00  0.00     0.001 A 
ATOM     13  C   UNL A   1      43.972  27.420  25.844  1.00  0.00     0.047 A 
ATOM     14  C   UNL A   1      43.867  28.731  26.321  1.00  0.00     0.004 A 
BRANCH  10  15
ATOM     15  C   UNL A   1      47.208  26.364  27.487  1.00  0.00     0.033 C 
ATOM     16  N   UNL A   1      49.971  26.812  25.116  1.00  0.00    -0.261 N 
ATOM     17  C   UNL A   1      48.705  27.159  25.583  1.00  0.00     0.270 C 
ATOM     18  C   UNL A   1      50.670  25.875  25.859  1.00  0.00     0.152 C 
ATOM     19  O   UNL A   1      47.951  27.984  25.084  1.00  0.00    -0.268 OA
ATOM     20  C   UNL A   1      48.365  26.361  26.802  1.00  0.00     0.081 C 
ATOM     21  S   UNL A   1      49.692  25.349  27.231  1.00  0.00    -0.054 SA
ATOM     22  S   UNL A   1      52.236  25.313  25.670  1.00  0.00    -0.051 S 
BRANCH  16  23
ATOM     23  C   UNL A   1      50.438  27.380  23.891  1.00  0.00     0.054 A 
ATOM     24  C   UNL A   1      51.432  29.263  20.124  1.00  0.00     0.044 C 
ATOM     25  C   UNL A   1      51.102  28.584  21.420  1.00  0.00    -0.051 A 
ATOM     26  C   UNL A   1      50.267  27.468  21.457  1.00  0.00     0.005 A 
ATOM     27  C   UNL A   1      51.619  29.082  22.620  1.00  0.00     0.009 A 
ATOM     28  C   UNL A   1      49.936  26.875  22.679  1.00  0.00     0.027 A 
ATOM     29  C   UNL A   1      51.313  28.486  23.858  1.00  0.00    -0.027 A 
ATOM     30  C   UNL A   1      51.956  29.084  25.082  1.00  0.00     0.046 C 
ENDBRANCH  16  23
ENDBRANCH  10  15
ENDBRANCH   8   9
ENDBRANCH   6   8
ENDBRANCH   3   6
ENDBRANCH   1   2
BRANCH   1  31
ATOM     31  C   UNL A   1      42.530  20.658  26.501  1.00  0.00     0.023 C 
BRANCH  31  32
ATOM     32  C   UNL A   1      41.009  20.696  26.395  1.00  0.00     0.023 C 
BRANCH  32  33
ATOM     33  C   UNL A   1      40.344  21.931  26.991  1.00  0.00     0.116 C 
BRANCH  33  34
ATOM     34  N   UNL A   1      39.235  22.437  26.195  1.00  0.00    -0.352 N 
ATOM     35  C   UNL A   1      38.689  23.698  26.174  1.00  0.00     0.251 C 
ATOM     36  H   UNL A   1      38.816  21.784  25.589  1.00  0.00     0.163 HD
ATOM     37  O   UNL A   1      37.686  23.934  25.510  1.00  0.00    -0.269 OA
BRANCH  35  38
ATOM     38  C   UNL A   1      39.298  24.764  26.996  1.00  0.00     0.039 A 
ATOM     39  C   UNL A   1      40.163  25.675  26.384  1.00  0.00     0.014 A 
ATOM     40  C   UNL A   1      38.980  24.890  28.351  1.00  0.00     0.014 A 
ATOM     41  C   UNL A   1      40.638  26.768  27.111  1.00  0.00     0.010 A 
ATOM     42  C   UNL A   1      39.399  26.014  29.054  1.00  0.00     0.010 A 
ATOM     43  C   UNL A   1      40.221  26.971  28.436  1.00  0.00    -0.014 A 
BRANCH  43  44
ATOM     44  C   UNL A   1      40.606  28.187  29.193  1.00  0.00     0.031 A 
ATOM     45  C   UNL A   1      41.963  28.276  29.832  1.00  0.00     0.074 A 
ATOM     46  C   UNL A   1      39.703  29.168  29.381  1.00  0.00     0.049 A 
ATOM     47  N   UNL A   1      42.440  29.192  30.636  1.00  0.00    -0.248 NA
ATOM     48  C   UNL A   1      42.895  27.173  29.553  1.00  0.00     0.031 C 
ATOM     49  C   UNL A   1      38.341  29.179  28.845  1.00  0.00     0.029 A 
ATOM     50  N   UNL A   1      39.788  30.338  30.093  1.00  0.00    -0.354 N 
ATOM     51  C   UNL A   1      43.719  28.768  30.970  1.00  0.00     0.074 A 
ATOM     52  C   UNL A   1      43.927  27.492  30.319  1.00  0.00     0.031 C 
ATOM     53  C   UNL A   1      37.722  30.304  29.238  1.00  0.00     0.029 A 
ATOM     54  C   UNL A   1      38.627  31.073  30.086  1.00  0.00     0.049 A 
ATOM     55  H   UNL A   1      40.604  30.624  30.565  1.00  0.00     0.167 HD
ATOM     56  C   UNL A   1      44.642  29.398  31.736  1.00  0.00     0.037 A 
ATOM     57  C   UNL A   1      38.322  32.227  30.708  1.00  0.00     0.037 A 
ATOM     58  C   UNL A   1      44.442  30.679  32.360  1.00  0.00     0.049 A 
ATOM     59  C   UNL A   1      39.361  32.896  31.568  1.00  0.00     0.074 A 
ATOM     60  C   UNL A   1      45.340  31.431  33.095  1.00  0.00     0.029 A 
ATOM     61  N   UNL A   1      43.256  31.398  32.320  1.00  0.00    -0.354 N 
ATOM     62  N   UNL A   1      40.588  32.517  31.828  1.00  0.00    -0.248 NA
ATOM     63  C   UNL A   1      38.969  34.152  32.223  1.00  0.00     0.031 C 
ATOM     64  C   UNL A   1      44.685  32.586  33.537  1.00  0.00     0.029 A 
ATOM     65  C   UNL A   1      43.392  32.573  33.041  1.00  0.00     0.049 A 
ATOM     66  H   UNL A   1      42.438  31.114  31.850  1.00  0.00     0.167 HD
ATOM     67  C   UNL A   1      41.120  33.494  32.658  1.00  0.00     0.074 A 
ATOM     68  C   UNL A   1      40.088  34.492  32.845  1.00  0.00     0.031 C 
ATOM     69  C   UNL A   1      42.354  33.556  33.217  1.00  0.00     0.037 A 
BRANCH  56  70
ATOM     70  C   UNL A   1      45.959  28.708  31.940  1.00  0.00     0.064 A 
ATOM     71  C   UNL A   1      47.079  29.023  31.157  1.00  0.00     0.173 A 
ATOM     72  C   UNL A   1      46.112  27.751  32.953  1.00  0.00     0.173 A 
ATOM     73  F   UNL A   1      46.981  29.923  30.167  1.00  0.00    -0.203 F 
ATOM     74  C   UNL A   1      48.299  28.385  31.365  1.00  0.00     0.198 A 
ATOM     75  C   UNL A   1      47.341  27.135  33.176  1.00  0.00     0.198 A 
ATOM     76  F   UNL A   1      45.072  27.418  33.732  1.00  0.00    -0.203 F 
ATOM     77  F   UNL A   1      49.344  28.669  30.575  1.00  0.00    -0.200 F 
ATOM     78  C   UNL A   1      48.431  27.447  32.378  1.00  0.00     0.200 A 
ATOM     79  F   UNL A   1      47.469  26.237  34.163  1.00  0.00    -0.200 F 
ATOM     80  F   UNL A   1      49.608  26.839  32.582  1.00  0.00    -0.200 F 
ENDBRANCH  56  70
BRANCH  57  81
ATOM     81  C   UNL A   1      36.976  32.831  30.537  1.00  0.00     0.064 A 
ATOM     82  C   UNL A   1      36.656  33.552  29.379  1.00  0.00     0.173 A 
ATOM     83  C   UNL A   1      35.986  32.705  31.522  1.00  0.00     0.173 A 
ATOM     84  F   UNL A   1      37.578  33.717  28.417  1.00  0.00    -0.203 F 
ATOM     85  C   UNL A   1      35.403  34.141  29.220  1.00  0.00     0.198 A 
ATOM     86  C   UNL A   1      34.725  33.272  31.352  1.00  0.00     0.198 A 
ATOM     87  F   UNL A   1      36.242  32.022  32.648  1.00  0.00    -0.203 F 
ATOM     88  F   UNL A   1      35.138  34.860  28.121  1.00  0.00    -0.200 F 
ATOM     89  C   UNL A   1      34.437  33.996  30.205  1.00  0.00     0.200 A 
ATOM     90  F   UNL A   1      33.791  33.121  32.299  1.00  0.00    -0.200 F 
ATOM     91  F   UNL A   1      33.232  34.559  30.050  1.00  0.00    -0.200 F 
ENDBRANCH  57  81
BRANCH  69  92
ATOM     92  C   UNL A   1      42.661  34.751  34.068  1.00  0.00     0.064 A 
ATOM     93  C   UNL A   1      42.558  34.700  35.465  1.00  0.00     0.173 A 
ATOM     94  C   UNL A   1      43.106  35.947  33.483  1.00  0.00     0.173 A 
ATOM     95  F   UNL A   1      42.121  33.585  36.069  1.00  0.00    -0.203 F 
ATOM     96  C   UNL A   1      42.871  35.810  36.245  1.00  0.00     0.198 A 
ATOM     97  C   UNL A   1      43.443  37.045  34.268  1.00  0.00     0.198 A 
ATOM     98  F   UNL A   1      43.226  36.044  32.150  1.00  0.00    -0.203 F 
ATOM     99  F   UNL A   1      42.726  35.752  37.577  1.00  0.00    -0.200 F 
ATOM    100  C   UNL A   1      43.320  36.978  35.647  1.00  0.00     0.200 A 
ATOM    101  F   UNL A   1      43.887  38.170  33.690  1.00  0.00    -0.200 F 
ATOM    102  F   UNL A   1      43.628  38.042  36.402  1.00  0.00    -0.200 F 
ENDBRANCH  69  92
ENDBRANCH  43  44
ENDBRANCH  35  38
ENDBRANCH  33  34
ENDBRANCH  32  33
ENDBRANCH  31  32
ENDBRANCH   1  31
TORSDOF 15
ENDMDL
MODEL 3
REMARK VINA RESULT:     -10.0      0.516      1.926
REMARK SMILES Cc1ccc(N2C(=O)/C(=C\c3ccccc3O[C@H](C)C(=O)NCCCCNC(=O)c3ccc(-c4c5nc(c(-c6c(F)c(F)c(F)c(F)c6F)c6ccc([nH]6)c(-c6c(F)c(F)c(F)c(F)c6F)c6nc(c(-c7c(F)c(F)c(F)c(F)c7F)c7ccc4[nH]7)C=C6)C=C5)cc3)SC2=S)c(C)c1
REMARK SMILES IDX 23 1 22 2 20 3 21 4 18 6 19 7 17 8 16 9 11 10 12 11 13 12
REMARK SMILES IDX 15 13 14 14 10 15 6 16 7 17 94 18 8 19 9 20 93 21 95 22 5 23
REMARK SMILES IDX 1 24 2 25 3 26 98 27 4 28 96 29 97 30 24 31 25 32 26 33
REMARK SMILES IDX 27 34 28 35 29 37 30 38 31 39 92 40 32 41 91 42 33 43 34 44
REMARK SMILES IDX 35 45 85 46 36 47 90 48 84 49 86 50 37 51 89 52 83 53 82 54
REMARK SMILES IDX 38 56 70 57 50 58 69 59 51 60 54 61 68 62 87 63 52 64 53 65
REMARK SMILES IDX 67 67 88 68 55 69 39 70 40 71 48 72 41 73 42 74 46 75 49 76
REMARK SMILES IDX 43 77 44 78 47 79 45 80 71 81 72 82 80 83 73 84 74 85 78 86
REMARK SMILES IDX 81 87 75 88 76 89 79 90 77 91 56 92 57 93 65 94 58 95 59 96
REMARK SMILES IDX 63 97 66 98 60 99 61 100 64 101 62 102
REMARK H PARENT 22 5 27 36 86 55 54 66
REMARK Flexibility Score: inf
ROOT
ATOM      1  C   UNL A   1      34.413  33.767  32.366  1.00  0.00     0.116 C 
ENDROOT
BRANCH   1   2
ATOM      2  N   UNL A   1      35.489  34.490  33.023  1.00  0.00    -0.353 N 
ATOM      3  C   UNL A   1      36.811  34.143  33.165  1.00  0.00     0.260 C 
ATOM      4  O   UNL A   1      37.565  34.954  33.708  1.00  0.00    -0.271 OA
ATOM      5  H   UNL A   1      35.234  35.354  33.423  1.00  0.00     0.163 HD
BRANCH   3   6
ATOM      6  C   UNL A   1      37.309  32.764  32.694  1.00  0.00     0.258 C 
ATOM      7  C   UNL A   1      38.125  32.963  31.421  1.00  0.00     0.064 C 
BRANCH   6   8
ATOM      8  O   UNL A   1      37.975  32.260  33.846  1.00  0.00    -0.480 OA
BRANCH   8   9
ATOM      9  C   UNL A   1      38.947  31.310  33.863  1.00  0.00     0.127 A 
ATOM     10  C   UNL A   1      40.231  31.797  34.195  1.00  0.00     0.018 A 
ATOM     11  C   UNL A   1      41.344  30.955  34.109  1.00  0.00     0.012 A 
ATOM     12  C   UNL A   1      41.179  29.620  33.744  1.00  0.00     0.001 A 
ATOM     13  C   UNL A   1      38.787  29.963  33.558  1.00  0.00     0.047 A 
ATOM     14  C   UNL A   1      39.903  29.123  33.489  1.00  0.00     0.004 A 
BRANCH  10  15
ATOM     15  C   UNL A   1      40.435  33.184  34.653  1.00  0.00     0.033 C 
ATOM     16  N   UNL A   1      39.335  33.688  38.115  1.00  0.00    -0.261 N 
ATOM     17  C   UNL A   1      39.599  32.847  37.037  1.00  0.00     0.270 C 
ATOM     18  C   UNL A   1      39.651  35.026  37.949  1.00  0.00     0.152 C 
ATOM     19  O   UNL A   1      39.419  31.636  37.002  1.00  0.00    -0.268 OA
ATOM     20  C   UNL A   1      40.136  33.634  35.883  1.00  0.00     0.081 C 
ATOM     21  S   UNL A   1      40.300  35.290  36.328  1.00  0.00    -0.054 SA
ATOM     22  S   UNL A   1      39.582  36.286  39.050  1.00  0.00    -0.051 S 
BRANCH  16  23
ATOM     23  C   UNL A   1      38.709  33.146  39.280  1.00  0.00     0.054 A 
ATOM     24  C   UNL A   1      36.719  31.140  42.557  1.00  0.00     0.044 C 
ATOM     25  C   UNL A   1      37.392  31.862  41.428  1.00  0.00    -0.051 A 
ATOM     26  C   UNL A   1      36.664  32.332  40.336  1.00  0.00     0.005 A 
ATOM     27  C   UNL A   1      38.778  32.054  41.450  1.00  0.00     0.009 A 
ATOM     28  C   UNL A   1      37.315  32.964  39.273  1.00  0.00     0.027 A 
ATOM     29  C   UNL A   1      39.448  32.707  40.399  1.00  0.00    -0.027 A 
ATOM     30  C   UNL A   1      40.936  32.892  40.546  1.00  0.00     0.046 C 
ENDBRANCH  16  23
ENDBRANCH  10  15
ENDBRANCH   8   9
ENDBRANCH   6   8
ENDBRANCH   3   6
ENDBRANCH   1   2
BRANCH   1  31
ATOM     31  C   UNL A   1      34.547  33.763  30.846  1.00  0.00     0.023 C 
BRANCH  31  32
ATOM     32  C   UNL A   1      34.778  32.388  30.228  1.00  0.00     0.023 C 
BRANCH  32  33
ATOM     33  C   UNL A   1      34.688  32.334  28.707  1.00  0.00     0.116 C 
BRANCH  33  34
ATOM     34  N   UNL A   1      34.143  31.082  28.201  1.00  0.00    -0.352 N 
ATOM     35  C   UNL A   1      34.788  29.891  27.963  1.00  0.00     0.251 C 
ATOM     36  H   UNL A   1      33.179  31.089  27.999  1.00  0.00     0.163 HD
ATOM     37  O   UNL A   1      34.195  28.954  27.440  1.00  0.00    -0.269 OA
BRANCH  35  38
ATOM     38  C   UNL A   1      36.219  29.762  28.305  1.00  0.00     0.039 A 
ATOM     39  C   UNL A   1      36.569  29.323  29.584  1.00  0.00     0.014 A 
ATOM     40  C   UNL A   1      37.206  30.029  27.352  1.00  0.00     0.014 A 
ATOM     41  C   UNL A   1      37.908  29.064  29.881  1.00  0.00     0.010 A 
ATOM     42  C   UNL A   1      38.530  29.705  27.627  1.00  0.00     0.010 A 
ATOM     43  C   UNL A   1      38.891  29.207  28.889  1.00  0.00    -0.014 A 
BRANCH  43  44
ATOM     44  C   UNL A   1      40.303  28.819  29.134  1.00  0.00     0.031 A 
ATOM     45  C   UNL A   1      41.248  29.791  29.780  1.00  0.00     0.074 A 
ATOM     46  C   UNL A   1      40.752  27.628  28.693  1.00  0.00     0.049 A 
ATOM     47  N   UNL A   1      42.540  29.691  29.964  1.00  0.00    -0.248 NA
ATOM     48  C   UNL A   1      40.667  31.055  30.257  1.00  0.00     0.031 C 
ATOM     49  C   UNL A   1      39.940  26.616  28.015  1.00  0.00     0.029 A 
ATOM     50  N   UNL A   1      42.008  27.077  28.729  1.00  0.00    -0.354 N 
ATOM     51  C   UNL A   1      42.928  30.883  30.560  1.00  0.00     0.074 A 
ATOM     52  C   UNL A   1      41.744  31.709  30.667  1.00  0.00     0.031 C 
ATOM     53  C   UNL A   1      40.716  25.563  27.709  1.00  0.00     0.029 A 
ATOM     54  C   UNL A   1      42.084  25.843  28.131  1.00  0.00     0.049 A 
ATOM     55  H   UNL A   1      42.781  27.524  29.144  1.00  0.00     0.167 HD
ATOM     56  C   UNL A   1      44.157  31.246  30.996  1.00  0.00     0.037 A 
ATOM     57  C   UNL A   1      43.144  25.036  27.929  1.00  0.00     0.037 A 
ATOM     58  C   UNL A   1      45.327  30.411  30.913  1.00  0.00     0.049 A 
ATOM     59  C   UNL A   1      44.502  25.473  28.407  1.00  0.00     0.074 A 
ATOM     60  C   UNL A   1      46.601  30.661  31.391  1.00  0.00     0.029 A 
ATOM     61  N   UNL A   1      45.363  29.163  30.311  1.00  0.00    -0.354 N 
ATOM     62  N   UNL A   1      44.846  26.575  29.024  1.00  0.00    -0.248 NA
ATOM     63  C   UNL A   1      45.620  24.551  28.156  1.00  0.00     0.031 C 
ATOM     64  C   UNL A   1      47.419  29.582  31.040  1.00  0.00     0.029 A 
ATOM     65  C   UNL A   1      46.644  28.641  30.381  1.00  0.00     0.049 A 
ATOM     66  H   UNL A   1      44.592  28.713  29.893  1.00  0.00     0.167 HD
ATOM     67  C   UNL A   1      46.212  26.474  29.254  1.00  0.00     0.074 A 
ATOM     68  C   UNL A   1      46.630  25.193  28.724  1.00  0.00     0.031 C 
ATOM     69  C   UNL A   1      47.043  27.364  29.848  1.00  0.00     0.037 A 
BRANCH  56  70
ATOM     70  C   UNL A   1      44.301  32.608  31.608  1.00  0.00     0.064 A 
ATOM     71  C   UNL A   1      44.374  32.783  32.998  1.00  0.00     0.173 A 
ATOM     72  C   UNL A   1      44.404  33.746  30.795  1.00  0.00     0.173 A 
ATOM     73  F   UNL A   1      44.266  31.728  33.818  1.00  0.00    -0.203 F 
ATOM     74  C   UNL A   1      44.519  34.052  33.552  1.00  0.00     0.198 A 
ATOM     75  C   UNL A   1      44.578  35.011  31.352  1.00  0.00     0.198 A 
ATOM     76  F   UNL A   1      44.346  33.632  29.460  1.00  0.00    -0.203 F 
ATOM     77  F   UNL A   1      44.541  34.200  34.884  1.00  0.00    -0.200 F 
ATOM     78  C   UNL A   1      44.628  35.164  32.730  1.00  0.00     0.200 A 
ATOM     79  F   UNL A   1      44.695  36.082  30.556  1.00  0.00    -0.200 F 
ATOM     80  F   UNL A   1      44.776  36.383  33.265  1.00  0.00    -0.200 F 
ENDBRANCH  56  70
BRANCH  57  81
ATOM     81  C   UNL A   1      42.963  23.728  27.248  1.00  0.00     0.064 A 
ATOM     82  C   UNL A   1      42.432  22.629  27.936  1.00  0.00     0.173 A 
ATOM     83  C   UNL A   1      43.319  23.548  25.903  1.00  0.00     0.173 A 
ATOM     84  F   UNL A   1      42.097  22.748  29.230  1.00  0.00    -0.203 F 
ATOM     85  C   UNL A   1      42.281  21.393  27.311  1.00  0.00     0.198 A 
ATOM     86  C   UNL A   1      43.144  22.319  25.272  1.00  0.00     0.198 A 
ATOM     87  F   UNL A   1      43.829  24.570  25.201  1.00  0.00    -0.203 F 
ATOM     88  F   UNL A   1      41.810  20.348  28.004  1.00  0.00    -0.200 F 
ATOM     89  C   UNL A   1      42.632  21.241  25.978  1.00  0.00     0.200 A 
ATOM     90  F   UNL A   1      43.473  22.178  23.981  1.00  0.00    -0.200 F 
ATOM     91  F   UNL A   1      42.483  20.053  25.376  1.00  0.00    -0.200 F 
ENDBRANCH  57  81
BRANCH  69  92
ATOM     92  C   UNL A   1      48.486  26.976  29.974  1.00  0.00     0.064 A 
ATOM     93  C   UNL A   1      49.436  27.371  29.021  1.00  0.00     0.173 A 
ATOM     94  C   UNL A   1      48.932  26.237  31.080  1.00  0.00     0.173 A 
ATOM     95  F   UNL A   1      49.056  28.063  27.936  1.00  0.00    -0.203 F 
ATOM     96  C   UNL A   1      50.777  27.025  29.163  1.00  0.00     0.198 A 
ATOM     97  C   UNL A   1      50.277  25.916  31.232  1.00  0.00     0.198 A 
ATOM     98  F   UNL A   1      48.062  25.839  32.022  1.00  0.00    -0.203 F 
ATOM     99  F   UNL A   1      51.661  27.379  28.219  1.00  0.00    -0.200 F 
ATOM    100  C   UNL A   1      51.197  26.305  30.271  1.00  0.00     0.200 A 
ATOM    101  F   UNL A   1      50.684  25.230  32.310  1.00  0.00    -0.200 F 
ATOM    102  F   UNL A   1      52.490  25.980  30.409  1.00  0.00    -0.200 F 
ENDBRANCH  69  92
ENDBRANCH  43  44
ENDBRANCH  35  38
ENDBRANCH  33  34
ENDBRANCH  32  33
ENDBRANCH  31  32
ENDBRANCH   1  31
TORSDOF 15
ENDMDL
