MODEL 1
REMARK VINA RESULT:     -13.4      0.000      0.000
REMARK SMILES Cc1cc(F)ccc1S(=O)(=O)N1CCO[C@H](CC(=O)NCCCCNC(=O)c2ccc(-c3c4nc(c(-c5c(F)c(F)c(F)c(F)c5F)c5ccc([nH]5)c(-c5c(F)c(F)c(F)c(F)c5F)c5nc(c(-c6c(F)c(F)c(F)c(F)c6F)c6ccc3[nH]6)C=C5)C=C4)cc2)C1
REMARK SMILES IDX 22 1 21 2 20 3 18 4 19 5 17 7 16 8 12 9 13 10 91 11 14 12
REMARK SMILES IDX 15 13 9 14 10 15 11 16 8 17 1 18 2 19 3 20 4 21 7 22 5 23
REMARK SMILES IDX 6 24 23 25 24 26 25 27 26 28 27 30 28 31 29 32 90 33 30 34
REMARK SMILES IDX 89 35 31 36 32 37 33 38 83 39 34 40 88 41 82 42 84 43 35 44
REMARK SMILES IDX 87 45 81 46 80 47 36 49 68 50 48 51 67 52 49 53 52 54 66 55
REMARK SMILES IDX 85 56 50 57 51 58 65 60 86 61 53 62 37 63 38 64 46 65 39 66
REMARK SMILES IDX 40 67 44 68 47 69 41 70 42 71 45 72 43 73 69 74 70 75 78 76
REMARK SMILES IDX 71 77 72 78 76 79 79 80 73 81 74 82 77 83 75 84 54 85 55 86
REMARK SMILES IDX 63 87 56 88 57 89 61 90 64 91 58 92 59 93 62 94 60 95
REMARK H PARENT 20 6 25 29 84 48 52 59
REMARK Flexibility Score: inf
ROOT
ATOM      1  C   UNL A   1      32.554  28.654  26.860  1.00  0.00     0.023 C 
ENDROOT
BRANCH   1   2
ATOM      2  C   UNL A   1      31.364  27.977  26.169  1.00  0.00     0.116 C 
BRANCH   2   3
ATOM      3  N   UNL A   1      31.044  26.721  26.813  1.00  0.00    -0.356 N 
ATOM      4  C   UNL A   1      31.203  25.474  26.291  1.00  0.00     0.222 C 
ATOM      5  O   UNL A   1      30.625  24.521  26.810  1.00  0.00    -0.275 OA
ATOM      6  H   UNL A   1      30.672  26.774  27.723  1.00  0.00     0.163 HD
BRANCH   4   7
ATOM      7  C   UNL A   1      32.147  25.300  25.133  1.00  0.00     0.133 C 
BRANCH   7   8
ATOM      8  C   UNL A   1      31.501  24.735  23.859  1.00  0.00     0.142 C 
ATOM      9  N   UNL A   1      32.894  22.786  23.936  1.00  0.00    -0.193 NA
ATOM     10  C   UNL A   1      33.488  22.990  22.604  1.00  0.00     0.131 C 
ATOM     11  C   UNL A   1      31.476  23.210  23.945  1.00  0.00     0.135 C 
ATOM     12  C   UNL A   1      33.314  24.467  22.180  1.00  0.00     0.177 C 
ATOM     13  O   UNL A   1      32.122  25.144  22.615  1.00  0.00    -0.375 OA
BRANCH   9  14
ATOM     14  S   UNL A   1      33.466  21.637  25.005  1.00  0.00     0.243 S 
ATOM     15  O   UNL A   1      33.275  20.329  24.404  1.00  0.00    -0.207 OA
ATOM     16  O   UNL A   1      32.899  21.958  26.295  1.00  0.00    -0.207 OA
BRANCH  14  17
ATOM     17  C   UNL A   1      35.259  21.834  25.204  1.00  0.00     0.085 A 
ATOM     18  C   UNL A   1      35.397  24.381  25.648  1.00  0.00     0.046 C 
ATOM     19  C   UNL A   1      35.969  23.012  25.515  1.00  0.00    -0.028 A 
ATOM     20  C   UNL A   1      37.376  22.951  25.628  1.00  0.00     0.044 A 
ATOM     21  C   UNL A   1      38.064  21.770  25.397  1.00  0.00     0.123 A 
ATOM     22  C   UNL A   1      35.988  20.645  24.974  1.00  0.00     0.025 A 
ATOM     23  F   UNL A   1      39.400  21.761  25.482  1.00  0.00    -0.207 F 
ATOM     24  C   UNL A   1      37.383  20.618  25.056  1.00  0.00     0.040 A 
ENDBRANCH  14  17
ENDBRANCH   9  14
ENDBRANCH   7   8
ENDBRANCH   4   7
ENDBRANCH   2   3
ENDBRANCH   1   2
BRANCH   1  25
ATOM     25  C   UNL A   1      33.848  28.682  26.041  1.00  0.00     0.023 C 
BRANCH  25  26
ATOM     26  C   UNL A   1      35.074  28.793  26.913  1.00  0.00     0.116 C 
BRANCH  26  27
ATOM     27  N   UNL A   1      35.276  30.162  27.391  1.00  0.00    -0.352 N 
ATOM     28  C   UNL A   1      36.159  30.573  28.368  1.00  0.00     0.251 C 
ATOM     29  H   UNL A   1      34.724  30.862  26.973  1.00  0.00     0.163 HD
ATOM     30  O   UNL A   1      36.014  31.621  28.979  1.00  0.00    -0.269 OA
BRANCH  28  31
ATOM     31  C   UNL A   1      37.326  29.716  28.603  1.00  0.00     0.039 A 
ATOM     32  C   UNL A   1      37.471  28.912  29.737  1.00  0.00     0.014 A 
ATOM     33  C   UNL A   1      38.303  29.762  27.616  1.00  0.00     0.014 A 
ATOM     34  C   UNL A   1      38.625  28.144  29.861  1.00  0.00     0.010 A 
ATOM     35  C   UNL A   1      39.285  28.830  27.612  1.00  0.00     0.010 A 
ATOM     36  C   UNL A   1      39.517  28.123  28.786  1.00  0.00    -0.014 A 
BRANCH  36  37
ATOM     37  C   UNL A   1      40.801  27.455  28.770  1.00  0.00     0.031 A 
ATOM     38  C   UNL A   1      40.847  26.029  28.481  1.00  0.00     0.074 A 
ATOM     39  C   UNL A   1      41.877  28.266  28.881  1.00  0.00     0.049 A 
ATOM     40  N   UNL A   1      41.721  25.224  28.960  1.00  0.00    -0.248 NA
ATOM     41  C   UNL A   1      39.847  25.374  27.645  1.00  0.00     0.031 C 
ATOM     42  C   UNL A   1      43.289  28.016  28.668  1.00  0.00     0.029 A 
ATOM     43  N   UNL A   1      41.846  29.592  29.356  1.00  0.00    -0.354 N 
ATOM     44  C   UNL A   1      41.641  24.074  28.207  1.00  0.00     0.074 A 
ATOM     45  C   UNL A   1      40.345  24.135  27.574  1.00  0.00     0.031 C 
ATOM     46  C   UNL A   1      43.987  28.967  29.323  1.00  0.00     0.029 A 
ATOM     47  C   UNL A   1      43.039  29.787  30.067  1.00  0.00     0.049 A 
ATOM     48  H   UNL A   1      41.129  30.253  29.215  1.00  0.00     0.167 HD
ATOM     49  C   UNL A   1      42.782  23.342  28.036  1.00  0.00     0.037 A 
ATOM     50  C   UNL A   1      42.928  29.890  31.428  1.00  0.00     0.037 A 
ATOM     51  C   UNL A   1      43.893  23.997  28.747  1.00  0.00     0.049 A 
ATOM     52  C   UNL A   1      43.411  28.643  32.131  1.00  0.00     0.074 A 
ATOM     53  C   UNL A   1      44.927  24.827  28.342  1.00  0.00     0.029 A 
ATOM     54  N   UNL A   1      43.807  24.151  30.119  1.00  0.00    -0.354 N 
ATOM     55  N   UNL A   1      43.746  27.545  31.508  1.00  0.00    -0.248 NA
ATOM     56  C   UNL A   1      43.531  28.517  33.578  1.00  0.00     0.031 C 
ATOM     57  C   UNL A   1      45.424  25.511  29.497  1.00  0.00     0.029 A 
ATOM     58  C   UNL A   1      44.703  25.085  30.598  1.00  0.00     0.049 A 
ATOM     59  H   UNL A   1      43.178  23.651  30.688  1.00  0.00     0.167 HD
ATOM     60  C   UNL A   1      44.173  26.612  32.404  1.00  0.00     0.074 A 
ATOM     61  C   UNL A   1      43.971  27.251  33.696  1.00  0.00     0.031 C 
ATOM     62  C   UNL A   1      44.679  25.401  32.021  1.00  0.00     0.037 A 
BRANCH  49  63
ATOM     63  C   UNL A   1      42.998  22.240  27.016  1.00  0.00     0.064 A 
ATOM     64  C   UNL A   1      42.241  21.049  27.097  1.00  0.00     0.173 A 
ATOM     65  C   UNL A   1      43.926  22.261  25.956  1.00  0.00     0.173 A 
ATOM     66  F   UNL A   1      41.243  20.914  27.981  1.00  0.00    -0.203 F 
ATOM     67  C   UNL A   1      42.466  19.948  26.265  1.00  0.00     0.198 A 
ATOM     68  C   UNL A   1      44.172  21.150  25.140  1.00  0.00     0.198 A 
ATOM     69  F   UNL A   1      44.594  23.365  25.617  1.00  0.00    -0.203 F 
ATOM     70  F   UNL A   1      41.719  18.845  26.409  1.00  0.00    -0.200 F 
ATOM     71  C   UNL A   1      43.449  19.989  25.301  1.00  0.00     0.200 A 
ATOM     72  F   UNL A   1      45.112  21.224  24.185  1.00  0.00    -0.200 F 
ATOM     73  F   UNL A   1      43.678  18.930  24.513  1.00  0.00    -0.200 F 
ENDBRANCH  49  63
BRANCH  50  74
ATOM     74  C   UNL A   1      41.751  30.748  31.801  1.00  0.00     0.064 A 
ATOM     75  C   UNL A   1      40.681  30.084  32.441  1.00  0.00     0.173 A 
ATOM     76  C   UNL A   1      41.888  32.122  32.048  1.00  0.00     0.173 A 
ATOM     77  F   UNL A   1      40.469  28.778  32.206  1.00  0.00    -0.203 F 
ATOM     78  C   UNL A   1      39.955  30.696  33.461  1.00  0.00     0.198 A 
ATOM     79  C   UNL A   1      41.112  32.748  33.031  1.00  0.00     0.198 A 
ATOM     80  F   UNL A   1      42.855  32.826  31.443  1.00  0.00    -0.203 F 
ATOM     81  F   UNL A   1      39.096  29.975  34.196  1.00  0.00    -0.200 F 
ATOM     82  C   UNL A   1      40.206  32.016  33.787  1.00  0.00     0.200 A 
ATOM     83  F   UNL A   1      41.304  34.045  33.305  1.00  0.00    -0.200 F 
ATOM     84  F   UNL A   1      39.612  32.560  34.859  1.00  0.00    -0.200 F 
ENDBRANCH  50  74
BRANCH  62  85
ATOM     85  C   UNL A   1      45.215  24.394  32.995  1.00  0.00     0.064 A 
ATOM     86  C   UNL A   1      44.446  23.314  33.450  1.00  0.00     0.173 A 
ATOM     87  C   UNL A   1      46.490  24.536  33.588  1.00  0.00     0.173 A 
ATOM     88  F   UNL A   1      43.174  23.157  33.053  1.00  0.00    -0.203 F 
ATOM     89  C   UNL A   1      44.960  22.376  34.344  1.00  0.00     0.198 A 
ATOM     90  C   UNL A   1      46.970  23.642  34.537  1.00  0.00     0.198 A 
ATOM     91  F   UNL A   1      47.326  25.526  33.251  1.00  0.00    -0.203 F 
ATOM     92  F   UNL A   1      44.225  21.307  34.677  1.00  0.00    -0.200 F 
ATOM     93  C   UNL A   1      46.219  22.543  34.891  1.00  0.00     0.200 A 
ATOM     94  F   UNL A   1      48.174  23.849  35.091  1.00  0.00    -0.200 F 
ATOM     95  F   UNL A   1      46.709  21.647  35.756  1.00  0.00    -0.200 F 
ENDBRANCH  62  85
ENDBRANCH  36  37
ENDBRANCH  28  31
ENDBRANCH  26  27
ENDBRANCH  25  26
ENDBRANCH   1  25
TORSDOF 14
ENDMDL
MODEL 2
REMARK VINA RESULT:     -13.3      3.757      9.950
REMARK SMILES Cc1cc(F)ccc1S(=O)(=O)N1CCO[C@H](CC(=O)NCCCCNC(=O)c2ccc(-c3c4nc(c(-c5c(F)c(F)c(F)c(F)c5F)c5ccc([nH]5)c(-c5c(F)c(F)c(F)c(F)c5F)c5nc(c(-c6c(F)c(F)c(F)c(F)c6F)c6ccc3[nH]6)C=C5)C=C4)cc2)C1
REMARK SMILES IDX 22 1 21 2 20 3 18 4 19 5 17 7 16 8 12 9 13 10 91 11 14 12
REMARK SMILES IDX 15 13 9 14 10 15 11 16 8 17 1 18 2 19 3 20 4 21 7 22 5 23
REMARK SMILES IDX 6 24 23 25 24 26 25 27 26 28 27 30 28 31 29 32 90 33 30 34
REMARK SMILES IDX 89 35 31 36 32 37 33 38 83 39 34 40 88 41 82 42 84 43 35 44
REMARK SMILES IDX 87 45 81 46 80 47 36 49 68 50 48 51 67 52 49 53 52 54 66 55
REMARK SMILES IDX 85 56 50 57 51 58 65 60 86 61 53 62 37 63 38 64 46 65 39 66
REMARK SMILES IDX 40 67 44 68 47 69 41 70 42 71 45 72 43 73 69 74 70 75 78 76
REMARK SMILES IDX 71 77 72 78 76 79 79 80 73 81 74 82 77 83 75 84 54 85 55 86
REMARK SMILES IDX 63 87 56 88 57 89 61 90 64 91 58 92 59 93 62 94 60 95
REMARK H PARENT 20 6 25 29 84 48 52 59
REMARK Flexibility Score: inf
ROOT
ATOM      1  C   UNL A   1      35.925  22.237  25.736  1.00  0.00     0.023 C 
ENDROOT
BRANCH   1   2
ATOM      2  C   UNL A   1      34.570  22.063  25.041  1.00  0.00     0.116 C 
BRANCH   2   3
ATOM      3  N   UNL A   1      34.648  22.467  23.653  1.00  0.00    -0.356 N 
ATOM      4  C   UNL A   1      33.827  23.341  23.011  1.00  0.00     0.222 C 
ATOM      5  O   UNL A   1      33.814  23.370  21.782  1.00  0.00    -0.275 OA
ATOM      6  H   UNL A   1      35.372  22.068  23.118  1.00  0.00     0.163 HD
BRANCH   4   7
ATOM      7  C   UNL A   1      33.013  24.296  23.840  1.00  0.00     0.133 C 
BRANCH   7   8
ATOM      8  C   UNL A   1      31.518  23.951  23.932  1.00  0.00     0.142 C 
ATOM      9  N   UNL A   1      30.950  26.238  24.374  1.00  0.00    -0.193 NA
ATOM     10  C   UNL A   1      30.289  25.968  25.662  1.00  0.00     0.131 C 
ATOM     11  C   UNL A   1      30.700  25.135  23.419  1.00  0.00     0.135 C 
ATOM     12  C   UNL A   1      30.760  24.599  26.209  1.00  0.00     0.177 C 
ATOM     13  O   UNL A   1      31.050  23.568  25.249  1.00  0.00    -0.375 OA
BRANCH   9  14
ATOM     14  S   UNL A   1      31.284  27.787  23.846  1.00  0.00     0.243 S 
ATOM     15  O   UNL A   1      30.022  28.461  23.600  1.00  0.00    -0.207 OA
ATOM     16  O   UNL A   1      32.280  27.660  22.807  1.00  0.00    -0.207 OA
BRANCH  14  17
ATOM     17  C   UNL A   1      32.092  28.719  25.177  1.00  0.00     0.085 A 
ATOM     18  C   UNL A   1      33.891  27.008  25.912  1.00  0.00     0.046 C 
ATOM     19  C   UNL A   1      33.202  28.328  25.954  1.00  0.00    -0.028 A 
ATOM     20  C   UNL A   1      33.683  29.209  26.949  1.00  0.00     0.044 A 
ATOM     21  C   UNL A   1      33.058  30.420  27.198  1.00  0.00     0.123 A 
ATOM     22  C   UNL A   1      31.475  29.960  25.455  1.00  0.00     0.025 A 
ATOM     23  F   UNL A   1      33.524  31.213  28.170  1.00  0.00    -0.207 F 
ATOM     24  C   UNL A   1      31.947  30.798  26.468  1.00  0.00     0.040 A 
ENDBRANCH  14  17
ENDBRANCH   9  14
ENDBRANCH   7   8
ENDBRANCH   4   7
ENDBRANCH   2   3
ENDBRANCH   1   2
BRANCH   1  25
ATOM     25  C   UNL A   1      36.770  23.407  25.221  1.00  0.00     0.023 C 
BRANCH  25  26
ATOM     26  C   UNL A   1      37.507  24.113  26.332  1.00  0.00     0.116 C 
BRANCH  26  27
ATOM     27  N   UNL A   1      38.760  23.434  26.668  1.00  0.00    -0.352 N 
ATOM     28  C   UNL A   1      39.974  24.030  26.941  1.00  0.00     0.251 C 
ATOM     29  H   UNL A   1      38.734  22.451  26.702  1.00  0.00     0.163 HD
ATOM     30  O   UNL A   1      41.033  23.432  26.834  1.00  0.00    -0.269 OA
BRANCH  28  31
ATOM     31  C   UNL A   1      39.933  25.413  27.430  1.00  0.00     0.039 A 
ATOM     32  C   UNL A   1      40.209  26.520  26.623  1.00  0.00     0.014 A 
ATOM     33  C   UNL A   1      39.608  25.557  28.773  1.00  0.00     0.014 A 
ATOM     34  C   UNL A   1      40.148  27.787  27.194  1.00  0.00     0.010 A 
ATOM     35  C   UNL A   1      39.297  26.785  29.252  1.00  0.00     0.010 A 
ATOM     36  C   UNL A   1      39.692  27.893  28.510  1.00  0.00    -0.014 A 
BRANCH  36  37
ATOM     37  C   UNL A   1      39.645  29.110  29.290  1.00  0.00     0.031 A 
ATOM     38  C   UNL A   1      38.633  30.108  28.974  1.00  0.00     0.074 A 
ATOM     39  C   UNL A   1      40.469  29.143  30.363  1.00  0.00     0.049 A 
ATOM     40  N   UNL A   1      38.791  31.370  29.132  1.00  0.00    -0.248 NA
ATOM     41  C   UNL A   1      37.347  29.750  28.389  1.00  0.00     0.031 C 
ATOM     42  C   UNL A   1      40.534  30.051  31.490  1.00  0.00     0.029 A 
ATOM     43  N   UNL A   1      41.575  28.294  30.560  1.00  0.00    -0.354 N 
ATOM     44  C   UNL A   1      37.535  31.929  29.051  1.00  0.00     0.074 A 
ATOM     45  C   UNL A   1      36.730  30.936  28.381  1.00  0.00     0.031 C 
ATOM     46  C   UNL A   1      41.764  29.955  32.036  1.00  0.00     0.029 A 
ATOM     47  C   UNL A   1      42.557  29.063  31.199  1.00  0.00     0.049 A 
ATOM     48  H   UNL A   1      41.644  27.345  30.301  1.00  0.00     0.167 HD
ATOM     49  C   UNL A   1      37.293  33.061  29.776  1.00  0.00     0.037 A 
ATOM     50  C   UNL A   1      43.656  29.394  30.452  1.00  0.00     0.037 A 
ATOM     51  C   UNL A   1      38.511  33.440  30.514  1.00  0.00     0.049 A 
ATOM     52  C   UNL A   1      43.640  30.845  30.033  1.00  0.00     0.074 A 
ATOM     53  C   UNL A   1      38.929  33.256  31.822  1.00  0.00     0.029 A 
ATOM     54  N   UNL A   1      39.653  33.749  29.797  1.00  0.00    -0.354 N 
ATOM     55  N   UNL A   1      42.626  31.643  30.230  1.00  0.00    -0.248 NA
ATOM     56  C   UNL A   1      44.740  31.507  29.343  1.00  0.00     0.031 C 
ATOM     57  C   UNL A   1      40.350  33.420  31.862  1.00  0.00     0.029 A 
ATOM     58  C   UNL A   1      40.788  33.716  30.583  1.00  0.00     0.049 A 
ATOM     59  H   UNL A   1      39.656  33.968  28.838  1.00  0.00     0.167 HD
ATOM     60  C   UNL A   1      42.922  32.894  29.779  1.00  0.00     0.074 A 
ATOM     61  C   UNL A   1      44.241  32.746  29.183  1.00  0.00     0.031 C 
ATOM     62  C   UNL A   1      42.077  33.956  29.947  1.00  0.00     0.037 A 
BRANCH  49  63
ATOM     63  C   UNL A   1      35.932  33.659  30.082  1.00  0.00     0.064 A 
ATOM     64  C   UNL A   1      35.134  34.162  29.029  1.00  0.00     0.173 A 
ATOM     65  C   UNL A   1      35.352  33.794  31.359  1.00  0.00     0.173 A 
ATOM     66  F   UNL A   1      35.492  34.013  27.746  1.00  0.00    -0.203 F 
ATOM     67  C   UNL A   1      33.924  34.828  29.245  1.00  0.00     0.198 A 
ATOM     68  C   UNL A   1      34.155  34.485  31.580  1.00  0.00     0.198 A 
ATOM     69  F   UNL A   1      35.877  33.217  32.442  1.00  0.00    -0.203 F 
ATOM     70  F   UNL A   1      33.227  35.293  28.200  1.00  0.00    -0.200 F 
ATOM     71  C   UNL A   1      33.445  35.012  30.525  1.00  0.00     0.200 A 
ATOM     72  F   UNL A   1      33.691  34.623  32.832  1.00  0.00    -0.200 F 
ATOM     73  F   UNL A   1      32.295  35.665  30.736  1.00  0.00    -0.200 F 
ENDBRANCH  49  63
BRANCH  50  74
ATOM     74  C   UNL A   1      44.118  28.216  29.640  1.00  0.00     0.064 A 
ATOM     75  C   UNL A   1      44.483  27.065  30.373  1.00  0.00     0.173 A 
ATOM     76  C   UNL A   1      43.695  28.020  28.316  1.00  0.00     0.173 A 
ATOM     77  F   UNL A   1      44.943  27.193  31.629  1.00  0.00    -0.203 F 
ATOM     78  C   UNL A   1      44.199  25.785  29.902  1.00  0.00     0.198 A 
ATOM     79  C   UNL A   1      43.470  26.729  27.826  1.00  0.00     0.198 A 
ATOM     80  F   UNL A   1      43.371  29.069  27.546  1.00  0.00    -0.203 F 
ATOM     81  F   UNL A   1      44.357  24.725  30.709  1.00  0.00    -0.200 F 
ATOM     82  C   UNL A   1      43.646  25.621  28.645  1.00  0.00     0.200 A 
ATOM     83  F   UNL A   1      42.999  26.561  26.583  1.00  0.00    -0.200 F 
ATOM     84  F   UNL A   1      43.241  24.406  28.251  1.00  0.00    -0.200 F 
ENDBRANCH  50  74
BRANCH  62  85
ATOM     85  C   UNL A   1      42.422  35.351  29.515  1.00  0.00     0.064 A 
ATOM     86  C   UNL A   1      41.933  35.905  28.324  1.00  0.00     0.173 A 
ATOM     87  C   UNL A   1      43.343  36.147  30.233  1.00  0.00     0.173 A 
ATOM     88  F   UNL A   1      41.156  35.189  27.497  1.00  0.00    -0.203 F 
ATOM     89  C   UNL A   1      42.249  37.208  27.940  1.00  0.00     0.198 A 
ATOM     90  C   UNL A   1      43.716  37.416  29.808  1.00  0.00     0.198 A 
ATOM     91  F   UNL A   1      43.892  35.738  31.384  1.00  0.00    -0.203 F 
ATOM     92  F   UNL A   1      41.683  37.731  26.845  1.00  0.00    -0.200 F 
ATOM     93  C   UNL A   1      43.143  37.961  28.679  1.00  0.00     0.200 A 
ATOM     94  F   UNL A   1      44.621  38.110  30.512  1.00  0.00    -0.200 F 
ATOM     95  F   UNL A   1      43.453  39.208  28.306  1.00  0.00    -0.200 F 
ENDBRANCH  62  85
ENDBRANCH  36  37
ENDBRANCH  28  31
ENDBRANCH  26  27
ENDBRANCH  25  26
ENDBRANCH   1  25
TORSDOF 14
ENDMDL
MODEL 3
REMARK VINA RESULT:     -13.3      3.821     10.073
REMARK SMILES Cc1cc(F)ccc1S(=O)(=O)N1CCO[C@H](CC(=O)NCCCCNC(=O)c2ccc(-c3c4nc(c(-c5c(F)c(F)c(F)c(F)c5F)c5ccc([nH]5)c(-c5c(F)c(F)c(F)c(F)c5F)c5nc(c(-c6c(F)c(F)c(F)c(F)c6F)c6ccc3[nH]6)C=C5)C=C4)cc2)C1
REMARK SMILES IDX 22 1 21 2 20 3 18 4 19 5 17 7 16 8 12 9 13 10 91 11 14 12
REMARK SMILES IDX 15 13 9 14 10 15 11 16 8 17 1 18 2 19 3 20 4 21 7 22 5 23
REMARK SMILES IDX 6 24 23 25 24 26 25 27 26 28 27 30 28 31 29 32 90 33 30 34
REMARK SMILES IDX 89 35 31 36 32 37 33 38 83 39 34 40 88 41 82 42 84 43 35 44
REMARK SMILES IDX 87 45 81 46 80 47 36 49 68 50 48 51 67 52 49 53 52 54 66 55
REMARK SMILES IDX 85 56 50 57 51 58 65 60 86 61 53 62 37 63 38 64 46 65 39 66
REMARK SMILES IDX 40 67 44 68 47 69 41 70 42 71 45 72 43 73 69 74 70 75 78 76
REMARK SMILES IDX 71 77 72 78 76 79 79 80 73 81 74 82 77 83 75 84 54 85 55 86
REMARK SMILES IDX 63 87 56 88 57 89 61 90 64 91 58 92 59 93 62 94 60 95
REMARK H PARENT 20 6 25 29 84 48 52 59
REMARK Flexibility Score: inf
ROOT
ATOM      1  C   UNL A   1      36.348  22.248  25.191  1.00  0.00     0.023 C 
ENDROOT
BRANCH   1   2
ATOM      2  C   UNL A   1      34.899  22.080  24.719  1.00  0.00     0.116 C 
BRANCH   2   3
ATOM      3  N   UNL A   1      34.741  22.565  23.364  1.00  0.00    -0.356 N 
ATOM      4  C   UNL A   1      33.757  23.381  22.900  1.00  0.00     0.222 C 
ATOM      5  O   UNL A   1      33.568  23.476  21.689  1.00  0.00    -0.275 OA
ATOM      6  H   UNL A   1      35.417  22.273  22.710  1.00  0.00     0.163 HD
BRANCH   4   7
ATOM      7  C   UNL A   1      32.980  24.199  23.895  1.00  0.00     0.133 C 
BRANCH   7   8
ATOM      8  C   UNL A   1      31.477  23.881  23.950  1.00  0.00     0.142 C 
ATOM      9  N   UNL A   1      30.938  26.183  24.349  1.00  0.00    -0.193 NA
ATOM     10  C   UNL A   1      30.239  25.942  25.622  1.00  0.00     0.131 C 
ATOM     11  C   UNL A   1      30.695  25.073  23.401  1.00  0.00     0.135 C 
ATOM     12  C   UNL A   1      30.670  24.571  26.198  1.00  0.00     0.177 C 
ATOM     13  O   UNL A   1      30.967  23.524  25.259  1.00  0.00    -0.375 OA
BRANCH   9  14
ATOM     14  S   UNL A   1      31.315  27.720  23.812  1.00  0.00     0.243 S 
ATOM     15  O   UNL A   1      30.072  28.419  23.540  1.00  0.00    -0.207 OA
ATOM     16  O   UNL A   1      32.324  27.562  22.791  1.00  0.00    -0.207 OA
BRANCH  14  17
ATOM     17  C   UNL A   1      32.122  28.647  25.147  1.00  0.00     0.085 A 
ATOM     18  C   UNL A   1      33.895  26.918  25.904  1.00  0.00     0.046 C 
ATOM     19  C   UNL A   1      33.221  28.245  25.936  1.00  0.00    -0.028 A 
ATOM     20  C   UNL A   1      33.703  29.125  26.932  1.00  0.00     0.044 A 
ATOM     21  C   UNL A   1      33.090  30.344  27.171  1.00  0.00     0.123 A 
ATOM     22  C   UNL A   1      31.517  29.896  25.415  1.00  0.00     0.025 A 
ATOM     23  F   UNL A   1      33.557  31.135  28.145  1.00  0.00    -0.207 F 
ATOM     24  C   UNL A   1      31.990  30.732  26.430  1.00  0.00     0.040 A 
ENDBRANCH  14  17
ENDBRANCH   9  14
ENDBRANCH   7   8
ENDBRANCH   4   7
ENDBRANCH   2   3
ENDBRANCH   1   2
BRANCH   1  25
ATOM     25  C   UNL A   1      36.916  23.662  25.045  1.00  0.00     0.023 C 
BRANCH  25  26
ATOM     26  C   UNL A   1      37.528  24.169  26.327  1.00  0.00     0.116 C 
BRANCH  26  27
ATOM     27  N   UNL A   1      38.765  23.457  26.656  1.00  0.00    -0.352 N 
ATOM     28  C   UNL A   1      39.996  24.020  26.920  1.00  0.00     0.251 C 
ATOM     29  H   UNL A   1      38.712  22.475  26.693  1.00  0.00     0.163 HD
ATOM     30  O   UNL A   1      41.038  23.393  26.806  1.00  0.00    -0.269 OA
BRANCH  28  31
ATOM     31  C   UNL A   1      39.996  25.405  27.405  1.00  0.00     0.039 A 
ATOM     32  C   UNL A   1      40.401  26.491  26.625  1.00  0.00     0.014 A 
ATOM     33  C   UNL A   1      39.572  25.571  28.718  1.00  0.00     0.014 A 
ATOM     34  C   UNL A   1      40.368  27.762  27.192  1.00  0.00     0.010 A 
ATOM     35  C   UNL A   1      39.295  26.817  29.172  1.00  0.00     0.010 A 
ATOM     36  C   UNL A   1      39.813  27.898  28.467  1.00  0.00    -0.014 A 
BRANCH  36  37
ATOM     37  C   UNL A   1      39.774  29.118  29.243  1.00  0.00     0.031 A 
ATOM     38  C   UNL A   1      38.743  30.103  28.950  1.00  0.00     0.074 A 
ATOM     39  C   UNL A   1      40.626  29.165  30.292  1.00  0.00     0.049 A 
ATOM     40  N   UNL A   1      38.891  31.367  29.098  1.00  0.00    -0.248 NA
ATOM     41  C   UNL A   1      37.445  29.728  28.402  1.00  0.00     0.031 C 
ATOM     42  C   UNL A   1      40.712  30.078  31.414  1.00  0.00     0.029 A 
ATOM     43  N   UNL A   1      41.746  28.328  30.463  1.00  0.00    -0.354 N 
ATOM     44  C   UNL A   1      37.627  31.913  29.049  1.00  0.00     0.074 A 
ATOM     45  C   UNL A   1      36.815  30.908  28.406  1.00  0.00     0.031 C 
ATOM     46  C   UNL A   1      41.958  29.998  31.927  1.00  0.00     0.029 A 
ATOM     47  C   UNL A   1      42.738  29.112  31.072  1.00  0.00     0.049 A 
ATOM     48  H   UNL A   1      41.819  27.379  30.207  1.00  0.00     0.167 HD
ATOM     49  C   UNL A   1      37.393  33.045  29.776  1.00  0.00     0.037 A 
ATOM     50  C   UNL A   1      43.812  29.451  30.293  1.00  0.00     0.037 A 
ATOM     51  C   UNL A   1      38.626  33.440  30.478  1.00  0.00     0.049 A 
ATOM     52  C   UNL A   1      43.768  30.899  29.869  1.00  0.00     0.074 A 
ATOM     53  C   UNL A   1      39.081  33.268  31.776  1.00  0.00     0.029 A 
ATOM     54  N   UNL A   1      39.745  33.759  29.729  1.00  0.00    -0.354 N 
ATOM     55  N   UNL A   1      42.751  31.687  30.089  1.00  0.00    -0.248 NA
ATOM     56  C   UNL A   1      44.841  31.570  29.146  1.00  0.00     0.031 C 
ATOM     57  C   UNL A   1      40.501  33.447  31.775  1.00  0.00     0.029 A 
ATOM     58  C   UNL A   1      40.901  33.742  30.484  1.00  0.00     0.049 A 
ATOM     59  H   UNL A   1      39.719  33.973  28.769  1.00  0.00     0.167 HD
ATOM     60  C   UNL A   1      43.021  32.939  29.625  1.00  0.00     0.074 A 
ATOM     61  C   UNL A   1      44.325  32.803  28.994  1.00  0.00     0.031 C 
ATOM     62  C   UNL A   1      42.170  33.993  29.812  1.00  0.00     0.037 A 
BRANCH  49  63
ATOM     63  C   UNL A   1      36.034  33.629  30.115  1.00  0.00     0.064 A 
ATOM     64  C   UNL A   1      35.209  34.133  29.084  1.00  0.00     0.173 A 
ATOM     65  C   UNL A   1      35.482  33.751  31.406  1.00  0.00     0.173 A 
ATOM     66  F   UNL A   1      35.539  33.995  27.793  1.00  0.00    -0.203 F 
ATOM     67  C   UNL A   1      33.998  34.787  29.332  1.00  0.00     0.198 A 
ATOM     68  C   UNL A   1      34.284  34.431  31.659  1.00  0.00     0.198 A 
ATOM     69  F   UNL A   1      36.035  33.172  32.474  1.00  0.00    -0.203 F 
ATOM     70  F   UNL A   1      33.274  35.253  28.306  1.00  0.00    -0.200 F 
ATOM     71  C   UNL A   1      33.547  34.959  30.623  1.00  0.00     0.200 A 
ATOM     72  F   UNL A   1      33.847  34.557  32.921  1.00  0.00    -0.200 F 
ATOM     73  F   UNL A   1      32.396  35.600  30.865  1.00  0.00    -0.200 F 
ENDBRANCH  49  63
BRANCH  50  74
ATOM     74  C   UNL A   1      44.264  28.274  29.474  1.00  0.00     0.064 A 
ATOM     75  C   UNL A   1      44.071  28.382  28.078  1.00  0.00     0.173 A 
ATOM     76  C   UNL A   1      45.288  27.420  29.910  1.00  0.00     0.173 A 
ATOM     77  F   UNL A   1      43.075  29.147  27.601  1.00  0.00    -0.203 F 
ATOM     78  C   UNL A   1      45.002  27.874  27.176  1.00  0.00     0.198 A 
ATOM     79  C   UNL A   1      46.186  26.860  28.994  1.00  0.00     0.198 A 
ATOM     80  F   UNL A   1      45.504  27.235  31.221  1.00  0.00    -0.203 F 
ATOM     81  F   UNL A   1      44.907  28.179  25.873  1.00  0.00    -0.200 F 
ATOM     82  C   UNL A   1      46.088  27.153  27.640  1.00  0.00     0.200 A 
ATOM     83  F   UNL A   1      47.201  26.103  29.432  1.00  0.00    -0.200 F 
ATOM     84  F   UNL A   1      47.056  26.789  26.788  1.00  0.00    -0.200 F 
ENDBRANCH  50  74
BRANCH  62  85
ATOM     85  C   UNL A   1      42.488  35.390  29.364  1.00  0.00     0.064 A 
ATOM     86  C   UNL A   1      43.286  36.253  30.128  1.00  0.00     0.173 A 
ATOM     87  C   UNL A   1      41.916  35.946  28.198  1.00  0.00     0.173 A 
ATOM     88  F   UNL A   1      43.772  35.872  31.318  1.00  0.00    -0.203 F 
ATOM     89  C   UNL A   1      43.586  37.544  29.694  1.00  0.00     0.198 A 
ATOM     90  C   UNL A   1      42.156  37.259  27.809  1.00  0.00     0.198 A 
ATOM     91  F   UNL A   1      41.129  35.235  27.381  1.00  0.00    -0.203 F 
ATOM     92  F   UNL A   1      44.430  38.301  30.407  1.00  0.00    -0.200 F 
ATOM     93  C   UNL A   1      43.018  38.047  28.539  1.00  0.00     0.200 A 
ATOM     94  F   UNL A   1      41.556  37.743  26.711  1.00  0.00    -0.200 F 
ATOM     95  F   UNL A   1      43.300  39.290  28.127  1.00  0.00    -0.200 F 
ENDBRANCH  62  85
ENDBRANCH  36  37
ENDBRANCH  28  31
ENDBRANCH  26  27
ENDBRANCH  25  26
ENDBRANCH   1  25
TORSDOF 14
ENDMDL
