MODEL 1
REMARK VINA RESULT:     -12.8      0.000      0.000
REMARK SMILES CN(CC(F)(F)F)C(=O)N1CC(n2cc(C(=O)NCCCCNC(=O)c3ccc(-c4c5nc(c(-c6c(F)c(F)c(F)c(F)c6F)c6ccc([nH]6)c(-c6c(F)c(F)c(F)c(F)c6F)c6nc(c(-c7c(F)c(F)c(F)c(F)c7F)c7ccc4[nH]7)C=C6)C=C5)cc3)nn2)C1
REMARK SMILES IDX 19 1 18 2 16 3 17 4 15 6 13 7 14 8 90 9 89 10 12 11 8 12
REMARK SMILES IDX 9 13 10 14 11 15 91 16 2 17 1 18 3 19 4 20 5 21 6 22 7 23
REMARK SMILES IDX 20 24 21 25 22 26 23 27 24 28 25 30 26 31 27 32 88 33 28 34
REMARK SMILES IDX 87 35 29 36 30 37 31 38 81 39 32 40 86 41 80 42 82 43 33 44
REMARK SMILES IDX 85 45 79 46 78 47 34 49 66 50 46 51 65 52 47 53 50 54 64 55
REMARK SMILES IDX 83 56 48 57 49 58 63 60 84 61 51 62 35 63 36 64 44 65 37 66
REMARK SMILES IDX 38 67 42 68 45 69 39 70 40 71 43 72 41 73 67 74 68 75 76 76
REMARK SMILES IDX 69 77 70 78 74 79 77 80 71 81 72 82 75 83 73 84 52 85 53 86
REMARK SMILES IDX 61 87 54 88 55 89 59 90 62 91 56 92 57 93 60 94 58 95
REMARK H PARENT 18 5 23 29 82 48 50 59
REMARK Flexibility Score: inf
ROOT
ATOM      1  C   UNL A   1      35.176  21.473  25.732  1.00  0.00     0.116 C 
ENDROOT
BRANCH   1   2
ATOM      2  N   UNL A   1      34.028  20.924  25.039  1.00  0.00    -0.351 N 
ATOM      3  C   UNL A   1      33.173  21.457  24.101  1.00  0.00     0.273 C 
ATOM      4  O   UNL A   1      32.339  20.683  23.627  1.00  0.00    -0.267 OA
ATOM      5  H   UNL A   1      33.820  19.993  25.285  1.00  0.00     0.163 HD
BRANCH   3   6
ATOM      6  C   UNL A   1      33.264  22.848  23.664  1.00  0.00     0.170 A 
ATOM      7  N   UNL A   1      33.159  24.998  23.348  1.00  0.00    -0.245 N 
ATOM      8  C   UNL A   1      32.584  23.983  24.064  1.00  0.00     0.145 A 
ATOM      9  N   UNL A   1      34.087  24.532  22.506  1.00  0.00    -0.066 NA
ATOM     10  N   UNL A   1      34.143  23.217  22.664  1.00  0.00    -0.125 NA
BRANCH   7  11
ATOM     11  C   UNL A   1      32.848  26.380  23.543  1.00  0.00     0.148 C 
ATOM     12  C   UNL A   1      30.685  28.753  23.916  1.00  0.00     0.320 C 
ATOM     13  O   UNL A   1      31.231  29.514  24.713  1.00  0.00    -0.248 OA
ATOM     14  N   UNL A   1      31.089  27.449  23.793  1.00  0.00    -0.320 N 
ATOM     15  C   UNL A   1      31.955  26.724  24.732  1.00  0.00     0.150 C 
ATOM     16  C   UNL A   1      31.695  26.814  22.625  1.00  0.00     0.150 C 
BRANCH  12  17
ATOM     17  N   UNL A   1      29.595  29.145  23.156  1.00  0.00    -0.319 N 
ATOM     18  C   UNL A   1      28.449  28.250  23.137  1.00  0.00     0.149 C 
BRANCH  17  19
ATOM     19  C   UNL A   1      29.543  30.330  22.280  1.00  0.00     0.236 C 
BRANCH  19  20
ATOM     20  C   UNL A   1      28.776  31.531  22.839  1.00  0.00     0.406 C 
ATOM     21  F   UNL A   1      27.443  31.320  22.877  1.00  0.00    -0.169 F 
ATOM     22  F   UNL A   1      29.171  31.788  24.110  1.00  0.00    -0.169 F 
ATOM     23  F   UNL A   1      28.997  32.649  22.112  1.00  0.00    -0.169 F 
ENDBRANCH  19  20
ENDBRANCH  17  19
ENDBRANCH  12  17
ENDBRANCH   7  11
ENDBRANCH   3   6
ENDBRANCH   1   2
BRANCH   1  24
ATOM     24  C   UNL A   1      36.486  21.184  24.989  1.00  0.00     0.023 C 
BRANCH  24  25
ATOM     25  C   UNL A   1      37.439  22.382  24.830  1.00  0.00     0.023 C 
BRANCH  25  26
ATOM     26  C   UNL A   1      38.034  22.909  26.130  1.00  0.00     0.116 C 
BRANCH  26  27
ATOM     27  N   UNL A   1      39.219  22.166  26.585  1.00  0.00    -0.352 N 
ATOM     28  C   UNL A   1      40.488  22.665  26.834  1.00  0.00     0.251 C 
ATOM     29  H   UNL A   1      39.096  21.201  26.731  1.00  0.00     0.163 HD
ATOM     30  O   UNL A   1      41.480  21.936  26.839  1.00  0.00    -0.269 OA
BRANCH  28  31
ATOM     31  C   UNL A   1      40.619  24.096  27.137  1.00  0.00     0.039 A 
ATOM     32  C   UNL A   1      39.923  25.106  26.464  1.00  0.00     0.014 A 
ATOM     33  C   UNL A   1      41.438  24.391  28.216  1.00  0.00     0.014 A 
ATOM     34  C   UNL A   1      40.021  26.411  26.944  1.00  0.00     0.010 A 
ATOM     35  C   UNL A   1      41.300  25.591  28.837  1.00  0.00     0.010 A 
ATOM     36  C   UNL A   1      40.715  26.636  28.141  1.00  0.00    -0.014 A 
BRANCH  36  37
ATOM     37  C   UNL A   1      40.845  27.941  28.767  1.00  0.00     0.031 A 
ATOM     38  C   UNL A   1      41.951  28.781  28.238  1.00  0.00     0.074 A 
ATOM     39  C   UNL A   1      39.840  28.431  29.532  1.00  0.00     0.049 A 
ATOM     40  N   UNL A   1      42.971  29.244  28.880  1.00  0.00    -0.248 NA
ATOM     41  C   UNL A   1      42.000  29.036  26.787  1.00  0.00     0.031 C 
ATOM     42  C   UNL A   1      38.537  27.821  29.846  1.00  0.00     0.029 A 
ATOM     43  N   UNL A   1      39.725  29.657  30.103  1.00  0.00    -0.354 N 
ATOM     44  C   UNL A   1      43.695  30.003  27.963  1.00  0.00     0.074 A 
ATOM     45  C   UNL A   1      43.155  29.692  26.666  1.00  0.00     0.031 C 
ATOM     46  C   UNL A   1      37.693  28.759  30.333  1.00  0.00     0.029 A 
ATOM     47  C   UNL A   1      38.443  29.981  30.538  1.00  0.00     0.049 A 
ATOM     48  H   UNL A   1      40.490  30.270  30.203  1.00  0.00     0.167 HD
ATOM     49  C   UNL A   1      44.529  30.999  28.377  1.00  0.00     0.037 A 
ATOM     50  C   UNL A   1      38.040  31.190  31.003  1.00  0.00     0.037 A 
ATOM     51  C   UNL A   1      44.811  30.878  29.785  1.00  0.00     0.049 A 
ATOM     52  C   UNL A   1      39.271  31.931  31.387  1.00  0.00     0.074 A 
ATOM     53  C   UNL A   1      45.425  29.915  30.564  1.00  0.00     0.029 A 
ATOM     54  N   UNL A   1      44.076  31.647  30.655  1.00  0.00    -0.354 N 
ATOM     55  N   UNL A   1      40.050  31.565  32.369  1.00  0.00    -0.248 NA
ATOM     56  C   UNL A   1      39.897  32.754  30.362  1.00  0.00     0.031 C 
ATOM     57  C   UNL A   1      44.629  29.842  31.745  1.00  0.00     0.029 A 
ATOM     58  C   UNL A   1      43.639  30.822  31.661  1.00  0.00     0.049 A 
ATOM     59  H   UNL A   1      43.896  32.611  30.572  1.00  0.00     0.167 HD
ATOM     60  C   UNL A   1      41.339  31.749  31.887  1.00  0.00     0.074 A 
ATOM     61  C   UNL A   1      41.180  32.533  30.663  1.00  0.00     0.031 C 
ATOM     62  C   UNL A   1      42.381  30.996  32.350  1.00  0.00     0.037 A 
BRANCH  49  63
ATOM     63  C   UNL A   1      44.811  32.268  27.612  1.00  0.00     0.064 A 
ATOM     64  C   UNL A   1      46.033  32.394  26.919  1.00  0.00     0.173 A 
ATOM     65  C   UNL A   1      44.077  33.463  27.768  1.00  0.00     0.173 A 
ATOM     66  F   UNL A   1      46.821  31.327  26.721  1.00  0.00    -0.203 F 
ATOM     67  C   UNL A   1      46.517  33.634  26.491  1.00  0.00     0.198 A 
ATOM     68  C   UNL A   1      44.538  34.690  27.292  1.00  0.00     0.198 A 
ATOM     69  F   UNL A   1      42.946  33.519  28.478  1.00  0.00    -0.203 F 
ATOM     70  F   UNL A   1      47.740  33.721  25.951  1.00  0.00    -0.200 F 
ATOM     71  C   UNL A   1      45.771  34.782  26.684  1.00  0.00     0.200 A 
ATOM     72  F   UNL A   1      43.807  35.793  27.504  1.00  0.00    -0.200 F 
ATOM     73  F   UNL A   1      46.258  35.979  26.334  1.00  0.00    -0.200 F 
ENDBRANCH  49  63
BRANCH  50  74
ATOM     74  C   UNL A   1      36.733  31.861  30.798  1.00  0.00     0.064 A 
ATOM     75  C   UNL A   1      35.888  32.160  31.878  1.00  0.00     0.173 A 
ATOM     76  C   UNL A   1      36.417  32.474  29.569  1.00  0.00     0.173 A 
ATOM     77  F   UNL A   1      36.145  31.654  33.093  1.00  0.00    -0.203 F 
ATOM     78  C   UNL A   1      34.804  33.037  31.743  1.00  0.00     0.198 A 
ATOM     79  C   UNL A   1      35.336  33.348  29.435  1.00  0.00     0.198 A 
ATOM     80  F   UNL A   1      37.208  32.311  28.498  1.00  0.00    -0.203 F 
ATOM     81  F   UNL A   1      34.052  33.342  32.810  1.00  0.00    -0.200 F 
ATOM     82  C   UNL A   1      34.537  33.638  30.525  1.00  0.00     0.200 A 
ATOM     83  F   UNL A   1      35.113  33.953  28.260  1.00  0.00    -0.200 F 
ATOM     84  F   UNL A   1      33.539  34.526  30.410  1.00  0.00    -0.200 F 
ENDBRANCH  50  74
BRANCH  62  85
ATOM     85  C   UNL A   1      42.138  30.107  33.542  1.00  0.00     0.064 A 
ATOM     86  C   UNL A   1      41.735  28.763  33.456  1.00  0.00     0.173 A 
ATOM     87  C   UNL A   1      42.497  30.586  34.807  1.00  0.00     0.173 A 
ATOM     88  F   UNL A   1      41.469  28.195  32.275  1.00  0.00    -0.203 F 
ATOM     89  C   UNL A   1      41.664  27.949  34.587  1.00  0.00     0.198 A 
ATOM     90  C   UNL A   1      42.459  29.764  35.930  1.00  0.00     0.198 A 
ATOM     91  F   UNL A   1      42.944  31.844  34.944  1.00  0.00    -0.203 F 
ATOM     92  F   UNL A   1      41.276  26.670  34.475  1.00  0.00    -0.200 F 
ATOM     93  C   UNL A   1      42.035  28.449  35.823  1.00  0.00     0.200 A 
ATOM     94  F   UNL A   1      42.869  30.239  37.114  1.00  0.00    -0.200 F 
ATOM     95  F   UNL A   1      42.013  27.658  36.904  1.00  0.00    -0.200 F 
ENDBRANCH  62  85
ENDBRANCH  36  37
ENDBRANCH  28  31
ENDBRANCH  26  27
ENDBRANCH  25  26
ENDBRANCH  24  25
ENDBRANCH   1  24
TORSDOF 15
ENDMDL
MODEL 2
REMARK VINA RESULT:     -12.7      3.763      9.226
REMARK SMILES CN(CC(F)(F)F)C(=O)N1CC(n2cc(C(=O)NCCCCNC(=O)c3ccc(-c4c5nc(c(-c6c(F)c(F)c(F)c(F)c6F)c6ccc([nH]6)c(-c6c(F)c(F)c(F)c(F)c6F)c6nc(c(-c7c(F)c(F)c(F)c(F)c7F)c7ccc4[nH]7)C=C6)C=C5)cc3)nn2)C1
REMARK SMILES IDX 19 1 18 2 16 3 17 4 15 6 13 7 14 8 90 9 89 10 12 11 8 12
REMARK SMILES IDX 9 13 10 14 11 15 91 16 2 17 1 18 3 19 4 20 5 21 6 22 7 23
REMARK SMILES IDX 20 24 21 25 22 26 23 27 24 28 25 30 26 31 27 32 88 33 28 34
REMARK SMILES IDX 87 35 29 36 30 37 31 38 81 39 32 40 86 41 80 42 82 43 33 44
REMARK SMILES IDX 85 45 79 46 78 47 34 49 66 50 46 51 65 52 47 53 50 54 64 55
REMARK SMILES IDX 83 56 48 57 49 58 63 60 84 61 51 62 35 63 36 64 44 65 37 66
REMARK SMILES IDX 38 67 42 68 45 69 39 70 40 71 43 72 41 73 67 74 68 75 76 76
REMARK SMILES IDX 69 77 70 78 74 79 77 80 71 81 72 82 75 83 73 84 52 85 53 86
REMARK SMILES IDX 61 87 54 88 55 89 59 90 62 91 56 92 57 93 60 94 58 95
REMARK H PARENT 18 5 23 29 82 48 50 59
REMARK Flexibility Score: inf
ROOT
ATOM      1  C   UNL A   1      31.198  29.894  25.007  1.00  0.00     0.116 C 
ENDROOT
BRANCH   1   2
ATOM      2  N   UNL A   1      30.672  29.998  23.661  1.00  0.00    -0.351 N 
ATOM      3  C   UNL A   1      30.324  29.047  22.728  1.00  0.00     0.273 C 
ATOM      4  O   UNL A   1      29.805  29.468  21.693  1.00  0.00    -0.267 OA
ATOM      5  H   UNL A   1      30.537  30.924  23.354  1.00  0.00     0.163 HD
BRANCH   3   6
ATOM      6  C   UNL A   1      30.525  27.618  22.959  1.00  0.00     0.170 A 
ATOM      7  N   UNL A   1      31.220  25.569  23.187  1.00  0.00    -0.245 N 
ATOM      8  C   UNL A   1      31.577  26.777  22.650  1.00  0.00     0.145 A 
ATOM      9  N   UNL A   1      30.001  25.623  23.734  1.00  0.00    -0.066 NA
ATOM     10  N   UNL A   1      29.550  26.860  23.577  1.00  0.00    -0.125 NA
BRANCH   7  11
ATOM     11  C   UNL A   1      32.082  24.428  23.215  1.00  0.00     0.148 C 
ATOM     12  C   UNL A   1      33.687  22.153  24.857  1.00  0.00     0.320 C 
ATOM     13  O   UNL A   1      33.606  21.165  24.129  1.00  0.00    -0.248 OA
ATOM     14  N   UNL A   1      32.821  23.206  24.718  1.00  0.00    -0.320 N 
ATOM     15  C   UNL A   1      31.567  23.195  23.953  1.00  0.00     0.150 C 
ATOM     16  C   UNL A   1      33.143  24.574  24.316  1.00  0.00     0.150 C 
BRANCH  12  17
ATOM     17  N   UNL A   1      34.601  22.227  25.895  1.00  0.00    -0.319 N 
ATOM     18  C   UNL A   1      34.089  22.020  27.241  1.00  0.00     0.149 C 
BRANCH  17  19
ATOM     19  C   UNL A   1      36.020  22.608  25.761  1.00  0.00     0.236 C 
BRANCH  19  20
ATOM     20  C   UNL A   1      36.842  21.761  24.788  1.00  0.00     0.406 C 
ATOM     21  F   UNL A   1      38.169  21.854  25.016  1.00  0.00    -0.169 F 
ATOM     22  F   UNL A   1      36.511  20.452  24.912  1.00  0.00    -0.169 F 
ATOM     23  F   UNL A   1      36.618  22.114  23.503  1.00  0.00    -0.169 F 
ENDBRANCH  19  20
ENDBRANCH  17  19
ENDBRANCH  12  17
ENDBRANCH   7  11
ENDBRANCH   3   6
ENDBRANCH   1   2
BRANCH   1  24
ATOM     24  C   UNL A   1      32.718  29.698  25.014  1.00  0.00     0.023 C 
BRANCH  24  25
ATOM     25  C   UNL A   1      33.266  28.782  26.123  1.00  0.00     0.023 C 
BRANCH  25  26
ATOM     26  C   UNL A   1      33.739  29.504  27.379  1.00  0.00     0.116 C 
BRANCH  26  27
ATOM     27  N   UNL A   1      34.139  30.900  27.148  1.00  0.00    -0.352 N 
ATOM     28  C   UNL A   1      35.264  31.551  27.630  1.00  0.00     0.251 C 
ATOM     29  H   UNL A   1      33.536  31.436  26.584  1.00  0.00     0.163 HD
ATOM     30  O   UNL A   1      35.319  32.778  27.704  1.00  0.00    -0.269 OA
BRANCH  28  31
ATOM     31  C   UNL A   1      36.420  30.732  28.017  1.00  0.00     0.039 A 
ATOM     32  C   UNL A   1      36.595  29.396  27.641  1.00  0.00     0.014 A 
ATOM     33  C   UNL A   1      37.398  31.406  28.732  1.00  0.00     0.014 A 
ATOM     34  C   UNL A   1      37.805  28.774  27.947  1.00  0.00     0.010 A 
ATOM     35  C   UNL A   1      38.656  30.895  28.770  1.00  0.00     0.010 A 
ATOM     36  C   UNL A   1      38.832  29.545  28.511  1.00  0.00    -0.014 A 
BRANCH  36  37
ATOM     37  C   UNL A   1      40.151  29.025  28.829  1.00  0.00     0.031 A 
ATOM     38  C   UNL A   1      40.406  28.810  30.277  1.00  0.00     0.074 A 
ATOM     39  C   UNL A   1      40.928  28.500  27.852  1.00  0.00     0.049 A 
ATOM     40  N   UNL A   1      41.310  29.365  31.013  1.00  0.00    -0.248 NA
ATOM     41  C   UNL A   1      39.461  27.970  31.035  1.00  0.00     0.031 C 
ATOM     42  C   UNL A   1      40.630  28.345  26.417  1.00  0.00     0.029 A 
ATOM     43  N   UNL A   1      42.126  27.871  27.962  1.00  0.00    -0.354 N 
ATOM     44  C   UNL A   1      41.172  28.809  32.283  1.00  0.00     0.074 A 
ATOM     45  C   UNL A   1      39.919  28.103  32.280  1.00  0.00     0.031 C 
ATOM     46  C   UNL A   1      41.495  27.471  25.857  1.00  0.00     0.029 A 
ATOM     47  C   UNL A   1      42.513  27.149  26.836  1.00  0.00     0.049 A 
ATOM     48  H   UNL A   1      42.680  27.923  28.775  1.00  0.00     0.167 HD
ATOM     49  C   UNL A   1      42.217  28.788  33.159  1.00  0.00     0.037 A 
ATOM     50  C   UNL A   1      43.585  26.322  26.749  1.00  0.00     0.037 A 
ATOM     51  C   UNL A   1      43.253  29.699  32.741  1.00  0.00     0.049 A 
ATOM     52  C   UNL A   1      44.492  26.681  27.871  1.00  0.00     0.074 A 
ATOM     53  C   UNL A   1      43.315  31.067  32.560  1.00  0.00     0.029 A 
ATOM     54  N   UNL A   1      44.319  29.182  32.044  1.00  0.00    -0.354 N 
ATOM     55  N   UNL A   1      45.106  27.830  27.957  1.00  0.00    -0.248 NA
ATOM     56  C   UNL A   1      44.300  25.976  29.131  1.00  0.00     0.031 C 
ATOM     57  C   UNL A   1      44.080  31.241  31.369  1.00  0.00     0.029 A 
ATOM     58  C   UNL A   1      44.517  29.985  30.949  1.00  0.00     0.049 A 
ATOM     59  H   UNL A   1      44.843  28.385  32.285  1.00  0.00     0.167 HD
ATOM     60  C   UNL A   1      45.004  28.187  29.295  1.00  0.00     0.074 A 
ATOM     61  C   UNL A   1      44.542  26.980  29.978  1.00  0.00     0.031 C 
ATOM     62  C   UNL A   1      45.007  29.498  29.679  1.00  0.00     0.037 A 
BRANCH  49  63
ATOM     63  C   UNL A   1      42.465  27.711  34.187  1.00  0.00     0.064 A 
ATOM     64  C   UNL A   1      43.031  26.488  33.775  1.00  0.00     0.173 A 
ATOM     65  C   UNL A   1      41.911  27.716  35.484  1.00  0.00     0.173 A 
ATOM     66  F   UNL A   1      43.578  26.362  32.556  1.00  0.00    -0.203 F 
ATOM     67  C   UNL A   1      42.970  25.339  34.569  1.00  0.00     0.198 A 
ATOM     68  C   UNL A   1      41.899  26.582  36.295  1.00  0.00     0.198 A 
ATOM     69  F   UNL A   1      41.260  28.774  35.979  1.00  0.00    -0.203 F 
ATOM     70  F   UNL A   1      43.408  24.170  34.083  1.00  0.00    -0.200 F 
ATOM     71  C   UNL A   1      42.398  25.386  35.827  1.00  0.00     0.200 A 
ATOM     72  F   UNL A   1      41.325  26.645  37.505  1.00  0.00    -0.200 F 
ATOM     73  F   UNL A   1      42.280  24.275  36.565  1.00  0.00    -0.200 F 
ENDBRANCH  49  63
BRANCH  50  74
ATOM     74  C   UNL A   1      43.697  25.044  26.005  1.00  0.00     0.064 A 
ATOM     75  C   UNL A   1      44.806  24.768  25.190  1.00  0.00     0.173 A 
ATOM     76  C   UNL A   1      42.855  23.954  26.304  1.00  0.00     0.173 A 
ATOM     77  F   UNL A   1      45.682  25.739  24.894  1.00  0.00    -0.203 F 
ATOM     78  C   UNL A   1      45.069  23.474  24.719  1.00  0.00     0.198 A 
ATOM     79  C   UNL A   1      43.117  22.666  25.834  1.00  0.00     0.198 A 
ATOM     80  F   UNL A   1      41.813  24.102  27.137  1.00  0.00    -0.203 F 
ATOM     81  F   UNL A   1      46.168  23.238  23.988  1.00  0.00    -0.200 F 
ATOM     82  C   UNL A   1      44.230  22.424  25.051  1.00  0.00     0.200 A 
ATOM     83  F   UNL A   1      42.319  21.651  26.196  1.00  0.00    -0.200 F 
ATOM     84  F   UNL A   1      44.516  21.176  24.654  1.00  0.00    -0.200 F 
ENDBRANCH  50  74
BRANCH  62  85
ATOM     85  C   UNL A   1      45.330  30.540  28.640  1.00  0.00     0.064 A 
ATOM     86  C   UNL A   1      44.373  31.159  27.816  1.00  0.00     0.173 A 
ATOM     87  C   UNL A   1      46.632  31.054  28.602  1.00  0.00     0.173 A 
ATOM     88  F   UNL A   1      43.087  30.798  27.860  1.00  0.00    -0.203 F 
ATOM     89  C   UNL A   1      44.712  32.217  26.972  1.00  0.00     0.198 A 
ATOM     90  C   UNL A   1      46.961  32.133  27.786  1.00  0.00     0.198 A 
ATOM     91  F   UNL A   1      47.577  30.543  29.407  1.00  0.00    -0.203 F 
ATOM     92  F   UNL A   1      43.777  32.787  26.198  1.00  0.00    -0.200 F 
ATOM     93  C   UNL A   1      46.005  32.709  26.965  1.00  0.00     0.200 A 
ATOM     94  F   UNL A   1      48.203  32.637  27.823  1.00  0.00    -0.200 F 
ATOM     95  F   UNL A   1      46.324  33.756  26.192  1.00  0.00    -0.200 F 
ENDBRANCH  62  85
ENDBRANCH  36  37
ENDBRANCH  28  31
ENDBRANCH  26  27
ENDBRANCH  25  26
ENDBRANCH  24  25
ENDBRANCH   1  24
TORSDOF 15
ENDMDL
MODEL 3
REMARK VINA RESULT:     -12.5      4.487      9.220
REMARK SMILES CN(CC(F)(F)F)C(=O)N1CC(n2cc(C(=O)NCCCCNC(=O)c3ccc(-c4c5nc(c(-c6c(F)c(F)c(F)c(F)c6F)c6ccc([nH]6)c(-c6c(F)c(F)c(F)c(F)c6F)c6nc(c(-c7c(F)c(F)c(F)c(F)c7F)c7ccc4[nH]7)C=C6)C=C5)cc3)nn2)C1
REMARK SMILES IDX 19 1 18 2 16 3 17 4 15 6 13 7 14 8 90 9 89 10 12 11 8 12
REMARK SMILES IDX 9 13 10 14 11 15 91 16 2 17 1 18 3 19 4 20 5 21 6 22 7 23
REMARK SMILES IDX 20 24 21 25 22 26 23 27 24 28 25 30 26 31 27 32 88 33 28 34
REMARK SMILES IDX 87 35 29 36 30 37 31 38 81 39 32 40 86 41 80 42 82 43 33 44
REMARK SMILES IDX 85 45 79 46 78 47 34 49 66 50 46 51 65 52 47 53 50 54 64 55
REMARK SMILES IDX 83 56 48 57 49 58 63 60 84 61 51 62 35 63 36 64 44 65 37 66
REMARK SMILES IDX 38 67 42 68 45 69 39 70 40 71 43 72 41 73 67 74 68 75 76 76
REMARK SMILES IDX 69 77 70 78 74 79 77 80 71 81 72 82 75 83 73 84 52 85 53 86
REMARK SMILES IDX 61 87 54 88 55 89 59 90 62 91 56 92 57 93 60 94 58 95
REMARK H PARENT 18 5 23 29 82 48 50 59
REMARK Flexibility Score: inf
ROOT
ATOM      1  C   UNL A   1      43.813  25.723  25.357  1.00  0.00     0.116 C 
ENDROOT
BRANCH   1   2
ATOM      2  N   UNL A   1      44.542  26.306  26.465  1.00  0.00    -0.351 N 
ATOM      3  C   UNL A   1      45.728  27.002  26.527  1.00  0.00     0.273 C 
ATOM      4  O   UNL A   1      46.032  27.456  27.631  1.00  0.00    -0.267 OA
ATOM      5  H   UNL A   1      44.107  26.181  27.340  1.00  0.00     0.163 HD
BRANCH   3   6
ATOM      6  C   UNL A   1      46.566  27.221  25.351  1.00  0.00     0.170 A 
ATOM      7  N   UNL A   1      48.001  27.192  23.715  1.00  0.00    -0.245 N 
ATOM      8  C   UNL A   1      47.731  26.612  24.925  1.00  0.00     0.145 A 
ATOM      9  N   UNL A   1      47.112  28.149  23.427  1.00  0.00    -0.066 NA
ATOM     10  N   UNL A   1      46.246  28.201  24.430  1.00  0.00    -0.125 NA
BRANCH   7  11
ATOM     11  C   UNL A   1      49.058  26.767  22.850  1.00  0.00     0.148 C 
ATOM     12  C   UNL A   1      51.601  27.441  20.973  1.00  0.00     0.320 C 
ATOM     13  O   UNL A   1      52.358  26.489  21.165  1.00  0.00    -0.248 OA
ATOM     14  N   UNL A   1      50.599  27.738  21.860  1.00  0.00    -0.320 N 
ATOM     15  C   UNL A   1      50.471  27.206  23.224  1.00  0.00     0.150 C 
ATOM     16  C   UNL A   1      49.159  27.684  21.622  1.00  0.00     0.150 C 
BRANCH  12  17
ATOM     17  N   UNL A   1      51.762  28.302  19.900  1.00  0.00    -0.319 N 
ATOM     18  C   UNL A   1      51.349  27.811  18.594  1.00  0.00     0.149 C 
BRANCH  17  19
ATOM     19  C   UNL A   1      52.415  29.623  19.952  1.00  0.00     0.236 C 
BRANCH  19  20
ATOM     20  C   UNL A   1      51.556  30.764  20.500  1.00  0.00     0.406 C 
ATOM     21  F   UNL A   1      50.237  30.561  20.295  1.00  0.00    -0.169 F 
ATOM     22  F   UNL A   1      51.733  30.882  21.839  1.00  0.00    -0.169 F 
ATOM     23  F   UNL A   1      51.883  31.950  19.943  1.00  0.00    -0.169 F 
ENDBRANCH  19  20
ENDBRANCH  17  19
ENDBRANCH  12  17
ENDBRANCH   7  11
ENDBRANCH   3   6
ENDBRANCH   1   2
BRANCH   1  24
ATOM     24  C   UNL A   1      44.446  24.410  24.882  1.00  0.00     0.023 C 
BRANCH  24  25
ATOM     25  C   UNL A   1      43.466  23.250  24.632  1.00  0.00     0.023 C 
BRANCH  25  26
ATOM     26  C   UNL A   1      43.106  22.434  25.867  1.00  0.00     0.116 C 
BRANCH  26  27
ATOM     27  N   UNL A   1      41.693  22.027  25.920  1.00  0.00    -0.352 N 
ATOM     28  C   UNL A   1      40.657  22.648  26.599  1.00  0.00     0.251 C 
ATOM     29  H   UNL A   1      41.456  21.218  25.412  1.00  0.00     0.163 HD
ATOM     30  O   UNL A   1      39.625  22.046  26.893  1.00  0.00    -0.269 OA
BRANCH  28  31
ATOM     31  C   UNL A   1      40.805  24.071  26.928  1.00  0.00     0.039 A 
ATOM     32  C   UNL A   1      40.252  25.111  26.173  1.00  0.00     0.014 A 
ATOM     33  C   UNL A   1      41.477  24.328  28.113  1.00  0.00     0.014 A 
ATOM     34  C   UNL A   1      40.338  26.410  26.673  1.00  0.00     0.010 A 
ATOM     35  C   UNL A   1      41.306  25.532  28.719  1.00  0.00     0.010 A 
ATOM     36  C   UNL A   1      40.867  26.602  27.957  1.00  0.00    -0.014 A 
BRANCH  36  37
ATOM     37  C   UNL A   1      40.964  27.900  28.605  1.00  0.00     0.031 A 
ATOM     38  C   UNL A   1      42.060  28.769  28.103  1.00  0.00     0.074 A 
ATOM     39  C   UNL A   1      39.941  28.357  29.365  1.00  0.00     0.049 A 
ATOM     40  N   UNL A   1      43.063  29.242  28.765  1.00  0.00    -0.248 NA
ATOM     41  C   UNL A   1      42.121  29.049  26.657  1.00  0.00     0.031 C 
ATOM     42  C   UNL A   1      38.645  27.717  29.653  1.00  0.00     0.029 A 
ATOM     43  N   UNL A   1      39.795  29.572  29.954  1.00  0.00    -0.354 N 
ATOM     44  C   UNL A   1      43.782  30.029  27.869  1.00  0.00     0.074 A 
ATOM     45  C   UNL A   1      43.264  29.730  26.561  1.00  0.00     0.031 C 
ATOM     46  C   UNL A   1      37.778  28.630  30.144  1.00  0.00     0.029 A 
ATOM     47  C   UNL A   1      38.501  29.863  30.379  1.00  0.00     0.049 A 
ATOM     48  H   UNL A   1      40.545  30.198  30.073  1.00  0.00     0.167 HD
ATOM     49  C   UNL A   1      44.592  31.035  28.309  1.00  0.00     0.037 A 
ATOM     50  C   UNL A   1      38.069  31.056  30.857  1.00  0.00     0.037 A 
ATOM     51  C   UNL A   1      44.859  30.896  29.719  1.00  0.00     0.049 A 
ATOM     52  C   UNL A   1      39.280  31.815  31.268  1.00  0.00     0.074 A 
ATOM     53  C   UNL A   1      45.482  29.934  30.489  1.00  0.00     0.029 A 
ATOM     54  N   UNL A   1      44.098  31.636  30.592  1.00  0.00    -0.354 N 
ATOM     55  N   UNL A   1      40.055  31.449  32.255  1.00  0.00    -0.248 NA
ATOM     56  C   UNL A   1      39.902  32.666  30.265  1.00  0.00     0.031 C 
ATOM     57  C   UNL A   1      44.674  29.826  31.660  1.00  0.00     0.029 A 
ATOM     58  C   UNL A   1      43.666  30.787  31.579  1.00  0.00     0.049 A 
ATOM     59  H   UNL A   1      43.900  32.598  30.522  1.00  0.00     0.167 HD
ATOM     60  C   UNL A   1      41.345  31.665  31.791  1.00  0.00     0.074 A 
ATOM     61  C   UNL A   1      41.185  32.465  30.578  1.00  0.00     0.031 C 
ATOM     62  C   UNL A   1      42.396  30.926  32.255  1.00  0.00     0.037 A 
BRANCH  49  63
ATOM     63  C   UNL A   1      44.858  32.322  27.568  1.00  0.00     0.064 A 
ATOM     64  C   UNL A   1      46.062  32.462  26.849  1.00  0.00     0.173 A 
ATOM     65  C   UNL A   1      44.130  33.514  27.770  1.00  0.00     0.173 A 
ATOM     66  F   UNL A   1      46.843  31.398  26.607  1.00  0.00    -0.203 F 
ATOM     67  C   UNL A   1      46.539  33.711  26.440  1.00  0.00     0.198 A 
ATOM     68  C   UNL A   1      44.582  34.750  27.313  1.00  0.00     0.198 A 
ATOM     69  F   UNL A   1      43.016  33.554  28.510  1.00  0.00    -0.203 F 
ATOM     70  F   UNL A   1      47.748  33.809  25.872  1.00  0.00    -0.200 F 
ATOM     71  C   UNL A   1      45.800  34.855  26.678  1.00  0.00     0.200 A 
ATOM     72  F   UNL A   1      43.859  35.850  27.569  1.00  0.00    -0.200 F 
ATOM     73  F   UNL A   1      46.282  36.060  26.345  1.00  0.00    -0.200 F 
ENDBRANCH  49  63
BRANCH  50  74
ATOM     74  C   UNL A   1      36.751  31.705  30.647  1.00  0.00     0.064 A 
ATOM     75  C   UNL A   1      35.899  31.993  31.725  1.00  0.00     0.173 A 
ATOM     76  C   UNL A   1      36.428  32.309  29.416  1.00  0.00     0.173 A 
ATOM     77  F   UNL A   1      36.160  31.495  32.942  1.00  0.00    -0.203 F 
ATOM     78  C   UNL A   1      34.800  32.852  31.584  1.00  0.00     0.198 A 
ATOM     79  C   UNL A   1      35.333  33.164  29.276  1.00  0.00     0.198 A 
ATOM     80  F   UNL A   1      37.225  32.155  28.347  1.00  0.00    -0.203 F 
ATOM     81  F   UNL A   1      34.041  33.148  32.648  1.00  0.00    -0.200 F 
ATOM     82  C   UNL A   1      34.526  33.445  30.363  1.00  0.00     0.200 A 
ATOM     83  F   UNL A   1      35.103  33.762  28.098  1.00  0.00    -0.200 F 
ATOM     84  F   UNL A   1      33.514  34.316  30.243  1.00  0.00    -0.200 F 
ENDBRANCH  50  74
BRANCH  62  85
ATOM     85  C   UNL A   1      42.156  30.012  33.429  1.00  0.00     0.064 A 
ATOM     86  C   UNL A   1      41.798  28.658  33.317  1.00  0.00     0.173 A 
ATOM     87  C   UNL A   1      42.474  30.485  34.708  1.00  0.00     0.173 A 
ATOM     88  F   UNL A   1      41.574  28.099  32.123  1.00  0.00    -0.203 F 
ATOM     89  C   UNL A   1      41.728  27.827  34.435  1.00  0.00     0.198 A 
ATOM     90  C   UNL A   1      42.438  29.646  35.819  1.00  0.00     0.198 A 
ATOM     91  F   UNL A   1      42.878  31.754  34.872  1.00  0.00    -0.203 F 
ATOM     92  F   UNL A   1      41.383  26.538  34.297  1.00  0.00    -0.200 F 
ATOM     93  C   UNL A   1      42.058  28.320  35.685  1.00  0.00     0.200 A 
ATOM     94  F   UNL A   1      42.808  30.117  37.018  1.00  0.00    -0.200 F 
ATOM     95  F   UNL A   1      42.038  27.514  36.755  1.00  0.00    -0.200 F 
ENDBRANCH  62  85
ENDBRANCH  36  37
ENDBRANCH  28  31
ENDBRANCH  26  27
ENDBRANCH  25  26
ENDBRANCH  24  25
ENDBRANCH   1  24
TORSDOF 15
ENDMDL
