MODEL 1
REMARK VINA RESULT:     -11.1      0.000      0.000
REMARK SMILES O=C(NCCCCNC(=O)c1ccc(-n2cc(CSc3nc4ccccc4c(=O)n3-c3ccc(Cl)cc3)nn2)cc1)c1ccc(-c2c3nc(c(-c4c(F)c(F)c(F)c(F)c4F)c4ccc([nH]4)c(-c4c(F)c(F)c(F)c(F)c4F)c4nc(c(-c5c(F)c(F)c(F)c(F)c5F)c5ccc2[nH]5)C=C4)C=C3)cc1
REMARK SMILES IDX 7 1 6 2 5 3 4 4 3 5 1 6 2 7 42 9 43 10 104 11 44 12 103 13
REMARK SMILES IDX 45 14 46 15 47 16 97 17 48 18 102 19 96 20 98 21 49 22
REMARK SMILES IDX 101 23 95 24 94 25 50 27 82 28 62 29 81 30 63 31 66 32 80 33
REMARK SMILES IDX 99 34 64 35 65 36 79 38 100 39 67 40 51 41 52 42 60 43 53 44
REMARK SMILES IDX 54 45 58 46 61 47 55 48 56 49 59 50 57 51 83 52 84 53 92 54
REMARK SMILES IDX 85 55 86 56 90 57 93 58 87 59 88 60 91 61 89 62 68 63 69 64
REMARK SMILES IDX 77 65 70 66 71 67 75 68 78 69 72 70 73 71 76 72 74 73 8 74
REMARK SMILES IDX 9 75 10 77 11 78 12 79 41 80 13 81 40 82 14 83 15 84 16 85
REMARK SMILES IDX 39 86 17 87 38 88 18 89 19 90 20 91 21 92 30 93 22 94 28 95
REMARK SMILES IDX 23 96 27 97 29 98 24 99 26 100 25 101 31 102 32 103 37 104
REMARK SMILES IDX 33 105 36 106 34 107 35 108
REMARK H PARENT 3 8 98 26 66 37 8 76
REMARK Flexibility Score: inf
ROOT
ATOM      1  C   UNL A   1      46.864  27.922  34.331  1.00  0.00     0.116 C 
ENDROOT
BRANCH   1   2
ATOM      2  C   UNL A   1      47.556  28.186  35.669  1.00  0.00     0.023 C 
BRANCH   2   3
ATOM      3  C   UNL A   1      46.880  27.592  36.910  1.00  0.00     0.023 C 
BRANCH   3   4
ATOM      4  C   UNL A   1      47.405  26.229  37.353  1.00  0.00     0.116 C 
BRANCH   4   5
ATOM      5  N   UNL A   1      46.385  25.210  37.498  1.00  0.00    -0.352 N 
ATOM      6  O   UNL A   1      44.997  23.529  37.159  1.00  0.00    -0.269 OA
ATOM      7  C   UNL A   1      45.682  24.413  36.637  1.00  0.00     0.251 C 
ATOM      8  H   UNL A   1      46.139  25.056  38.437  1.00  0.00     0.163 HD
BRANCH   7   9
ATOM      9  C   UNL A   1      45.626  24.571  35.157  1.00  0.00     0.039 A 
ATOM     10  C   UNL A   1      46.592  24.142  34.246  1.00  0.00     0.014 A 
ATOM     11  C   UNL A   1      44.487  25.236  34.661  1.00  0.00     0.014 A 
ATOM     12  C   UNL A   1      46.463  24.442  32.890  1.00  0.00     0.010 A 
ATOM     13  C   UNL A   1      44.348  25.529  33.309  1.00  0.00     0.010 A 
ATOM     14  C   UNL A   1      45.357  25.163  32.427  1.00  0.00    -0.014 A 
BRANCH  14  15
ATOM     15  C   UNL A   1      45.218  25.380  30.986  1.00  0.00     0.031 A 
ATOM     16  C   UNL A   1      46.154  26.397  30.414  1.00  0.00     0.074 A 
ATOM     17  C   UNL A   1      44.428  24.630  30.189  1.00  0.00     0.049 A 
ATOM     18  N   UNL A   1      45.872  27.465  29.739  1.00  0.00    -0.248 NA
ATOM     19  C   UNL A   1      47.590  26.238  30.703  1.00  0.00     0.031 C 
ATOM     20  C   UNL A   1      43.678  23.419  30.531  1.00  0.00     0.029 A 
ATOM     21  N   UNL A   1      44.197  24.760  28.851  1.00  0.00    -0.354 N 
ATOM     22  C   UNL A   1      47.095  28.045  29.396  1.00  0.00     0.074 A 
ATOM     23  C   UNL A   1      48.111  27.308  30.101  1.00  0.00     0.031 C 
ATOM     24  C   UNL A   1      43.256  22.814  29.395  1.00  0.00     0.029 A 
ATOM     25  C   UNL A   1      43.584  23.662  28.261  1.00  0.00     0.049 A 
ATOM     26  H   UNL A   1      44.446  25.567  28.343  1.00  0.00     0.167 HD
ATOM     27  C   UNL A   1      47.201  28.988  28.419  1.00  0.00     0.037 A 
ATOM     28  C   UNL A   1      43.407  23.446  26.932  1.00  0.00     0.037 A 
ATOM     29  C   UNL A   1      45.940  29.625  28.160  1.00  0.00     0.049 A 
ATOM     30  C   UNL A   1      43.540  24.751  26.242  1.00  0.00     0.074 A 
ATOM     31  C   UNL A   1      45.086  30.415  28.904  1.00  0.00     0.029 A 
ATOM     32  N   UNL A   1      45.202  29.207  27.082  1.00  0.00    -0.354 N 
ATOM     33  N   UNL A   1      42.686  25.727  26.358  1.00  0.00    -0.248 NA
ATOM     34  C   UNL A   1      44.864  25.127  25.770  1.00  0.00     0.031 C 
ATOM     35  C   UNL A   1      43.776  30.004  28.520  1.00  0.00     0.029 A 
ATOM     36  C   UNL A   1      43.914  29.038  27.523  1.00  0.00     0.049 A 
ATOM     37  H   UNL A   1      45.533  29.057  26.167  1.00  0.00     0.167 HD
ATOM     38  C   UNL A   1      43.467  26.871  26.399  1.00  0.00     0.074 A 
ATOM     39  C   UNL A   1      44.792  26.446  25.953  1.00  0.00     0.031 C 
ATOM     40  C   UNL A   1      43.042  27.990  27.054  1.00  0.00     0.037 A 
BRANCH  27  41
ATOM     41  C   UNL A   1      48.385  29.126  27.495  1.00  0.00     0.064 A 
ATOM     42  C   UNL A   1      48.715  28.077  26.614  1.00  0.00     0.173 A 
ATOM     43  C   UNL A   1      49.372  30.124  27.649  1.00  0.00     0.173 A 
ATOM     44  F   UNL A   1      47.863  27.060  26.411  1.00  0.00    -0.203 F 
ATOM     45  C   UNL A   1      49.963  28.004  25.986  1.00  0.00     0.198 A 
ATOM     46  C   UNL A   1      50.595  30.073  26.983  1.00  0.00     0.198 A 
ATOM     47  F   UNL A   1      49.236  31.122  28.531  1.00  0.00    -0.203 F 
ATOM     48  F   UNL A   1      50.275  26.930  25.248  1.00  0.00    -0.200 F 
ATOM     49  C   UNL A   1      50.903  29.000  26.175  1.00  0.00     0.200 A 
ATOM     50  F   UNL A   1      51.501  31.038  27.196  1.00  0.00    -0.200 F 
ATOM     51  F   UNL A   1      52.120  28.904  25.622  1.00  0.00    -0.200 F 
ENDBRANCH  27  41
BRANCH  28  52
ATOM     52  C   UNL A   1      43.464  22.164  26.187  1.00  0.00     0.064 A 
ATOM     53  C   UNL A   1      44.688  21.619  25.759  1.00  0.00     0.173 A 
ATOM     54  C   UNL A   1      42.349  21.305  26.144  1.00  0.00     0.173 A 
ATOM     55  F   UNL A   1      45.809  22.351  25.818  1.00  0.00    -0.203 F 
ATOM     56  C   UNL A   1      44.791  20.288  25.336  1.00  0.00     0.198 A 
ATOM     57  C   UNL A   1      42.453  19.980  25.717  1.00  0.00     0.198 A 
ATOM     58  F   UNL A   1      41.158  21.705  26.610  1.00  0.00    -0.203 F 
ATOM     59  F   UNL A   1      45.986  19.785  24.995  1.00  0.00    -0.200 F 
ATOM     60  C   UNL A   1      43.675  19.468  25.325  1.00  0.00     0.200 A 
ATOM     61  F   UNL A   1      41.374  19.184  25.752  1.00  0.00    -0.200 F 
ATOM     62  F   UNL A   1      43.785  18.176  24.982  1.00  0.00    -0.200 F 
ENDBRANCH  28  52
BRANCH  40  63
ATOM     63  C   UNL A   1      41.614  28.023  27.529  1.00  0.00     0.064 A 
ATOM     64  C   UNL A   1      41.178  27.466  28.745  1.00  0.00     0.173 A 
ATOM     65  C   UNL A   1      40.681  28.761  26.791  1.00  0.00     0.173 A 
ATOM     66  F   UNL A   1      42.029  26.836  29.562  1.00  0.00    -0.203 F 
ATOM     67  C   UNL A   1      39.858  27.604  29.174  1.00  0.00     0.198 A 
ATOM     68  C   UNL A   1      39.374  28.929  27.239  1.00  0.00     0.198 A 
ATOM     69  F   UNL A   1      41.052  29.364  25.650  1.00  0.00    -0.203 F 
ATOM     70  F   UNL A   1      39.466  27.052  30.332  1.00  0.00    -0.200 F 
ATOM     71  C   UNL A   1      38.959  28.341  28.423  1.00  0.00     0.200 A 
ATOM     72  F   UNL A   1      38.521  29.688  26.536  1.00  0.00    -0.200 F 
ATOM     73  F   UNL A   1      37.701  28.511  28.854  1.00  0.00    -0.200 F 
ENDBRANCH  40  63
ENDBRANCH  14  15
ENDBRANCH   7   9
ENDBRANCH   4   5
ENDBRANCH   3   4
ENDBRANCH   2   3
ENDBRANCH   1   2
BRANCH   1  74
ATOM     74  N   UNL A   1      47.194  28.907  33.317  1.00  0.00    -0.352 N 
ATOM     75  C   UNL A   1      46.380  29.766  32.618  1.00  0.00     0.251 C 
ATOM     76  H   UNL A   1      48.151  28.971  33.097  1.00  0.00     0.163 HD
ATOM     77  O   UNL A   1      46.845  30.462  31.731  1.00  0.00    -0.269 OA
BRANCH  75  78
ATOM     78  C   UNL A   1      44.931  29.830  32.913  1.00  0.00     0.039 A 
ATOM     79  C   UNL A   1      44.079  28.975  32.205  1.00  0.00     0.016 A 
ATOM     80  C   UNL A   1      44.407  30.754  33.822  1.00  0.00     0.016 A 
ATOM     81  C   UNL A   1      42.706  28.996  32.449  1.00  0.00     0.029 A 
ATOM     82  C   UNL A   1      43.028  30.800  34.046  1.00  0.00     0.029 A 
ATOM     83  C   UNL A   1      42.176  29.920  33.356  1.00  0.00     0.066 A 
BRANCH  83  84
ATOM     84  N   UNL A   1      40.772  30.010  33.498  1.00  0.00    -0.220 N 
ATOM     85  C   UNL A   1      40.001  31.138  33.413  1.00  0.00     0.141 A 
ATOM     86  N   UNL A   1      39.971  28.938  33.693  1.00  0.00    -0.062 NA
ATOM     87  C   UNL A   1      38.697  30.700  33.452  1.00  0.00     0.093 A 
ATOM     88  N   UNL A   1      38.708  29.353  33.697  1.00  0.00    -0.134 NA
BRANCH  87  89
ATOM     89  C   UNL A   1      37.447  31.490  33.473  1.00  0.00     0.138 C 
BRANCH  89  90
ATOM     90  S   UNL A   1      36.116  31.228  32.297  1.00  0.00    -0.081 SA
BRANCH  90  91
ATOM     91  C   UNL A   1      35.838  32.592  31.244  1.00  0.00     0.176 A 
ATOM     92  N   UNL A   1      34.749  33.232  31.562  1.00  0.00    -0.223 NA
ATOM     93  N   UNL A   1      36.645  33.011  30.195  1.00  0.00    -0.255 N 
ATOM     94  C   UNL A   1      34.323  34.287  30.748  1.00  0.00     0.079 A 
ATOM     95  C   UNL A   1      35.936  33.542  29.104  1.00  0.00     0.266 A 
ATOM     96  C   UNL A   1      33.367  35.201  31.191  1.00  0.00     0.029 A 
ATOM     97  C   UNL A   1      34.770  34.373  29.439  1.00  0.00     0.066 A 
ATOM     98  O   UNL A   1      36.200  33.367  27.916  1.00  0.00    -0.268 OA
ATOM     99  C   UNL A   1      32.820  36.136  30.305  1.00  0.00     0.002 A 
ATOM    100  C   UNL A   1      34.196  35.262  28.525  1.00  0.00     0.016 A 
ATOM    101  C   UNL A   1      33.206  36.141  28.962  1.00  0.00     0.001 A 
BRANCH  93 102
ATOM    102  C   UNL A   1      38.090  32.925  30.097  1.00  0.00     0.051 A 
ATOM    103  C   UNL A   1      38.714  31.674  29.894  1.00  0.00     0.028 A 
ATOM    104  C   UNL A   1      38.958  34.020  30.173  1.00  0.00     0.028 A 
ATOM    105  C   UNL A   1      40.094  31.494  30.029  1.00  0.00     0.022 A 
ATOM    106  C   UNL A   1      40.337  33.848  30.380  1.00  0.00     0.022 A 
ATOM    107  C   UNL A   1      40.892  32.577  30.355  1.00  0.00     0.041 A 
ATOM    108  Cl  UNL A   1      42.545  32.344  30.745  1.00  0.00    -0.084 Cl
ENDBRANCH  93 102
ENDBRANCH  90  91
ENDBRANCH  89  90
ENDBRANCH  87  89
ENDBRANCH  83  84
ENDBRANCH  75  78
ENDBRANCH   1  74
TORSDOF 16
ENDMDL
MODEL 2
REMARK VINA RESULT:     -11.0      4.755      8.911
REMARK SMILES O=C(NCCCCNC(=O)c1ccc(-n2cc(CSc3nc4ccccc4c(=O)n3-c3ccc(Cl)cc3)nn2)cc1)c1ccc(-c2c3nc(c(-c4c(F)c(F)c(F)c(F)c4F)c4ccc([nH]4)c(-c4c(F)c(F)c(F)c(F)c4F)c4nc(c(-c5c(F)c(F)c(F)c(F)c5F)c5ccc2[nH]5)C=C4)C=C3)cc1
REMARK SMILES IDX 7 1 6 2 5 3 4 4 3 5 1 6 2 7 42 9 43 10 104 11 44 12 103 13
REMARK SMILES IDX 45 14 46 15 47 16 97 17 48 18 102 19 96 20 98 21 49 22
REMARK SMILES IDX 101 23 95 24 94 25 50 27 82 28 62 29 81 30 63 31 66 32 80 33
REMARK SMILES IDX 99 34 64 35 65 36 79 38 100 39 67 40 51 41 52 42 60 43 53 44
REMARK SMILES IDX 54 45 58 46 61 47 55 48 56 49 59 50 57 51 83 52 84 53 92 54
REMARK SMILES IDX 85 55 86 56 90 57 93 58 87 59 88 60 91 61 89 62 68 63 69 64
REMARK SMILES IDX 77 65 70 66 71 67 75 68 78 69 72 70 73 71 76 72 74 73 8 74
REMARK SMILES IDX 9 75 10 77 11 78 12 79 41 80 13 81 40 82 14 83 15 84 16 85
REMARK SMILES IDX 39 86 17 87 38 88 18 89 19 90 20 91 21 92 30 93 22 94 28 95
REMARK SMILES IDX 23 96 27 97 29 98 24 99 26 100 25 101 31 102 32 103 37 104
REMARK SMILES IDX 33 105 36 106 34 107 35 108
REMARK H PARENT 3 8 98 26 66 37 8 76
REMARK Flexibility Score: inf
ROOT
ATOM      1  C   UNL A   1      36.528  32.732  33.754  1.00  0.00     0.116 C 
ENDROOT
BRANCH   1   2
ATOM      2  C   UNL A   1      36.003  32.051  32.489  1.00  0.00     0.023 C 
BRANCH   2   3
ATOM      3  C   UNL A   1      34.657  32.558  31.957  1.00  0.00     0.023 C 
BRANCH   3   4
ATOM      4  C   UNL A   1      34.734  33.432  30.708  1.00  0.00     0.116 C 
BRANCH   4   5
ATOM      5  N   UNL A   1      34.349  32.762  29.482  1.00  0.00    -0.352 N 
ATOM      6  O   UNL A   1      34.144  31.329  27.817  1.00  0.00    -0.269 OA
ATOM      7  C   UNL A   1      34.860  31.736  28.736  1.00  0.00     0.251 C 
ATOM      8  H   UNL A   1      33.525  33.134  29.094  1.00  0.00     0.163 HD
BRANCH   7   9
ATOM      9  C   UNL A   1      36.211  31.133  28.901  1.00  0.00     0.039 A 
ATOM     10  C   UNL A   1      37.431  31.802  28.797  1.00  0.00     0.014 A 
ATOM     11  C   UNL A   1      36.228  29.749  29.169  1.00  0.00     0.014 A 
ATOM     12  C   UNL A   1      38.631  31.095  28.876  1.00  0.00     0.010 A 
ATOM     13  C   UNL A   1      37.421  29.041  29.258  1.00  0.00     0.010 A 
ATOM     14  C   UNL A   1      38.625  29.710  29.074  1.00  0.00    -0.014 A 
BRANCH  14  15
ATOM     15  C   UNL A   1      39.906  29.022  29.237  1.00  0.00     0.031 A 
ATOM     16  C   UNL A   1      40.323  28.801  30.657  1.00  0.00     0.074 A 
ATOM     17  C   UNL A   1      40.601  28.483  28.213  1.00  0.00     0.049 A 
ATOM     18  N   UNL A   1      41.416  29.170  31.244  1.00  0.00    -0.248 NA
ATOM     19  C   UNL A   1      39.353  28.153  31.557  1.00  0.00     0.031 C 
ATOM     20  C   UNL A   1      40.198  28.350  26.810  1.00  0.00     0.029 A 
ATOM     21  N   UNL A   1      41.810  27.852  28.240  1.00  0.00    -0.354 N 
ATOM     22  C   UNL A   1      41.341  28.682  32.550  1.00  0.00     0.074 A 
ATOM     23  C   UNL A   1      40.011  28.157  32.717  1.00  0.00     0.031 C 
ATOM     24  C   UNL A   1      41.042  27.501  26.178  1.00  0.00     0.029 A 
ATOM     25  C   UNL A   1      42.119  27.142  27.087  1.00  0.00     0.049 A 
ATOM     26  H   UNL A   1      42.416  27.896  29.016  1.00  0.00     0.167 HD
ATOM     27  C   UNL A   1      42.437  28.591  33.354  1.00  0.00     0.037 A 
ATOM     28  C   UNL A   1      43.155  26.282  26.913  1.00  0.00     0.037 A 
ATOM     29  C   UNL A   1      43.494  29.455  32.907  1.00  0.00     0.049 A 
ATOM     30  C   UNL A   1      44.159  26.570  27.964  1.00  0.00     0.074 A 
ATOM     31  C   UNL A   1      43.634  30.823  32.781  1.00  0.00     0.029 A 
ATOM     32  N   UNL A   1      44.517  28.915  32.171  1.00  0.00    -0.354 N 
ATOM     33  N   UNL A   1      44.867  27.663  28.016  1.00  0.00    -0.248 NA
ATOM     34  C   UNL A   1      44.056  25.830  29.212  1.00  0.00     0.031 C 
ATOM     35  C   UNL A   1      44.388  31.006  31.585  1.00  0.00     0.029 A 
ATOM     36  C   UNL A   1      44.713  29.742  31.095  1.00  0.00     0.049 A 
ATOM     37  H   UNL A   1      45.017  28.092  32.377  1.00  0.00     0.167 HD
ATOM     38  C   UNL A   1      44.928  27.976  29.364  1.00  0.00     0.074 A 
ATOM     39  C   UNL A   1      44.480  26.771  30.058  1.00  0.00     0.031 C 
ATOM     40  C   UNL A   1      45.069  29.268  29.780  1.00  0.00     0.037 A 
BRANCH  27  41
ATOM     41  C   UNL A   1      42.656  27.500  34.372  1.00  0.00     0.064 A 
ATOM     42  C   UNL A   1      43.209  26.266  33.974  1.00  0.00     0.173 A 
ATOM     43  C   UNL A   1      42.077  27.519  35.660  1.00  0.00     0.173 A 
ATOM     44  F   UNL A   1      43.762  26.125  32.759  1.00  0.00    -0.203 F 
ATOM     45  C   UNL A   1      43.130  25.126  34.779  1.00  0.00     0.198 A 
ATOM     46  C   UNL A   1      42.045  26.393  36.480  1.00  0.00     0.198 A 
ATOM     47  F   UNL A   1      41.425  28.591  36.126  1.00  0.00    -0.203 F 
ATOM     48  F   UNL A   1      43.566  23.949  34.311  1.00  0.00    -0.200 F 
ATOM     49  C   UNL A   1      42.544  25.190  36.030  1.00  0.00     0.200 A 
ATOM     50  F   UNL A   1      41.453  26.469  37.681  1.00  0.00    -0.200 F 
ATOM     51  F   UNL A   1      42.415  24.086  36.780  1.00  0.00    -0.200 F 
ENDBRANCH  27  41
BRANCH  28  52
ATOM     52  C   UNL A   1      43.192  25.024  26.127  1.00  0.00     0.064 A 
ATOM     53  C   UNL A   1      44.237  24.753  25.226  1.00  0.00     0.173 A 
ATOM     54  C   UNL A   1      42.363  23.938  26.465  1.00  0.00     0.173 A 
ATOM     55  F   UNL A   1      45.106  25.719  24.892  1.00  0.00    -0.203 F 
ATOM     56  C   UNL A   1      44.452  23.468  24.715  1.00  0.00     0.198 A 
ATOM     57  C   UNL A   1      42.575  22.658  25.951  1.00  0.00     0.198 A 
ATOM     58  F   UNL A   1      41.393  24.075  27.380  1.00  0.00    -0.203 F 
ATOM     59  F   UNL A   1      45.496  23.234  23.908  1.00  0.00    -0.200 F 
ATOM     60  C   UNL A   1      43.626  22.420  25.086  1.00  0.00     0.200 A 
ATOM     61  F   UNL A   1      41.795  21.643  26.352  1.00  0.00    -0.200 F 
ATOM     62  F   UNL A   1      43.869  21.176  24.648  1.00  0.00    -0.200 F 
ENDBRANCH  28  52
BRANCH  40  63
ATOM     63  C   UNL A   1      45.386  30.308  28.739  1.00  0.00     0.064 A 
ATOM     64  C   UNL A   1      44.411  31.053  28.052  1.00  0.00     0.173 A 
ATOM     65  C   UNL A   1      46.725  30.656  28.529  1.00  0.00     0.173 A 
ATOM     66  F   UNL A   1      43.107  30.857  28.274  1.00  0.00    -0.203 F 
ATOM     67  C   UNL A   1      44.766  32.066  27.161  1.00  0.00     0.198 A 
ATOM     68  C   UNL A   1      47.077  31.692  27.668  1.00  0.00     0.198 A 
ATOM     69  F   UNL A   1      47.699  30.019  29.199  1.00  0.00    -0.203 F 
ATOM     70  F   UNL A   1      43.816  32.752  26.509  1.00  0.00    -0.200 F 
ATOM     71  C   UNL A   1      46.099  32.389  26.976  1.00  0.00     0.200 A 
ATOM     72  F   UNL A   1      48.365  32.037  27.532  1.00  0.00    -0.200 F 
ATOM     73  F   UNL A   1      46.442  33.390  26.152  1.00  0.00    -0.200 F 
ENDBRANCH  40  63
ENDBRANCH  14  15
ENDBRANCH   7   9
ENDBRANCH   4   5
ENDBRANCH   3   4
ENDBRANCH   2   3
ENDBRANCH   1   2
BRANCH   1  74
ATOM     74  N   UNL A   1      37.356  31.858  34.567  1.00  0.00    -0.352 N 
ATOM     75  C   UNL A   1      38.707  31.611  34.509  1.00  0.00     0.251 C 
ATOM     76  H   UNL A   1      36.873  31.366  35.270  1.00  0.00     0.163 HD
ATOM     77  O   UNL A   1      39.203  30.762  35.231  1.00  0.00    -0.269 OA
BRANCH  75  78
ATOM     78  C   UNL A   1      39.562  32.348  33.552  1.00  0.00     0.039 A 
ATOM     79  C   UNL A   1      40.180  33.521  33.994  1.00  0.00     0.016 A 
ATOM     80  C   UNL A   1      39.706  31.930  32.225  1.00  0.00     0.016 A 
ATOM     81  C   UNL A   1      40.997  34.250  33.129  1.00  0.00     0.029 A 
ATOM     82  C   UNL A   1      40.499  32.674  31.347  1.00  0.00     0.029 A 
ATOM     83  C   UNL A   1      41.145  33.837  31.800  1.00  0.00     0.066 A 
BRANCH  83  84
ATOM     84  N   UNL A   1      41.876  34.654  30.909  1.00  0.00    -0.220 N 
ATOM     85  C   UNL A   1      43.097  35.236  31.128  1.00  0.00     0.141 A 
ATOM     86  N   UNL A   1      41.471  34.935  29.649  1.00  0.00    -0.062 NA
ATOM     87  C   UNL A   1      43.468  35.786  29.923  1.00  0.00     0.093 A 
ATOM     88  N   UNL A   1      42.421  35.650  29.052  1.00  0.00    -0.134 NA
BRANCH  87  89
ATOM     89  C   UNL A   1      44.658  36.603  29.596  1.00  0.00     0.138 C 
BRANCH  89  90
ATOM     90  S   UNL A   1      44.584  38.028  28.508  1.00  0.00    -0.081 SA
BRANCH  90  91
ATOM     91  C   UNL A   1      43.890  39.443  29.258  1.00  0.00     0.176 A 
ATOM     92  N   UNL A   1      44.328  39.607  30.474  1.00  0.00    -0.223 NA
ATOM     93  N   UNL A   1      42.996  40.336  28.683  1.00  0.00    -0.255 N 
ATOM     94  C   UNL A   1      43.788  40.634  31.254  1.00  0.00     0.079 A 
ATOM     95  C   UNL A   1      42.052  40.860  29.582  1.00  0.00     0.266 A 
ATOM     96  C   UNL A   1      44.417  41.062  32.423  1.00  0.00     0.029 A 
ATOM     97  C   UNL A   1      42.551  41.170  30.929  1.00  0.00     0.066 A 
ATOM     98  O   UNL A   1      40.864  41.068  29.342  1.00  0.00    -0.268 OA
ATOM     99  C   UNL A   1      43.774  41.959  33.284  1.00  0.00     0.002 A 
ATOM    100  C   UNL A   1      41.869  42.022  31.804  1.00  0.00     0.016 A 
ATOM    101  C   UNL A   1      42.484  42.408  32.994  1.00  0.00     0.001 A 
BRANCH  93 102
ATOM    102  C   UNL A   1      42.916  40.740  27.292  1.00  0.00     0.051 A 
ATOM    103  C   UNL A   1      43.872  41.631  26.755  1.00  0.00     0.028 A 
ATOM    104  C   UNL A   1      41.943  40.294  26.390  1.00  0.00     0.028 A 
ATOM    105  C   UNL A   1      43.712  42.238  25.505  1.00  0.00     0.022 A 
ATOM    106  C   UNL A   1      41.730  40.945  25.163  1.00  0.00     0.022 A 
ATOM    107  C   UNL A   1      42.591  41.950  24.748  1.00  0.00     0.041 A 
ATOM    108  Cl  UNL A   1      42.260  42.843  23.322  1.00  0.00    -0.084 Cl
ENDBRANCH  93 102
ENDBRANCH  90  91
ENDBRANCH  89  90
ENDBRANCH  87  89
ENDBRANCH  83  84
ENDBRANCH  75  78
ENDBRANCH   1  74
TORSDOF 16
ENDMDL
MODEL 3
REMARK VINA RESULT:     -10.7      5.914     10.357
REMARK SMILES O=C(NCCCCNC(=O)c1ccc(-n2cc(CSc3nc4ccccc4c(=O)n3-c3ccc(Cl)cc3)nn2)cc1)c1ccc(-c2c3nc(c(-c4c(F)c(F)c(F)c(F)c4F)c4ccc([nH]4)c(-c4c(F)c(F)c(F)c(F)c4F)c4nc(c(-c5c(F)c(F)c(F)c(F)c5F)c5ccc2[nH]5)C=C4)C=C3)cc1
REMARK SMILES IDX 7 1 6 2 5 3 4 4 3 5 1 6 2 7 42 9 43 10 104 11 44 12 103 13
REMARK SMILES IDX 45 14 46 15 47 16 97 17 48 18 102 19 96 20 98 21 49 22
REMARK SMILES IDX 101 23 95 24 94 25 50 27 82 28 62 29 81 30 63 31 66 32 80 33
REMARK SMILES IDX 99 34 64 35 65 36 79 38 100 39 67 40 51 41 52 42 60 43 53 44
REMARK SMILES IDX 54 45 58 46 61 47 55 48 56 49 59 50 57 51 83 52 84 53 92 54
REMARK SMILES IDX 85 55 86 56 90 57 93 58 87 59 88 60 91 61 89 62 68 63 69 64
REMARK SMILES IDX 77 65 70 66 71 67 75 68 78 69 72 70 73 71 76 72 74 73 8 74
REMARK SMILES IDX 9 75 10 77 11 78 12 79 41 80 13 81 40 82 14 83 15 84 16 85
REMARK SMILES IDX 39 86 17 87 38 88 18 89 19 90 20 91 21 92 30 93 22 94 28 95
REMARK SMILES IDX 23 96 27 97 29 98 24 99 26 100 25 101 31 102 32 103 37 104
REMARK SMILES IDX 33 105 36 106 34 107 35 108
REMARK H PARENT 3 8 98 26 66 37 8 76
REMARK Flexibility Score: inf
ROOT
ATOM      1  C   UNL A   1      44.633  22.869  26.738  1.00  0.00     0.116 C 
ENDROOT
BRANCH   1   2
ATOM      2  C   UNL A   1      44.867  24.301  26.255  1.00  0.00     0.023 C 
BRANCH   2   3
ATOM      3  C   UNL A   1      46.315  24.805  26.307  1.00  0.00     0.023 C 
BRANCH   3   4
ATOM      4  C   UNL A   1      46.628  25.781  27.439  1.00  0.00     0.116 C 
BRANCH   4   5
ATOM      5  N   UNL A   1      46.367  25.263  28.767  1.00  0.00    -0.352 N 
ATOM      6  O   UNL A   1      45.459  24.771  30.716  1.00  0.00    -0.269 OA
ATOM      7  C   UNL A   1      45.485  25.561  29.768  1.00  0.00     0.251 C 
ATOM      8  H   UNL A   1      46.969  24.522  29.005  1.00  0.00     0.163 HD
BRANCH   7   9
ATOM      9  C   UNL A   1      44.623  26.773  29.834  1.00  0.00     0.039 A 
ATOM     10  C   UNL A   1      44.660  27.758  30.821  1.00  0.00     0.014 A 
ATOM     11  C   UNL A   1      43.678  26.901  28.796  1.00  0.00     0.014 A 
ATOM     12  C   UNL A   1      43.726  28.795  30.816  1.00  0.00     0.010 A 
ATOM     13  C   UNL A   1      42.752  27.937  28.781  1.00  0.00     0.010 A 
ATOM     14  C   UNL A   1      42.753  28.866  29.814  1.00  0.00    -0.014 A 
BRANCH  14  15
ATOM     15  C   UNL A   1      41.848  30.016  29.799  1.00  0.00     0.031 A 
ATOM     16  C   UNL A   1      42.520  31.338  29.601  1.00  0.00     0.074 A 
ATOM     17  C   UNL A   1      40.503  29.910  29.805  1.00  0.00     0.049 A 
ATOM     18  N   UNL A   1      42.471  32.390  30.354  1.00  0.00    -0.248 NA
ATOM     19  C   UNL A   1      43.430  31.473  28.450  1.00  0.00     0.031 C 
ATOM     20  C   UNL A   1      39.685  28.699  29.700  1.00  0.00     0.029 A 
ATOM     21  N   UNL A   1      39.568  30.904  29.825  1.00  0.00    -0.354 N 
ATOM     22  C   UNL A   1      43.229  33.369  29.708  1.00  0.00     0.074 A 
ATOM     23  C   UNL A   1      43.878  32.720  28.598  1.00  0.00     0.031 C 
ATOM     24  C   UNL A   1      38.399  29.044  29.452  1.00  0.00     0.029 A 
ATOM     25  C   UNL A   1      38.278  30.491  29.519  1.00  0.00     0.049 A 
ATOM     26  H   UNL A   1      39.791  31.840  30.039  1.00  0.00     0.167 HD
ATOM     27  C   UNL A   1      43.135  34.689  30.032  1.00  0.00     0.037 A 
ATOM     28  C   UNL A   1      37.203  31.287  29.287  1.00  0.00     0.037 A 
ATOM     29  C   UNL A   1      42.588  34.873  31.347  1.00  0.00     0.049 A 
ATOM     30  C   UNL A   1      37.497  32.621  29.862  1.00  0.00     0.074 A 
ATOM     31  C   UNL A   1      43.001  34.534  32.621  1.00  0.00     0.029 A 
ATOM     32  N   UNL A   1      41.259  35.189  31.467  1.00  0.00    -0.354 N 
ATOM     33  N   UNL A   1      37.596  32.857  31.140  1.00  0.00    -0.248 NA
ATOM     34  C   UNL A   1      38.122  33.604  28.991  1.00  0.00     0.031 C 
ATOM     35  C   UNL A   1      41.807  34.166  33.308  1.00  0.00     0.029 A 
ATOM     36  C   UNL A   1      40.740  34.364  32.433  1.00  0.00     0.049 A 
ATOM     37  H   UNL A   1      40.771  35.876  30.959  1.00  0.00     0.167 HD
ATOM     38  C   UNL A   1      38.646  33.755  31.248  1.00  0.00     0.074 A 
ATOM     39  C   UNL A   1      38.878  34.238  29.889  1.00  0.00     0.031 C 
ATOM     40  C   UNL A   1      39.408  33.812  32.378  1.00  0.00     0.037 A 
BRANCH  27  41
ATOM     41  C   UNL A   1      43.266  35.819  29.042  1.00  0.00     0.064 A 
ATOM     42  C   UNL A   1      44.314  36.751  29.173  1.00  0.00     0.173 A 
ATOM     43  C   UNL A   1      42.236  36.184  28.147  1.00  0.00     0.173 A 
ATOM     44  F   UNL A   1      45.333  36.521  30.017  1.00  0.00    -0.203 F 
ATOM     45  C   UNL A   1      44.298  37.981  28.507  1.00  0.00     0.198 A 
ATOM     46  C   UNL A   1      42.249  37.389  27.447  1.00  0.00     0.198 A 
ATOM     47  F   UNL A   1      41.130  35.444  28.002  1.00  0.00    -0.203 F 
ATOM     48  F   UNL A   1      45.257  38.883  28.751  1.00  0.00    -0.200 F 
ATOM     49  C   UNL A   1      43.262  38.300  27.648  1.00  0.00     0.200 A 
ATOM     50  F   UNL A   1      41.225  37.689  26.635  1.00  0.00    -0.200 F 
ATOM     51  F   UNL A   1      43.215  39.500  27.053  1.00  0.00    -0.200 F 
ENDBRANCH  27  41
BRANCH  28  52
ATOM     52  C   UNL A   1      36.092  31.084  28.324  1.00  0.00     0.064 A 
ATOM     53  C   UNL A   1      35.938  29.873  27.626  1.00  0.00     0.173 A 
ATOM     54  C   UNL A   1      34.994  31.965  28.294  1.00  0.00     0.173 A 
ATOM     55  F   UNL A   1      36.915  28.955  27.647  1.00  0.00    -0.203 F 
ATOM     56  C   UNL A   1      34.749  29.555  26.960  1.00  0.00     0.198 A 
ATOM     57  C   UNL A   1      33.810  31.649  27.626  1.00  0.00     0.198 A 
ATOM     58  F   UNL A   1      35.012  33.106  28.999  1.00  0.00    -0.203 F 
ATOM     59  F   UNL A   1      34.615  28.365  26.358  1.00  0.00    -0.200 F 
ATOM     60  C   UNL A   1      33.683  30.439  26.969  1.00  0.00     0.200 A 
ATOM     61  F   UNL A   1      32.771  32.495  27.679  1.00  0.00    -0.200 F 
ATOM     62  F   UNL A   1      32.521  30.109  26.387  1.00  0.00    -0.200 F 
ENDBRANCH  28  52
BRANCH  40  63
ATOM     63  C   UNL A   1      38.936  33.041  33.580  1.00  0.00     0.064 A 
ATOM     64  C   UNL A   1      39.383  31.748  33.909  1.00  0.00     0.173 A 
ATOM     65  C   UNL A   1      38.106  33.686  34.505  1.00  0.00     0.173 A 
ATOM     66  F   UNL A   1      40.261  31.102  33.134  1.00  0.00    -0.203 F 
ATOM     67  C   UNL A   1      38.976  31.116  35.084  1.00  0.00     0.198 A 
ATOM     68  C   UNL A   1      37.732  33.069  35.695  1.00  0.00     0.198 A 
ATOM     69  F   UNL A   1      37.693  34.943  34.274  1.00  0.00    -0.203 F 
ATOM     70  F   UNL A   1      39.407  29.878  35.367  1.00  0.00    -0.200 F 
ATOM     71  C   UNL A   1      38.156  31.781  35.979  1.00  0.00     0.200 A 
ATOM     72  F   UNL A   1      36.981  33.736  36.584  1.00  0.00    -0.200 F 
ATOM     73  F   UNL A   1      37.798  31.193  37.130  1.00  0.00    -0.200 F 
ENDBRANCH  40  63
ENDBRANCH  14  15
ENDBRANCH   7   9
ENDBRANCH   4   5
ENDBRANCH   3   4
ENDBRANCH   2   3
ENDBRANCH   1   2
BRANCH   1  74
ATOM     74  N   UNL A   1      44.387  22.786  28.167  1.00  0.00    -0.352 N 
ATOM     75  C   UNL A   1      43.201  22.777  28.862  1.00  0.00     0.251 C 
ATOM     76  H   UNL A   1      45.196  22.725  28.724  1.00  0.00     0.163 HD
ATOM     77  O   UNL A   1      43.209  22.794  30.082  1.00  0.00    -0.269 OA
BRANCH  75  78
ATOM     78  C   UNL A   1      41.910  22.781  28.140  1.00  0.00     0.039 A 
ATOM     79  C   UNL A   1      41.468  21.577  27.581  1.00  0.00     0.016 A 
ATOM     80  C   UNL A   1      41.174  23.956  27.958  1.00  0.00     0.016 A 
ATOM     81  C   UNL A   1      40.256  21.529  26.892  1.00  0.00     0.029 A 
ATOM     82  C   UNL A   1      39.974  23.918  27.242  1.00  0.00     0.029 A 
ATOM     83  C   UNL A   1      39.515  22.702  26.707  1.00  0.00     0.066 A 
BRANCH  83  84
ATOM     84  N   UNL A   1      38.354  22.657  25.902  1.00  0.00    -0.220 N 
ATOM     85  C   UNL A   1      37.389  23.622  25.783  1.00  0.00     0.141 A 
ATOM     86  N   UNL A   1      38.060  21.631  25.070  1.00  0.00    -0.062 NA
ATOM     87  C   UNL A   1      36.561  23.196  24.770  1.00  0.00     0.093 A 
ATOM     88  N   UNL A   1      36.954  21.938  24.400  1.00  0.00    -0.134 NA
BRANCH  87  89
ATOM     89  C   UNL A   1      35.311  23.806  24.267  1.00  0.00     0.138 C 
BRANCH  89  90
ATOM     90  S   UNL A   1      34.573  25.259  25.020  1.00  0.00    -0.081 SA
BRANCH  90  91
ATOM     91  C   UNL A   1      32.957  25.594  24.451  1.00  0.00     0.176 A 
ATOM     92  N   UNL A   1      32.859  26.797  23.960  1.00  0.00    -0.223 NA
ATOM     93  N   UNL A   1      31.872  24.728  24.469  1.00  0.00    -0.255 N 
ATOM     94  C   UNL A   1      31.602  27.262  23.560  1.00  0.00     0.079 A 
ATOM     95  C   UNL A   1      30.639  25.359  24.704  1.00  0.00     0.266 A 
ATOM     96  C   UNL A   1      31.474  28.391  22.751  1.00  0.00     0.029 A 
ATOM     97  C   UNL A   1      30.454  26.667  24.059  1.00  0.00     0.066 A 
ATOM     98  O   UNL A   1      29.723  24.921  25.397  1.00  0.00    -0.268 OA
ATOM     99  C   UNL A   1      30.212  28.949  22.511  1.00  0.00     0.002 A 
ATOM    100  C   UNL A   1      29.192  27.242  23.877  1.00  0.00     0.016 A 
ATOM    101  C   UNL A   1      29.076  28.397  23.106  1.00  0.00     0.001 A 
BRANCH  93 102
ATOM    102  C   UNL A   1      31.885  23.285  24.315  1.00  0.00     0.051 A 
ATOM    103  C   UNL A   1      31.940  22.449  25.452  1.00  0.00     0.028 A 
ATOM    104  C   UNL A   1      31.830  22.618  23.085  1.00  0.00     0.028 A 
ATOM    105  C   UNL A   1      32.194  21.077  25.363  1.00  0.00     0.022 A 
ATOM    106  C   UNL A   1      32.153  21.255  22.978  1.00  0.00     0.022 A 
ATOM    107  C   UNL A   1      32.382  20.500  24.119  1.00  0.00     0.041 A 
ATOM    108  Cl  UNL A   1      32.913  18.875  23.994  1.00  0.00    -0.084 Cl
ENDBRANCH  93 102
ENDBRANCH  90  91
ENDBRANCH  89  90
ENDBRANCH  87  89
ENDBRANCH  83  84
ENDBRANCH  75  78
ENDBRANCH   1  74
TORSDOF 16
ENDMDL
