MODEL 1
REMARK VINA RESULT:     -11.4      0.000      0.000
REMARK SMILES O=C(NCCCCNC(=O)c1nc(/N=C/c2cccc([N+](=O)[O-])c2)n[nH]1)c1ccc(-c2c3nc(c(-c4c(F)c(F)c(F)c(F)c4F)c4ccc([nH]4)c(-c4c(F)c(F)c(F)c(F)c4F)c4nc(c(-c5c(F)c(F)c(F)c(F)c5F)c5ccc2[nH]5)C=C4)C=C3)cc1
REMARK SMILES IDX 6 1 5 2 4 3 3 4 1 5 2 6 27 8 28 9 89 10 29 11 88 12 30 13
REMARK SMILES IDX 31 14 32 15 82 16 33 17 87 18 81 19 83 20 34 21 86 22 80 23
REMARK SMILES IDX 79 24 35 26 67 27 47 28 66 29 48 30 51 31 65 32 84 33 49 34
REMARK SMILES IDX 50 35 64 37 85 38 52 39 36 40 37 41 45 42 38 43 39 44 43 45
REMARK SMILES IDX 46 46 40 47 41 48 44 49 42 50 68 51 69 52 77 53 70 54 71 55
REMARK SMILES IDX 75 56 78 57 72 58 73 59 76 60 74 61 53 62 54 63 62 64 55 65
REMARK SMILES IDX 56 66 60 67 63 68 57 69 58 70 61 71 59 72 7 73 8 74 9 75
REMARK SMILES IDX 10 77 11 78 12 79 26 80 13 81 25 82 14 84 15 85 16 86 17 87
REMARK SMILES IDX 24 88 18 89 20 90 19 91 21 92 22 93 23 94
REMARK H PARENT 3 7 83 25 51 36 8 76 26 83
REMARK Flexibility Score: inf
ROOT
ATOM      1  C   UNL A   1      41.779  19.930  27.517  1.00  0.00     0.023 C 
ENDROOT
BRANCH   1   2
ATOM      2  C   UNL A   1      40.825  21.120  27.481  1.00  0.00     0.023 C 
BRANCH   2   3
ATOM      3  C   UNL A   1      40.777  21.864  26.154  1.00  0.00     0.116 C 
BRANCH   3   4
ATOM      4  N   UNL A   1      39.429  22.237  25.749  1.00  0.00    -0.352 N 
ATOM      5  O   UNL A   1      37.520  23.444  25.741  1.00  0.00    -0.269 OA
ATOM      6  C   UNL A   1      38.695  23.352  26.080  1.00  0.00     0.251 C 
ATOM      7  H   UNL A   1      38.977  21.598  25.152  1.00  0.00     0.163 HD
BRANCH   6   8
ATOM      8  C   UNL A   1      39.318  24.426  26.885  1.00  0.00     0.039 A 
ATOM      9  C   UNL A   1      39.119  24.485  28.264  1.00  0.00     0.014 A 
ATOM     10  C   UNL A   1      40.075  25.409  26.243  1.00  0.00     0.014 A 
ATOM     11  C   UNL A   1      39.503  25.621  28.965  1.00  0.00     0.010 A 
ATOM     12  C   UNL A   1      40.557  26.499  26.973  1.00  0.00     0.010 A 
ATOM     13  C   UNL A   1      40.229  26.642  28.330  1.00  0.00    -0.014 A 
BRANCH  13  14
ATOM     14  C   UNL A   1      40.641  27.835  29.117  1.00  0.00     0.031 A 
ATOM     15  C   UNL A   1      42.053  27.989  29.616  1.00  0.00     0.074 A 
ATOM     16  C   UNL A   1      39.738  28.808  29.345  1.00  0.00     0.049 A 
ATOM     17  N   UNL A   1      42.591  28.984  30.280  1.00  0.00    -0.248 NA
ATOM     18  C   UNL A   1      42.983  26.882  29.345  1.00  0.00     0.031 C 
ATOM     19  C   UNL A   1      38.338  28.771  28.917  1.00  0.00     0.029 A 
ATOM     20  N   UNL A   1      39.862  30.023  29.968  1.00  0.00    -0.354 N 
ATOM     21  C   UNL A   1      43.907  28.612  30.528  1.00  0.00     0.074 A 
ATOM     22  C   UNL A   1      44.080  27.289  29.969  1.00  0.00     0.031 C 
ATOM     23  C   UNL A   1      37.749  29.931  29.238  1.00  0.00     0.029 A 
ATOM     24  C   UNL A   1      38.708  30.766  29.954  1.00  0.00     0.049 A 
ATOM     25  H   UNL A   1      40.698  30.332  30.384  1.00  0.00     0.167 HD
ATOM     26  C   UNL A   1      44.882  29.314  31.156  1.00  0.00     0.037 A 
ATOM     27  C   UNL A   1      38.443  31.978  30.472  1.00  0.00     0.037 A 
ATOM     28  C   UNL A   1      44.707  30.641  31.695  1.00  0.00     0.049 A 
ATOM     29  C   UNL A   1      39.536  32.721  31.187  1.00  0.00     0.074 A 
ATOM     30  C   UNL A   1      45.645  31.454  32.309  1.00  0.00     0.029 A 
ATOM     31  N   UNL A   1      43.511  31.347  31.693  1.00  0.00    -0.354 N 
ATOM     32  N   UNL A   1      40.786  32.378  31.374  1.00  0.00    -0.248 NA
ATOM     33  C   UNL A   1      39.175  34.023  31.762  1.00  0.00     0.031 C 
ATOM     34  C   UNL A   1      45.002  32.621  32.735  1.00  0.00     0.029 A 
ATOM     35  C   UNL A   1      43.681  32.571  32.323  1.00  0.00     0.049 A 
ATOM     36  H   UNL A   1      42.667  31.024  31.303  1.00  0.00     0.167 HD
ATOM     37  C   UNL A   1      41.372  33.436  32.055  1.00  0.00     0.074 A 
ATOM     38  C   UNL A   1      40.342  34.437  32.236  1.00  0.00     0.031 C 
ATOM     39  C   UNL A   1      42.652  33.567  32.486  1.00  0.00     0.037 A 
BRANCH  26  40
ATOM     40  C   UNL A   1      46.222  28.653  31.327  1.00  0.00     0.064 A 
ATOM     41  C   UNL A   1      46.509  27.822  32.422  1.00  0.00     0.173 A 
ATOM     42  C   UNL A   1      47.224  28.824  30.358  1.00  0.00     0.173 A 
ATOM     43  F   UNL A   1      45.593  27.628  33.382  1.00  0.00    -0.203 F 
ATOM     44  C   UNL A   1      47.758  27.219  32.556  1.00  0.00     0.198 A 
ATOM     45  C   UNL A   1      48.458  28.192  30.479  1.00  0.00     0.198 A 
ATOM     46  F   UNL A   1      47.001  29.599  29.285  1.00  0.00    -0.203 F 
ATOM     47  F   UNL A   1      48.027  26.475  33.639  1.00  0.00    -0.200 F 
ATOM     48  C   UNL A   1      48.729  27.398  31.582  1.00  0.00     0.200 A 
ATOM     49  F   UNL A   1      49.388  28.353  29.527  1.00  0.00    -0.200 F 
ATOM     50  F   UNL A   1      49.927  26.812  31.711  1.00  0.00    -0.200 F 
ENDBRANCH  26  40
BRANCH  27  51
ATOM     51  C   UNL A   1      37.088  32.570  30.318  1.00  0.00     0.064 A 
ATOM     52  C   UNL A   1      36.124  32.432  31.324  1.00  0.00     0.173 A 
ATOM     53  C   UNL A   1      36.732  33.286  29.165  1.00  0.00     0.173 A 
ATOM     54  F   UNL A   1      36.411  31.742  32.438  1.00  0.00    -0.203 F 
ATOM     55  C   UNL A   1      34.846  32.968  31.174  1.00  0.00     0.198 A 
ATOM     56  C   UNL A   1      35.466  33.851  29.032  1.00  0.00     0.198 A 
ATOM     57  F   UNL A   1      37.621  33.454  28.176  1.00  0.00    -0.203 F 
ATOM     58  F   UNL A   1      33.927  32.779  32.131  1.00  0.00    -0.200 F 
ATOM     59  C   UNL A   1      34.521  33.683  30.032  1.00  0.00     0.200 A 
ATOM     60  F   UNL A   1      35.163  34.558  27.934  1.00  0.00    -0.200 F 
ATOM     61  F   UNL A   1      33.295  34.203  29.891  1.00  0.00    -0.200 F 
ENDBRANCH  27  51
BRANCH  39  62
ATOM     62  C   UNL A   1      43.025  34.866  33.142  1.00  0.00     0.064 A 
ATOM     63  C   UNL A   1      43.469  35.973  32.403  1.00  0.00     0.173 A 
ATOM     64  C   UNL A   1      42.921  35.007  34.535  1.00  0.00     0.173 A 
ATOM     65  F   UNL A   1      43.603  35.887  31.071  1.00  0.00    -0.203 F 
ATOM     66  C   UNL A   1      43.833  37.159  33.039  1.00  0.00     0.198 A 
ATOM     67  C   UNL A   1      43.249  36.206  35.162  1.00  0.00     0.198 A 
ATOM     68  F   UNL A   1      42.495  33.983  35.289  1.00  0.00    -0.203 F 
ATOM     69  F   UNL A   1      44.318  38.181  32.319  1.00  0.00    -0.200 F 
ATOM     70  C   UNL A   1      43.716  37.276  34.416  1.00  0.00     0.200 A 
ATOM     71  F   UNL A   1      43.120  36.322  36.491  1.00  0.00    -0.200 F 
ATOM     72  F   UNL A   1      44.063  38.418  35.024  1.00  0.00    -0.200 F 
ENDBRANCH  39  62
ENDBRANCH  13  14
ENDBRANCH   6   8
ENDBRANCH   3   4
ENDBRANCH   2   3
ENDBRANCH   1   2
BRANCH   1  73
ATOM     73  C   UNL A   1      42.037  19.278  26.159  1.00  0.00     0.116 C 
BRANCH  73  74
ATOM     74  N   UNL A   1      43.324  18.600  26.126  1.00  0.00    -0.349 N 
ATOM     75  C   UNL A   1      44.457  18.945  25.427  1.00  0.00     0.288 C 
ATOM     76  H   UNL A   1      43.392  17.786  26.677  1.00  0.00     0.163 HD
ATOM     77  O   UNL A   1      45.358  18.107  25.335  1.00  0.00    -0.266 OA
BRANCH  75  78
ATOM     78  C   UNL A   1      44.548  20.239  24.808  1.00  0.00     0.216 A 
ATOM     79  N   UNL A   1      44.636  21.407  25.416  1.00  0.00    -0.185 NA
ATOM     80  N   UNL A   1      44.582  20.448  23.462  1.00  0.00    -0.253 N 
ATOM     81  C   UNL A   1      44.635  22.299  24.386  1.00  0.00     0.268 A 
ATOM     82  N   UNL A   1      44.596  21.758  23.170  1.00  0.00    -0.132 NA
ATOM     83  H   UNL A   1      44.595  19.730  22.789  1.00  0.00     0.192 HD
BRANCH  81  84
ATOM     84  N   UNL A   1      44.571  23.681  24.522  1.00  0.00    -0.218 NA
ATOM     85  C   UNL A   1      45.132  24.088  25.612  1.00  0.00     0.123 C 
BRANCH  85  86
ATOM     86  C   UNL A   1      45.137  25.520  25.971  1.00  0.00    -0.000 A 
ATOM     87  C   UNL A   1      46.256  26.051  26.622  1.00  0.00     0.010 A 
ATOM     88  C   UNL A   1      44.040  26.330  25.665  1.00  0.00     0.095 A 
ATOM     89  C   UNL A   1      46.291  27.408  26.951  1.00  0.00     0.008 A 
ATOM     90  C   UNL A   1      44.078  27.684  26.011  1.00  0.00     0.270 A 
ATOM     91  C   UNL A   1      45.204  28.229  26.646  1.00  0.00     0.085 A 
BRANCH  90  92
ATOM     92  N   UNL A   1      42.925  28.543  25.713  1.00  0.00     0.062 N 
ATOM     93  O   UNL A   1      42.328  28.352  24.644  1.00  0.00    -0.258 OA
ATOM     94  O   UNL A   1      42.623  29.413  26.540  1.00  0.00    -0.258 OA
ENDBRANCH  90  92
ENDBRANCH  85  86
ENDBRANCH  81  84
ENDBRANCH  75  78
ENDBRANCH  73  74
ENDBRANCH   1  73
TORSDOF 14
ENDMDL
MODEL 2
REMARK VINA RESULT:     -11.2      0.358      1.635
REMARK SMILES O=C(NCCCCNC(=O)c1nc(/N=C/c2cccc([N+](=O)[O-])c2)n[nH]1)c1ccc(-c2c3nc(c(-c4c(F)c(F)c(F)c(F)c4F)c4ccc([nH]4)c(-c4c(F)c(F)c(F)c(F)c4F)c4nc(c(-c5c(F)c(F)c(F)c(F)c5F)c5ccc2[nH]5)C=C4)C=C3)cc1
REMARK SMILES IDX 6 1 5 2 4 3 3 4 1 5 2 6 27 8 28 9 89 10 29 11 88 12 30 13
REMARK SMILES IDX 31 14 32 15 82 16 33 17 87 18 81 19 83 20 34 21 86 22 80 23
REMARK SMILES IDX 79 24 35 26 67 27 47 28 66 29 48 30 51 31 65 32 84 33 49 34
REMARK SMILES IDX 50 35 64 37 85 38 52 39 36 40 37 41 45 42 38 43 39 44 43 45
REMARK SMILES IDX 46 46 40 47 41 48 44 49 42 50 68 51 69 52 77 53 70 54 71 55
REMARK SMILES IDX 75 56 78 57 72 58 73 59 76 60 74 61 53 62 54 63 62 64 55 65
REMARK SMILES IDX 56 66 60 67 63 68 57 69 58 70 61 71 59 72 7 73 8 74 9 75
REMARK SMILES IDX 10 77 11 78 12 79 26 80 13 81 25 82 14 84 15 85 16 86 17 87
REMARK SMILES IDX 24 88 18 89 20 90 19 91 21 92 22 93 23 94
REMARK H PARENT 3 7 83 25 51 36 8 76 26 83
REMARK Flexibility Score: inf
ROOT
ATOM      1  C   UNL A   1      42.208  19.926  26.721  1.00  0.00     0.023 C 
ENDROOT
BRANCH   1   2
ATOM      2  C   UNL A   1      41.481  21.120  26.112  1.00  0.00     0.023 C 
BRANCH   2   3
ATOM      3  C   UNL A   1      40.285  21.620  26.912  1.00  0.00     0.116 C 
BRANCH   3   4
ATOM      4  N   UNL A   1      39.222  22.168  26.081  1.00  0.00    -0.352 N 
ATOM      5  O   UNL A   1      37.739  23.706  25.351  1.00  0.00    -0.269 OA
ATOM      6  C   UNL A   1      38.726  23.449  26.031  1.00  0.00     0.251 C 
ATOM      7  H   UNL A   1      38.798  21.528  25.466  1.00  0.00     0.163 HD
BRANCH   6   8
ATOM      8  C   UNL A   1      39.363  24.513  26.838  1.00  0.00     0.039 A 
ATOM      9  C   UNL A   1      39.108  24.617  28.205  1.00  0.00     0.014 A 
ATOM     10  C   UNL A   1      40.194  25.443  26.208  1.00  0.00     0.014 A 
ATOM     11  C   UNL A   1      39.514  25.751  28.895  1.00  0.00     0.010 A 
ATOM     12  C   UNL A   1      40.695  26.528  26.932  1.00  0.00     0.010 A 
ATOM     13  C   UNL A   1      40.315  26.721  28.269  1.00  0.00    -0.014 A 
BRANCH  13  14
ATOM     14  C   UNL A   1      40.749  27.913  29.045  1.00  0.00     0.031 A 
ATOM     15  C   UNL A   1      42.178  28.075  29.490  1.00  0.00     0.074 A 
ATOM     16  C   UNL A   1      39.849  28.878  29.313  1.00  0.00     0.049 A 
ATOM     17  N   UNL A   1      42.734  29.071  30.138  1.00  0.00    -0.248 NA
ATOM     18  C   UNL A   1      43.105  26.977  29.178  1.00  0.00     0.031 C 
ATOM     19  C   UNL A   1      38.433  28.833  28.939  1.00  0.00     0.029 A 
ATOM     20  N   UNL A   1      39.988  30.092  29.936  1.00  0.00    -0.354 N 
ATOM     21  C   UNL A   1      44.062  28.708  30.332  1.00  0.00     0.074 A 
ATOM     22  C   UNL A   1      44.222  27.388  29.761  1.00  0.00     0.031 C 
ATOM     23  C   UNL A   1      37.849  29.988  29.288  1.00  0.00     0.029 A 
ATOM     24  C   UNL A   1      38.829  30.826  29.971  1.00  0.00     0.049 A 
ATOM     25  H   UNL A   1      40.837  30.405  30.321  1.00  0.00     0.167 HD
ATOM     26  C   UNL A   1      45.055  29.415  30.926  1.00  0.00     0.037 A 
ATOM     27  C   UNL A   1      38.575  32.034  30.504  1.00  0.00     0.037 A 
ATOM     28  C   UNL A   1      44.892  30.737  31.477  1.00  0.00     0.049 A 
ATOM     29  C   UNL A   1      39.690  32.782  31.181  1.00  0.00     0.074 A 
ATOM     30  C   UNL A   1      45.847  31.554  32.059  1.00  0.00     0.029 A 
ATOM     31  N   UNL A   1      43.691  31.434  31.525  1.00  0.00    -0.354 N 
ATOM     32  N   UNL A   1      40.949  32.447  31.317  1.00  0.00    -0.248 NA
ATOM     33  C   UNL A   1      39.342  34.078  31.775  1.00  0.00     0.031 C 
ATOM     34  C   UNL A   1      45.213  32.715  32.515  1.00  0.00     0.029 A 
ATOM     35  C   UNL A   1      43.877  32.657  32.154  1.00  0.00     0.049 A 
ATOM     36  H   UNL A   1      42.835  31.107  31.167  1.00  0.00     0.167 HD
ATOM     37  C   UNL A   1      41.554  33.506  31.980  1.00  0.00     0.074 A 
ATOM     38  C   UNL A   1      40.523  34.498  32.205  1.00  0.00     0.031 C 
ATOM     39  C   UNL A   1      42.848  33.644  32.362  1.00  0.00     0.037 A 
BRANCH  26  40
ATOM     40  C   UNL A   1      46.405  28.762  31.041  1.00  0.00     0.064 A 
ATOM     41  C   UNL A   1      47.436  29.016  30.123  1.00  0.00     0.173 A 
ATOM     42  C   UNL A   1      46.684  27.897  32.112  1.00  0.00     0.173 A 
ATOM     43  F   UNL A   1      47.225  29.828  29.077  1.00  0.00    -0.203 F 
ATOM     44  C   UNL A   1      48.680  28.400  30.253  1.00  0.00     0.198 A 
ATOM     45  C   UNL A   1      47.939  27.312  32.257  1.00  0.00     0.198 A 
ATOM     46  F   UNL A   1      45.739  27.627  33.026  1.00  0.00    -0.203 F 
ATOM     47  F   UNL A   1      49.631  28.614  29.332  1.00  0.00    -0.200 F 
ATOM     48  C   UNL A   1      48.933  27.555  31.323  1.00  0.00     0.200 A 
ATOM     49  F   UNL A   1      48.185  26.509  33.303  1.00  0.00    -0.200 F 
ATOM     50  F   UNL A   1      50.131  26.969  31.449  1.00  0.00    -0.200 F 
ENDBRANCH  26  40
BRANCH  27  51
ATOM     51  C   UNL A   1      37.211  32.616  30.406  1.00  0.00     0.064 A 
ATOM     52  C   UNL A   1      36.848  33.417  29.316  1.00  0.00     0.173 A 
ATOM     53  C   UNL A   1      36.245  32.382  31.395  1.00  0.00     0.173 A 
ATOM     54  F   UNL A   1      37.742  33.684  28.352  1.00  0.00    -0.203 F 
ATOM     55  C   UNL A   1      35.576  33.982  29.231  1.00  0.00     0.198 A 
ATOM     56  C   UNL A   1      34.964  32.917  31.291  1.00  0.00     0.198 A 
ATOM     57  F   UNL A   1      36.539  31.614  32.455  1.00  0.00    -0.203 F 
ATOM     58  F   UNL A   1      35.270  34.784  28.202  1.00  0.00    -0.200 F 
ATOM     59  C   UNL A   1      34.634  33.725  30.214  1.00  0.00     0.200 A 
ATOM     60  F   UNL A   1      34.050  32.650  32.235  1.00  0.00    -0.200 F 
ATOM     61  F   UNL A   1      33.409  34.262  30.128  1.00  0.00    -0.200 F 
ENDBRANCH  27  51
BRANCH  39  62
ATOM     62  C   UNL A   1      43.237  34.944  33.009  1.00  0.00     0.064 A 
ATOM     63  C   UNL A   1      43.610  36.068  32.257  1.00  0.00     0.173 A 
ATOM     64  C   UNL A   1      43.221  35.066  34.407  1.00  0.00     0.173 A 
ATOM     65  F   UNL A   1      43.660  36.000  30.918  1.00  0.00    -0.203 F 
ATOM     66  C   UNL A   1      43.991  37.253  32.883  1.00  0.00     0.198 A 
ATOM     67  C   UNL A   1      43.564  36.264  35.027  1.00  0.00     0.198 A 
ATOM     68  F   UNL A   1      42.864  34.025  35.174  1.00  0.00    -0.203 F 
ATOM     69  F   UNL A   1      44.408  38.293  32.147  1.00  0.00    -0.200 F 
ATOM     70  C   UNL A   1      43.961  37.352  34.266  1.00  0.00     0.200 A 
ATOM     71  F   UNL A   1      43.519  36.362  36.363  1.00  0.00    -0.200 F 
ATOM     72  F   UNL A   1      44.324  38.494  34.865  1.00  0.00    -0.200 F 
ENDBRANCH  39  62
ENDBRANCH  13  14
ENDBRANCH   6   8
ENDBRANCH   3   4
ENDBRANCH   2   3
ENDBRANCH   1   2
BRANCH   1  73
ATOM     73  C   UNL A   1      42.592  18.835  25.722  1.00  0.00     0.116 C 
BRANCH  73  74
ATOM     74  N   UNL A   1      43.996  18.471  25.838  1.00  0.00    -0.349 N 
ATOM     75  C   UNL A   1      45.089  19.080  25.268  1.00  0.00     0.288 C 
ATOM     76  H   UNL A   1      44.188  17.685  26.399  1.00  0.00     0.163 HD
ATOM     77  O   UNL A   1      46.164  18.473  25.284  1.00  0.00    -0.266 OA
BRANCH  75  78
ATOM     78  C   UNL A   1      44.948  20.372  24.654  1.00  0.00     0.216 A 
ATOM     79  N   UNL A   1      45.115  21.548  25.229  1.00  0.00    -0.185 NA
ATOM     80  N   UNL A   1      44.634  20.571  23.343  1.00  0.00    -0.253 N 
ATOM     81  C   UNL A   1      44.806  22.430  24.237  1.00  0.00     0.268 A 
ATOM     82  N   UNL A   1      44.498  21.877  23.064  1.00  0.00    -0.132 NA
ATOM     83  H   UNL A   1      44.523  19.849  22.683  1.00  0.00     0.192 HD
BRANCH  81  84
ATOM     84  N   UNL A   1      44.696  23.807  24.393  1.00  0.00    -0.218 NA
ATOM     85  C   UNL A   1      45.349  24.232  25.423  1.00  0.00     0.123 C 
BRANCH  85  86
ATOM     86  C   UNL A   1      45.328  25.661  25.795  1.00  0.00    -0.000 A 
ATOM     87  C   UNL A   1      46.451  26.214  26.422  1.00  0.00     0.010 A 
ATOM     88  C   UNL A   1      44.204  26.446  25.524  1.00  0.00     0.095 A 
ATOM     89  C   UNL A   1      46.461  27.568  26.762  1.00  0.00     0.008 A 
ATOM     90  C   UNL A   1      44.218  27.798  25.881  1.00  0.00     0.270 A 
ATOM     91  C   UNL A   1      45.347  28.365  26.492  1.00  0.00     0.085 A 
BRANCH  90  92
ATOM     92  N   UNL A   1      43.038  28.631  25.619  1.00  0.00     0.062 N 
ATOM     93  O   UNL A   1      42.346  28.352  24.630  1.00  0.00    -0.258 OA
ATOM     94  O   UNL A   1      42.808  29.567  26.396  1.00  0.00    -0.258 OA
ENDBRANCH  90  92
ENDBRANCH  85  86
ENDBRANCH  81  84
ENDBRANCH  75  78
ENDBRANCH  73  74
ENDBRANCH   1  73
TORSDOF 14
ENDMDL
MODEL 3
REMARK VINA RESULT:     -11.2      3.882     11.160
REMARK SMILES O=C(NCCCCNC(=O)c1nc(/N=C/c2cccc([N+](=O)[O-])c2)n[nH]1)c1ccc(-c2c3nc(c(-c4c(F)c(F)c(F)c(F)c4F)c4ccc([nH]4)c(-c4c(F)c(F)c(F)c(F)c4F)c4nc(c(-c5c(F)c(F)c(F)c(F)c5F)c5ccc2[nH]5)C=C4)C=C3)cc1
REMARK SMILES IDX 6 1 5 2 4 3 3 4 1 5 2 6 27 8 28 9 89 10 29 11 88 12 30 13
REMARK SMILES IDX 31 14 32 15 82 16 33 17 87 18 81 19 83 20 34 21 86 22 80 23
REMARK SMILES IDX 79 24 35 26 67 27 47 28 66 29 48 30 51 31 65 32 84 33 49 34
REMARK SMILES IDX 50 35 64 37 85 38 52 39 36 40 37 41 45 42 38 43 39 44 43 45
REMARK SMILES IDX 46 46 40 47 41 48 44 49 42 50 68 51 69 52 77 53 70 54 71 55
REMARK SMILES IDX 75 56 78 57 72 58 73 59 76 60 74 61 53 62 54 63 62 64 55 65
REMARK SMILES IDX 56 66 60 67 63 68 57 69 58 70 61 71 59 72 7 73 8 74 9 75
REMARK SMILES IDX 10 77 11 78 12 79 26 80 13 81 25 82 14 84 15 85 16 86 17 87
REMARK SMILES IDX 24 88 18 89 20 90 19 91 21 92 22 93 23 94
REMARK H PARENT 3 7 83 25 51 36 8 76 26 83
REMARK Flexibility Score: inf
ROOT
ATOM      1  C   UNL A   1      34.631  35.098  28.088  1.00  0.00     0.023 C 
ENDROOT
BRANCH   1   2
ATOM      2  C   UNL A   1      35.304  33.731  28.008  1.00  0.00     0.023 C 
BRANCH   2   3
ATOM      3  C   UNL A   1      34.833  32.723  29.048  1.00  0.00     0.116 C 
BRANCH   3   4
ATOM      4  N   UNL A   1      34.012  31.658  28.489  1.00  0.00    -0.352 N 
ATOM      5  O   UNL A   1      33.566  29.675  27.505  1.00  0.00    -0.269 OA
ATOM      6  C   UNL A   1      34.379  30.403  28.065  1.00  0.00     0.251 C 
ATOM      7  H   UNL A   1      33.054  31.868  28.402  1.00  0.00     0.163 HD
BRANCH   6   8
ATOM      8  C   UNL A   1      35.775  29.947  28.249  1.00  0.00     0.039 A 
ATOM      9  C   UNL A   1      36.190  29.405  29.464  1.00  0.00     0.014 A 
ATOM     10  C   UNL A   1      36.688  30.106  27.204  1.00  0.00     0.014 A 
ATOM     11  C   UNL A   1      37.544  29.208  29.702  1.00  0.00     0.010 A 
ATOM     12  C   UNL A   1      38.036  29.802  27.409  1.00  0.00     0.010 A 
ATOM     13  C   UNL A   1      38.486  29.402  28.678  1.00  0.00    -0.014 A 
BRANCH  13  14
ATOM     14  C   UNL A   1      39.925  29.162  28.962  1.00  0.00     0.031 A 
ATOM     15  C   UNL A   1      40.731  30.136  29.779  1.00  0.00     0.074 A 
ATOM     16  C   UNL A   1      40.498  28.030  28.509  1.00  0.00     0.049 A 
ATOM     17  N   UNL A   1      41.985  30.060  30.156  1.00  0.00    -0.248 NA
ATOM     18  C   UNL A   1      40.048  31.358  30.228  1.00  0.00     0.031 C 
ATOM     19  C   UNL A   1      39.822  27.012  27.701  1.00  0.00     0.029 A 
ATOM     20  N   UNL A   1      41.763  27.531  28.680  1.00  0.00    -0.354 N 
ATOM     21  C   UNL A   1      42.246  31.231  30.858  1.00  0.00     0.074 A 
ATOM     22  C   UNL A   1      41.029  32.014  30.832  1.00  0.00     0.031 C 
ATOM     23  C   UNL A   1      40.660  25.986  27.496  1.00  0.00     0.029 A 
ATOM     24  C   UNL A   1      41.951  26.302  28.097  1.00  0.00     0.049 A 
ATOM     25  H   UNL A   1      42.469  28.008  29.174  1.00  0.00     0.167 HD
ATOM     26  C   UNL A   1      43.392  31.612  31.474  1.00  0.00     0.037 A 
ATOM     27  C   UNL A   1      43.044  25.521  28.038  1.00  0.00     0.037 A 
ATOM     28  C   UNL A   1      44.596  30.817  31.511  1.00  0.00     0.049 A 
ATOM     29  C   UNL A   1      44.308  25.982  28.707  1.00  0.00     0.074 A 
ATOM     30  C   UNL A   1      45.794  31.095  32.147  1.00  0.00     0.029 A 
ATOM     31  N   UNL A   1      44.758  29.593  30.877  1.00  0.00    -0.354 N 
ATOM     32  N   UNL A   1      44.527  27.068  29.406  1.00  0.00    -0.248 NA
ATOM     33  C   UNL A   1      45.476  25.103  28.577  1.00  0.00     0.031 C 
ATOM     34  C   UNL A   1      46.699  30.072  31.845  1.00  0.00     0.029 A 
ATOM     35  C   UNL A   1      46.045  29.119  31.082  1.00  0.00     0.049 A 
ATOM     36  H   UNL A   1      44.061  29.131  30.358  1.00  0.00     0.167 HD
ATOM     37  C   UNL A   1      45.846  26.987  29.831  1.00  0.00     0.074 A 
ATOM     38  C   UNL A   1      46.371  25.738  29.321  1.00  0.00     0.031 C 
ATOM     39  C   UNL A   1      46.555  27.867  30.581  1.00  0.00     0.037 A 
BRANCH  26  40
ATOM     40  C   UNL A   1      43.416  32.963  32.135  1.00  0.00     0.064 A 
ATOM     41  C   UNL A   1      43.280  33.116  33.524  1.00  0.00     0.173 A 
ATOM     42  C   UNL A   1      43.616  34.122  31.368  1.00  0.00     0.173 A 
ATOM     43  F   UNL A   1      43.079  32.045  34.305  1.00  0.00    -0.203 F 
ATOM     44  C   UNL A   1      43.308  34.378  34.112  1.00  0.00     0.198 A 
ATOM     45  C   UNL A   1      43.678  35.379  31.964  1.00  0.00     0.198 A 
ATOM     46  F   UNL A   1      43.763  34.035  30.037  1.00  0.00    -0.203 F 
ATOM     47  F   UNL A   1      43.119  34.504  35.434  1.00  0.00    -0.200 F 
ATOM     48  C   UNL A   1      43.514  35.508  33.334  1.00  0.00     0.200 A 
ATOM     49  F   UNL A   1      43.895  36.466  31.211  1.00  0.00    -0.200 F 
ATOM     50  F   UNL A   1      43.546  36.720  33.903  1.00  0.00    -0.200 F 
ENDBRANCH  26  40
BRANCH  27  51
ATOM     51  C   UNL A   1      42.983  24.214  27.332  1.00  0.00     0.064 A 
ATOM     52  C   UNL A   1      42.545  23.059  27.992  1.00  0.00     0.173 A 
ATOM     53  C   UNL A   1      43.358  24.095  25.986  1.00  0.00     0.173 A 
ATOM     54  F   UNL A   1      42.191  23.119  29.285  1.00  0.00    -0.203 F 
ATOM     55  C   UNL A   1      42.507  21.828  27.339  1.00  0.00     0.198 A 
ATOM     56  C   UNL A   1      43.286  22.872  25.324  1.00  0.00     0.198 A 
ATOM     57  F   UNL A   1      43.777  25.173  25.306  1.00  0.00    -0.203 F 
ATOM     58  F   UNL A   1      42.130  20.730  28.008  1.00  0.00    -0.200 F 
ATOM     59  C   UNL A   1      42.870  21.737  26.005  1.00  0.00     0.200 A 
ATOM     60  F   UNL A   1      43.619  22.792  24.029  1.00  0.00    -0.200 F 
ATOM     61  F   UNL A   1      42.826  20.556  25.375  1.00  0.00    -0.200 F 
ENDBRANCH  27  51
BRANCH  39  62
ATOM     62  C   UNL A   1      47.960  27.479  30.949  1.00  0.00     0.064 A 
ATOM     63  C   UNL A   1      48.249  26.730  32.099  1.00  0.00     0.173 A 
ATOM     64  C   UNL A   1      49.032  27.855  30.124  1.00  0.00     0.173 A 
ATOM     65  F   UNL A   1      47.264  26.360  32.930  1.00  0.00    -0.203 F 
ATOM     66  C   UNL A   1      49.563  26.405  32.429  1.00  0.00     0.198 A 
ATOM     67  C   UNL A   1      50.339  27.495  30.437  1.00  0.00     0.198 A 
ATOM     68  F   UNL A   1      48.811  28.566  29.008  1.00  0.00    -0.203 F 
ATOM     69  F   UNL A   1      49.821  25.746  33.568  1.00  0.00    -0.200 F 
ATOM     70  C   UNL A   1      50.606  26.782  31.596  1.00  0.00     0.200 A 
ATOM     71  F   UNL A   1      51.343  27.847  29.622  1.00  0.00    -0.200 F 
ATOM     72  F   UNL A   1      51.868  26.465  31.915  1.00  0.00    -0.200 F 
ENDBRANCH  39  62
ENDBRANCH  13  14
ENDBRANCH   6   8
ENDBRANCH   3   4
ENDBRANCH   2   3
ENDBRANCH   1   2
BRANCH   1  73
ATOM     73  C   UNL A   1      33.332  35.124  28.893  1.00  0.00     0.116 C 
BRANCH  73  74
ATOM     74  N   UNL A   1      33.243  36.310  29.730  1.00  0.00    -0.349 N 
ATOM     75  C   UNL A   1      33.230  36.392  31.103  1.00  0.00     0.288 C 
ATOM     76  H   UNL A   1      33.185  37.168  29.250  1.00  0.00     0.163 HD
ATOM     77  O   UNL A   1      32.898  37.465  31.616  1.00  0.00    -0.266 OA
BRANCH  75  78
ATOM     78  C   UNL A   1      33.571  35.239  31.891  1.00  0.00     0.216 A 
ATOM     79  N   UNL A   1      34.751  34.655  31.977  1.00  0.00    -0.185 NA
ATOM     80  N   UNL A   1      32.700  34.579  32.705  1.00  0.00    -0.253 N 
ATOM     81  C   UNL A   1      34.517  33.591  32.795  1.00  0.00     0.268 A 
ATOM     82  N   UNL A   1      33.272  33.499  33.260  1.00  0.00    -0.132 NA
ATOM     83  H   UNL A   1      31.770  34.859  32.866  1.00  0.00     0.192 HD
BRANCH  81  84
ATOM     84  N   UNL A   1      35.429  32.581  33.079  1.00  0.00    -0.218 NA
ATOM     85  C   UNL A   1      36.630  33.037  33.213  1.00  0.00     0.123 C 
BRANCH  85  86
ATOM     86  C   UNL A   1      37.760  32.123  33.476  1.00  0.00    -0.000 A 
ATOM     87  C   UNL A   1      38.888  32.615  34.142  1.00  0.00     0.010 A 
ATOM     88  C   UNL A   1      37.701  30.789  33.063  1.00  0.00     0.095 A 
ATOM     89  C   UNL A   1      39.958  31.763  34.420  1.00  0.00     0.008 A 
ATOM     90  C   UNL A   1      38.785  29.946  33.333  1.00  0.00     0.270 A 
ATOM     91  C   UNL A   1      39.911  30.427  34.019  1.00  0.00     0.085 A 
BRANCH  90  92
ATOM     92  N   UNL A   1      38.746  28.547  32.890  1.00  0.00     0.062 N 
ATOM     93  O   UNL A   1      39.795  28.054  32.454  1.00  0.00    -0.258 OA
ATOM     94  O   UNL A   1      37.666  27.946  32.968  1.00  0.00    -0.258 OA
ENDBRANCH  90  92
ENDBRANCH  85  86
ENDBRANCH  81  84
ENDBRANCH  75  78
ENDBRANCH  73  74
ENDBRANCH   1  73
TORSDOF 14
ENDMDL
