MODEL 1
REMARK VINA RESULT:     -11.0      0.000      0.000
REMARK SMILES CCN(C(=O)C[NH2+][C@@](C)(C(=O)NCCCCNC(=O)c1ccc(-c2c3nc(c(-c4c(F)c(F)c(F)c(F)c4F)c4ccc([nH]4)c(-c4c(F)c(F)c(F)c(F)c4F)c4nc(c(-c5c(F)c(F)c(F)c(F)c5F)c5ccc2[nH]5)C=C4)C=C3)cc1)C(F)(F)F)C1CC1
REMARK SMILES IDX 13 1 12 2 10 3 11 4 8 6 9 7 7 8 6 11 4 12 5 13 3 14 2 15
REMARK SMILES IDX 1 16 87 17 88 18 89 19 83 20 84 21 85 22 86 23 14 24 15 25
REMARK SMILES IDX 16 26 17 27 18 28 19 30 20 31 21 32 82 33 22 34 81 35 23 36
REMARK SMILES IDX 24 37 25 38 75 39 26 40 80 41 74 42 76 43 27 44 79 45 73 46
REMARK SMILES IDX 72 47 28 49 60 50 40 51 59 52 41 53 44 54 58 55 77 56 42 57
REMARK SMILES IDX 43 58 57 60 78 61 45 62 29 63 30 64 38 65 31 66 32 67 36 68
REMARK SMILES IDX 39 69 33 70 34 71 37 72 35 73 61 74 62 75 70 76 63 77 64 78
REMARK SMILES IDX 68 79 71 80 65 81 66 82 69 83 67 84 46 85 47 86 55 87 48 88
REMARK SMILES IDX 49 89 53 90 56 91 50 92 51 93 54 94 52 95
REMARK H PARENT 12 5 7 9 7 10 17 29 76 48 44 59
REMARK Flexibility Score: inf
ROOT
ATOM      1  C   UNL A   1      32.480  29.862  25.654  1.00  0.00     0.116 C 
ENDROOT
BRANCH   1   2
ATOM      2  N   UNL A   1      31.662  29.848  24.455  1.00  0.00    -0.350 N 
ATOM      3  C   UNL A   1      31.359  28.875  23.540  1.00  0.00     0.290 C 
ATOM      4  O   UNL A   1      30.664  29.252  22.592  1.00  0.00    -0.267 OA
ATOM      5  H   UNL A   1      31.238  30.714  24.259  1.00  0.00     0.163 HD
BRANCH   3   6
ATOM      6  C   UNL A   1      31.844  27.408  23.695  1.00  0.00     0.268 C 
ATOM      7  C   UNL A   1      31.093  26.513  22.690  1.00  0.00     0.101 C 
BRANCH   6   8
ATOM      8  N   UNL A   1      31.610  27.010  25.126  1.00  0.00    -0.318 N 
ATOM      9  H   UNL A   1      32.520  26.853  25.561  1.00  0.00     0.347 HD
ATOM     10  H   UNL A   1      31.080  27.774  25.544  1.00  0.00     0.347 HD
BRANCH   8  11
ATOM     11  C   UNL A   1      30.800  25.802  25.323  1.00  0.00     0.363 C 
BRANCH  11  12
ATOM     12  C   UNL A   1      31.655  24.726  26.014  1.00  0.00     0.277 C 
ATOM     13  O   UNL A   1      31.354  24.369  27.159  1.00  0.00    -0.268 OA
BRANCH  12  14
ATOM     14  N   UNL A   1      32.753  24.198  25.326  1.00  0.00    -0.335 N 
BRANCH  14  15
ATOM     15  C   UNL A   1      32.654  23.489  24.044  1.00  0.00     0.116 C 
ATOM     16  C   UNL A   1      32.176  22.054  24.216  1.00  0.00     0.027 C 
ENDBRANCH  14  15
BRANCH  14  17
ATOM     17  C   UNL A   1      34.076  24.449  25.876  1.00  0.00     0.085 C 
ATOM     18  C   UNL A   1      34.810  23.320  26.557  1.00  0.00     0.027 C 
ATOM     19  C   UNL A   1      35.381  23.942  25.319  1.00  0.00     0.027 C 
ENDBRANCH  14  17
ENDBRANCH  12  14
ENDBRANCH  11  12
ENDBRANCH   8  11
ENDBRANCH   6   8
BRANCH   6  20
ATOM     20  C   UNL A   1      33.344  27.414  23.258  1.00  0.00     0.453 C 
ATOM     21  F   UNL A   1      33.687  28.525  22.567  1.00  0.00    -0.164 F 
ATOM     22  F   UNL A   1      34.152  27.385  24.355  1.00  0.00    -0.164 F 
ATOM     23  F   UNL A   1      33.685  26.328  22.526  1.00  0.00    -0.164 F 
ENDBRANCH   6  20
ENDBRANCH   3   6
ENDBRANCH   1   2
BRANCH   1  24
ATOM     24  C   UNL A   1      31.742  30.497  26.832  1.00  0.00     0.023 C 
BRANCH  24  25
ATOM     25  C   UNL A   1      31.595  32.016  26.748  1.00  0.00     0.023 C 
BRANCH  25  26
ATOM     26  C   UNL A   1      32.774  32.817  27.291  1.00  0.00     0.116 C 
BRANCH  26  27
ATOM     27  N   UNL A   1      32.428  34.185  27.642  1.00  0.00    -0.352 N 
ATOM     28  C   UNL A   1      32.981  34.998  28.602  1.00  0.00     0.251 C 
ATOM     29  H   UNL A   1      31.695  34.584  27.121  1.00  0.00     0.163 HD
ATOM     30  O   UNL A   1      32.490  36.097  28.841  1.00  0.00    -0.269 OA
BRANCH  28  31
ATOM     31  C   UNL A   1      34.147  34.526  29.376  1.00  0.00     0.039 A 
ATOM     32  C   UNL A   1      33.934  33.963  30.636  1.00  0.00     0.014 A 
ATOM     33  C   UNL A   1      35.440  34.611  28.851  1.00  0.00     0.014 A 
ATOM     34  C   UNL A   1      35.008  33.416  31.339  1.00  0.00     0.010 A 
ATOM     35  C   UNL A   1      36.497  34.000  29.518  1.00  0.00     0.010 A 
ATOM     36  C   UNL A   1      36.291  33.391  30.766  1.00  0.00    -0.014 A 
BRANCH  36  37
ATOM     37  C   UNL A   1      37.422  32.715  31.450  1.00  0.00     0.031 A 
ATOM     38  C   UNL A   1      38.114  31.550  30.803  1.00  0.00     0.074 A 
ATOM     39  C   UNL A   1      37.779  33.111  32.688  1.00  0.00     0.049 A 
ATOM     40  N   UNL A   1      39.081  30.800  31.267  1.00  0.00    -0.248 NA
ATOM     41  C   UNL A   1      37.637  31.158  29.467  1.00  0.00     0.031 C 
ATOM     42  C   UNL A   1      37.145  34.191  33.445  1.00  0.00     0.029 A 
ATOM     43  N   UNL A   1      38.755  32.642  33.531  1.00  0.00    -0.354 N 
ATOM     44  C   UNL A   1      39.318  29.842  30.290  1.00  0.00     0.074 A 
ATOM     45  C   UNL A   1      38.359  30.072  29.231  1.00  0.00     0.031 C 
ATOM     46  C   UNL A   1      37.764  34.319  34.630  1.00  0.00     0.029 A 
ATOM     47  C   UNL A   1      38.811  33.308  34.732  1.00  0.00     0.049 A 
ATOM     48  H   UNL A   1      39.358  31.900  33.298  1.00  0.00     0.167 HD
ATOM     49  C   UNL A   1      40.266  28.876  30.267  1.00  0.00     0.037 A 
ATOM     50  C   UNL A   1      39.614  33.120  35.796  1.00  0.00     0.037 A 
ATOM     51  C   UNL A   1      41.235  28.666  31.312  1.00  0.00     0.049 A 
ATOM     52  C   UNL A   1      40.660  32.040  35.744  1.00  0.00     0.074 A 
ATOM     53  C   UNL A   1      42.278  27.757  31.353  1.00  0.00     0.029 A 
ATOM     54  N   UNL A   1      41.274  29.373  32.505  1.00  0.00    -0.354 N 
ATOM     55  N   UNL A   1      40.927  31.192  34.782  1.00  0.00    -0.248 NA
ATOM     56  C   UNL A   1      41.522  31.897  36.926  1.00  0.00     0.031 C 
ATOM     57  C   UNL A   1      42.918  27.882  32.591  1.00  0.00     0.029 A 
ATOM     58  C   UNL A   1      42.308  28.904  33.300  1.00  0.00     0.049 A 
ATOM     59  H   UNL A   1      40.658  30.100  32.752  1.00  0.00     0.167 HD
ATOM     60  C   UNL A   1      42.001  30.434  35.227  1.00  0.00     0.074 A 
ATOM     61  C   UNL A   1      42.348  30.935  36.542  1.00  0.00     0.031 C 
ATOM     62  C   UNL A   1      42.643  29.416  34.604  1.00  0.00     0.037 A 
BRANCH  49  63
ATOM     63  C   UNL A   1      40.306  27.971  29.070  1.00  0.00     0.064 A 
ATOM     64  C   UNL A   1      39.564  26.780  29.021  1.00  0.00     0.173 A 
ATOM     65  C   UNL A   1      41.069  28.312  27.944  1.00  0.00     0.173 A 
ATOM     66  F   UNL A   1      38.826  26.401  30.076  1.00  0.00    -0.203 F 
ATOM     67  C   UNL A   1      39.608  25.952  27.903  1.00  0.00     0.198 A 
ATOM     68  C   UNL A   1      41.086  27.497  26.814  1.00  0.00     0.198 A 
ATOM     69  F   UNL A   1      41.793  29.440  27.933  1.00  0.00    -0.203 F 
ATOM     70  F   UNL A   1      38.931  24.795  27.901  1.00  0.00    -0.200 F 
ATOM     71  C   UNL A   1      40.363  26.314  26.798  1.00  0.00     0.200 A 
ATOM     72  F   UNL A   1      41.806  27.855  25.742  1.00  0.00    -0.200 F 
ATOM     73  F   UNL A   1      40.399  25.518  25.720  1.00  0.00    -0.200 F 
ENDBRANCH  49  63
BRANCH  50  74
ATOM     74  C   UNL A   1      39.477  33.993  36.990  1.00  0.00     0.064 A 
ATOM     75  C   UNL A   1      40.108  35.244  37.042  1.00  0.00     0.173 A 
ATOM     76  C   UNL A   1      38.717  33.600  38.101  1.00  0.00     0.173 A 
ATOM     77  F   UNL A   1      40.862  35.656  36.013  1.00  0.00    -0.203 F 
ATOM     78  C   UNL A   1      39.999  36.060  38.166  1.00  0.00     0.198 A 
ATOM     79  C   UNL A   1      38.585  34.428  39.213  1.00  0.00     0.198 A 
ATOM     80  F   UNL A   1      38.089  32.415  38.099  1.00  0.00    -0.203 F 
ATOM     81  F   UNL A   1      40.649  37.231  38.206  1.00  0.00    -0.200 F 
ATOM     82  C   UNL A   1      39.233  35.654  39.249  1.00  0.00     0.200 A 
ATOM     83  F   UNL A   1      37.832  34.038  40.251  1.00  0.00    -0.200 F 
ATOM     84  F   UNL A   1      39.125  36.441  40.328  1.00  0.00    -0.200 F 
ENDBRANCH  50  74
BRANCH  62  85
ATOM     85  C   UNL A   1      43.806  28.794  35.323  1.00  0.00     0.064 A 
ATOM     86  C   UNL A   1      45.120  29.242  35.122  1.00  0.00     0.173 A 
ATOM     87  C   UNL A   1      43.598  27.761  36.249  1.00  0.00     0.173 A 
ATOM     88  F   UNL A   1      45.373  30.216  34.235  1.00  0.00    -0.203 F 
ATOM     89  C   UNL A   1      46.185  28.661  35.804  1.00  0.00     0.198 A 
ATOM     90  C   UNL A   1      44.662  27.203  36.951  1.00  0.00     0.198 A 
ATOM     91  F   UNL A   1      42.360  27.301  36.482  1.00  0.00    -0.203 F 
ATOM     92  F   UNL A   1      47.438  29.071  35.559  1.00  0.00    -0.200 F 
ATOM     93  C   UNL A   1      45.955  27.648  36.723  1.00  0.00     0.200 A 
ATOM     94  F   UNL A   1      44.436  26.234  37.849  1.00  0.00    -0.200 F 
ATOM     95  F   UNL A   1      46.982  27.094  37.382  1.00  0.00    -0.200 F 
ENDBRANCH  62  85
ENDBRANCH  36  37
ENDBRANCH  28  31
ENDBRANCH  26  27
ENDBRANCH  25  26
ENDBRANCH  24  25
ENDBRANCH   1  24
TORSDOF 18
ENDMDL
MODEL 2
REMARK VINA RESULT:     -10.8      0.385      1.657
REMARK SMILES CCN(C(=O)C[NH2+][C@@](C)(C(=O)NCCCCNC(=O)c1ccc(-c2c3nc(c(-c4c(F)c(F)c(F)c(F)c4F)c4ccc([nH]4)c(-c4c(F)c(F)c(F)c(F)c4F)c4nc(c(-c5c(F)c(F)c(F)c(F)c5F)c5ccc2[nH]5)C=C4)C=C3)cc1)C(F)(F)F)C1CC1
REMARK SMILES IDX 13 1 12 2 10 3 11 4 8 6 9 7 7 8 6 11 4 12 5 13 3 14 2 15
REMARK SMILES IDX 1 16 87 17 88 18 89 19 83 20 84 21 85 22 86 23 14 24 15 25
REMARK SMILES IDX 16 26 17 27 18 28 19 30 20 31 21 32 82 33 22 34 81 35 23 36
REMARK SMILES IDX 24 37 25 38 75 39 26 40 80 41 74 42 76 43 27 44 79 45 73 46
REMARK SMILES IDX 72 47 28 49 60 50 40 51 59 52 41 53 44 54 58 55 77 56 42 57
REMARK SMILES IDX 43 58 57 60 78 61 45 62 29 63 30 64 38 65 31 66 32 67 36 68
REMARK SMILES IDX 39 69 33 70 34 71 37 72 35 73 61 74 62 75 70 76 63 77 64 78
REMARK SMILES IDX 68 79 71 80 65 81 66 82 69 83 67 84 46 85 47 86 55 87 48 88
REMARK SMILES IDX 49 89 53 90 56 91 50 92 51 93 54 94 52 95
REMARK H PARENT 12 5 7 9 7 10 17 29 76 48 44 59
REMARK Flexibility Score: inf
ROOT
ATOM      1  C   UNL A   1      32.425  29.817  25.391  1.00  0.00     0.116 C 
ENDROOT
BRANCH   1   2
ATOM      2  N   UNL A   1      31.533  29.790  24.246  1.00  0.00    -0.350 N 
ATOM      3  C   UNL A   1      31.290  28.861  23.270  1.00  0.00     0.290 C 
ATOM      4  O   UNL A   1      30.489  29.218  22.401  1.00  0.00    -0.267 OA
ATOM      5  H   UNL A   1      30.992  30.607  24.151  1.00  0.00     0.163 HD
BRANCH   3   6
ATOM      6  C   UNL A   1      31.964  27.462  23.268  1.00  0.00     0.268 C 
ATOM      7  C   UNL A   1      31.308  26.582  22.185  1.00  0.00     0.101 C 
BRANCH   6   8
ATOM      8  N   UNL A   1      31.819  26.896  24.653  1.00  0.00    -0.318 N 
ATOM      9  H   UNL A   1      32.749  26.647  24.990  1.00  0.00     0.347 HD
ATOM     10  H   UNL A   1      31.361  27.622  25.204  1.00  0.00     0.347 HD
BRANCH   8  11
ATOM     11  C   UNL A   1      30.965  25.707  24.765  1.00  0.00     0.363 C 
BRANCH  11  12
ATOM     12  C   UNL A   1      31.603  24.718  25.755  1.00  0.00     0.277 C 
ATOM     13  O   UNL A   1      31.460  24.912  26.968  1.00  0.00    -0.268 OA
BRANCH  12  14
ATOM     14  N   UNL A   1      32.334  23.638  25.247  1.00  0.00    -0.335 N 
BRANCH  14  15
ATOM     15  C   UNL A   1      31.729  22.488  24.564  1.00  0.00     0.116 C 
ATOM     16  C   UNL A   1      31.857  22.584  23.050  1.00  0.00     0.027 C 
ENDBRANCH  14  15
BRANCH  14  17
ATOM     17  C   UNL A   1      33.784  23.711  25.326  1.00  0.00     0.085 C 
ATOM     18  C   UNL A   1      34.548  24.330  24.182  1.00  0.00     0.027 C 
ATOM     19  C   UNL A   1      34.602  24.957  25.542  1.00  0.00     0.027 C 
ENDBRANCH  14  17
ENDBRANCH  12  14
ENDBRANCH  11  12
ENDBRANCH   8  11
ENDBRANCH   6   8
BRANCH   6  20
ATOM     20  C   UNL A   1      33.439  27.707  22.815  1.00  0.00     0.453 C 
ATOM     21  F   UNL A   1      33.605  28.888  22.176  1.00  0.00    -0.164 F 
ATOM     22  F   UNL A   1      34.261  27.745  23.902  1.00  0.00    -0.164 F 
ATOM     23  F   UNL A   1      33.921  26.718  22.028  1.00  0.00    -0.164 F 
ENDBRANCH   6  20
ENDBRANCH   3   6
ENDBRANCH   1   2
BRANCH   1  24
ATOM     24  C   UNL A   1      31.738  30.395  26.628  1.00  0.00     0.023 C 
BRANCH  24  25
ATOM     25  C   UNL A   1      31.605  31.918  26.629  1.00  0.00     0.023 C 
BRANCH  25  26
ATOM     26  C   UNL A   1      32.742  32.671  27.312  1.00  0.00     0.116 C 
BRANCH  26  27
ATOM     27  N   UNL A   1      32.410  34.051  27.628  1.00  0.00    -0.352 N 
ATOM     28  C   UNL A   1      32.980  34.887  28.559  1.00  0.00     0.251 C 
ATOM     29  H   UNL A   1      31.674  34.441  27.103  1.00  0.00     0.163 HD
ATOM     30  O   UNL A   1      32.500  35.996  28.771  1.00  0.00    -0.269 OA
BRANCH  28  31
ATOM     31  C   UNL A   1      34.149  34.427  29.334  1.00  0.00     0.039 A 
ATOM     32  C   UNL A   1      33.936  33.790  30.558  1.00  0.00     0.014 A 
ATOM     33  C   UNL A   1      35.448  34.598  28.844  1.00  0.00     0.014 A 
ATOM     34  C   UNL A   1      35.020  33.255  31.256  1.00  0.00     0.010 A 
ATOM     35  C   UNL A   1      36.517  34.001  29.503  1.00  0.00     0.010 A 
ATOM     36  C   UNL A   1      36.314  33.318  30.713  1.00  0.00    -0.014 A 
BRANCH  36  37
ATOM     37  C   UNL A   1      37.460  32.659  31.386  1.00  0.00     0.031 A 
ATOM     38  C   UNL A   1      38.164  31.505  30.732  1.00  0.00     0.074 A 
ATOM     39  C   UNL A   1      37.821  33.058  32.622  1.00  0.00     0.049 A 
ATOM     40  N   UNL A   1      39.146  30.768  31.188  1.00  0.00    -0.248 NA
ATOM     41  C   UNL A   1      37.683  31.106  29.400  1.00  0.00     0.031 C 
ATOM     42  C   UNL A   1      37.177  34.128  33.385  1.00  0.00     0.029 A 
ATOM     43  N   UNL A   1      38.811  32.603  33.456  1.00  0.00    -0.354 N 
ATOM     44  C   UNL A   1      39.389  29.816  30.208  1.00  0.00     0.074 A 
ATOM     45  C   UNL A   1      38.418  30.031  29.157  1.00  0.00     0.031 C 
ATOM     46  C   UNL A   1      37.804  34.264  34.566  1.00  0.00     0.029 A 
ATOM     47  C   UNL A   1      38.867  33.269  34.658  1.00  0.00     0.049 A 
ATOM     48  H   UNL A   1      39.423  31.870  33.218  1.00  0.00     0.167 HD
ATOM     49  C   UNL A   1      40.352  28.863  30.177  1.00  0.00     0.037 A 
ATOM     50  C   UNL A   1      39.681  33.092  35.716  1.00  0.00     0.037 A 
ATOM     51  C   UNL A   1      41.332  28.667  31.213  1.00  0.00     0.049 A 
ATOM     52  C   UNL A   1      40.742  32.028  35.654  1.00  0.00     0.074 A 
ATOM     53  C   UNL A   1      42.389  27.774  31.245  1.00  0.00     0.029 A 
ATOM     54  N   UNL A   1      41.370  29.373  32.407  1.00  0.00    -0.354 N 
ATOM     55  N   UNL A   1      41.014  31.185  34.689  1.00  0.00    -0.248 NA
ATOM     56  C   UNL A   1      41.616  31.897  36.828  1.00  0.00     0.031 C 
ATOM     57  C   UNL A   1      43.037  27.907  32.478  1.00  0.00     0.029 A 
ATOM     58  C   UNL A   1      42.418  28.919  33.193  1.00  0.00     0.049 A 
ATOM     59  H   UNL A   1      40.745  30.091  32.659  1.00  0.00     0.167 HD
ATOM     60  C   UNL A   1      42.104  30.443  35.124  1.00  0.00     0.074 A 
ATOM     61  C   UNL A   1      42.453  30.947  36.437  1.00  0.00     0.031 C 
ATOM     62  C   UNL A   1      42.755  29.434  34.495  1.00  0.00     0.037 A 
BRANCH  49  63
ATOM     63  C   UNL A   1      40.396  27.960  28.978  1.00  0.00     0.064 A 
ATOM     64  C   UNL A   1      39.676  26.755  28.937  1.00  0.00     0.173 A 
ATOM     65  C   UNL A   1      41.139  28.317  27.844  1.00  0.00     0.173 A 
ATOM     66  F   UNL A   1      38.959  26.361  30.000  1.00  0.00    -0.203 F 
ATOM     67  C   UNL A   1      39.724  25.929  27.818  1.00  0.00     0.198 A 
ATOM     68  C   UNL A   1      41.159  27.503  26.713  1.00  0.00     0.198 A 
ATOM     69  F   UNL A   1      41.841  29.459  27.826  1.00  0.00    -0.203 F 
ATOM     70  F   UNL A   1      39.070  24.759  27.823  1.00  0.00    -0.200 F 
ATOM     71  C   UNL A   1      40.459  26.306  26.704  1.00  0.00     0.200 A 
ATOM     72  F   UNL A   1      41.859  27.876  25.633  1.00  0.00    -0.200 F 
ATOM     73  F   UNL A   1      40.498  25.512  25.625  1.00  0.00    -0.200 F 
ENDBRANCH  49  63
BRANCH  50  74
ATOM     74  C   UNL A   1      39.541  33.961  36.912  1.00  0.00     0.064 A 
ATOM     75  C   UNL A   1      38.782  33.550  38.016  1.00  0.00     0.173 A 
ATOM     76  C   UNL A   1      40.162  35.217  36.979  1.00  0.00     0.173 A 
ATOM     77  F   UNL A   1      38.153  32.366  37.991  1.00  0.00    -0.203 F 
ATOM     78  C   UNL A   1      38.632  34.369  39.133  1.00  0.00     0.198 A 
ATOM     79  C   UNL A   1      40.035  36.023  38.108  1.00  0.00     0.198 A 
ATOM     80  F   UNL A   1      40.905  35.655  35.952  1.00  0.00    -0.203 F 
ATOM     81  F   UNL A   1      37.863  33.970  40.155  1.00  0.00    -0.200 F 
ATOM     82  C   UNL A   1      39.263  35.603  39.180  1.00  0.00     0.200 A 
ATOM     83  F   UNL A   1      40.659  37.208  38.155  1.00  0.00    -0.200 F 
ATOM     84  F   UNL A   1      39.123  36.388  40.257  1.00  0.00    -0.200 F 
ENDBRANCH  50  74
BRANCH  62  85
ATOM     85  C   UNL A   1      43.933  28.829  35.203  1.00  0.00     0.064 A 
ATOM     86  C   UNL A   1      43.785  27.756  36.093  1.00  0.00     0.173 A 
ATOM     87  C   UNL A   1      45.230  29.308  34.960  1.00  0.00     0.173 A 
ATOM     88  F   UNL A   1      42.565  27.273  36.372  1.00  0.00    -0.203 F 
ATOM     89  C   UNL A   1      44.890  27.201  36.735  1.00  0.00     0.198 A 
ATOM     90  C   UNL A   1      46.335  28.731  35.579  1.00  0.00     0.198 A 
ATOM     91  F   UNL A   1      45.426  30.328  34.112  1.00  0.00    -0.203 F 
ATOM     92  F   UNL A   1      44.720  26.209  37.620  1.00  0.00    -0.200 F 
ATOM     93  C   UNL A   1      46.163  27.683  36.471  1.00  0.00     0.200 A 
ATOM     94  F   UNL A   1      47.565  29.189  35.312  1.00  0.00    -0.200 F 
ATOM     95  F   UNL A   1      47.226  27.144  37.084  1.00  0.00    -0.200 F 
ENDBRANCH  62  85
ENDBRANCH  36  37
ENDBRANCH  28  31
ENDBRANCH  26  27
ENDBRANCH  25  26
ENDBRANCH  24  25
ENDBRANCH   1  24
TORSDOF 18
ENDMDL
MODEL 3
REMARK VINA RESULT:     -10.7      1.139      2.096
REMARK SMILES CCN(C(=O)C[NH2+][C@@](C)(C(=O)NCCCCNC(=O)c1ccc(-c2c3nc(c(-c4c(F)c(F)c(F)c(F)c4F)c4ccc([nH]4)c(-c4c(F)c(F)c(F)c(F)c4F)c4nc(c(-c5c(F)c(F)c(F)c(F)c5F)c5ccc2[nH]5)C=C4)C=C3)cc1)C(F)(F)F)C1CC1
REMARK SMILES IDX 13 1 12 2 10 3 11 4 8 6 9 7 7 8 6 11 4 12 5 13 3 14 2 15
REMARK SMILES IDX 1 16 87 17 88 18 89 19 83 20 84 21 85 22 86 23 14 24 15 25
REMARK SMILES IDX 16 26 17 27 18 28 19 30 20 31 21 32 82 33 22 34 81 35 23 36
REMARK SMILES IDX 24 37 25 38 75 39 26 40 80 41 74 42 76 43 27 44 79 45 73 46
REMARK SMILES IDX 72 47 28 49 60 50 40 51 59 52 41 53 44 54 58 55 77 56 42 57
REMARK SMILES IDX 43 58 57 60 78 61 45 62 29 63 30 64 38 65 31 66 32 67 36 68
REMARK SMILES IDX 39 69 33 70 34 71 37 72 35 73 61 74 62 75 70 76 63 77 64 78
REMARK SMILES IDX 68 79 71 80 65 81 66 82 69 83 67 84 46 85 47 86 55 87 48 88
REMARK SMILES IDX 49 89 53 90 56 91 50 92 51 93 54 94 52 95
REMARK H PARENT 12 5 7 9 7 10 17 29 76 48 44 59
REMARK Flexibility Score: inf
ROOT
ATOM      1  C   UNL A   1      33.017  29.917  26.056  1.00  0.00     0.116 C 
ENDROOT
BRANCH   1   2
ATOM      2  N   UNL A   1      33.024  29.722  24.617  1.00  0.00    -0.350 N 
ATOM      3  C   UNL A   1      32.817  28.627  23.821  1.00  0.00     0.290 C 
ATOM      4  O   UNL A   1      32.968  28.830  22.612  1.00  0.00    -0.267 OA
ATOM      5  H   UNL A   1      33.217  30.543  24.111  1.00  0.00     0.163 HD
BRANCH   3   6
ATOM      6  C   UNL A   1      32.411  27.244  24.398  1.00  0.00     0.268 C 
ATOM      7  C   UNL A   1      32.952  27.112  25.835  1.00  0.00     0.101 C 
BRANCH   6   8
ATOM      8  N   UNL A   1      32.954  26.196  23.466  1.00  0.00    -0.318 N 
ATOM      9  H   UNL A   1      32.198  25.548  23.247  1.00  0.00     0.347 HD
ATOM     10  H   UNL A   1      33.312  26.702  22.656  1.00  0.00     0.347 HD
BRANCH   8  11
ATOM     11  C   UNL A   1      34.085  25.415  23.983  1.00  0.00     0.363 C 
BRANCH  11  12
ATOM     12  C   UNL A   1      33.884  23.934  23.618  1.00  0.00     0.277 C 
ATOM     13  O   UNL A   1      34.100  23.572  22.456  1.00  0.00    -0.268 OA
BRANCH  12  14
ATOM     14  N   UNL A   1      33.453  23.051  24.613  1.00  0.00    -0.335 N 
BRANCH  14  15
ATOM     15  C   UNL A   1      32.119  22.437  24.643  1.00  0.00     0.116 C 
ATOM     16  C   UNL A   1      31.021  23.456  24.916  1.00  0.00     0.027 C 
ENDBRANCH  14  15
BRANCH  14  17
ATOM     17  C   UNL A   1      34.418  22.654  25.626  1.00  0.00     0.085 C 
ATOM     18  C   UNL A   1      34.174  23.050  27.062  1.00  0.00     0.027 C 
ATOM     19  C   UNL A   1      34.215  21.600  26.684  1.00  0.00     0.027 C 
ENDBRANCH  14  17
ENDBRANCH  12  14
ENDBRANCH  11  12
ENDBRANCH   8  11
ENDBRANCH   6   8
BRANCH   6  20
ATOM     20  C   UNL A   1      30.852  27.275  24.505  1.00  0.00     0.453 C 
ATOM     21  F   UNL A   1      30.335  28.509  24.307  1.00  0.00    -0.164 F 
ATOM     22  F   UNL A   1      30.302  26.475  23.547  1.00  0.00    -0.164 F 
ATOM     23  F   UNL A   1      30.395  26.798  25.684  1.00  0.00    -0.164 F 
ENDBRANCH   6  20
ENDBRANCH   3   6
ENDBRANCH   1   2
BRANCH   1  24
ATOM     24  C   UNL A   1      31.684  30.488  26.541  1.00  0.00     0.023 C 
BRANCH  24  25
ATOM     25  C   UNL A   1      31.609  32.015  26.545  1.00  0.00     0.023 C 
BRANCH  25  26
ATOM     26  C   UNL A   1      32.706  32.720  27.336  1.00  0.00     0.116 C 
BRANCH  26  27
ATOM     27  N   UNL A   1      32.395  34.107  27.640  1.00  0.00    -0.352 N 
ATOM     28  C   UNL A   1      32.985  34.945  28.557  1.00  0.00     0.251 C 
ATOM     29  H   UNL A   1      31.660  34.502  27.119  1.00  0.00     0.163 HD
ATOM     30  O   UNL A   1      32.521  36.062  28.763  1.00  0.00    -0.269 OA
BRANCH  28  31
ATOM     31  C   UNL A   1      34.156  34.479  29.325  1.00  0.00     0.039 A 
ATOM     32  C   UNL A   1      33.951  33.911  30.585  1.00  0.00     0.014 A 
ATOM     33  C   UNL A   1      35.446  34.573  28.795  1.00  0.00     0.014 A 
ATOM     34  C   UNL A   1      35.031  33.369  31.282  1.00  0.00     0.010 A 
ATOM     35  C   UNL A   1      36.510  33.967  29.457  1.00  0.00     0.010 A 
ATOM     36  C   UNL A   1      36.312  33.354  30.705  1.00  0.00    -0.014 A 
BRANCH  36  37
ATOM     37  C   UNL A   1      37.450  32.684  31.383  1.00  0.00     0.031 A 
ATOM     38  C   UNL A   1      38.145  31.523  30.732  1.00  0.00     0.074 A 
ATOM     39  C   UNL A   1      37.811  33.081  32.619  1.00  0.00     0.049 A 
ATOM     40  N   UNL A   1      39.118  30.777  31.191  1.00  0.00    -0.248 NA
ATOM     41  C   UNL A   1      37.664  31.129  29.398  1.00  0.00     0.031 C 
ATOM     42  C   UNL A   1      37.174  34.157  33.380  1.00  0.00     0.029 A 
ATOM     43  N   UNL A   1      38.793  32.617  33.457  1.00  0.00    -0.354 N 
ATOM     44  C   UNL A   1      39.355  29.822  30.212  1.00  0.00     0.074 A 
ATOM     45  C   UNL A   1      38.390  30.046  29.158  1.00  0.00     0.031 C 
ATOM     46  C   UNL A   1      37.798  34.288  34.562  1.00  0.00     0.029 A 
ATOM     47  C   UNL A   1      38.852  33.282  34.658  1.00  0.00     0.049 A 
ATOM     48  H   UNL A   1      39.399  31.878  33.221  1.00  0.00     0.167 HD
ATOM     49  C   UNL A   1      40.309  28.860  30.185  1.00  0.00     0.037 A 
ATOM     50  C   UNL A   1      39.660  33.098  35.719  1.00  0.00     0.037 A 
ATOM     51  C   UNL A   1      41.284  28.655  31.225  1.00  0.00     0.049 A 
ATOM     52  C   UNL A   1      40.712  32.024  35.661  1.00  0.00     0.074 A 
ATOM     53  C   UNL A   1      42.332  27.752  31.260  1.00  0.00     0.029 A 
ATOM     54  N   UNL A   1      41.324  29.362  32.418  1.00  0.00    -0.354 N 
ATOM     55  N   UNL A   1      40.979  31.177  34.697  1.00  0.00    -0.248 NA
ATOM     56  C   UNL A   1      41.580  31.885  36.839  1.00  0.00     0.031 C 
ATOM     57  C   UNL A   1      42.977  27.880  32.495  1.00  0.00     0.029 A 
ATOM     58  C   UNL A   1      42.365  28.898  33.207  1.00  0.00     0.049 A 
ATOM     59  H   UNL A   1      40.706  30.086  32.668  1.00  0.00     0.167 HD
ATOM     60  C   UNL A   1      42.059  30.425  35.137  1.00  0.00     0.074 A 
ATOM     61  C   UNL A   1      42.409  30.927  36.450  1.00  0.00     0.031 C 
ATOM     62  C   UNL A   1      42.703  29.410  34.510  1.00  0.00     0.037 A 
BRANCH  49  63
ATOM     63  C   UNL A   1      40.348  27.956  28.987  1.00  0.00     0.064 A 
ATOM     64  C   UNL A   1      41.108  28.272  27.850  1.00  0.00     0.173 A 
ATOM     65  C   UNL A   1      39.644  26.743  28.986  1.00  0.00     0.173 A 
ATOM     66  F   UNL A   1      41.790  29.426  27.793  1.00  0.00    -0.203 F 
ATOM     67  C   UNL A   1      41.137  27.423  26.747  1.00  0.00     0.198 A 
ATOM     68  C   UNL A   1      39.701  25.880  27.894  1.00  0.00     0.198 A 
ATOM     69  F   UNL A   1      38.906  26.388  30.048  1.00  0.00    -0.203 F 
ATOM     70  F   UNL A   1      41.828  27.771  25.653  1.00  0.00    -0.200 F 
ATOM     71  C   UNL A   1      40.440  26.224  26.772  1.00  0.00     0.200 A 
ATOM     72  F   UNL A   1      39.036  24.716  27.926  1.00  0.00    -0.200 F 
ATOM     73  F   UNL A   1      40.474  25.405  25.712  1.00  0.00    -0.200 F 
ENDBRANCH  49  63
BRANCH  50  74
ATOM     74  C   UNL A   1      39.525  33.970  36.914  1.00  0.00     0.064 A 
ATOM     75  C   UNL A   1      38.757  33.567  38.015  1.00  0.00     0.173 A 
ATOM     76  C   UNL A   1      40.159  35.218  36.983  1.00  0.00     0.173 A 
ATOM     77  F   UNL A   1      38.115  32.390  37.988  1.00  0.00    -0.203 F 
ATOM     78  C   UNL A   1      38.611  34.388  39.132  1.00  0.00     0.198 A 
ATOM     79  C   UNL A   1      40.037  36.026  38.112  1.00  0.00     0.198 A 
ATOM     80  F   UNL A   1      40.911  35.647  35.959  1.00  0.00    -0.203 F 
ATOM     81  F   UNL A   1      37.834  33.997  40.151  1.00  0.00    -0.200 F 
ATOM     82  C   UNL A   1      39.256  35.615  39.181  1.00  0.00     0.200 A 
ATOM     83  F   UNL A   1      40.673  37.205  38.161  1.00  0.00    -0.200 F 
ATOM     84  F   UNL A   1      39.119  36.402  40.257  1.00  0.00    -0.200 F 
ENDBRANCH  50  74
BRANCH  62  85
ATOM     85  C   UNL A   1      43.873  28.794  35.223  1.00  0.00     0.064 A 
ATOM     86  C   UNL A   1      45.176  29.290  35.064  1.00  0.00     0.173 A 
ATOM     87  C   UNL A   1      43.682  27.719  36.103  1.00  0.00     0.173 A 
ATOM     88  F   UNL A   1      45.413  30.306  34.221  1.00  0.00    -0.203 F 
ATOM     89  C   UNL A   1      46.247  28.712  35.739  1.00  0.00     0.198 A 
ATOM     90  C   UNL A   1      44.751  27.164  36.800  1.00  0.00     0.198 A 
ATOM     91  F   UNL A   1      42.454  27.213  36.296  1.00  0.00    -0.203 F 
ATOM     92  F   UNL A   1      47.491  29.169  35.533  1.00  0.00    -0.200 F 
ATOM     93  C   UNL A   1      46.033  27.656  36.612  1.00  0.00     0.200 A 
ATOM     94  F   UNL A   1      44.540  26.153  37.654  1.00  0.00    -0.200 F 
ATOM     95  F   UNL A   1      47.066  27.106  37.266  1.00  0.00    -0.200 F 
ENDBRANCH  62  85
ENDBRANCH  36  37
ENDBRANCH  28  31
ENDBRANCH  26  27
ENDBRANCH  25  26
ENDBRANCH  24  25
ENDBRANCH   1  24
TORSDOF 18
ENDMDL
