MODEL 1
REMARK VINA RESULT:     -13.7      0.000      0.000
REMARK SMILES CCCN1C(=O)c2ccc(C(=O)Nc3ccc(OCC(=O)NCCCCNC(=O)c4ccc(-c5c6nc(c(-c7c(F)c(F)c(F)c(F)c7F)c7ccc([nH]7)c(-c7c(F)c(F)c(F)c(F)c7F)c7nc(c(-c8c(F)c(F)c(F)c(F)c8F)c8ccc5[nH]8)C=C7)C=C6)cc4)cc3C)cc2C1=O
REMARK SMILES IDX 20 1 21 2 22 3 19 5 18 6 17 7 14 8 15 9 94 10 16 11 93 12
REMARK SMILES IDX 95 13 13 14 11 15 12 16 10 18 4 19 5 20 98 21 6 22 7 23
REMARK SMILES IDX 97 24 99 25 8 26 96 27 9 28 3 29 2 30 1 31 23 32 24 33 25 34
REMARK SMILES IDX 26 35 27 36 28 37 29 39 30 40 31 41 92 42 32 43 91 44 33 45
REMARK SMILES IDX 34 46 35 47 85 48 36 49 90 50 84 51 86 52 37 53 89 54 83 55
REMARK SMILES IDX 82 56 38 58 70 59 50 60 69 61 51 62 54 63 68 64 87 65 52 66
REMARK SMILES IDX 53 67 67 69 88 70 55 71 39 72 40 73 48 74 41 75 42 76 46 77
REMARK SMILES IDX 49 78 43 79 44 80 47 81 45 82 71 83 72 84 80 85 73 86 74 87
REMARK SMILES IDX 78 88 81 89 75 90 76 91 79 92 77 93 56 94 57 95 65 96 58 97
REMARK SMILES IDX 59 98 63 99 66 100 60 101 61 102 64 103 62 104
REMARK H PARENT 22 4 13 17 27 38 86 57 54 68
REMARK Flexibility Score: inf
ROOT
ATOM      1  C   UNL A   1      39.363  22.015  26.358  1.00  0.00     0.257 C 
ATOM      2  O   UNL A   1      39.263  23.137  26.856  1.00  0.00    -0.271 OA
ATOM      3  N   UNL A   1      40.469  21.266  26.650  1.00  0.00    -0.353 N 
ATOM      4  H   UNL A   1      41.126  21.690  27.248  1.00  0.00     0.163 HD
ENDROOT
BRANCH   1   5
ATOM      5  C   UNL A   1      38.263  21.433  25.460  1.00  0.00     0.329 C 
BRANCH   5   6
ATOM      6  O   UNL A   1      37.390  22.370  24.846  1.00  0.00    -0.484 OA
BRANCH   6   7
ATOM      7  C   UNL A   1      36.066  22.311  25.178  1.00  0.00     0.120 A 
ATOM      8  C   UNL A   1      33.452  22.291  26.188  1.00  0.00     0.044 A 
ATOM      9  C   UNL A   1      34.319  23.346  26.490  1.00  0.00     0.030 A 
ATOM     10  C   UNL A   1      33.836  21.318  25.248  1.00  0.00    -0.024 A 
ATOM     11  C   UNL A   1      35.623  23.346  25.997  1.00  0.00     0.048 A 
ATOM     12  C   UNL A   1      35.159  21.333  24.769  1.00  0.00     0.052 A 
ATOM     13  C   UNL A   1      32.877  20.330  24.636  1.00  0.00     0.047 C 
BRANCH   8  14
ATOM     14  N   UNL A   1      32.253  22.266  26.914  1.00  0.00    -0.322 N 
ATOM     15  C   UNL A   1      31.142  23.077  26.812  1.00  0.00     0.255 C 
ATOM     16  O   UNL A   1      30.226  22.951  27.624  1.00  0.00    -0.269 OA
ATOM     17  H   UNL A   1      32.194  21.562  27.599  1.00  0.00     0.170 HD
BRANCH  15  18
ATOM     18  C   UNL A   1      30.968  24.051  25.698  1.00  0.00     0.041 A 
ATOM     19  N   UNL A   1      30.846  28.195  23.724  1.00  0.00    -0.274 N 
ATOM     20  C   UNL A   1      30.741  27.139  22.862  1.00  0.00     0.261 C 
ATOM     21  C   UNL A   1      31.045  27.773  25.012  1.00  0.00     0.261 C 
ATOM     22  O   UNL A   1      30.638  27.133  21.646  1.00  0.00    -0.269 OA
ATOM     23  C   UNL A   1      30.790  25.928  23.676  1.00  0.00     0.053 A 
ATOM     24  C   UNL A   1      30.952  26.319  24.991  1.00  0.00     0.054 A 
ATOM     25  O   UNL A   1      31.291  28.416  26.013  1.00  0.00    -0.269 OA
ATOM     26  C   UNL A   1      30.691  24.599  23.320  1.00  0.00     0.015 A 
ATOM     27  C   UNL A   1      31.031  25.413  26.029  1.00  0.00     0.028 A 
ATOM     28  C   UNL A   1      30.752  23.656  24.353  1.00  0.00     0.015 A 
BRANCH  19  29
ATOM     29  C   UNL A   1      30.844  29.588  23.317  1.00  0.00     0.129 C 
BRANCH  29  30
ATOM     30  C   UNL A   1      29.485  30.273  23.499  1.00  0.00     0.019 C 
ATOM     31  C   UNL A   1      28.488  29.975  22.388  1.00  0.00     0.006 C 
ENDBRANCH  29  30
ENDBRANCH  19  29
ENDBRANCH  15  18
ENDBRANCH   8  14
ENDBRANCH   6   7
ENDBRANCH   5   6
ENDBRANCH   1   5
BRANCH   3  32
ATOM     32  C   UNL A   1      40.802  19.929  26.193  1.00  0.00     0.116 C 
BRANCH  32  33
ATOM     33  C   UNL A   1      41.851  19.240  27.071  1.00  0.00     0.023 C 
BRANCH  33  34
ATOM     34  C   UNL A   1      43.062  18.676  26.332  1.00  0.00     0.023 C 
BRANCH  34  35
ATOM     35  C   UNL A   1      43.556  19.513  25.165  1.00  0.00     0.116 C 
BRANCH  35  36
ATOM     36  N   UNL A   1      44.860  20.131  25.365  1.00  0.00    -0.352 N 
ATOM     37  C   UNL A   1      45.208  21.472  25.422  1.00  0.00     0.251 C 
ATOM     38  H   UNL A   1      45.606  19.501  25.478  1.00  0.00     0.163 HD
ATOM     39  O   UNL A   1      46.394  21.791  25.418  1.00  0.00    -0.269 OA
BRANCH  37  40
ATOM     40  C   UNL A   1      44.174  22.503  25.695  1.00  0.00     0.039 A 
ATOM     41  C   UNL A   1      44.193  23.643  24.875  1.00  0.00     0.014 A 
ATOM     42  C   UNL A   1      43.508  22.533  26.910  1.00  0.00     0.014 A 
ATOM     43  C   UNL A   1      43.860  24.875  25.421  1.00  0.00     0.010 A 
ATOM     44  C   UNL A   1      43.343  23.751  27.511  1.00  0.00     0.010 A 
ATOM     45  C   UNL A   1      43.589  24.915  26.780  1.00  0.00    -0.014 A 
BRANCH  45  46
ATOM     46  C   UNL A   1      43.533  26.120  27.573  1.00  0.00     0.031 A 
ATOM     47  C   UNL A   1      42.238  26.801  27.679  1.00  0.00     0.074 A 
ATOM     48  C   UNL A   1      44.600  26.412  28.347  1.00  0.00     0.049 A 
ATOM     49  N   UNL A   1      42.096  28.028  28.021  1.00  0.00    -0.248 NA
ATOM     50  C   UNL A   1      40.972  26.143  27.365  1.00  0.00     0.031 C 
ATOM     51  C   UNL A   1      44.674  27.323  29.483  1.00  0.00     0.029 A 
ATOM     52  N   UNL A   1      45.932  26.017  28.140  1.00  0.00    -0.354 N 
ATOM     53  C   UNL A   1      40.760  28.222  28.300  1.00  0.00     0.074 A 
ATOM     54  C   UNL A   1      40.090  27.063  27.767  1.00  0.00     0.031 C 
ATOM     55  C   UNL A   1      45.959  27.669  29.681  1.00  0.00     0.029 A 
ATOM     56  C   UNL A   1      46.723  27.104  28.580  1.00  0.00     0.049 A 
ATOM     57  H   UNL A   1      46.249  25.162  27.767  1.00  0.00     0.167 HD
ATOM     58  C   UNL A   1      40.425  29.265  29.110  1.00  0.00     0.037 A 
ATOM     59  C   UNL A   1      47.453  27.831  27.681  1.00  0.00     0.037 A 
ATOM     60  C   UNL A   1      41.626  30.023  29.455  1.00  0.00     0.049 A 
ATOM     61  C   UNL A   1      46.989  29.266  27.593  1.00  0.00     0.074 A 
ATOM     62  C   UNL A   1      42.460  29.983  30.561  1.00  0.00     0.029 A 
ATOM     63  N   UNL A   1      42.334  30.671  28.449  1.00  0.00    -0.354 N 
ATOM     64  N   UNL A   1      45.777  29.656  27.880  1.00  0.00    -0.248 NA
ATOM     65  C   UNL A   1      47.857  30.373  27.205  1.00  0.00     0.031 C 
ATOM     66  C   UNL A   1      43.693  30.579  30.199  1.00  0.00     0.029 A 
ATOM     67  C   UNL A   1      43.605  30.992  28.881  1.00  0.00     0.049 A 
ATOM     68  H   UNL A   1      41.979  30.870  27.553  1.00  0.00     0.167 HD
ATOM     69  C   UNL A   1      45.691  31.020  27.748  1.00  0.00     0.074 A 
ATOM     70  C   UNL A   1      47.020  31.418  27.324  1.00  0.00     0.031 C 
ATOM     71  C   UNL A   1      44.534  31.702  28.013  1.00  0.00     0.037 A 
BRANCH  58  72
ATOM     72  C   UNL A   1      39.108  29.427  29.838  1.00  0.00     0.064 A 
ATOM     73  C   UNL A   1      38.057  30.166  29.246  1.00  0.00     0.173 A 
ATOM     74  C   UNL A   1      38.817  28.925  31.119  1.00  0.00     0.173 A 
ATOM     75  F   UNL A   1      38.147  30.638  27.995  1.00  0.00    -0.203 F 
ATOM     76  C   UNL A   1      36.864  30.453  29.912  1.00  0.00     0.198 A 
ATOM     77  C   UNL A   1      37.636  29.242  31.802  1.00  0.00     0.198 A 
ATOM     78  F   UNL A   1      39.630  28.063  31.737  1.00  0.00    -0.203 F 
ATOM     79  F   UNL A   1      35.915  31.169  29.294  1.00  0.00    -0.200 F 
ATOM     80  C   UNL A   1      36.663  30.011  31.201  1.00  0.00     0.200 A 
ATOM     81  F   UNL A   1      37.448  28.784  33.049  1.00  0.00    -0.200 F 
ATOM     82  F   UNL A   1      35.527  30.304  31.850  1.00  0.00    -0.200 F 
ENDBRANCH  58  72
BRANCH  59  83
ATOM     83  C   UNL A   1      47.924  26.989  26.540  1.00  0.00     0.064 A 
ATOM     84  C   UNL A   1      47.348  27.237  25.274  1.00  0.00     0.173 A 
ATOM     85  C   UNL A   1      49.168  26.347  26.566  1.00  0.00     0.173 A 
ATOM     86  F   UNL A   1      46.150  27.839  25.191  1.00  0.00    -0.203 F 
ATOM     87  C   UNL A   1      48.064  27.025  24.098  1.00  0.00     0.198 A 
ATOM     88  C   UNL A   1      49.866  26.102  25.380  1.00  0.00     0.198 A 
ATOM     89  F   UNL A   1      49.768  26.075  27.733  1.00  0.00    -0.203 F 
ATOM     90  F   UNL A   1      47.557  27.434  22.925  1.00  0.00    -0.200 F 
ATOM     91  C   UNL A   1      49.337  26.488  24.155  1.00  0.00     0.200 A 
ATOM     92  F   UNL A   1      51.104  25.589  25.431  1.00  0.00    -0.200 F 
ATOM     93  F   UNL A   1      50.072  26.386  23.039  1.00  0.00    -0.200 F 
ENDBRANCH  59  83
BRANCH  71  94
ATOM     94  C   UNL A   1      44.193  33.120  27.600  1.00  0.00     0.064 A 
ATOM     95  C   UNL A   1      43.819  33.497  26.300  1.00  0.00     0.173 A 
ATOM     96  C   UNL A   1      44.088  34.152  28.571  1.00  0.00     0.173 A 
ATOM     97  F   UNL A   1      43.730  32.605  25.307  1.00  0.00    -0.203 F 
ATOM     98  C   UNL A   1      43.455  34.809  25.981  1.00  0.00     0.198 A 
ATOM     99  C   UNL A   1      43.645  35.438  28.265  1.00  0.00     0.198 A 
ATOM    100  F   UNL A   1      44.379  33.948  29.864  1.00  0.00    -0.203 F 
ATOM    101  F   UNL A   1      43.170  35.124  24.710  1.00  0.00    -0.200 F 
ATOM    102  C   UNL A   1      43.354  35.775  26.964  1.00  0.00     0.200 A 
ATOM    103  F   UNL A   1      43.485  36.336  29.247  1.00  0.00    -0.200 F 
ATOM    104  F   UNL A   1      42.956  37.016  26.660  1.00  0.00    -0.200 F 
ENDBRANCH  71  94
ENDBRANCH  45  46
ENDBRANCH  37  40
ENDBRANCH  35  36
ENDBRANCH  34  35
ENDBRANCH  33  34
ENDBRANCH  32  33
ENDBRANCH   3  32
TORSDOF 17
ENDMDL
MODEL 2
REMARK VINA RESULT:     -13.3      2.913      5.140
REMARK SMILES CCCN1C(=O)c2ccc(C(=O)Nc3ccc(OCC(=O)NCCCCNC(=O)c4ccc(-c5c6nc(c(-c7c(F)c(F)c(F)c(F)c7F)c7ccc([nH]7)c(-c7c(F)c(F)c(F)c(F)c7F)c7nc(c(-c8c(F)c(F)c(F)c(F)c8F)c8ccc5[nH]8)C=C7)C=C6)cc4)cc3C)cc2C1=O
REMARK SMILES IDX 20 1 21 2 22 3 19 5 18 6 17 7 14 8 15 9 94 10 16 11 93 12
REMARK SMILES IDX 95 13 13 14 11 15 12 16 10 18 4 19 5 20 98 21 6 22 7 23
REMARK SMILES IDX 97 24 99 25 8 26 96 27 9 28 3 29 2 30 1 31 23 32 24 33 25 34
REMARK SMILES IDX 26 35 27 36 28 37 29 39 30 40 31 41 92 42 32 43 91 44 33 45
REMARK SMILES IDX 34 46 35 47 85 48 36 49 90 50 84 51 86 52 37 53 89 54 83 55
REMARK SMILES IDX 82 56 38 58 70 59 50 60 69 61 51 62 54 63 68 64 87 65 52 66
REMARK SMILES IDX 53 67 67 69 88 70 55 71 39 72 40 73 48 74 41 75 42 76 46 77
REMARK SMILES IDX 49 78 43 79 44 80 47 81 45 82 71 83 72 84 80 85 73 86 74 87
REMARK SMILES IDX 78 88 81 89 75 90 76 91 79 92 77 93 56 94 57 95 65 96 58 97
REMARK SMILES IDX 59 98 63 99 66 100 60 101 61 102 64 103 62 104
REMARK H PARENT 22 4 13 17 27 38 86 57 54 68
REMARK Flexibility Score: inf
ROOT
ATOM      1  C   UNL A   1      32.952  20.615  25.363  1.00  0.00     0.257 C 
ATOM      2  O   UNL A   1      32.157  19.809  24.875  1.00  0.00    -0.271 OA
ATOM      3  N   UNL A   1      34.284  20.310  25.346  1.00  0.00    -0.353 N 
ATOM      4  H   UNL A   1      34.520  19.446  24.940  1.00  0.00     0.163 HD
ENDROOT
BRANCH   1   5
ATOM      5  C   UNL A   1      32.482  21.954  25.945  1.00  0.00     0.329 C 
BRANCH   5   6
ATOM      6  O   UNL A   1      31.180  22.381  25.573  1.00  0.00    -0.484 OA
BRANCH   6   7
ATOM      7  C   UNL A   1      31.068  23.587  24.940  1.00  0.00     0.120 A 
ATOM      8  C   UNL A   1      30.500  26.063  23.756  1.00  0.00     0.044 A 
ATOM      9  C   UNL A   1      30.072  25.787  25.059  1.00  0.00     0.030 A 
ATOM     10  C   UNL A   1      31.353  25.161  23.095  1.00  0.00    -0.024 A 
ATOM     11  C   UNL A   1      30.344  24.549  25.639  1.00  0.00     0.048 A 
ATOM     12  C   UNL A   1      31.609  23.915  23.697  1.00  0.00     0.052 A 
ATOM     13  C   UNL A   1      32.103  25.501  21.833  1.00  0.00     0.047 C 
BRANCH   8  14
ATOM     14  N   UNL A   1      29.980  27.232  23.183  1.00  0.00    -0.322 N 
ATOM     15  C   UNL A   1      30.268  28.553  23.456  1.00  0.00     0.255 C 
ATOM     16  O   UNL A   1      29.617  29.439  22.904  1.00  0.00    -0.269 OA
ATOM     17  H   UNL A   1      29.309  27.088  22.478  1.00  0.00     0.170 HD
BRANCH  15  18
ATOM     18  C   UNL A   1      31.403  28.953  24.335  1.00  0.00     0.041 A 
ATOM     19  N   UNL A   1      33.549  31.426  27.553  1.00  0.00    -0.274 N 
ATOM     20  C   UNL A   1      34.239  30.333  27.107  1.00  0.00     0.261 C 
ATOM     21  C   UNL A   1      32.306  31.503  26.983  1.00  0.00     0.261 C 
ATOM     22  O   UNL A   1      35.330  29.907  27.448  1.00  0.00    -0.269 OA
ATOM     23  C   UNL A   1      33.402  29.697  26.093  1.00  0.00     0.053 A 
ATOM     24  C   UNL A   1      32.232  30.427  26.003  1.00  0.00     0.054 A 
ATOM     25  O   UNL A   1      31.388  32.261  27.218  1.00  0.00    -0.269 OA
ATOM     26  C   UNL A   1      33.629  28.588  25.304  1.00  0.00     0.015 A 
ATOM     27  C   UNL A   1      31.218  30.096  25.128  1.00  0.00     0.028 A 
ATOM     28  C   UNL A   1      32.624  28.236  24.395  1.00  0.00     0.015 A 
BRANCH  19  29
ATOM     29  C   UNL A   1      34.032  32.337  28.574  1.00  0.00     0.129 C 
BRANCH  29  30
ATOM     30  C   UNL A   1      34.282  33.757  28.054  1.00  0.00     0.019 C 
ATOM     31  C   UNL A   1      33.452  34.826  28.751  1.00  0.00     0.006 C 
ENDBRANCH  29  30
ENDBRANCH  19  29
ENDBRANCH  15  18
ENDBRANCH   8  14
ENDBRANCH   6   7
ENDBRANCH   5   6
ENDBRANCH   1   5
BRANCH   3  32
ATOM     32  C   UNL A   1      35.397  21.096  25.848  1.00  0.00     0.116 C 
BRANCH  32  33
ATOM     33  C   UNL A   1      36.310  21.620  24.736  1.00  0.00     0.023 C 
BRANCH  33  34
ATOM     34  C   UNL A   1      37.779  21.794  25.115  1.00  0.00     0.023 C 
BRANCH  34  35
ATOM     35  C   UNL A   1      38.067  22.919  26.095  1.00  0.00     0.116 C 
BRANCH  35  36
ATOM     36  N   UNL A   1      39.365  22.840  26.751  1.00  0.00    -0.352 N 
ATOM     37  C   UNL A   1      40.180  23.852  27.235  1.00  0.00     0.251 C 
ATOM     38  H   UNL A   1      39.718  21.929  26.868  1.00  0.00     0.163 HD
ATOM     39  O   UNL A   1      41.324  23.591  27.593  1.00  0.00    -0.269 OA
BRANCH  37  40
ATOM     40  C   UNL A   1      39.614  25.198  27.515  1.00  0.00     0.039 A 
ATOM     41  C   UNL A   1      40.018  26.238  26.662  1.00  0.00     0.014 A 
ATOM     42  C   UNL A   1      39.062  25.489  28.752  1.00  0.00     0.014 A 
ATOM     43  C   UNL A   1      40.190  27.512  27.184  1.00  0.00     0.010 A 
ATOM     44  C   UNL A   1      39.387  26.689  29.323  1.00  0.00     0.010 A 
ATOM     45  C   UNL A   1      40.014  27.668  28.550  1.00  0.00    -0.014 A 
BRANCH  45  46
ATOM     46  C   UNL A   1      40.444  28.819  29.309  1.00  0.00     0.031 A 
ATOM     47  C   UNL A   1      39.437  29.838  29.623  1.00  0.00     0.074 A 
ATOM     48  C   UNL A   1      41.669  28.774  29.877  1.00  0.00     0.049 A 
ATOM     49  N   UNL A   1      39.714  31.045  29.953  1.00  0.00    -0.248 NA
ATOM     50  C   UNL A   1      38.001  29.577  29.553  1.00  0.00     0.031 C 
ATOM     51  C   UNL A   1      42.197  29.596  30.959  1.00  0.00     0.029 A 
ATOM     52  N   UNL A   1      42.775  28.020  29.450  1.00  0.00    -0.354 N 
ATOM     53  C   UNL A   1      38.559  31.605  30.456  1.00  0.00     0.074 A 
ATOM     54  C   UNL A   1      37.504  30.700  30.079  1.00  0.00     0.031 C 
ATOM     55  C   UNL A   1      43.542  29.555  30.919  1.00  0.00     0.029 A 
ATOM     56  C   UNL A   1      43.907  28.825  29.717  1.00  0.00     0.049 A 
ATOM     57  H   UNL A   1      42.764  27.120  29.050  1.00  0.00     0.167 HD
ATOM     58  C   UNL A   1      38.683  32.680  31.285  1.00  0.00     0.037 A 
ATOM     59  C   UNL A   1      44.645  29.335  28.685  1.00  0.00     0.037 A 
ATOM     60  C   UNL A   1      40.092  33.054  31.395  1.00  0.00     0.049 A 
ATOM     61  C   UNL A   1      44.602  30.845  28.642  1.00  0.00     0.074 A 
ATOM     62  C   UNL A   1      41.059  32.748  32.339  1.00  0.00     0.029 A 
ATOM     63  N   UNL A   1      40.767  33.498  30.265  1.00  0.00    -0.354 N 
ATOM     64  N   UNL A   1      43.622  31.558  29.128  1.00  0.00    -0.248 NA
ATOM     65  C   UNL A   1      45.668  31.668  28.080  1.00  0.00     0.031 C 
ATOM     66  C   UNL A   1      42.328  32.977  31.751  1.00  0.00     0.029 A 
ATOM     67  C   UNL A   1      42.132  33.432  30.459  1.00  0.00     0.049 A 
ATOM     68  H   UNL A   1      40.332  33.813  29.440  1.00  0.00     0.167 HD
ATOM     69  C   UNL A   1      43.907  32.892  28.978  1.00  0.00     0.074 A 
ATOM     70  C   UNL A   1      45.198  32.905  28.317  1.00  0.00     0.031 C 
ATOM     71  C   UNL A   1      43.058  33.869  29.423  1.00  0.00     0.037 A 
BRANCH  58  72
ATOM     72  C   UNL A   1      37.616  33.192  32.228  1.00  0.00     0.064 A 
ATOM     73  C   UNL A   1      36.553  33.984  31.734  1.00  0.00     0.173 A 
ATOM     74  C   UNL A   1      37.586  32.982  33.619  1.00  0.00     0.173 A 
ATOM     75  F   UNL A   1      36.393  34.204  30.422  1.00  0.00    -0.203 F 
ATOM     76  C   UNL A   1      35.606  34.585  32.564  1.00  0.00     0.198 A 
ATOM     77  C   UNL A   1      36.659  33.613  34.457  1.00  0.00     0.198 A 
ATOM     78  F   UNL A   1      38.411  32.116  34.216  1.00  0.00    -0.203 F 
ATOM     79  F   UNL A   1      34.632  35.333  32.027  1.00  0.00    -0.200 F 
ATOM     80  C   UNL A   1      35.673  34.420  33.930  1.00  0.00     0.200 A 
ATOM     81  F   UNL A   1      36.726  33.423  35.783  1.00  0.00    -0.200 F 
ATOM     82  F   UNL A   1      34.777  35.013  34.731  1.00  0.00    -0.200 F 
ENDBRANCH  58  72
BRANCH  59  83
ATOM     83  C   UNL A   1      44.649  28.424  27.501  1.00  0.00     0.064 A 
ATOM     84  C   UNL A   1      45.245  27.155  27.666  1.00  0.00     0.173 A 
ATOM     85  C   UNL A   1      43.725  28.571  26.459  1.00  0.00     0.173 A 
ATOM     86  F   UNL A   1      46.148  26.962  28.641  1.00  0.00    -0.203 F 
ATOM     87  C   UNL A   1      44.801  26.046  26.949  1.00  0.00     0.198 A 
ATOM     88  C   UNL A   1      43.310  27.461  25.716  1.00  0.00     0.198 A 
ATOM     89  F   UNL A   1      43.126  29.750  26.242  1.00  0.00    -0.203 F 
ATOM     90  F   UNL A   1      45.265  24.825  27.253  1.00  0.00    -0.200 F 
ATOM     91  C   UNL A   1      43.809  26.196  25.997  1.00  0.00     0.200 A 
ATOM     92  F   UNL A   1      42.342  27.599  24.798  1.00  0.00    -0.200 F 
ATOM     93  F   UNL A   1      43.300  25.118  25.384  1.00  0.00    -0.200 F 
ENDBRANCH  59  83
BRANCH  71  94
ATOM     94  C   UNL A   1      43.069  35.336  29.040  1.00  0.00     0.064 A 
ATOM     95  C   UNL A   1      42.541  35.844  27.842  1.00  0.00     0.173 A 
ATOM     96  C   UNL A   1      43.497  36.324  29.968  1.00  0.00     0.173 A 
ATOM     97  F   UNL A   1      41.971  35.048  26.931  1.00  0.00    -0.203 F 
ATOM     98  C   UNL A   1      42.521  37.214  27.560  1.00  0.00     0.198 A 
ATOM     99  C   UNL A   1      43.398  37.691  29.716  1.00  0.00     0.198 A 
ATOM    100  F   UNL A   1      43.997  36.005  31.170  1.00  0.00    -0.203 F 
ATOM    101  F   UNL A   1      42.064  37.635  26.373  1.00  0.00    -0.200 F 
ATOM    102  C   UNL A   1      42.935  38.137  28.501  1.00  0.00     0.200 A 
ATOM    103  F   UNL A   1      43.738  38.568  30.673  1.00  0.00    -0.200 F 
ATOM    104  F   UNL A   1      42.865  39.449  28.244  1.00  0.00    -0.200 F 
ENDBRANCH  71  94
ENDBRANCH  45  46
ENDBRANCH  37  40
ENDBRANCH  35  36
ENDBRANCH  34  35
ENDBRANCH  33  34
ENDBRANCH  32  33
ENDBRANCH   3  32
TORSDOF 17
ENDMDL
MODEL 3
REMARK VINA RESULT:     -13.2      0.753      1.463
REMARK SMILES CCCN1C(=O)c2ccc(C(=O)Nc3ccc(OCC(=O)NCCCCNC(=O)c4ccc(-c5c6nc(c(-c7c(F)c(F)c(F)c(F)c7F)c7ccc([nH]7)c(-c7c(F)c(F)c(F)c(F)c7F)c7nc(c(-c8c(F)c(F)c(F)c(F)c8F)c8ccc5[nH]8)C=C7)C=C6)cc4)cc3C)cc2C1=O
REMARK SMILES IDX 20 1 21 2 22 3 19 5 18 6 17 7 14 8 15 9 94 10 16 11 93 12
REMARK SMILES IDX 95 13 13 14 11 15 12 16 10 18 4 19 5 20 98 21 6 22 7 23
REMARK SMILES IDX 97 24 99 25 8 26 96 27 9 28 3 29 2 30 1 31 23 32 24 33 25 34
REMARK SMILES IDX 26 35 27 36 28 37 29 39 30 40 31 41 92 42 32 43 91 44 33 45
REMARK SMILES IDX 34 46 35 47 85 48 36 49 90 50 84 51 86 52 37 53 89 54 83 55
REMARK SMILES IDX 82 56 38 58 70 59 50 60 69 61 51 62 54 63 68 64 87 65 52 66
REMARK SMILES IDX 53 67 67 69 88 70 55 71 39 72 40 73 48 74 41 75 42 76 46 77
REMARK SMILES IDX 49 78 43 79 44 80 47 81 45 82 71 83 72 84 80 85 73 86 74 87
REMARK SMILES IDX 78 88 81 89 75 90 76 91 79 92 77 93 56 94 57 95 65 96 58 97
REMARK SMILES IDX 59 98 63 99 66 100 60 101 61 102 64 103 62 104
REMARK H PARENT 22 4 13 17 27 38 86 57 54 68
REMARK Flexibility Score: inf
ROOT
ATOM      1  C   UNL A   1      38.748  22.548  26.094  1.00  0.00     0.257 C 
ATOM      2  O   UNL A   1      38.535  23.578  26.735  1.00  0.00    -0.271 OA
ATOM      3  N   UNL A   1      39.888  21.839  26.355  1.00  0.00    -0.353 N 
ATOM      4  H   UNL A   1      40.474  22.215  27.050  1.00  0.00     0.163 HD
ENDROOT
BRANCH   1   5
ATOM      5  C   UNL A   1      37.750  22.030  25.050  1.00  0.00     0.329 C 
BRANCH   5   6
ATOM      6  O   UNL A   1      36.822  21.052  25.496  1.00  0.00    -0.484 OA
BRANCH   6   7
ATOM      7  C   UNL A   1      35.519  21.439  25.644  1.00  0.00     0.120 A 
ATOM      8  C   UNL A   1      32.869  22.091  26.277  1.00  0.00     0.044 A 
ATOM      9  C   UNL A   1      33.891  22.306  27.207  1.00  0.00     0.030 A 
ATOM     10  C   UNL A   1      33.188  21.696  24.966  1.00  0.00    -0.024 A 
ATOM     11  C   UNL A   1      35.207  21.968  26.894  1.00  0.00     0.048 A 
ATOM     12  C   UNL A   1      34.521  21.353  24.674  1.00  0.00     0.052 A 
ATOM     13  C   UNL A   1      32.205  21.732  23.825  1.00  0.00     0.047 C 
BRANCH   8  14
ATOM     14  N   UNL A   1      31.564  22.243  26.767  1.00  0.00    -0.322 N 
ATOM     15  C   UNL A   1      30.773  23.370  26.838  1.00  0.00     0.255 C 
ATOM     16  O   UNL A   1      29.682  23.308  27.404  1.00  0.00    -0.269 OA
ATOM     17  H   UNL A   1      31.149  21.419  27.112  1.00  0.00     0.170 HD
BRANCH  15  18
ATOM     18  C   UNL A   1      31.152  24.649  26.175  1.00  0.00     0.041 A 
ATOM     19  N   UNL A   1      30.529  28.353  23.534  1.00  0.00    -0.274 N 
ATOM     20  C   UNL A   1      31.699  28.336  24.241  1.00  0.00     0.261 C 
ATOM     21  C   UNL A   1      29.745  27.271  23.834  1.00  0.00     0.261 C 
ATOM     22  O   UNL A   1      32.594  29.165  24.289  1.00  0.00    -0.269 OA
ATOM     23  C   UNL A   1      31.711  27.088  24.999  1.00  0.00     0.053 A 
ATOM     24  C   UNL A   1      30.527  26.428  24.730  1.00  0.00     0.054 A 
ATOM     25  O   UNL A   1      28.609  27.014  23.491  1.00  0.00    -0.269 OA
ATOM     26  C   UNL A   1      32.664  26.555  25.842  1.00  0.00     0.015 A 
ATOM     27  C   UNL A   1      30.218  25.204  25.286  1.00  0.00     0.028 A 
ATOM     28  C   UNL A   1      32.386  25.305  26.409  1.00  0.00     0.015 A 
BRANCH  19  29
ATOM     29  C   UNL A   1      30.123  29.430  22.650  1.00  0.00     0.129 C 
BRANCH  29  30
ATOM     30  C   UNL A   1      29.433  30.589  23.379  1.00  0.00     0.019 C 
ATOM     31  C   UNL A   1      27.919  30.454  23.462  1.00  0.00     0.006 C 
ENDBRANCH  29  30
ENDBRANCH  19  29
ENDBRANCH  15  18
ENDBRANCH   8  14
ENDBRANCH   6   7
ENDBRANCH   5   6
ENDBRANCH   1   5
BRANCH   3  32
ATOM     32  C   UNL A   1      40.346  20.607  25.741  1.00  0.00     0.116 C 
BRANCH  32  33
ATOM     33  C   UNL A   1      40.806  19.563  26.763  1.00  0.00     0.023 C 
BRANCH  33  34
ATOM     34  C   UNL A   1      42.295  19.229  26.740  1.00  0.00     0.023 C 
BRANCH  34  35
ATOM     35  C   UNL A   1      43.021  19.591  25.455  1.00  0.00     0.116 C 
BRANCH  35  36
ATOM     36  N   UNL A   1      44.360  20.133  25.642  1.00  0.00    -0.352 N 
ATOM     37  C   UNL A   1      44.793  21.450  25.652  1.00  0.00     0.251 C 
ATOM     38  H   UNL A   1      45.065  19.461  25.783  1.00  0.00     0.163 HD
ATOM     39  O   UNL A   1      45.996  21.693  25.644  1.00  0.00    -0.269 OA
BRANCH  37  40
ATOM     40  C   UNL A   1      43.825  22.554  25.879  1.00  0.00     0.039 A 
ATOM     41  C   UNL A   1      43.974  23.695  25.073  1.00  0.00     0.014 A 
ATOM     42  C   UNL A   1      43.097  22.626  27.055  1.00  0.00     0.014 A 
ATOM     43  C   UNL A   1      43.705  24.944  25.613  1.00  0.00     0.010 A 
ATOM     44  C   UNL A   1      42.990  23.849  27.660  1.00  0.00     0.010 A 
ATOM     45  C   UNL A   1      43.362  24.996  26.955  1.00  0.00    -0.014 A 
BRANCH  45  46
ATOM     46  C   UNL A   1      43.352  26.197  27.757  1.00  0.00     0.031 A 
ATOM     47  C   UNL A   1      42.079  26.914  27.885  1.00  0.00     0.074 A 
ATOM     48  C   UNL A   1      44.439  26.453  28.518  1.00  0.00     0.049 A 
ATOM     49  N   UNL A   1      41.979  28.143  28.237  1.00  0.00    -0.248 NA
ATOM     50  C   UNL A   1      40.791  26.296  27.585  1.00  0.00     0.031 C 
ATOM     51  C   UNL A   1      44.555  27.353  29.658  1.00  0.00     0.029 A 
ATOM     52  N   UNL A   1      45.756  26.020  28.289  1.00  0.00    -0.354 N 
ATOM     53  C   UNL A   1      40.653  28.373  28.536  1.00  0.00     0.074 A 
ATOM     54  C   UNL A   1      39.942  27.238  28.006  1.00  0.00     0.031 C 
ATOM     55  C   UNL A   1      45.852  27.660  29.840  1.00  0.00     0.029 A 
ATOM     56  C   UNL A   1      46.584  27.081  28.724  1.00  0.00     0.049 A 
ATOM     57  H   UNL A   1      46.042  25.159  27.906  1.00  0.00     0.167 HD
ATOM     58  C   UNL A   1      40.359  29.421  29.357  1.00  0.00     0.037 A 
ATOM     59  C   UNL A   1      47.322  27.792  27.820  1.00  0.00     0.037 A 
ATOM     60  C   UNL A   1      41.588  30.141  29.691  1.00  0.00     0.049 A 
ATOM     61  C   UNL A   1      46.899  29.241  27.747  1.00  0.00     0.074 A 
ATOM     62  C   UNL A   1      42.435  30.068  30.785  1.00  0.00     0.029 A 
ATOM     63  N   UNL A   1      42.300  30.774  28.679  1.00  0.00    -0.354 N 
ATOM     64  N   UNL A   1      45.703  29.664  28.055  1.00  0.00    -0.248 NA
ATOM     65  C   UNL A   1      47.794  30.325  27.355  1.00  0.00     0.031 C 
ATOM     66  C   UNL A   1      43.680  30.631  30.409  1.00  0.00     0.029 A 
ATOM     67  C   UNL A   1      43.585  31.056  29.095  1.00  0.00     0.049 A 
ATOM     68  H   UNL A   1      41.938  30.990  27.790  1.00  0.00     0.167 HD
ATOM     69  C   UNL A   1      45.655  31.031  27.933  1.00  0.00     0.074 A 
ATOM     70  C   UNL A   1      46.989  31.393  27.492  1.00  0.00     0.031 C 
ATOM     71  C   UNL A   1      44.522  31.744  28.218  1.00  0.00     0.037 A 
BRANCH  58  72
ATOM     72  C   UNL A   1      39.058  29.616  30.105  1.00  0.00     0.064 A 
ATOM     73  C   UNL A   1      38.082  30.510  29.608  1.00  0.00     0.173 A 
ATOM     74  C   UNL A   1      38.715  28.997  31.321  1.00  0.00     0.173 A 
ATOM     75  F   UNL A   1      38.222  31.113  28.420  1.00  0.00    -0.203 F 
ATOM     76  C   UNL A   1      36.916  30.825  30.308  1.00  0.00     0.198 A 
ATOM     77  C   UNL A   1      37.563  29.338  32.041  1.00  0.00     0.198 A 
ATOM     78  F   UNL A   1      39.443  27.999  31.831  1.00  0.00    -0.203 F 
ATOM     79  F   UNL A   1      36.040  31.691  29.781  1.00  0.00    -0.200 F 
ATOM     80  C   UNL A   1      36.668  30.257  31.538  1.00  0.00     0.200 A 
ATOM     81  F   UNL A   1      37.327  28.758  33.227  1.00  0.00    -0.200 F 
ATOM     82  F   UNL A   1      35.559  30.574  32.221  1.00  0.00    -0.200 F 
ENDBRANCH  58  72
BRANCH  59  83
ATOM     83  C   UNL A   1      47.752  26.945  26.667  1.00  0.00     0.064 A 
ATOM     84  C   UNL A   1      47.124  27.179  25.424  1.00  0.00     0.173 A 
ATOM     85  C   UNL A   1      49.001  26.311  26.648  1.00  0.00     0.173 A 
ATOM     86  F   UNL A   1      45.919  27.772  25.385  1.00  0.00    -0.203 F 
ATOM     87  C   UNL A   1      47.793  26.963  24.221  1.00  0.00     0.198 A 
ATOM     88  C   UNL A   1      49.652  26.061  25.436  1.00  0.00     0.198 A 
ATOM     89  F   UNL A   1      49.649  26.052  27.791  1.00  0.00    -0.203 F 
ATOM     90  F   UNL A   1      47.236  27.360  23.067  1.00  0.00    -0.200 F 
ATOM     91  C   UNL A   1      49.071  26.435  24.231  1.00  0.00     0.200 A 
ATOM     92  F   UNL A   1      50.895  25.557  25.440  1.00  0.00    -0.200 F 
ATOM     93  F   UNL A   1      49.761  26.329  23.087  1.00  0.00    -0.200 F 
ENDBRANCH  59  83
BRANCH  71  94
ATOM     94  C   UNL A   1      44.217  33.174  27.819  1.00  0.00     0.064 A 
ATOM     95  C   UNL A   1      44.367  34.282  28.670  1.00  0.00     0.173 A 
ATOM     96  C   UNL A   1      43.894  33.497  26.474  1.00  0.00     0.173 A 
ATOM     97  F   UNL A   1      44.805  34.149  29.926  1.00  0.00    -0.203 F 
ATOM     98  C   UNL A   1      44.129  35.590  28.236  1.00  0.00     0.198 A 
ATOM     99  C   UNL A   1      43.739  34.809  26.026  1.00  0.00     0.198 A 
ATOM    100  F   UNL A   1      43.745  32.557  25.530  1.00  0.00    -0.203 F 
ATOM    101  F   UNL A   1      44.225  36.601  29.111  1.00  0.00    -0.200 F 
ATOM    102  C   UNL A   1      43.831  35.855  26.914  1.00  0.00     0.200 A 
ATOM    103  F   UNL A   1      43.522  35.044  24.724  1.00  0.00    -0.200 F 
ATOM    104  F   UNL A   1      43.655  37.114  26.494  1.00  0.00    -0.200 F 
ENDBRANCH  71  94
ENDBRANCH  45  46
ENDBRANCH  37  40
ENDBRANCH  35  36
ENDBRANCH  34  35
ENDBRANCH  33  34
ENDBRANCH  32  33
ENDBRANCH   3  32
TORSDOF 17
ENDMDL
