MODEL 1
REMARK VINA RESULT:     -11.8      0.000      0.000
REMARK SMILES CCCn1ncc(C(=O)N2CCC[C@@H]2C(=O)NCCCCNC(=O)c2ccc(-c3c4nc(c(-c5c(F)c(F)c(F)c(F)c5F)c5ccc([nH]5)c(-c5c(F)c(F)c(F)c(F)c5F)c5nc(c(-c6c(F)c(F)c(F)c(F)c6F)c6ccc3[nH]6)C=C5)C=C4)cc2)c1C
REMARK SMILES IDX 18 1 17 2 15 3 16 4 14 6 10 7 11 8 12 9 13 10 8 11 9 12 7 13
REMARK SMILES IDX 4 14 5 15 88 16 6 17 89 18 3 19 2 20 1 21 19 22 20 23 21 24
REMARK SMILES IDX 22 25 23 26 24 28 25 29 26 30 87 31 27 32 86 33 28 34 29 35
REMARK SMILES IDX 30 36 80 37 31 38 85 39 79 40 81 41 32 42 84 43 78 44 77 45
REMARK SMILES IDX 33 47 65 48 45 49 64 50 46 51 49 52 63 53 82 54 47 55 48 56
REMARK SMILES IDX 62 58 83 59 50 60 34 61 35 62 43 63 36 64 37 65 41 66 44 67
REMARK SMILES IDX 38 68 39 69 42 70 40 71 66 72 67 73 75 74 68 75 69 76 73 77
REMARK SMILES IDX 76 78 70 79 71 80 74 81 72 82 51 83 52 84 60 85 53 86 54 87
REMARK SMILES IDX 58 88 61 89 55 90 56 91 59 92 57 93
REMARK H PARENT 17 5 22 27 81 46 49 57
REMARK Flexibility Score: inf
ROOT
ATOM      1  C   UNL A   1      36.625  23.273  25.658  1.00  0.00     0.116 C 
ENDROOT
BRANCH   1   2
ATOM      2  N   UNL A   1      35.774  22.598  26.614  1.00  0.00    -0.354 N 
ATOM      3  C   UNL A   1      34.791  21.666  26.432  1.00  0.00     0.242 C 
ATOM      4  O   UNL A   1      34.117  21.374  27.426  1.00  0.00    -0.273 OA
ATOM      5  H   UNL A   1      35.928  22.854  27.552  1.00  0.00     0.163 HD
BRANCH   3   6
ATOM      6  C   UNL A   1      34.403  21.115  25.037  1.00  0.00     0.174 C 
ATOM      7  N   UNL A   1      32.970  21.072  24.794  1.00  0.00    -0.327 N 
ATOM      8  C   UNL A   1      32.609  19.890  24.041  1.00  0.00     0.121 C 
ATOM      9  C   UNL A   1      33.616  18.859  24.508  1.00  0.00     0.024 C 
ATOM     10  C   UNL A   1      34.876  19.673  24.818  1.00  0.00     0.037 C 
BRANCH   7  11
ATOM     11  C   UNL A   1      32.261  22.243  24.719  1.00  0.00     0.258 C 
ATOM     12  O   UNL A   1      31.157  22.375  25.262  1.00  0.00    -0.269 OA
BRANCH  11  13
ATOM     13  C   UNL A   1      32.781  23.230  23.790  1.00  0.00     0.080 A 
ATOM     14  N   UNL A   1      33.314  25.178  22.928  1.00  0.00    -0.269 N 
ATOM     15  N   UNL A   1      33.229  24.363  21.857  1.00  0.00    -0.180 NA
ATOM     16  C   UNL A   1      33.163  24.520  24.116  1.00  0.00     0.048 A 
ATOM     17  C   UNL A   1      32.942  23.178  22.390  1.00  0.00     0.149 A 
ATOM     18  C   UNL A   1      33.341  25.121  25.457  1.00  0.00     0.067 C 
BRANCH  14  19
ATOM     19  C   UNL A   1      33.624  26.565  22.689  1.00  0.00     0.144 C 
BRANCH  19  20
ATOM     20  C   UNL A   1      32.443  27.496  22.494  1.00  0.00     0.020 C 
ATOM     21  C   UNL A   1      31.196  27.346  23.344  1.00  0.00     0.006 C 
ENDBRANCH  19  20
ENDBRANCH  14  19
ENDBRANCH  11  13
ENDBRANCH   7  11
ENDBRANCH   3   6
ENDBRANCH   1   2
BRANCH   1  22
ATOM     22  C   UNL A   1      38.073  23.403  26.122  1.00  0.00     0.023 C 
BRANCH  22  23
ATOM     23  C   UNL A   1      38.910  22.124  26.037  1.00  0.00     0.023 C 
BRANCH  23  24
ATOM     24  C   UNL A   1      40.066  22.044  27.031  1.00  0.00     0.116 C 
BRANCH  24  25
ATOM     25  N   UNL A   1      41.381  22.189  26.412  1.00  0.00    -0.352 N 
ATOM     26  C   UNL A   1      42.048  23.369  26.129  1.00  0.00     0.251 C 
ATOM     27  H   UNL A   1      41.846  21.356  26.169  1.00  0.00     0.163 HD
ATOM     28  O   UNL A   1      42.910  23.412  25.259  1.00  0.00    -0.269 OA
BRANCH  26  29
ATOM     29  C   UNL A   1      41.695  24.582  26.891  1.00  0.00     0.039 A 
ATOM     30  C   UNL A   1      42.251  24.835  28.148  1.00  0.00     0.014 A 
ATOM     31  C   UNL A   1      40.824  25.498  26.303  1.00  0.00     0.014 A 
ATOM     32  C   UNL A   1      42.026  26.074  28.750  1.00  0.00     0.010 A 
ATOM     33  C   UNL A   1      40.684  26.758  26.846  1.00  0.00     0.010 A 
ATOM     34  C   UNL A   1      41.280  27.053  28.071  1.00  0.00    -0.014 A 
BRANCH  34  35
ATOM     35  C   UNL A   1      41.264  28.447  28.513  1.00  0.00     0.031 A 
ATOM     36  C   UNL A   1      42.355  29.290  28.001  1.00  0.00     0.074 A 
ATOM     37  C   UNL A   1      40.306  28.992  29.291  1.00  0.00     0.049 A 
ATOM     38  N   UNL A   1      43.371  29.638  28.716  1.00  0.00    -0.248 NA
ATOM     39  C   UNL A   1      42.443  29.686  26.597  1.00  0.00     0.031 C 
ATOM     40  C   UNL A   1      39.258  28.260  29.993  1.00  0.00     0.029 A 
ATOM     41  N   UNL A   1      40.069  30.299  29.646  1.00  0.00    -0.354 N 
ATOM     42  C   UNL A   1      44.109  30.506  27.937  1.00  0.00     0.074 A 
ATOM     43  C   UNL A   1      43.598  30.364  26.596  1.00  0.00     0.031 C 
ATOM     44  C   UNL A   1      38.438  29.144  30.599  1.00  0.00     0.029 A 
ATOM     45  C   UNL A   1      38.857  30.490  30.293  1.00  0.00     0.049 A 
ATOM     46  H   UNL A   1      40.700  31.031  29.458  1.00  0.00     0.167 HD
ATOM     47  C   UNL A   1      44.867  31.455  28.551  1.00  0.00     0.037 A 
ATOM     48  C   UNL A   1      38.356  31.538  30.987  1.00  0.00     0.037 A 
ATOM     49  C   UNL A   1      44.982  31.183  29.969  1.00  0.00     0.049 A 
ATOM     50  C   UNL A   1      39.508  32.209  31.594  1.00  0.00     0.074 A 
ATOM     51  C   UNL A   1      45.605  30.236  30.755  1.00  0.00     0.029 A 
ATOM     52  N   UNL A   1      44.009  31.767  30.738  1.00  0.00    -0.354 N 
ATOM     53  N   UNL A   1      40.188  31.683  32.574  1.00  0.00    -0.248 NA
ATOM     54  C   UNL A   1      40.172  33.267  30.852  1.00  0.00     0.031 C 
ATOM     55  C   UNL A   1      44.806  30.113  31.933  1.00  0.00     0.029 A 
ATOM     56  C   UNL A   1      43.752  31.020  31.856  1.00  0.00     0.049 A 
ATOM     57  H   UNL A   1      43.555  32.612  30.515  1.00  0.00     0.167 HD
ATOM     58  C   UNL A   1      41.496  31.991  32.260  1.00  0.00     0.074 A 
ATOM     59  C   UNL A   1      41.413  33.098  31.312  1.00  0.00     0.031 C 
ATOM     60  C   UNL A   1      42.501  31.126  32.571  1.00  0.00     0.037 A 
BRANCH  47  61
ATOM     61  C   UNL A   1      45.092  32.850  28.021  1.00  0.00     0.064 A 
ATOM     62  C   UNL A   1      46.410  33.270  27.748  1.00  0.00     0.173 A 
ATOM     63  C   UNL A   1      44.126  33.877  28.084  1.00  0.00     0.173 A 
ATOM     64  F   UNL A   1      47.413  32.380  27.700  1.00  0.00    -0.203 F 
ATOM     65  C   UNL A   1      46.743  34.620  27.616  1.00  0.00     0.198 A 
ATOM     66  C   UNL A   1      44.454  35.219  27.899  1.00  0.00     0.198 A 
ATOM     67  F   UNL A   1      42.860  33.643  28.447  1.00  0.00    -0.203 F 
ATOM     68  F   UNL A   1      48.027  34.980  27.481  1.00  0.00    -0.200 F 
ATOM     69  C   UNL A   1      45.765  35.594  27.694  1.00  0.00     0.200 A 
ATOM     70  F   UNL A   1      43.497  36.151  28.011  1.00  0.00    -0.200 F 
ATOM     71  F   UNL A   1      46.089  36.892  27.627  1.00  0.00    -0.200 F 
ENDBRANCH  47  61
BRANCH  48  72
ATOM     72  C   UNL A   1      37.036  32.180  30.769  1.00  0.00     0.064 A 
ATOM     73  C   UNL A   1      36.054  32.165  31.773  1.00  0.00     0.173 A 
ATOM     74  C   UNL A   1      36.768  32.981  29.644  1.00  0.00     0.173 A 
ATOM     75  F   UNL A   1      36.237  31.431  32.881  1.00  0.00    -0.203 F 
ATOM     76  C   UNL A   1      34.891  32.936  31.677  1.00  0.00     0.198 A 
ATOM     77  C   UNL A   1      35.604  33.751  29.547  1.00  0.00     0.198 A 
ATOM     78  F   UNL A   1      37.657  33.072  28.642  1.00  0.00    -0.203 F 
ATOM     79  F   UNL A   1      34.000  32.930  32.679  1.00  0.00    -0.200 F 
ATOM     80  C   UNL A   1      34.672  33.739  30.570  1.00  0.00     0.200 A 
ATOM     81  F   UNL A   1      35.410  34.537  28.478  1.00  0.00    -0.200 F 
ATOM     82  F   UNL A   1      33.582  34.515  30.501  1.00  0.00    -0.200 F 
ENDBRANCH  48  72
BRANCH  60  83
ATOM     83  C   UNL A   1      42.217  30.123  33.651  1.00  0.00     0.064 A 
ATOM     84  C   UNL A   1      41.763  28.816  33.426  1.00  0.00     0.173 A 
ATOM     85  C   UNL A   1      42.483  30.493  34.974  1.00  0.00     0.173 A 
ATOM     86  F   UNL A   1      41.564  28.365  32.185  1.00  0.00    -0.203 F 
ATOM     87  C   UNL A   1      41.544  27.931  34.482  1.00  0.00     0.198 A 
ATOM     88  C   UNL A   1      42.299  29.600  36.024  1.00  0.00     0.198 A 
ATOM     89  F   UNL A   1      42.956  31.720  35.243  1.00  0.00    -0.203 F 
ATOM     90  F   UNL A   1      41.087  26.693  34.240  1.00  0.00    -0.200 F 
ATOM     91  C   UNL A   1      41.818  28.324  35.781  1.00  0.00     0.200 A 
ATOM     92  F   UNL A   1      42.605  29.972  37.275  1.00  0.00    -0.200 F 
ATOM     93  F   UNL A   1      41.640  27.466  36.795  1.00  0.00    -0.200 F 
ENDBRANCH  60  83
ENDBRANCH  34  35
ENDBRANCH  26  29
ENDBRANCH  24  25
ENDBRANCH  23  24
ENDBRANCH  22  23
ENDBRANCH   1  22
TORSDOF 15
ENDMDL
MODEL 2
REMARK VINA RESULT:     -11.7      1.071      1.658
REMARK SMILES CCCn1ncc(C(=O)N2CCC[C@@H]2C(=O)NCCCCNC(=O)c2ccc(-c3c4nc(c(-c5c(F)c(F)c(F)c(F)c5F)c5ccc([nH]5)c(-c5c(F)c(F)c(F)c(F)c5F)c5nc(c(-c6c(F)c(F)c(F)c(F)c6F)c6ccc3[nH]6)C=C5)C=C4)cc2)c1C
REMARK SMILES IDX 18 1 17 2 15 3 16 4 14 6 10 7 11 8 12 9 13 10 8 11 9 12 7 13
REMARK SMILES IDX 4 14 5 15 88 16 6 17 89 18 3 19 2 20 1 21 19 22 20 23 21 24
REMARK SMILES IDX 22 25 23 26 24 28 25 29 26 30 87 31 27 32 86 33 28 34 29 35
REMARK SMILES IDX 30 36 80 37 31 38 85 39 79 40 81 41 32 42 84 43 78 44 77 45
REMARK SMILES IDX 33 47 65 48 45 49 64 50 46 51 49 52 63 53 82 54 47 55 48 56
REMARK SMILES IDX 62 58 83 59 50 60 34 61 35 62 43 63 36 64 37 65 41 66 44 67
REMARK SMILES IDX 38 68 39 69 42 70 40 71 66 72 67 73 75 74 68 75 69 76 73 77
REMARK SMILES IDX 76 78 70 79 71 80 74 81 72 82 51 83 52 84 60 85 53 86 54 87
REMARK SMILES IDX 58 88 61 89 55 90 56 91 59 92 57 93
REMARK H PARENT 17 5 22 27 81 46 49 57
REMARK Flexibility Score: inf
ROOT
ATOM      1  C   UNL A   1      36.652  23.495  25.508  1.00  0.00     0.116 C 
ENDROOT
BRANCH   1   2
ATOM      2  N   UNL A   1      35.924  22.932  26.625  1.00  0.00    -0.354 N 
ATOM      3  C   UNL A   1      34.663  22.410  26.697  1.00  0.00     0.242 C 
ATOM      4  O   UNL A   1      34.242  22.139  27.827  1.00  0.00    -0.273 OA
ATOM      5  H   UNL A   1      36.420  22.925  27.475  1.00  0.00     0.163 HD
BRANCH   3   6
ATOM      6  C   UNL A   1      33.723  22.311  25.469  1.00  0.00     0.174 C 
ATOM      7  N   UNL A   1      32.312  22.450  25.791  1.00  0.00    -0.327 N 
ATOM      8  C   UNL A   1      31.507  21.563  24.978  1.00  0.00     0.121 C 
ATOM      9  C   UNL A   1      32.413  20.368  24.766  1.00  0.00     0.024 C 
ATOM     10  C   UNL A   1      33.826  20.960  24.753  1.00  0.00     0.037 C 
BRANCH   7  11
ATOM     11  C   UNL A   1      31.841  23.645  26.271  1.00  0.00     0.258 C 
ATOM     12  O   UNL A   1      31.427  23.766  27.431  1.00  0.00    -0.269 OA
BRANCH  11  13
ATOM     13  C   UNL A   1      31.657  24.688  25.280  1.00  0.00     0.080 A 
ATOM     14  N   UNL A   1      31.761  26.652  24.302  1.00  0.00    -0.269 N 
ATOM     15  N   UNL A   1      30.687  26.065  23.736  1.00  0.00    -0.180 NA
ATOM     16  C   UNL A   1      32.440  25.823  25.151  1.00  0.00     0.048 A 
ATOM     17  C   UNL A   1      30.652  24.864  24.307  1.00  0.00     0.149 A 
ATOM     18  C   UNL A   1      33.727  26.139  25.808  1.00  0.00     0.067 C 
BRANCH  14  19
ATOM     19  C   UNL A   1      32.086  27.993  23.887  1.00  0.00     0.144 C 
BRANCH  19  20
ATOM     20  C   UNL A   1      31.400  29.116  24.641  1.00  0.00     0.020 C 
ATOM     21  C   UNL A   1      32.008  29.670  25.916  1.00  0.00     0.006 C 
ENDBRANCH  19  20
ENDBRANCH  14  19
ENDBRANCH  11  13
ENDBRANCH   7  11
ENDBRANCH   3   6
ENDBRANCH   1   2
BRANCH   1  22
ATOM     22  C   UNL A   1      37.378  22.446  24.669  1.00  0.00     0.023 C 
BRANCH  22  23
ATOM     23  C   UNL A   1      38.278  21.485  25.448  1.00  0.00     0.023 C 
BRANCH  23  24
ATOM     24  C   UNL A   1      39.207  22.151  26.460  1.00  0.00     0.116 C 
BRANCH  24  25
ATOM     25  N   UNL A   1      40.625  22.012  26.133  1.00  0.00    -0.352 N 
ATOM     26  C   UNL A   1      41.580  23.013  26.112  1.00  0.00     0.251 C 
ATOM     27  H   UNL A   1      40.935  21.107  25.901  1.00  0.00     0.163 HD
ATOM     28  O   UNL A   1      42.598  22.898  25.440  1.00  0.00    -0.269 OA
BRANCH  26  29
ATOM     29  C   UNL A   1      41.349  24.232  26.911  1.00  0.00     0.039 A 
ATOM     30  C   UNL A   1      42.086  24.489  28.070  1.00  0.00     0.014 A 
ATOM     31  C   UNL A   1      40.403  25.148  26.454  1.00  0.00     0.014 A 
ATOM     32  C   UNL A   1      41.957  25.731  28.692  1.00  0.00     0.010 A 
ATOM     33  C   UNL A   1      40.349  26.411  27.005  1.00  0.00     0.010 A 
ATOM     34  C   UNL A   1      41.121  26.710  28.126  1.00  0.00    -0.014 A 
BRANCH  34  35
ATOM     35  C   UNL A   1      41.174  28.106  28.558  1.00  0.00     0.031 A 
ATOM     36  C   UNL A   1      42.297  28.894  28.026  1.00  0.00     0.074 A 
ATOM     37  C   UNL A   1      40.253  28.700  29.344  1.00  0.00     0.049 A 
ATOM     38  N   UNL A   1      43.337  29.200  28.725  1.00  0.00    -0.248 NA
ATOM     39  C   UNL A   1      42.384  29.277  26.618  1.00  0.00     0.031 C 
ATOM     40  C   UNL A   1      39.182  28.022  30.065  1.00  0.00     0.029 A 
ATOM     41  N   UNL A   1      40.081  30.019  29.692  1.00  0.00    -0.354 N 
ATOM     42  C   UNL A   1      44.104  30.028  27.930  1.00  0.00     0.074 A 
ATOM     43  C   UNL A   1      43.569  29.900  26.597  1.00  0.00     0.031 C 
ATOM     44  C   UNL A   1      38.411  28.946  30.675  1.00  0.00     0.029 A 
ATOM     45  C   UNL A   1      38.889  30.270  30.353  1.00  0.00     0.049 A 
ATOM     46  H   UNL A   1      40.743  30.719  29.491  1.00  0.00     0.167 HD
ATOM     47  C   UNL A   1      44.913  30.945  28.528  1.00  0.00     0.037 A 
ATOM     48  C   UNL A   1      38.445  31.345  31.046  1.00  0.00     0.037 A 
ATOM     49  C   UNL A   1      45.034  30.677  29.945  1.00  0.00     0.049 A 
ATOM     50  C   UNL A   1      39.635  31.966  31.633  1.00  0.00     0.074 A 
ATOM     51  C   UNL A   1      45.622  29.708  30.731  1.00  0.00     0.029 A 
ATOM     52  N   UNL A   1      44.098  31.311  30.723  1.00  0.00    -0.354 N 
ATOM     53  N   UNL A   1      40.302  31.416  32.608  1.00  0.00    -0.248 NA
ATOM     54  C   UNL A   1      40.337  32.987  30.875  1.00  0.00     0.031 C 
ATOM     55  C   UNL A   1      44.835  29.630  31.920  1.00  0.00     0.029 A 
ATOM     56  C   UNL A   1      43.822  30.584  31.849  1.00  0.00     0.049 A 
ATOM     57  H   UNL A   1      43.681  32.174  30.500  1.00  0.00     0.167 HD
ATOM     58  C   UNL A   1      41.619  31.661  32.275  1.00  0.00     0.074 A 
ATOM     59  C   UNL A   1      41.574  32.764  31.320  1.00  0.00     0.031 C 
ATOM     60  C   UNL A   1      42.588  30.752  32.580  1.00  0.00     0.037 A 
BRANCH  47  61
ATOM     61  C   UNL A   1      45.194  32.325  27.985  1.00  0.00     0.064 A 
ATOM     62  C   UNL A   1      44.125  33.235  27.855  1.00  0.00     0.173 A 
ATOM     63  C   UNL A   1      46.376  32.669  27.294  1.00  0.00     0.173 A 
ATOM     64  F   UNL A   1      42.944  32.989  28.442  1.00  0.00    -0.203 F 
ATOM     65  C   UNL A   1      44.214  34.367  27.041  1.00  0.00     0.198 A 
ATOM     66  C   UNL A   1      46.476  33.827  26.525  1.00  0.00     0.198 A 
ATOM     67  F   UNL A   1      47.429  31.848  27.232  1.00  0.00    -0.203 F 
ATOM     68  F   UNL A   1      43.133  35.136  26.849  1.00  0.00    -0.200 F 
ATOM     69  C   UNL A   1      45.389  34.661  26.374  1.00  0.00     0.200 A 
ATOM     70  F   UNL A   1      47.614  34.077  25.860  1.00  0.00    -0.200 F 
ATOM     71  F   UNL A   1      45.459  35.711  25.547  1.00  0.00    -0.200 F 
ENDBRANCH  47  61
BRANCH  48  72
ATOM     72  C   UNL A   1      37.153  32.046  30.840  1.00  0.00     0.064 A 
ATOM     73  C   UNL A   1      36.141  31.990  31.813  1.00  0.00     0.173 A 
ATOM     74  C   UNL A   1      36.945  32.936  29.771  1.00  0.00     0.173 A 
ATOM     75  F   UNL A   1      36.268  31.170  32.867  1.00  0.00    -0.203 F 
ATOM     76  C   UNL A   1      35.007  32.805  31.742  1.00  0.00     0.198 A 
ATOM     77  C   UNL A   1      35.809  33.750  29.700  1.00  0.00     0.198 A 
ATOM     78  F   UNL A   1      37.866  33.070  28.804  1.00  0.00    -0.203 F 
ATOM     79  F   UNL A   1      34.086  32.755  32.716  1.00  0.00    -0.200 F 
ATOM     80  C   UNL A   1      34.847  33.694  30.693  1.00  0.00     0.200 A 
ATOM     81  F   UNL A   1      35.673  34.619  28.688  1.00  0.00    -0.200 F 
ATOM     82  F   UNL A   1      33.784  34.509  30.652  1.00  0.00    -0.200 F 
ENDBRANCH  48  72
BRANCH  60  83
ATOM     83  C   UNL A   1      42.272  29.771  33.671  1.00  0.00     0.064 A 
ATOM     84  C   UNL A   1      41.768  28.479  33.460  1.00  0.00     0.173 A 
ATOM     85  C   UNL A   1      42.558  30.143  34.989  1.00  0.00     0.173 A 
ATOM     86  F   UNL A   1      41.545  28.025  32.225  1.00  0.00    -0.203 F 
ATOM     87  C   UNL A   1      41.521  27.614  34.525  1.00  0.00     0.198 A 
ATOM     88  C   UNL A   1      42.346  29.267  36.049  1.00  0.00     0.198 A 
ATOM     89  F   UNL A   1      43.077  31.354  35.244  1.00  0.00    -0.203 F 
ATOM     90  F   UNL A   1      41.017  26.392  34.298  1.00  0.00    -0.200 F 
ATOM     91  C   UNL A   1      41.817  28.008  35.819  1.00  0.00     0.200 A 
ATOM     92  F   UNL A   1      42.672  29.639  37.294  1.00  0.00    -0.200 F 
ATOM     93  F   UNL A   1      41.612  27.167  36.843  1.00  0.00    -0.200 F 
ENDBRANCH  60  83
ENDBRANCH  34  35
ENDBRANCH  26  29
ENDBRANCH  24  25
ENDBRANCH  23  24
ENDBRANCH  22  23
ENDBRANCH   1  22
TORSDOF 15
ENDMDL
MODEL 3
REMARK VINA RESULT:     -11.7      1.026      2.773
REMARK SMILES CCCn1ncc(C(=O)N2CCC[C@@H]2C(=O)NCCCCNC(=O)c2ccc(-c3c4nc(c(-c5c(F)c(F)c(F)c(F)c5F)c5ccc([nH]5)c(-c5c(F)c(F)c(F)c(F)c5F)c5nc(c(-c6c(F)c(F)c(F)c(F)c6F)c6ccc3[nH]6)C=C5)C=C4)cc2)c1C
REMARK SMILES IDX 18 1 17 2 15 3 16 4 14 6 10 7 11 8 12 9 13 10 8 11 9 12 7 13
REMARK SMILES IDX 4 14 5 15 88 16 6 17 89 18 3 19 2 20 1 21 19 22 20 23 21 24
REMARK SMILES IDX 22 25 23 26 24 28 25 29 26 30 87 31 27 32 86 33 28 34 29 35
REMARK SMILES IDX 30 36 80 37 31 38 85 39 79 40 81 41 32 42 84 43 78 44 77 45
REMARK SMILES IDX 33 47 65 48 45 49 64 50 46 51 49 52 63 53 82 54 47 55 48 56
REMARK SMILES IDX 62 58 83 59 50 60 34 61 35 62 43 63 36 64 37 65 41 66 44 67
REMARK SMILES IDX 38 68 39 69 42 70 40 71 66 72 67 73 75 74 68 75 69 76 73 77
REMARK SMILES IDX 76 78 70 79 71 80 74 81 72 82 51 83 52 84 60 85 53 86 54 87
REMARK SMILES IDX 58 88 61 89 55 90 56 91 59 92 57 93
REMARK H PARENT 17 5 22 27 81 46 49 57
REMARK Flexibility Score: inf
ROOT
ATOM      1  C   UNL A   1      36.926  24.057  26.021  1.00  0.00     0.116 C 
ENDROOT
BRANCH   1   2
ATOM      2  N   UNL A   1      36.893  23.549  24.667  1.00  0.00    -0.354 N 
ATOM      3  C   UNL A   1      35.881  23.522  23.748  1.00  0.00     0.242 C 
ATOM      4  O   UNL A   1      36.094  22.882  22.712  1.00  0.00    -0.273 OA
ATOM      5  H   UNL A   1      37.740  23.155  24.355  1.00  0.00     0.163 HD
BRANCH   3   6
ATOM      6  C   UNL A   1      34.474  24.105  24.030  1.00  0.00     0.174 C 
ATOM      7  N   UNL A   1      33.449  23.098  24.257  1.00  0.00    -0.327 N 
ATOM      8  C   UNL A   1      32.190  23.501  23.669  1.00  0.00     0.121 C 
ATOM      9  C   UNL A   1      32.613  24.301  22.454  1.00  0.00     0.024 C 
ATOM     10  C   UNL A   1      33.938  24.948  22.868  1.00  0.00     0.037 C 
BRANCH   7  11
ATOM     11  C   UNL A   1      33.526  22.290  25.361  1.00  0.00     0.258 C 
ATOM     12  O   UNL A   1      33.908  22.717  26.459  1.00  0.00    -0.269 OA
BRANCH  11  13
ATOM     13  C   UNL A   1      33.343  20.872  25.112  1.00  0.00     0.080 A 
ATOM     14  N   UNL A   1      33.736  18.830  24.405  1.00  0.00    -0.269 N 
ATOM     15  N   UNL A   1      32.394  18.879  24.525  1.00  0.00    -0.180 NA
ATOM     16  C   UNL A   1      34.356  19.964  24.852  1.00  0.00     0.048 A 
ATOM     17  C   UNL A   1      32.166  20.105  24.987  1.00  0.00     0.149 A 
ATOM     18  C   UNL A   1      35.819  20.148  24.974  1.00  0.00     0.067 C 
BRANCH  14  19
ATOM     19  C   UNL A   1      34.320  17.606  23.920  1.00  0.00     0.144 C 
BRANCH  19  20
ATOM     20  C   UNL A   1      34.240  16.408  24.847  1.00  0.00     0.020 C 
ATOM     21  C   UNL A   1      35.504  15.754  25.371  1.00  0.00     0.006 C 
ENDBRANCH  19  20
ENDBRANCH  14  19
ENDBRANCH  11  13
ENDBRANCH   7  11
ENDBRANCH   3   6
ENDBRANCH   1   2
BRANCH   1  22
ATOM     22  C   UNL A   1      38.205  23.696  26.772  1.00  0.00     0.023 C 
BRANCH  22  23
ATOM     23  C   UNL A   1      39.021  22.548  26.172  1.00  0.00     0.023 C 
BRANCH  23  24
ATOM     24  C   UNL A   1      40.171  22.050  27.044  1.00  0.00     0.116 C 
BRANCH  24  25
ATOM     25  N   UNL A   1      41.486  22.215  26.428  1.00  0.00    -0.352 N 
ATOM     26  C   UNL A   1      42.129  23.404  26.133  1.00  0.00     0.251 C 
ATOM     27  H   UNL A   1      41.969  21.388  26.198  1.00  0.00     0.163 HD
ATOM     28  O   UNL A   1      42.993  23.454  25.266  1.00  0.00    -0.269 OA
BRANCH  26  29
ATOM     29  C   UNL A   1      41.748  24.620  26.877  1.00  0.00     0.039 A 
ATOM     30  C   UNL A   1      42.203  24.844  28.180  1.00  0.00     0.014 A 
ATOM     31  C   UNL A   1      40.956  25.567  26.230  1.00  0.00     0.014 A 
ATOM     32  C   UNL A   1      41.963  26.083  28.776  1.00  0.00     0.010 A 
ATOM     33  C   UNL A   1      40.807  26.825  26.774  1.00  0.00     0.010 A 
ATOM     34  C   UNL A   1      41.305  27.090  28.049  1.00  0.00    -0.014 A 
BRANCH  34  35
ATOM     35  C   UNL A   1      41.291  28.480  28.505  1.00  0.00     0.031 A 
ATOM     36  C   UNL A   1      42.388  29.324  28.007  1.00  0.00     0.074 A 
ATOM     37  C   UNL A   1      40.332  29.020  29.284  1.00  0.00     0.049 A 
ATOM     38  N   UNL A   1      43.402  29.661  28.731  1.00  0.00    -0.248 NA
ATOM     39  C   UNL A   1      42.484  29.735  26.608  1.00  0.00     0.031 C 
ATOM     40  C   UNL A   1      39.278  28.284  29.973  1.00  0.00     0.029 A 
ATOM     41  N   UNL A   1      40.098  30.324  29.651  1.00  0.00    -0.354 N 
ATOM     42  C   UNL A   1      44.147  30.535  27.964  1.00  0.00     0.074 A 
ATOM     43  C   UNL A   1      43.642  30.408  26.620  1.00  0.00     0.031 C 
ATOM     44  C   UNL A   1      38.457  29.164  30.584  1.00  0.00     0.029 A 
ATOM     45  C   UNL A   1      38.883  30.512  30.294  1.00  0.00     0.049 A 
ATOM     46  H   UNL A   1      40.732  31.055  29.474  1.00  0.00     0.167 HD
ATOM     47  C   UNL A   1      44.905  31.474  28.592  1.00  0.00     0.037 A 
ATOM     48  C   UNL A   1      38.382  31.555  30.997  1.00  0.00     0.037 A 
ATOM     49  C   UNL A   1      45.012  31.187  30.007  1.00  0.00     0.049 A 
ATOM     50  C   UNL A   1      39.533  32.215  31.616  1.00  0.00     0.074 A 
ATOM     51  C   UNL A   1      45.627  30.231  30.787  1.00  0.00     0.029 A 
ATOM     52  N   UNL A   1      44.037  31.767  30.778  1.00  0.00    -0.354 N 
ATOM     53  N   UNL A   1      40.206  31.677  32.594  1.00  0.00    -0.248 NA
ATOM     54  C   UNL A   1      40.204  33.279  30.888  1.00  0.00     0.031 C 
ATOM     55  C   UNL A   1      44.822  30.098  31.960  1.00  0.00     0.029 A 
ATOM     56  C   UNL A   1      43.772  31.009  31.886  1.00  0.00     0.049 A 
ATOM     57  H   UNL A   1      43.587  32.615  30.562  1.00  0.00     0.167 HD
ATOM     58  C   UNL A   1      41.517  31.983  32.289  1.00  0.00     0.074 A 
ATOM     59  C   UNL A   1      41.442  33.100  31.353  1.00  0.00     0.031 C 
ATOM     60  C   UNL A   1      42.518  31.112  32.597  1.00  0.00     0.037 A 
BRANCH  47  61
ATOM     61  C   UNL A   1      45.137  32.874  28.078  1.00  0.00     0.064 A 
ATOM     62  C   UNL A   1      46.461  33.303  27.846  1.00  0.00     0.173 A 
ATOM     63  C   UNL A   1      44.164  33.896  28.118  1.00  0.00     0.173 A 
ATOM     64  F   UNL A   1      47.470  32.419  27.821  1.00  0.00    -0.203 F 
ATOM     65  C   UNL A   1      46.789  34.656  27.732  1.00  0.00     0.198 A 
ATOM     66  C   UNL A   1      44.490  35.240  27.952  1.00  0.00     0.198 A 
ATOM     67  F   UNL A   1      42.889  33.652  28.443  1.00  0.00    -0.203 F 
ATOM     68  F   UNL A   1      48.075  35.024  27.637  1.00  0.00    -0.200 F 
ATOM     69  C   UNL A   1      45.804  35.624  27.788  1.00  0.00     0.200 A 
ATOM     70  F   UNL A   1      43.524  36.167  28.042  1.00  0.00    -0.200 F 
ATOM     71  F   UNL A   1      46.122  36.924  27.738  1.00  0.00    -0.200 F 
ENDBRANCH  47  61
BRANCH  48  72
ATOM     72  C   UNL A   1      37.065  32.204  30.779  1.00  0.00     0.064 A 
ATOM     73  C   UNL A   1      36.065  32.150  31.763  1.00  0.00     0.173 A 
ATOM     74  C   UNL A   1      36.816  33.046  29.679  1.00  0.00     0.173 A 
ATOM     75  F   UNL A   1      36.229  31.375  32.846  1.00  0.00    -0.203 F 
ATOM     76  C   UNL A   1      34.903  32.924  31.675  1.00  0.00     0.198 A 
ATOM     77  C   UNL A   1      35.653  33.818  29.591  1.00  0.00     0.198 A 
ATOM     78  F   UNL A   1      37.723  33.175  28.699  1.00  0.00    -0.203 F 
ATOM     79  F   UNL A   1      33.994  32.879  32.659  1.00  0.00    -0.200 F 
ATOM     80  C   UNL A   1      34.703  33.767  30.595  1.00  0.00     0.200 A 
ATOM     81  F   UNL A   1      35.478  34.644  28.549  1.00  0.00    -0.200 F 
ATOM     82  F   UNL A   1      33.613  34.544  30.535  1.00  0.00    -0.200 F 
ENDBRANCH  48  72
BRANCH  60  83
ATOM     83  C   UNL A   1      42.225  30.099  33.665  1.00  0.00     0.064 A 
ATOM     84  C   UNL A   1      41.757  28.799  33.424  1.00  0.00     0.173 A 
ATOM     85  C   UNL A   1      42.497  30.450  34.992  1.00  0.00     0.173 A 
ATOM     86  F   UNL A   1      41.552  28.365  32.178  1.00  0.00    -0.203 F 
ATOM     87  C   UNL A   1      41.530  27.904  34.470  1.00  0.00     0.198 A 
ATOM     88  C   UNL A   1      42.304  29.546  36.031  1.00  0.00     0.198 A 
ATOM     89  F   UNL A   1      42.982  31.669  35.275  1.00  0.00    -0.203 F 
ATOM     90  F   UNL A   1      41.060  26.674  34.213  1.00  0.00    -0.200 F 
ATOM     91  C   UNL A   1      41.811  28.278  35.773  1.00  0.00     0.200 A 
ATOM     92  F   UNL A   1      42.616  29.899  37.286  1.00  0.00    -0.200 F 
ATOM     93  F   UNL A   1      41.625  27.410  36.778  1.00  0.00    -0.200 F 
ENDBRANCH  60  83
ENDBRANCH  34  35
ENDBRANCH  26  29
ENDBRANCH  24  25
ENDBRANCH  23  24
ENDBRANCH  22  23
ENDBRANCH   1  22
TORSDOF 15
ENDMDL
