MODEL 1
REMARK VINA RESULT:     -13.4      0.000      0.000
REMARK SMILES CC(C)N1C[C@@]2(CCCN(c3ccc(C(=O)NCCCCNC(=O)c4ccc(-c5c6nc(c(-c7c(F)c(F)c(F)c(F)c7F)c7ccc([nH]7)c(-c7c(F)c(F)c(F)c(F)c7F)c7nc(c(-c8c(F)c(F)c(F)c(F)c8F)c8ccc5[nH]8)C=C7)C=C6)cc4)cn3)C2)CCC1=O
REMARK SMILES IDX 19 1 18 2 17 3 15 4 16 5 14 7 11 8 12 9 89 10 13 11 88 12
REMARK SMILES IDX 10 13 4 14 5 15 93 16 6 17 92 18 94 19 7 20 90 21 91 22 8 23
REMARK SMILES IDX 9 24 2 25 1 26 3 27 20 28 21 29 22 30 23 31 24 33 25 34
REMARK SMILES IDX 26 35 87 36 27 37 86 38 28 39 29 40 30 41 80 42 31 43 85 44
REMARK SMILES IDX 79 45 81 46 32 47 84 48 78 49 77 50 33 52 65 53 45 54 64 55
REMARK SMILES IDX 46 56 49 57 63 58 82 59 47 60 48 61 62 63 83 64 50 65 34 66
REMARK SMILES IDX 35 67 43 68 36 69 37 70 41 71 44 72 38 73 39 74 42 75 40 76
REMARK SMILES IDX 66 77 67 78 75 79 68 80 69 81 73 82 76 83 70 84 71 85 74 86
REMARK SMILES IDX 72 87 51 88 52 89 60 90 53 91 54 92 58 93 61 94 55 95 56 96
REMARK SMILES IDX 59 97 57 98
REMARK H PARENT 17 6 22 32 81 51 49 62
REMARK Flexibility Score: inf
ROOT
ATOM      1  C   UNL A   1      36.420  20.703  25.377  1.00  0.00     0.023 C 
ENDROOT
BRANCH   1   2
ATOM      2  C   UNL A   1      35.627  21.449  24.306  1.00  0.00     0.116 C 
BRANCH   2   3
ATOM      3  N   UNL A   1      34.185  21.341  24.483  1.00  0.00    -0.352 N 
ATOM      4  C   UNL A   1      33.264  22.344  24.685  1.00  0.00     0.252 C 
ATOM      5  O   UNL A   1      32.090  22.081  24.922  1.00  0.00    -0.269 OA
ATOM      6  H   UNL A   1      33.820  20.428  24.453  1.00  0.00     0.163 HD
BRANCH   4   7
ATOM      7  C   UNL A   1      33.712  23.740  24.665  1.00  0.00     0.058 A 
ATOM      8  C   UNL A   1      34.028  26.480  24.601  1.00  0.00     0.128 A 
ATOM      9  C   UNL A   1      34.380  25.769  25.750  1.00  0.00     0.048 A 
ATOM     10  N   UNL A   1      33.689  25.816  23.471  1.00  0.00    -0.239 NA
ATOM     11  C   UNL A   1      34.198  24.386  25.793  1.00  0.00     0.019 A 
ATOM     12  C   UNL A   1      33.554  24.471  23.509  1.00  0.00     0.127 A 
BRANCH   8  13
ATOM     13  N   UNL A   1      33.864  27.854  24.604  1.00  0.00    -0.356 N 
ATOM     14  N   UNL A   1      29.576  28.389  23.504  1.00  0.00    -0.340 N 
ATOM     15  C   UNL A   1      30.307  29.217  24.461  1.00  0.00     0.128 C 
ATOM     16  C   UNL A   1      29.208  27.098  23.877  1.00  0.00     0.222 C 
ATOM     17  C   UNL A   1      31.522  28.517  25.090  1.00  0.00     0.006 C 
ATOM     18  C   UNL A   1      30.249  26.344  24.678  1.00  0.00     0.101 C 
ATOM     19  O   UNL A   1      28.198  26.523  23.483  1.00  0.00    -0.275 OA
ATOM     20  C   UNL A   1      32.093  29.414  26.227  1.00  0.00     0.012 C 
ATOM     21  C   UNL A   1      32.619  28.344  23.997  1.00  0.00     0.127 C 
ATOM     22  C   UNL A   1      30.990  27.197  25.692  1.00  0.00     0.020 C 
ATOM     23  C   UNL A   1      33.463  28.955  26.742  1.00  0.00     0.022 C 
ATOM     24  C   UNL A   1      34.451  28.743  25.595  1.00  0.00     0.118 C 
BRANCH  14  25
ATOM     25  C   UNL A   1      28.920  29.084  22.383  1.00  0.00     0.078 C 
ATOM     26  C   UNL A   1      27.634  29.826  22.766  1.00  0.00     0.031 C 
ATOM     27  C   UNL A   1      29.879  29.998  21.628  1.00  0.00     0.031 C 
ENDBRANCH  14  25
ENDBRANCH   8  13
ENDBRANCH   4   7
ENDBRANCH   2   3
ENDBRANCH   1   2
BRANCH   1  28
ATOM     28  C   UNL A   1      37.740  20.084  24.916  1.00  0.00     0.023 C 
BRANCH  28  29
ATOM     29  C   UNL A   1      38.964  20.429  25.759  1.00  0.00     0.116 C 
BRANCH  29  30
ATOM     30  N   UNL A   1      39.922  19.340  25.861  1.00  0.00    -0.352 N 
ATOM     31  C   UNL A   1      41.274  19.385  26.125  1.00  0.00     0.251 C 
ATOM     32  H   UNL A   1      39.552  18.439  25.721  1.00  0.00     0.163 HD
ATOM     33  O   UNL A   1      41.942  18.360  26.077  1.00  0.00    -0.269 OA
BRANCH  31  34
ATOM     34  C   UNL A   1      41.929  20.678  26.429  1.00  0.00     0.039 A 
ATOM     35  C   UNL A   1      42.246  21.536  25.371  1.00  0.00     0.014 A 
ATOM     36  C   UNL A   1      42.221  21.051  27.742  1.00  0.00     0.014 A 
ATOM     37  C   UNL A   1      42.779  22.800  25.637  1.00  0.00     0.010 A 
ATOM     38  C   UNL A   1      42.682  22.339  28.010  1.00  0.00     0.010 A 
ATOM     39  C   UNL A   1      42.963  23.229  26.961  1.00  0.00    -0.014 A 
BRANCH  39  40
ATOM     40  C   UNL A   1      43.437  24.603  27.271  1.00  0.00     0.031 A 
ATOM     41  C   UNL A   1      42.479  25.635  27.800  1.00  0.00     0.074 A 
ATOM     42  C   UNL A   1      44.712  24.948  27.003  1.00  0.00     0.049 A 
ATOM     43  N   UNL A   1      42.680  26.904  28.050  1.00  0.00    -0.248 NA
ATOM     44  C   UNL A   1      41.101  25.185  28.056  1.00  0.00     0.031 C 
ATOM     45  C   UNL A   1      45.728  24.057  26.439  1.00  0.00     0.029 A 
ATOM     46  N   UNL A   1      45.370  26.143  27.157  1.00  0.00    -0.354 N 
ATOM     47  C   UNL A   1      41.456  27.406  28.472  1.00  0.00     0.074 A 
ATOM     48  C   UNL A   1      40.504  26.318  28.395  1.00  0.00     0.031 C 
ATOM     49  C   UNL A   1      46.883  24.731  26.314  1.00  0.00     0.029 A 
ATOM     50  C   UNL A   1      46.681  26.109  26.752  1.00  0.00     0.049 A 
ATOM     51  H   UNL A   1      44.940  26.950  27.523  1.00  0.00     0.167 HD
ATOM     52  C   UNL A   1      41.157  28.653  28.906  1.00  0.00     0.037 A 
ATOM     53  C   UNL A   1      47.615  27.079  26.730  1.00  0.00     0.037 A 
ATOM     54  C   UNL A   1      42.110  29.726  29.011  1.00  0.00     0.049 A 
ATOM     55  C   UNL A   1      47.259  28.454  27.225  1.00  0.00     0.074 A 
ATOM     56  C   UNL A   1      41.918  31.007  29.499  1.00  0.00     0.029 A 
ATOM     57  N   UNL A   1      43.439  29.642  28.621  1.00  0.00    -0.354 N 
ATOM     58  N   UNL A   1      46.115  28.898  27.687  1.00  0.00    -0.248 NA
ATOM     59  C   UNL A   1      48.327  29.464  27.202  1.00  0.00     0.031 C 
ATOM     60  C   UNL A   1      43.119  31.712  29.364  1.00  0.00     0.029 A 
ATOM     61  C   UNL A   1      44.074  30.855  28.840  1.00  0.00     0.049 A 
ATOM     62  H   UNL A   1      43.868  28.840  28.244  1.00  0.00     0.167 HD
ATOM     63  C   UNL A   1      46.334  30.223  28.040  1.00  0.00     0.074 A 
ATOM     64  C   UNL A   1      47.722  30.509  27.750  1.00  0.00     0.031 C 
ATOM     65  C   UNL A   1      45.461  31.120  28.560  1.00  0.00     0.037 A 
BRANCH  52  66
ATOM     66  C   UNL A   1      39.736  28.927  29.309  1.00  0.00     0.064 A 
ATOM     67  C   UNL A   1      38.789  29.400  28.387  1.00  0.00     0.173 A 
ATOM     68  C   UNL A   1      39.305  28.679  30.621  1.00  0.00     0.173 A 
ATOM     69  F   UNL A   1      39.151  29.664  27.122  1.00  0.00    -0.203 F 
ATOM     70  C   UNL A   1      37.472  29.643  28.771  1.00  0.00     0.198 A 
ATOM     71  C   UNL A   1      37.981  28.893  30.994  1.00  0.00     0.198 A 
ATOM     72  F   UNL A   1      40.167  28.220  31.540  1.00  0.00    -0.203 F 
ATOM     73  F   UNL A   1      36.599  30.143  27.886  1.00  0.00    -0.200 F 
ATOM     74  C   UNL A   1      37.068  29.383  30.072  1.00  0.00     0.200 A 
ATOM     75  F   UNL A   1      37.588  28.628  32.248  1.00  0.00    -0.200 F 
ATOM     76  F   UNL A   1      35.800  29.611  30.439  1.00  0.00    -0.200 F 
ENDBRANCH  52  66
BRANCH  53  77
ATOM     77  C   UNL A   1      48.989  26.778  26.249  1.00  0.00     0.064 A 
ATOM     78  C   UNL A   1      49.967  26.289  27.126  1.00  0.00     0.173 A 
ATOM     79  C   UNL A   1      49.356  26.979  24.911  1.00  0.00     0.173 A 
ATOM     80  F   UNL A   1      49.670  26.102  28.421  1.00  0.00    -0.203 F 
ATOM     81  C   UNL A   1      51.265  26.034  26.690  1.00  0.00     0.198 A 
ATOM     82  C   UNL A   1      50.647  26.696  24.468  1.00  0.00     0.198 A 
ATOM     83  F   UNL A   1      48.457  27.441  24.029  1.00  0.00    -0.203 F 
ATOM     84  F   UNL A   1      52.192  25.614  27.560  1.00  0.00    -0.200 F 
ATOM     85  C   UNL A   1      51.602  26.233  25.360  1.00  0.00     0.200 A 
ATOM     86  F   UNL A   1      50.966  26.877  23.179  1.00  0.00    -0.200 F 
ATOM     87  F   UNL A   1      52.851  25.986  24.939  1.00  0.00    -0.200 F 
ENDBRANCH  53  77
BRANCH  65  88
ATOM     88  C   UNL A   1      45.991  32.486  28.892  1.00  0.00     0.064 A 
ATOM     89  C   UNL A   1      46.571  32.771  30.136  1.00  0.00     0.173 A 
ATOM     90  C   UNL A   1      45.953  33.510  27.933  1.00  0.00     0.173 A 
ATOM     91  F   UNL A   1      46.617  31.830  31.091  1.00  0.00    -0.203 F 
ATOM     92  C   UNL A   1      47.073  34.039  30.417  1.00  0.00     0.198 A 
ATOM     93  C   UNL A   1      46.483  34.767  28.206  1.00  0.00     0.198 A 
ATOM     94  F   UNL A   1      45.414  33.287  26.725  1.00  0.00    -0.203 F 
ATOM     95  F   UNL A   1      47.582  34.302  31.628  1.00  0.00    -0.200 F 
ATOM     96  C   UNL A   1      47.036  35.034  29.450  1.00  0.00     0.200 A 
ATOM     97  F   UNL A   1      46.459  35.723  27.266  1.00  0.00    -0.200 F 
ATOM     98  F   UNL A   1      47.527  36.250  29.719  1.00  0.00    -0.200 F 
ENDBRANCH  65  88
ENDBRANCH  39  40
ENDBRANCH  31  34
ENDBRANCH  29  30
ENDBRANCH  28  29
ENDBRANCH   1  28
TORSDOF 13
ENDMDL
MODEL 2
REMARK VINA RESULT:     -13.4      5.318     10.991
REMARK SMILES CC(C)N1C[C@@]2(CCCN(c3ccc(C(=O)NCCCCNC(=O)c4ccc(-c5c6nc(c(-c7c(F)c(F)c(F)c(F)c7F)c7ccc([nH]7)c(-c7c(F)c(F)c(F)c(F)c7F)c7nc(c(-c8c(F)c(F)c(F)c(F)c8F)c8ccc5[nH]8)C=C7)C=C6)cc4)cn3)C2)CCC1=O
REMARK SMILES IDX 19 1 18 2 17 3 15 4 16 5 14 7 11 8 12 9 89 10 13 11 88 12
REMARK SMILES IDX 10 13 4 14 5 15 93 16 6 17 92 18 94 19 7 20 90 21 91 22 8 23
REMARK SMILES IDX 9 24 2 25 1 26 3 27 20 28 21 29 22 30 23 31 24 33 25 34
REMARK SMILES IDX 26 35 87 36 27 37 86 38 28 39 29 40 30 41 80 42 31 43 85 44
REMARK SMILES IDX 79 45 81 46 32 47 84 48 78 49 77 50 33 52 65 53 45 54 64 55
REMARK SMILES IDX 46 56 49 57 63 58 82 59 47 60 48 61 62 63 83 64 50 65 34 66
REMARK SMILES IDX 35 67 43 68 36 69 37 70 41 71 44 72 38 73 39 74 42 75 40 76
REMARK SMILES IDX 66 77 67 78 75 79 68 80 69 81 73 82 76 83 70 84 71 85 74 86
REMARK SMILES IDX 72 87 51 88 52 89 60 90 53 91 54 92 58 93 61 94 55 95 56 96
REMARK SMILES IDX 59 97 57 98
REMARK H PARENT 17 6 22 32 81 51 49 62
REMARK Flexibility Score: inf
ROOT
ATOM      1  C   UNL A   1      31.767  30.466  26.820  1.00  0.00     0.023 C 
ENDROOT
BRANCH   1   2
ATOM      2  C   UNL A   1      32.247  29.884  25.492  1.00  0.00     0.116 C 
BRANCH   2   3
ATOM      3  N   UNL A   1      31.189  29.790  24.494  1.00  0.00    -0.352 N 
ATOM      4  C   UNL A   1      30.709  28.672  23.851  1.00  0.00     0.252 C 
ATOM      5  O   UNL A   1      29.880  28.771  22.953  1.00  0.00    -0.269 OA
ATOM      6  H   UNL A   1      30.761  30.641  24.247  1.00  0.00     0.163 HD
BRANCH   4   7
ATOM      7  C   UNL A   1      31.238  27.354  24.217  1.00  0.00     0.058 A 
ATOM      8  C   UNL A   1      32.599  25.157  25.180  1.00  0.00     0.128 A 
ATOM      9  C   UNL A   1      31.288  25.396  25.595  1.00  0.00     0.048 A 
ATOM     10  N   UNL A   1      33.142  25.902  24.189  1.00  0.00    -0.239 NA
ATOM     11  C   UNL A   1      30.606  26.520  25.128  1.00  0.00     0.019 A 
ATOM     12  C   UNL A   1      32.459  26.967  23.712  1.00  0.00     0.127 A 
BRANCH   8  13
ATOM     13  N   UNL A   1      33.435  24.277  25.844  1.00  0.00    -0.356 N 
ATOM     14  N   UNL A   1      32.820  20.426  23.681  1.00  0.00    -0.340 N 
ATOM     15  C   UNL A   1      34.094  20.889  24.227  1.00  0.00     0.128 C 
ATOM     16  C   UNL A   1      32.325  21.030  22.527  1.00  0.00     0.222 C 
ATOM     17  C   UNL A   1      34.187  22.414  24.387  1.00  0.00     0.006 C 
ATOM     18  C   UNL A   1      32.519  22.530  22.458  1.00  0.00     0.101 C 
ATOM     19  O   UNL A   1      31.646  20.457  21.680  1.00  0.00    -0.275 OA
ATOM     20  C   UNL A   1      35.644  22.796  24.779  1.00  0.00     0.012 C 
ATOM     21  C   UNL A   1      33.231  22.854  25.535  1.00  0.00     0.127 C 
ATOM     22  C   UNL A   1      33.854  23.009  23.000  1.00  0.00     0.020 C 
ATOM     23  C   UNL A   1      35.795  24.254  25.234  1.00  0.00     0.022 C 
ATOM     24  C   UNL A   1      34.771  24.615  26.310  1.00  0.00     0.118 C 
BRANCH  14  25
ATOM     25  C   UNL A   1      32.342  19.105  24.125  1.00  0.00     0.078 C 
ATOM     26  C   UNL A   1      32.762  17.944  23.217  1.00  0.00     0.031 C 
ATOM     27  C   UNL A   1      32.697  18.821  25.581  1.00  0.00     0.031 C 
ENDBRANCH  14  25
ENDBRANCH   8  13
ENDBRANCH   4   7
ENDBRANCH   2   3
ENDBRANCH   1   2
BRANCH   1  28
ATOM     28  C   UNL A   1      31.546  31.979  26.842  1.00  0.00     0.023 C 
BRANCH  28  29
ATOM     29  C   UNL A   1      32.754  32.821  27.239  1.00  0.00     0.116 C 
BRANCH  29  30
ATOM     30  N   UNL A   1      32.411  34.177  27.637  1.00  0.00    -0.352 N 
ATOM     31  C   UNL A   1      32.979  34.976  28.604  1.00  0.00     0.251 C 
ATOM     32  H   UNL A   1      31.663  34.583  27.143  1.00  0.00     0.163 HD
ATOM     33  O   UNL A   1      32.489  36.067  28.864  1.00  0.00    -0.269 OA
BRANCH  31  34
ATOM     34  C   UNL A   1      34.162  34.502  29.360  1.00  0.00     0.039 A 
ATOM     35  C   UNL A   1      33.966  33.903  30.608  1.00  0.00     0.014 A 
ATOM     36  C   UNL A   1      35.452  34.633  28.843  1.00  0.00     0.014 A 
ATOM     37  C   UNL A   1      35.055  33.363  31.299  1.00  0.00     0.010 A 
ATOM     38  C   UNL A   1      36.525  34.029  29.496  1.00  0.00     0.010 A 
ATOM     39  C   UNL A   1      36.338  33.385  30.729  1.00  0.00    -0.014 A 
BRANCH  39  40
ATOM     40  C   UNL A   1      37.493  32.733  31.400  1.00  0.00     0.031 A 
ATOM     41  C   UNL A   1      38.204  31.584  30.739  1.00  0.00     0.074 A 
ATOM     42  C   UNL A   1      37.856  33.122  32.638  1.00  0.00     0.049 A 
ATOM     43  N   UNL A   1      39.174  30.833  31.197  1.00  0.00    -0.248 NA
ATOM     44  C   UNL A   1      37.743  31.210  29.392  1.00  0.00     0.031 C 
ATOM     45  C   UNL A   1      37.215  34.188  33.411  1.00  0.00     0.029 A 
ATOM     46  N   UNL A   1      38.844  32.658  33.472  1.00  0.00    -0.354 N 
ATOM     47  C   UNL A   1      39.424  29.891  30.208  1.00  0.00     0.074 A 
ATOM     48  C   UNL A   1      38.471  30.131  29.146  1.00  0.00     0.031 C 
ATOM     49  C   UNL A   1      37.837  34.308  34.594  1.00  0.00     0.029 A 
ATOM     50  C   UNL A   1      38.896  33.307  34.681  1.00  0.00     0.049 A 
ATOM     51  H   UNL A   1      39.457  31.928  33.225  1.00  0.00     0.167 HD
ATOM     52  C   UNL A   1      40.377  28.930  30.177  1.00  0.00     0.037 A 
ATOM     53  C   UNL A   1      39.702  33.113  35.742  1.00  0.00     0.037 A 
ATOM     54  C   UNL A   1      41.345  28.711  31.220  1.00  0.00     0.049 A 
ATOM     55  C   UNL A   1      40.757  32.042  35.679  1.00  0.00     0.074 A 
ATOM     56  C   UNL A   1      42.389  27.804  31.253  1.00  0.00     0.029 A 
ATOM     57  N   UNL A   1      41.386  29.412  32.417  1.00  0.00    -0.354 N 
ATOM     58  N   UNL A   1      41.030  31.203  34.709  1.00  0.00    -0.248 NA
ATOM     59  C   UNL A   1      41.624  31.895  36.857  1.00  0.00     0.031 C 
ATOM     60  C   UNL A   1      43.035  27.925  32.488  1.00  0.00     0.029 A 
ATOM     61  C   UNL A   1      42.427  28.944  33.204  1.00  0.00     0.049 A 
ATOM     62  H   UNL A   1      40.767  30.134  32.671  1.00  0.00     0.167 HD
ATOM     63  C   UNL A   1      42.115  30.455  35.144  1.00  0.00     0.074 A 
ATOM     64  C   UNL A   1      42.460  30.946  36.461  1.00  0.00     0.031 C 
ATOM     65  C   UNL A   1      42.768  29.453  34.507  1.00  0.00     0.037 A 
BRANCH  52  66
ATOM     66  C   UNL A   1      40.426  28.039  28.969  1.00  0.00     0.064 A 
ATOM     67  C   UNL A   1      39.701  26.838  28.911  1.00  0.00     0.173 A 
ATOM     68  C   UNL A   1      41.175  28.406  27.841  1.00  0.00     0.173 A 
ATOM     69  F   UNL A   1      38.977  26.435  29.967  1.00  0.00    -0.203 F 
ATOM     70  C   UNL A   1      39.750  26.024  27.782  1.00  0.00     0.198 A 
ATOM     71  C   UNL A   1      41.196  27.606  26.702  1.00  0.00     0.198 A 
ATOM     72  F   UNL A   1      41.881  29.547  27.840  1.00  0.00    -0.203 F 
ATOM     73  F   UNL A   1      39.090  24.857  27.771  1.00  0.00    -0.200 F 
ATOM     74  C   UNL A   1      40.490  26.412  26.677  1.00  0.00     0.200 A 
ATOM     75  F   UNL A   1      41.902  27.988  25.628  1.00  0.00    -0.200 F 
ATOM     76  F   UNL A   1      40.531  25.631  25.588  1.00  0.00    -0.200 F 
ENDBRANCH  52  66
BRANCH  53  77
ATOM     77  C   UNL A   1      39.563  33.970  36.948  1.00  0.00     0.064 A 
ATOM     78  C   UNL A   1      38.790  33.554  38.041  1.00  0.00     0.173 A 
ATOM     79  C   UNL A   1      40.191  35.221  37.033  1.00  0.00     0.173 A 
ATOM     80  F   UNL A   1      38.151  32.375  37.998  1.00  0.00    -0.203 F 
ATOM     81  C   UNL A   1      38.630  34.365  39.162  1.00  0.00     0.198 A 
ATOM     82  C   UNL A   1      40.054  36.020  38.167  1.00  0.00     0.198 A 
ATOM     83  F   UNL A   1      40.946  35.664  36.018  1.00  0.00    -0.203 F 
ATOM     84  F   UNL A   1      37.845  33.963  40.171  1.00  0.00    -0.200 F 
ATOM     85  C   UNL A   1      39.267  35.595  39.227  1.00  0.00     0.200 A 
ATOM     86  F   UNL A   1      40.682  37.201  38.232  1.00  0.00    -0.200 F 
ATOM     87  F   UNL A   1      39.115  36.375  40.306  1.00  0.00    -0.200 F 
ENDBRANCH  53  77
BRANCH  65  88
ATOM     88  C   UNL A   1      43.951  28.846  35.205  1.00  0.00     0.064 A 
ATOM     89  C   UNL A   1      43.816  27.753  36.072  1.00  0.00     0.173 A 
ATOM     90  C   UNL A   1      45.242  29.342  34.967  1.00  0.00     0.173 A 
ATOM     91  F   UNL A   1      42.602  27.253  36.344  1.00  0.00    -0.203 F 
ATOM     92  C   UNL A   1      44.929  27.194  36.695  1.00  0.00     0.198 A 
ATOM     93  C   UNL A   1      46.355  28.761  35.567  1.00  0.00     0.198 A 
ATOM     94  F   UNL A   1      45.426  30.382  34.140  1.00  0.00    -0.203 F 
ATOM     95  F   UNL A   1      44.772  26.179  37.556  1.00  0.00    -0.200 F 
ATOM     96  C   UNL A   1      46.198  27.692  36.436  1.00  0.00     0.200 A 
ATOM     97  F   UNL A   1      47.581  29.236  35.305  1.00  0.00    -0.200 F 
ATOM     98  F   UNL A   1      47.268  27.147  37.030  1.00  0.00    -0.200 F 
ENDBRANCH  65  88
ENDBRANCH  39  40
ENDBRANCH  31  34
ENDBRANCH  29  30
ENDBRANCH  28  29
ENDBRANCH   1  28
TORSDOF 13
ENDMDL
MODEL 3
REMARK VINA RESULT:     -13.4      5.259     10.944
REMARK SMILES CC(C)N1C[C@@]2(CCCN(c3ccc(C(=O)NCCCCNC(=O)c4ccc(-c5c6nc(c(-c7c(F)c(F)c(F)c(F)c7F)c7ccc([nH]7)c(-c7c(F)c(F)c(F)c(F)c7F)c7nc(c(-c8c(F)c(F)c(F)c(F)c8F)c8ccc5[nH]8)C=C7)C=C6)cc4)cn3)C2)CCC1=O
REMARK SMILES IDX 19 1 18 2 17 3 15 4 16 5 14 7 11 8 12 9 89 10 13 11 88 12
REMARK SMILES IDX 10 13 4 14 5 15 93 16 6 17 92 18 94 19 7 20 90 21 91 22 8 23
REMARK SMILES IDX 9 24 2 25 1 26 3 27 20 28 21 29 22 30 23 31 24 33 25 34
REMARK SMILES IDX 26 35 87 36 27 37 86 38 28 39 29 40 30 41 80 42 31 43 85 44
REMARK SMILES IDX 79 45 81 46 32 47 84 48 78 49 77 50 33 52 65 53 45 54 64 55
REMARK SMILES IDX 46 56 49 57 63 58 82 59 47 60 48 61 62 63 83 64 50 65 34 66
REMARK SMILES IDX 35 67 43 68 36 69 37 70 41 71 44 72 38 73 39 74 42 75 40 76
REMARK SMILES IDX 66 77 67 78 75 79 68 80 69 81 73 82 76 83 70 84 71 85 74 86
REMARK SMILES IDX 72 87 51 88 52 89 60 90 53 91 54 92 58 93 61 94 55 95 56 96
REMARK SMILES IDX 59 97 57 98
REMARK H PARENT 17 6 22 32 81 51 49 62
REMARK Flexibility Score: inf
ROOT
ATOM      1  C   UNL A   1      31.489  30.447  26.544  1.00  0.00     0.023 C 
ENDROOT
BRANCH   1   2
ATOM      2  C   UNL A   1      32.134  29.755  25.345  1.00  0.00     0.116 C 
BRANCH   2   3
ATOM      3  N   UNL A   1      31.206  28.913  24.603  1.00  0.00    -0.352 N 
ATOM      4  C   UNL A   1      31.236  27.549  24.422  1.00  0.00     0.252 C 
ATOM      5  O   UNL A   1      30.435  26.996  23.677  1.00  0.00    -0.269 OA
ATOM      6  H   UNL A   1      30.456  29.383  24.173  1.00  0.00     0.163 HD
BRANCH   4   7
ATOM      7  C   UNL A   1      32.276  26.761  25.092  1.00  0.00     0.058 A 
ATOM      8  C   UNL A   1      34.075  24.887  26.020  1.00  0.00     0.128 A 
ATOM      9  C   UNL A   1      34.539  26.022  25.353  1.00  0.00     0.048 A 
ATOM     10  N   UNL A   1      32.767  24.786  26.354  1.00  0.00    -0.239 NA
ATOM     11  C   UNL A   1      33.630  26.959  24.862  1.00  0.00     0.019 A 
ATOM     12  C   UNL A   1      31.896  25.719  25.908  1.00  0.00     0.127 A 
BRANCH   8  13
ATOM     13  N   UNL A   1      34.872  23.776  26.229  1.00  0.00    -0.356 N 
ATOM     14  N   UNL A   1      32.929  20.621  23.749  1.00  0.00    -0.340 N 
ATOM     15  C   UNL A   1      34.371  20.772  23.938  1.00  0.00     0.128 C 
ATOM     16  C   UNL A   1      32.261  21.527  22.928  1.00  0.00     0.222 C 
ATOM     17  C   UNL A   1      34.804  22.197  24.316  1.00  0.00     0.006 C 
ATOM     18  C   UNL A   1      32.719  22.964  23.058  1.00  0.00     0.101 C 
ATOM     19  O   UNL A   1      31.273  21.254  22.253  1.00  0.00    -0.275 OA
ATOM     20  C   UNL A   1      36.358  22.280  24.290  1.00  0.00     0.012 C 
ATOM     21  C   UNL A   1      34.314  22.499  25.764  1.00  0.00     0.127 C 
ATOM     22  C   UNL A   1      34.220  23.124  23.226  1.00  0.00     0.020 C 
ATOM     23  C   UNL A   1      36.915  23.566  24.915  1.00  0.00     0.022 C 
ATOM     24  C   UNL A   1      36.325  23.817  26.302  1.00  0.00     0.118 C 
BRANCH  14  25
ATOM     25  C   UNL A   1      32.345  19.313  24.090  1.00  0.00     0.078 C 
ATOM     26  C   UNL A   1      32.567  18.226  23.032  1.00  0.00     0.031 C 
ATOM     27  C   UNL A   1      32.772  18.830  25.473  1.00  0.00     0.031 C 
ENDBRANCH  14  25
ENDBRANCH   8  13
ENDBRANCH   4   7
ENDBRANCH   2   3
ENDBRANCH   1   2
BRANCH   1  28
ATOM     28  C   UNL A   1      31.484  31.975  26.507  1.00  0.00     0.023 C 
BRANCH  28  29
ATOM     29  C   UNL A   1      32.601  32.661  27.286  1.00  0.00     0.116 C 
BRANCH  29  30
ATOM     30  N   UNL A   1      32.316  34.051  27.605  1.00  0.00    -0.352 N 
ATOM     31  C   UNL A   1      32.939  34.889  28.504  1.00  0.00     0.251 C 
ATOM     32  H   UNL A   1      31.569  34.452  27.106  1.00  0.00     0.163 HD
ATOM     33  O   UNL A   1      32.494  36.011  28.706  1.00  0.00    -0.269 OA
BRANCH  31  34
ATOM     34  C   UNL A   1      34.125  34.421  29.257  1.00  0.00     0.039 A 
ATOM     35  C   UNL A   1      33.935  33.827  30.510  1.00  0.00     0.014 A 
ATOM     36  C   UNL A   1      35.414  34.553  28.736  1.00  0.00     0.014 A 
ATOM     37  C   UNL A   1      35.028  33.293  31.199  1.00  0.00     0.010 A 
ATOM     38  C   UNL A   1      36.490  33.954  29.388  1.00  0.00     0.010 A 
ATOM     39  C   UNL A   1      36.309  33.315  30.625  1.00  0.00    -0.014 A 
BRANCH  39  40
ATOM     40  C   UNL A   1      37.468  32.669  31.294  1.00  0.00     0.031 A 
ATOM     41  C   UNL A   1      38.181  31.520  30.635  1.00  0.00     0.074 A 
ATOM     42  C   UNL A   1      37.832  33.063  32.531  1.00  0.00     0.049 A 
ATOM     43  N   UNL A   1      39.154  30.774  31.093  1.00  0.00    -0.248 NA
ATOM     44  C   UNL A   1      37.718  31.141  29.290  1.00  0.00     0.031 C 
ATOM     45  C   UNL A   1      37.190  34.129  33.302  1.00  0.00     0.029 A 
ATOM     46  N   UNL A   1      38.824  32.604  33.363  1.00  0.00    -0.354 N 
ATOM     47  C   UNL A   1      39.405  29.830  30.106  1.00  0.00     0.074 A 
ATOM     48  C   UNL A   1      38.448  30.064  29.045  1.00  0.00     0.031 C 
ATOM     49  C   UNL A   1      37.815  34.254  34.483  1.00  0.00     0.029 A 
ATOM     50  C   UNL A   1      38.877  33.256  34.570  1.00  0.00     0.049 A 
ATOM     51  H   UNL A   1      39.439  31.875  33.117  1.00  0.00     0.167 HD
ATOM     52  C   UNL A   1      40.361  28.872  30.075  1.00  0.00     0.037 A 
ATOM     53  C   UNL A   1      39.686  33.068  35.630  1.00  0.00     0.037 A 
ATOM     54  C   UNL A   1      41.332  28.659  31.116  1.00  0.00     0.049 A 
ATOM     55  C   UNL A   1      40.745  32.000  35.567  1.00  0.00     0.074 A 
ATOM     56  C   UNL A   1      42.379  27.755  31.149  1.00  0.00     0.029 A 
ATOM     57  N   UNL A   1      41.373  29.363  32.311  1.00  0.00    -0.354 N 
ATOM     58  N   UNL A   1      41.018  31.160  34.599  1.00  0.00    -0.248 NA
ATOM     59  C   UNL A   1      41.615  31.860  36.743  1.00  0.00     0.031 C 
ATOM     60  C   UNL A   1      43.028  27.882  32.381  1.00  0.00     0.029 A 
ATOM     61  C   UNL A   1      42.418  28.901  33.096  1.00  0.00     0.049 A 
ATOM     62  H   UNL A   1      40.753  30.084  32.564  1.00  0.00     0.167 HD
ATOM     63  C   UNL A   1      42.106  30.416  35.033  1.00  0.00     0.074 A 
ATOM     64  C   UNL A   1      42.453  30.912  36.348  1.00  0.00     0.031 C 
ATOM     65  C   UNL A   1      42.761  29.414  34.397  1.00  0.00     0.037 A 
BRANCH  52  66
ATOM     66  C   UNL A   1      40.410  27.978  28.869  1.00  0.00     0.064 A 
ATOM     67  C   UNL A   1      41.158  28.318  27.731  1.00  0.00     0.173 A 
ATOM     68  C   UNL A   1      39.731  26.750  28.863  1.00  0.00     0.173 A 
ATOM     69  F   UNL A   1      41.816  29.486  27.680  1.00  0.00    -0.203 F 
ATOM     70  C   UNL A   1      41.200  27.477  26.622  1.00  0.00     0.198 A 
ATOM     71  C   UNL A   1      39.801  25.896  27.765  1.00  0.00     0.198 A 
ATOM     72  F   UNL A   1      39.007  26.372  29.927  1.00  0.00    -0.203 F 
ATOM     73  F   UNL A   1      41.879  27.847  25.528  1.00  0.00    -0.200 F 
ATOM     74  C   UNL A   1      40.528  26.264  26.642  1.00  0.00     0.200 A 
ATOM     75  F   UNL A   1      39.162  24.718  27.791  1.00  0.00    -0.200 F 
ATOM     76  F   UNL A   1      40.575  25.452  25.577  1.00  0.00    -0.200 F 
ENDBRANCH  52  66
BRANCH  53  77
ATOM     77  C   UNL A   1      39.548  33.928  36.834  1.00  0.00     0.064 A 
ATOM     78  C   UNL A   1      40.196  35.169  36.908  1.00  0.00     0.173 A 
ATOM     79  C   UNL A   1      38.776  33.530  37.934  1.00  0.00     0.173 A 
ATOM     80  F   UNL A   1      40.964  35.585  35.890  1.00  0.00    -0.203 F 
ATOM     81  C   UNL A   1      40.096  35.968  38.045  1.00  0.00     0.198 A 
ATOM     82  C   UNL A   1      38.653  34.342  39.060  1.00  0.00     0.198 A 
ATOM     83  F   UNL A   1      38.131  32.354  37.912  1.00  0.00    -0.203 F 
ATOM     84  F   UNL A   1      40.766  37.126  38.108  1.00  0.00    -0.200 F 
ATOM     85  C   UNL A   1      39.320  35.556  39.118  1.00  0.00     0.200 A 
ATOM     86  F   UNL A   1      37.891  33.947  40.089  1.00  0.00    -0.200 F 
ATOM     87  F   UNL A   1      39.223  36.326  40.211  1.00  0.00    -0.200 F 
ENDBRANCH  53  77
BRANCH  65  88
ATOM     88  C   UNL A   1      43.948  28.814  35.094  1.00  0.00     0.064 A 
ATOM     89  C   UNL A   1      45.235  29.353  34.957  1.00  0.00     0.173 A 
ATOM     90  C   UNL A   1      43.784  27.708  35.942  1.00  0.00     0.173 A 
ATOM     91  F   UNL A   1      45.446  30.400  34.145  1.00  0.00    -0.203 F 
ATOM     92  C   UNL A   1      46.320  28.792  35.627  1.00  0.00     0.198 A 
ATOM     93  C   UNL A   1      44.865  27.169  36.633  1.00  0.00     0.198 A 
ATOM     94  F   UNL A   1      42.572  27.159  36.112  1.00  0.00    -0.203 F 
ATOM     95  F   UNL A   1      47.548  29.295  35.446  1.00  0.00    -0.200 F 
ATOM     96  C   UNL A   1      46.133  27.706  36.470  1.00  0.00     0.200 A 
ATOM     97  F   UNL A   1      44.680  26.129  37.459  1.00  0.00    -0.200 F 
ATOM     98  F   UNL A   1      47.176  27.173  37.120  1.00  0.00    -0.200 F 
ENDBRANCH  65  88
ENDBRANCH  39  40
ENDBRANCH  31  34
ENDBRANCH  29  30
ENDBRANCH  28  29
ENDBRANCH   1  28
TORSDOF 13
ENDMDL
