MODEL 1
REMARK VINA RESULT:     -15.4      0.000      0.000
REMARK SMILES O=C1C[C@H](c2cn[nH]c2C(=O)NCCCCNC(=O)c2ccc(-c3c4nc(c(-c5c(F)c(F)c(F)c(F)c5F)c5ccc([nH]5)c(-c5c(F)c(F)c(F)c(F)c5F)c5nc(c(-c6c(F)c(F)c(F)c(F)c6F)c6ccc3[nH]6)C=C5)C=C4)cc2)c2c(-c3cccs3)n[nH]c2N1
REMARK SMILES IDX 14 1 13 2 12 3 10 4 11 5 9 7 5 8 6 9 7 10 8 11 4 13 1 14
REMARK SMILES IDX 2 15 3 16 93 17 92 18 83 20 91 21 84 22 90 23 85 25 86 26
REMARK SMILES IDX 89 27 87 28 88 29 15 30 16 31 17 32 18 33 19 35 20 36 21 37
REMARK SMILES IDX 82 38 22 39 81 40 23 41 24 42 25 43 75 44 26 45 80 46 74 47
REMARK SMILES IDX 76 48 27 49 79 50 73 51 72 52 28 54 60 55 40 56 59 57 41 58
REMARK SMILES IDX 44 59 58 60 77 61 42 62 43 63 57 65 78 66 45 67 29 68 30 69
REMARK SMILES IDX 38 70 31 71 32 72 36 73 39 74 33 75 34 76 37 77 35 78 61 79
REMARK SMILES IDX 62 80 70 81 63 82 64 83 68 84 71 85 65 86 66 87 69 88 67 89
REMARK SMILES IDX 46 90 47 91 55 92 48 93 49 94 53 95 56 96 50 97 51 98 54 99
REMARK SMILES IDX 52 100
REMARK H PARENT 12 6 8 12 93 19 91 24 17 34 76 53 44 64
REMARK Flexibility Score: inf
ROOT
ATOM      1  C   UNL A   1      38.706  23.027  26.651  1.00  0.00     0.023 C 
ENDROOT
BRANCH   1   2
ATOM      2  C   UNL A   1      37.366  23.703  25.697  1.00  0.00     0.116 C 
BRANCH   2   3
ATOM      3  N   UNL A   1      35.412  22.829  25.355  1.00  0.00    -0.351 N 
ATOM      4  C   UNL A   1      33.995  22.736  25.366  1.00  0.00     0.269 C 
ATOM      5  O   UNL A   1      33.529  21.687  24.911  1.00  0.00    -0.268 OA
ATOM      6  H   UNL A   1      35.657  21.973  24.935  1.00  0.00     0.163 HD
BRANCH   4   7
ATOM      7  C   UNL A   1      33.115  23.796  25.795  1.00  0.00     0.126 A 
ATOM      8  C   UNL A   1      32.941  25.096  25.346  1.00  0.00     0.011 A 
ATOM      9  C   UNL A   1      31.862  25.598  26.098  1.00  0.00     0.140 A 
ATOM     10  N   UNL A   1      31.402  24.708  26.979  1.00  0.00    -0.183 NA
ATOM     11  N   UNL A   1      32.177  23.627  26.775  1.00  0.00    -0.273 N 
ATOM     12  H   UNL A   1      32.076  22.789  27.283  1.00  0.00     0.190 HD
BRANCH   8  13
ATOM     13  C   UNL A   1      33.739  25.735  24.267  1.00  0.00     0.069 C 
ATOM     14  O   UNL A   1      33.278  23.640  21.107  1.00  0.00    -0.275 OA
ATOM     15  C   UNL A   1      32.995  24.446  22.001  1.00  0.00     0.226 C 
ATOM     16  C   UNL A   1      34.046  24.761  23.105  1.00  0.00     0.114 C 
ATOM     17  N   UNL A   1      31.787  25.095  21.916  1.00  0.00    -0.311 N 
ATOM     18  C   UNL A   1      31.660  26.273  22.587  1.00  0.00     0.132 A 
ATOM     19  H   UNL A   1      31.041  24.723  21.390  1.00  0.00     0.171 HD
ATOM     20  C   UNL A   1      32.878  26.801  23.746  1.00  0.00     0.031 A 
ATOM     21  N   UNL A   1      30.408  27.628  22.418  1.00  0.00    -0.262 N 
ATOM     22  C   UNL A   1      32.375  28.576  24.370  1.00  0.00     0.108 A 
ATOM     23  N   UNL A   1      30.884  29.061  23.553  1.00  0.00    -0.173 NA
ATOM     24  H   UNL A   1      29.618  27.605  21.829  1.00  0.00     0.192 HD
BRANCH  22  25
ATOM     25  C   UNL A   1      32.910  29.124  25.653  1.00  0.00     0.055 A 
ATOM     26  C   UNL A   1      34.125  28.763  26.192  1.00  0.00     0.022 A 
ATOM     27  S   UNL A   1      32.172  30.402  26.500  1.00  0.00    -0.142 S 
ATOM     28  C   UNL A   1      34.476  29.601  27.296  1.00  0.00     0.012 A 
ATOM     29  C   UNL A   1      33.476  30.498  27.605  1.00  0.00     0.065 A 
ENDBRANCH  22  25
ENDBRANCH   8  13
ENDBRANCH   4   7
ENDBRANCH   2   3
ENDBRANCH   1   2
BRANCH   1  30
ATOM     30  C   UNL A   1      39.421  21.789  26.100  1.00  0.00     0.023 C 
BRANCH  30  31
ATOM     31  C   UNL A   1      40.642  21.371  26.880  1.00  0.00     0.116 C 
BRANCH  31  32
ATOM     32  N   UNL A   1      41.855  21.523  26.085  1.00  0.00    -0.352 N 
ATOM     33  C   UNL A   1      42.368  22.725  25.651  1.00  0.00     0.251 C 
ATOM     34  H   UNL A   1      42.343  20.704  25.839  1.00  0.00     0.163 HD
ATOM     35  O   UNL A   1      43.027  22.819  24.626  1.00  0.00    -0.269 OA
BRANCH  33  36
ATOM     36  C   UNL A   1      42.166  23.873  26.546  1.00  0.00     0.039 A 
ATOM     37  C   UNL A   1      42.784  23.987  27.789  1.00  0.00     0.014 A 
ATOM     38  C   UNL A   1      41.371  24.901  26.034  1.00  0.00     0.014 A 
ATOM     39  C   UNL A   1      42.537  25.141  28.536  1.00  0.00     0.010 A 
ATOM     40  C   UNL A   1      41.323  26.107  26.672  1.00  0.00     0.010 A 
ATOM     41  C   UNL A   1      41.768  26.187  27.978  1.00  0.00    -0.014 A 
BRANCH  41  42
ATOM     42  C   UNL A   1      41.675  27.518  28.576  1.00  0.00     0.031 A 
ATOM     43  C   UNL A   1      42.817  28.337  28.086  1.00  0.00     0.074 A 
ATOM     44  C   UNL A   1      40.623  27.958  29.322  1.00  0.00     0.049 A 
ATOM     45  N   UNL A   1      43.895  28.558  28.758  1.00  0.00    -0.248 NA
ATOM     46  C   UNL A   1      42.963  28.667  26.652  1.00  0.00     0.031 C 
ATOM     47  C   UNL A   1      39.389  27.246  29.689  1.00  0.00     0.029 A 
ATOM     48  N   UNL A   1      40.413  29.188  29.911  1.00  0.00    -0.354 N 
ATOM     49  C   UNL A   1      44.688  29.360  27.950  1.00  0.00     0.074 A 
ATOM     50  C   UNL A   1      44.206  29.163  26.615  1.00  0.00     0.031 C 
ATOM     51  C   UNL A   1      38.478  28.109  30.211  1.00  0.00     0.029 A 
ATOM     52  C   UNL A   1      39.083  29.419  30.353  1.00  0.00     0.049 A 
ATOM     53  H   UNL A   1      41.129  29.855  30.017  1.00  0.00     0.167 HD
ATOM     54  C   UNL A   1      45.398  30.363  28.538  1.00  0.00     0.037 A 
ATOM     55  C   UNL A   1      38.563  30.598  30.832  1.00  0.00     0.037 A 
ATOM     56  C   UNL A   1      45.425  30.149  29.970  1.00  0.00     0.049 A 
ATOM     57  C   UNL A   1      39.717  31.422  31.284  1.00  0.00     0.074 A 
ATOM     58  C   UNL A   1      45.883  29.137  30.790  1.00  0.00     0.029 A 
ATOM     59  N   UNL A   1      44.474  30.835  30.685  1.00  0.00    -0.354 N 
ATOM     60  N   UNL A   1      40.446  31.092  32.314  1.00  0.00    -0.248 NA
ATOM     61  C   UNL A   1      40.380  32.207  30.253  1.00  0.00     0.031 C 
ATOM     62  C   UNL A   1      44.882  28.993  31.796  1.00  0.00     0.029 A 
ATOM     63  C   UNL A   1      43.957  30.026  31.657  1.00  0.00     0.049 A 
ATOM     64  H   UNL A   1      44.206  31.767  30.521  1.00  0.00     0.167 HD
ATOM     65  C   UNL A   1      41.741  31.149  31.826  1.00  0.00     0.074 A 
ATOM     66  C   UNL A   1      41.639  31.867  30.551  1.00  0.00     0.031 C 
ATOM     67  C   UNL A   1      42.703  30.307  32.310  1.00  0.00     0.037 A 
BRANCH  54  68
ATOM     68  C   UNL A   1      45.603  31.746  27.957  1.00  0.00     0.064 A 
ATOM     69  C   UNL A   1      44.458  32.472  27.561  1.00  0.00     0.173 A 
ATOM     70  C   UNL A   1      46.830  32.249  27.477  1.00  0.00     0.173 A 
ATOM     71  F   UNL A   1      43.233  32.081  27.946  1.00  0.00    -0.203 F 
ATOM     72  C   UNL A   1      44.530  33.551  26.677  1.00  0.00     0.198 A 
ATOM     73  C   UNL A   1      46.902  33.356  26.631  1.00  0.00     0.198 A 
ATOM     74  F   UNL A   1      47.998  31.644  27.710  1.00  0.00    -0.203 F 
ATOM     75  F   UNL A   1      43.404  34.118  26.226  1.00  0.00    -0.200 F 
ATOM     76  C   UNL A   1      45.753  33.987  26.207  1.00  0.00     0.200 A 
ATOM     77  F   UNL A   1      48.096  33.753  26.168  1.00  0.00    -0.200 F 
ATOM     78  F   UNL A   1      45.824  34.987  25.318  1.00  0.00    -0.200 F 
ENDBRANCH  54  68
BRANCH  55  79
ATOM     79  C   UNL A   1      37.206  31.220  30.684  1.00  0.00     0.064 A 
ATOM     80  C   UNL A   1      36.372  31.524  31.788  1.00  0.00     0.173 A 
ATOM     81  C   UNL A   1      36.837  31.825  29.470  1.00  0.00     0.173 A 
ATOM     82  F   UNL A   1      36.655  31.041  33.008  1.00  0.00    -0.203 F 
ATOM     83  C   UNL A   1      35.271  32.394  31.679  1.00  0.00     0.198 A 
ATOM     84  C   UNL A   1      35.747  32.698  29.364  1.00  0.00     0.198 A 
ATOM     85  F   UNL A   1      37.591  31.658  28.375  1.00  0.00    -0.203 F 
ATOM     86  F   UNL A   1      34.538  32.699  32.761  1.00  0.00    -0.200 F 
ATOM     87  C   UNL A   1      34.971  32.993  30.469  1.00  0.00     0.200 A 
ATOM     88  F   UNL A   1      35.496  33.301  28.195  1.00  0.00    -0.200 F 
ATOM     89  F   UNL A   1      33.969  33.880  30.374  1.00  0.00    -0.200 F 
ENDBRANCH  55  79
BRANCH  67  90
ATOM     90  C   UNL A   1      42.402  29.515  33.553  1.00  0.00     0.064 A 
ATOM     91  C   UNL A   1      41.850  28.221  33.577  1.00  0.00     0.173 A 
ATOM     92  C   UNL A   1      42.842  30.047  34.771  1.00  0.00     0.173 A 
ATOM     93  F   UNL A   1      41.518  27.590  32.444  1.00  0.00    -0.203 F 
ATOM     94  C   UNL A   1      41.694  27.526  34.778  1.00  0.00     0.198 A 
ATOM     95  C   UNL A   1      42.724  29.337  35.959  1.00  0.00     0.198 A 
ATOM     96  F   UNL A   1      43.446  31.246  34.797  1.00  0.00    -0.203 F 
ATOM     97  F   UNL A   1      41.151  26.300  34.781  1.00  0.00    -0.200 F 
ATOM     98  C   UNL A   1      42.130  28.087  35.967  1.00  0.00     0.200 A 
ATOM     99  F   UNL A   1      43.214  29.858  37.091  1.00  0.00    -0.200 F 
ATOM    100  F   UNL A   1      42.005  27.412  37.119  1.00  0.00    -0.200 F 
ENDBRANCH  67  90
ENDBRANCH  41  42
ENDBRANCH  33  36
ENDBRANCH  31  32
ENDBRANCH  30  31
ENDBRANCH   1  30
TORSDOF 13
ENDMDL
MODEL 2
REMARK VINA RESULT:     -15.1      3.147      8.627
REMARK SMILES O=C1C[C@H](c2cn[nH]c2C(=O)NCCCCNC(=O)c2ccc(-c3c4nc(c(-c5c(F)c(F)c(F)c(F)c5F)c5ccc([nH]5)c(-c5c(F)c(F)c(F)c(F)c5F)c5nc(c(-c6c(F)c(F)c(F)c(F)c6F)c6ccc3[nH]6)C=C5)C=C4)cc2)c2c(-c3cccs3)n[nH]c2N1
REMARK SMILES IDX 14 1 13 2 12 3 10 4 11 5 9 7 5 8 6 9 7 10 8 11 4 13 1 14
REMARK SMILES IDX 2 15 3 16 93 17 92 18 83 20 91 21 84 22 90 23 85 25 86 26
REMARK SMILES IDX 89 27 87 28 88 29 15 30 16 31 17 32 18 33 19 35 20 36 21 37
REMARK SMILES IDX 82 38 22 39 81 40 23 41 24 42 25 43 75 44 26 45 80 46 74 47
REMARK SMILES IDX 76 48 27 49 79 50 73 51 72 52 28 54 60 55 40 56 59 57 41 58
REMARK SMILES IDX 44 59 58 60 77 61 42 62 43 63 57 65 78 66 45 67 29 68 30 69
REMARK SMILES IDX 38 70 31 71 32 72 36 73 39 74 33 75 34 76 37 77 35 78 61 79
REMARK SMILES IDX 62 80 70 81 63 82 64 83 68 84 71 85 65 86 66 87 69 88 67 89
REMARK SMILES IDX 46 90 47 91 55 92 48 93 49 94 53 95 56 96 50 97 51 98 54 99
REMARK SMILES IDX 52 100
REMARK H PARENT 12 6 8 12 93 19 91 24 17 34 76 53 44 64
REMARK Flexibility Score: inf
ROOT
ATOM      1  C   UNL A   1      34.940  30.467  27.296  1.00  0.00     0.023 C 
ENDROOT
BRANCH   1   2
ATOM      2  C   UNL A   1      34.257  28.870  26.912  1.00  0.00     0.116 C 
BRANCH   2   3
ATOM      3  N   UNL A   1      32.977  28.344  25.243  1.00  0.00    -0.351 N 
ATOM      4  C   UNL A   1      32.517  27.598  24.127  1.00  0.00     0.269 C 
ATOM      5  O   UNL A   1      31.510  28.045  23.570  1.00  0.00    -0.268 OA
ATOM      6  H   UNL A   1      32.304  29.061  25.286  1.00  0.00     0.163 HD
BRANCH   4   7
ATOM      7  C   UNL A   1      33.101  26.355  23.683  1.00  0.00     0.126 A 
ATOM      8  C   UNL A   1      33.395  25.177  24.352  1.00  0.00     0.011 A 
ATOM      9  C   UNL A   1      33.855  24.298  23.354  1.00  0.00     0.140 A 
ATOM     10  N   UNL A   1      33.888  24.872  22.150  1.00  0.00    -0.183 NA
ATOM     11  N   UNL A   1      33.426  26.115  22.377  1.00  0.00    -0.273 N 
ATOM     12  H   UNL A   1      33.328  26.791  21.667  1.00  0.00     0.190 HD
BRANCH   8  13
ATOM     13  C   UNL A   1      33.198  24.956  25.809  1.00  0.00     0.069 C 
ATOM     14  O   UNL A   1      29.455  25.248  26.515  1.00  0.00    -0.275 OA
ATOM     15  C   UNL A   1      30.512  24.744  26.118  1.00  0.00     0.226 C 
ATOM     16  C   UNL A   1      31.847  25.520  26.313  1.00  0.00     0.114 C 
ATOM     17  N   UNL A   1      30.458  23.471  25.603  1.00  0.00    -0.311 N 
ATOM     18  C   UNL A   1      31.612  22.748  25.601  1.00  0.00     0.132 A 
ATOM     19  H   UNL A   1      29.619  23.096  25.251  1.00  0.00     0.171 HD
ATOM     20  C   UNL A   1      33.164  23.499  25.966  1.00  0.00     0.031 A 
ATOM     21  N   UNL A   1      31.893  20.928  25.398  1.00  0.00    -0.262 N 
ATOM     22  C   UNL A   1      34.516  22.097  25.978  1.00  0.00     0.108 A 
ATOM     23  N   UNL A   1      33.728  20.550  25.638  1.00  0.00    -0.173 NA
ATOM     24  H   UNL A   1      31.196  20.262  25.195  1.00  0.00     0.192 HD
BRANCH  22  25
ATOM     25  C   UNL A   1      35.965  22.420  25.807  1.00  0.00     0.055 A 
ATOM     26  C   UNL A   1      36.528  23.625  26.162  1.00  0.00     0.022 A 
ATOM     27  S   UNL A   1      37.125  21.269  25.333  1.00  0.00    -0.142 S 
ATOM     28  C   UNL A   1      37.955  23.575  26.094  1.00  0.00     0.012 A 
ATOM     29  C   UNL A   1      38.409  22.370  25.603  1.00  0.00     0.065 A 
ENDBRANCH  22  25
ENDBRANCH   8  13
ENDBRANCH   4   7
ENDBRANCH   2   3
ENDBRANCH   1   2
BRANCH   1  30
ATOM     30  C   UNL A   1      33.978  31.557  27.782  1.00  0.00     0.023 C 
BRANCH  30  31
ATOM     31  C   UNL A   1      34.645  32.849  28.182  1.00  0.00     0.116 C 
BRANCH  31  32
ATOM     32  N   UNL A   1      34.453  33.125  29.600  1.00  0.00    -0.352 N 
ATOM     33  C   UNL A   1      34.980  32.377  30.629  1.00  0.00     0.251 C 
ATOM     34  H   UNL A   1      33.905  33.907  29.841  1.00  0.00     0.163 HD
ATOM     35  O   UNL A   1      34.434  32.294  31.719  1.00  0.00    -0.269 OA
BRANCH  33  36
ATOM     36  C   UNL A   1      36.292  31.765  30.374  1.00  0.00     0.039 A 
ATOM     37  C   UNL A   1      37.468  32.504  30.268  1.00  0.00     0.014 A 
ATOM     38  C   UNL A   1      36.306  30.369  30.329  1.00  0.00     0.014 A 
ATOM     39  C   UNL A   1      38.660  31.806  30.055  1.00  0.00     0.010 A 
ATOM     40  C   UNL A   1      37.495  29.699  30.347  1.00  0.00     0.010 A 
ATOM     41  C   UNL A   1      38.655  30.393  30.060  1.00  0.00    -0.014 A 
BRANCH  41  42
ATOM     42  C   UNL A   1      39.875  29.590  30.102  1.00  0.00     0.031 A 
ATOM     43  C   UNL A   1      40.295  29.442  31.522  1.00  0.00     0.074 A 
ATOM     44  C   UNL A   1      40.423  28.958  29.026  1.00  0.00     0.049 A 
ATOM     45  N   UNL A   1      41.222  30.141  32.083  1.00  0.00    -0.248 NA
ATOM     46  C   UNL A   1      39.443  28.737  32.504  1.00  0.00     0.031 C 
ATOM     47  C   UNL A   1      39.950  28.928  27.633  1.00  0.00     0.029 A 
ATOM     48  N   UNL A   1      41.546  28.159  28.949  1.00  0.00    -0.354 N 
ATOM     49  C   UNL A   1      41.299  29.689  33.393  1.00  0.00     0.074 A 
ATOM     50  C   UNL A   1      40.040  29.057  33.658  1.00  0.00     0.031 C 
ATOM     51  C   UNL A   1      40.616  27.980  26.924  1.00  0.00     0.029 A 
ATOM     52  C   UNL A   1      41.665  27.411  27.748  1.00  0.00     0.049 A 
ATOM     53  H   UNL A   1      42.214  28.112  29.671  1.00  0.00     0.167 HD
ATOM     54  C   UNL A   1      42.530  29.574  33.963  1.00  0.00     0.037 A 
ATOM     55  C   UNL A   1      42.591  26.434  27.470  1.00  0.00     0.037 A 
ATOM     56  C   UNL A   1      43.496  30.290  33.156  1.00  0.00     0.049 A 
ATOM     57  C   UNL A   1      43.732  26.648  28.402  1.00  0.00     0.074 A 
ATOM     58  C   UNL A   1      43.637  31.603  32.752  1.00  0.00     0.029 A 
ATOM     59  N   UNL A   1      44.193  29.524  32.256  1.00  0.00    -0.354 N 
ATOM     60  N   UNL A   1      44.510  27.691  28.320  1.00  0.00    -0.248 NA
ATOM     61  C   UNL A   1      43.593  26.052  29.723  1.00  0.00     0.031 C 
ATOM     62  C   UNL A   1      44.048  31.529  31.388  1.00  0.00     0.029 A 
ATOM     63  C   UNL A   1      44.312  30.197  31.072  1.00  0.00     0.049 A 
ATOM     64  H   UNL A   1      44.552  28.626  32.435  1.00  0.00     0.167 HD
ATOM     65  C   UNL A   1      44.518  28.191  29.612  1.00  0.00     0.074 A 
ATOM     66  C   UNL A   1      43.951  27.121  30.441  1.00  0.00     0.031 C 
ATOM     67  C   UNL A   1      44.640  29.534  29.835  1.00  0.00     0.037 A 
BRANCH  54  68
ATOM     68  C   UNL A   1      42.966  28.453  34.882  1.00  0.00     0.064 A 
ATOM     69  C   UNL A   1      43.567  28.802  36.112  1.00  0.00     0.173 A 
ATOM     70  C   UNL A   1      43.126  27.106  34.496  1.00  0.00     0.173 A 
ATOM     71  F   UNL A   1      43.492  30.060  36.576  1.00  0.00    -0.203 F 
ATOM     72  C   UNL A   1      44.346  27.902  36.841  1.00  0.00     0.198 A 
ATOM     73  C   UNL A   1      43.867  26.196  35.252  1.00  0.00     0.198 A 
ATOM     74  F   UNL A   1      42.672  26.630  33.333  1.00  0.00    -0.203 F 
ATOM     75  F   UNL A   1      45.005  28.323  37.929  1.00  0.00    -0.200 F 
ATOM     76  C   UNL A   1      44.502  26.601  36.406  1.00  0.00     0.200 A 
ATOM     77  F   UNL A   1      44.024  24.943  34.803  1.00  0.00    -0.200 F 
ATOM     78  F   UNL A   1      45.290  25.749  37.074  1.00  0.00    -0.200 F 
ENDBRANCH  54  68
BRANCH  55  79
ATOM     79  C   UNL A   1      42.488  25.158  26.687  1.00  0.00     0.064 A 
ATOM     80  C   UNL A   1      43.306  24.872  25.567  1.00  0.00     0.173 A 
ATOM     81  C   UNL A   1      41.802  24.055  27.226  1.00  0.00     0.173 A 
ATOM     82  F   UNL A   1      44.045  25.838  25.000  1.00  0.00    -0.203 F 
ATOM     83  C   UNL A   1      43.442  23.570  25.050  1.00  0.00     0.198 A 
ATOM     84  C   UNL A   1      41.945  22.759  26.717  1.00  0.00     0.198 A 
ATOM     85  F   UNL A   1      41.050  24.198  28.325  1.00  0.00    -0.203 F 
ATOM     86  F   UNL A   1      44.269  23.331  24.020  1.00  0.00    -0.200 F 
ATOM     87  C   UNL A   1      42.773  22.512  25.638  1.00  0.00     0.200 A 
ATOM     88  F   UNL A   1      41.322  21.739  27.324  1.00  0.00    -0.200 F 
ATOM     89  F   UNL A   1      42.954  21.257  25.198  1.00  0.00    -0.200 F 
ENDBRANCH  55  79
BRANCH  67  90
ATOM     90  C   UNL A   1      45.031  30.419  28.684  1.00  0.00     0.064 A 
ATOM     91  C   UNL A   1      44.137  30.997  27.764  1.00  0.00     0.173 A 
ATOM     92  C   UNL A   1      46.372  30.818  28.613  1.00  0.00     0.173 A 
ATOM     93  F   UNL A   1      42.821  30.765  27.840  1.00  0.00    -0.203 F 
ATOM     94  C   UNL A   1      44.586  31.882  26.782  1.00  0.00     0.198 A 
ATOM     95  C   UNL A   1      46.808  31.732  27.662  1.00  0.00     0.198 A 
ATOM     96  F   UNL A   1      47.255  30.358  29.513  1.00  0.00    -0.203 F 
ATOM     97  F   UNL A   1      43.719  32.410  25.904  1.00  0.00    -0.200 F 
ATOM     98  C   UNL A   1      45.921  32.247  26.733  1.00  0.00     0.200 A 
ATOM     99  F   UNL A   1      48.085  32.133  27.668  1.00  0.00    -0.200 F 
ATOM    100  F   UNL A   1      46.350  33.117  25.807  1.00  0.00    -0.200 F 
ENDBRANCH  67  90
ENDBRANCH  41  42
ENDBRANCH  33  36
ENDBRANCH  31  32
ENDBRANCH  30  31
ENDBRANCH   1  30
TORSDOF 13
ENDMDL
MODEL 3
REMARK VINA RESULT:     -15.0      1.859      3.346
REMARK SMILES O=C1C[C@H](c2cn[nH]c2C(=O)NCCCCNC(=O)c2ccc(-c3c4nc(c(-c5c(F)c(F)c(F)c(F)c5F)c5ccc([nH]5)c(-c5c(F)c(F)c(F)c(F)c5F)c5nc(c(-c6c(F)c(F)c(F)c(F)c6F)c6ccc3[nH]6)C=C5)C=C4)cc2)c2c(-c3cccs3)n[nH]c2N1
REMARK SMILES IDX 14 1 13 2 12 3 10 4 11 5 9 7 5 8 6 9 7 10 8 11 4 13 1 14
REMARK SMILES IDX 2 15 3 16 93 17 92 18 83 20 91 21 84 22 90 23 85 25 86 26
REMARK SMILES IDX 89 27 87 28 88 29 15 30 16 31 17 32 18 33 19 35 20 36 21 37
REMARK SMILES IDX 82 38 22 39 81 40 23 41 24 42 25 43 75 44 26 45 80 46 74 47
REMARK SMILES IDX 76 48 27 49 79 50 73 51 72 52 28 54 60 55 40 56 59 57 41 58
REMARK SMILES IDX 44 59 58 60 77 61 42 62 43 63 57 65 78 66 45 67 29 68 30 69
REMARK SMILES IDX 38 70 31 71 32 72 36 73 39 74 33 75 34 76 37 77 35 78 61 79
REMARK SMILES IDX 62 80 70 81 63 82 64 83 68 84 71 85 65 86 66 87 69 88 67 89
REMARK SMILES IDX 46 90 47 91 55 92 48 93 49 94 53 95 56 96 50 97 51 98 54 99
REMARK SMILES IDX 52 100
REMARK H PARENT 12 6 8 12 93 19 91 24 17 34 76 53 44 64
REMARK Flexibility Score: inf
ROOT
ATOM      1  C   UNL A   1      38.033  24.196  26.516  1.00  0.00     0.023 C 
ENDROOT
BRANCH   1   2
ATOM      2  C   UNL A   1      36.317  23.931  26.129  1.00  0.00     0.116 C 
BRANCH   2   3
ATOM      3  N   UNL A   1      35.441  23.556  24.181  1.00  0.00    -0.351 N 
ATOM      4  C   UNL A   1      34.524  23.692  23.106  1.00  0.00     0.269 C 
ATOM      5  O   UNL A   1      34.733  22.958  22.135  1.00  0.00    -0.268 OA
ATOM      6  H   UNL A   1      36.055  22.874  23.825  1.00  0.00     0.163 HD
BRANCH   4   7
ATOM      7  C   UNL A   1      33.454  24.660  23.069  1.00  0.00     0.126 A 
ATOM      8  C   UNL A   1      32.883  25.449  24.054  1.00  0.00     0.011 A 
ATOM      9  C   UNL A   1      31.955  26.261  23.375  1.00  0.00     0.140 A 
ATOM     10  N   UNL A   1      31.908  25.994  22.069  1.00  0.00    -0.183 NA
ATOM     11  N   UNL A   1      32.826  25.022  21.910  1.00  0.00    -0.273 N 
ATOM     12  H   UNL A   1      33.028  24.611  21.038  1.00  0.00     0.190 HD
BRANCH   8  13
ATOM     13  C   UNL A   1      33.255  25.413  25.493  1.00  0.00     0.069 C 
ATOM     14  O   UNL A   1      32.231  28.759  27.024  1.00  0.00    -0.275 OA
ATOM     15  C   UNL A   1      32.098  27.621  26.561  1.00  0.00     0.226 C 
ATOM     16  C   UNL A   1      33.360  26.829  26.110  1.00  0.00     0.114 C 
ATOM     17  N   UNL A   1      30.836  27.078  26.556  1.00  0.00    -0.311 N 
ATOM     18  C   UNL A   1      30.739  25.721  26.497  1.00  0.00     0.132 A 
ATOM     19  H   UNL A   1      30.033  27.647  26.594  1.00  0.00     0.171 HD
ATOM     20  C   UNL A   1      32.145  24.717  26.150  1.00  0.00     0.031 A 
ATOM     21  N   UNL A   1      29.315  24.597  26.873  1.00  0.00    -0.262 N 
ATOM     22  C   UNL A   1      31.595  22.853  26.288  1.00  0.00     0.108 A 
ATOM     23  N   UNL A   1      29.884  22.801  26.731  1.00  0.00    -0.173 NA
ATOM     24  H   UNL A   1      28.404  24.889  27.109  1.00  0.00     0.192 HD
BRANCH  22  25
ATOM     25  C   UNL A   1      32.383  21.765  25.636  1.00  0.00     0.055 A 
ATOM     26  C   UNL A   1      32.136  21.296  24.365  1.00  0.00     0.022 A 
ATOM     27  S   UNL A   1      33.800  21.109  26.311  1.00  0.00    -0.142 S 
ATOM     28  C   UNL A   1      33.174  20.420  23.920  1.00  0.00     0.012 A 
ATOM     29  C   UNL A   1      34.112  20.187  24.902  1.00  0.00     0.065 A 
ENDBRANCH  22  25
ENDBRANCH   8  13
ENDBRANCH   4   7
ENDBRANCH   2   3
ENDBRANCH   1   2
BRANCH   1  30
ATOM     30  C   UNL A   1      39.010  23.047  26.246  1.00  0.00     0.023 C 
BRANCH  30  31
ATOM     31  C   UNL A   1      40.059  22.854  27.312  1.00  0.00     0.116 C 
BRANCH  31  32
ATOM     32  N   UNL A   1      41.360  22.555  26.725  1.00  0.00    -0.352 N 
ATOM     33  C   UNL A   1      42.133  23.452  26.021  1.00  0.00     0.251 C 
ATOM     34  H   UNL A   1      41.713  21.643  26.840  1.00  0.00     0.163 HD
ATOM     35  O   UNL A   1      42.908  23.095  25.146  1.00  0.00    -0.269 OA
BRANCH  33  36
ATOM     36  C   UNL A   1      42.048  24.854  26.452  1.00  0.00     0.039 A 
ATOM     37  C   UNL A   1      41.322  25.820  25.759  1.00  0.00     0.014 A 
ATOM     38  C   UNL A   1      42.676  25.149  27.664  1.00  0.00     0.014 A 
ATOM     39  C   UNL A   1      41.291  27.114  26.285  1.00  0.00     0.010 A 
ATOM     40  C   UNL A   1      42.450  26.349  28.274  1.00  0.00     0.010 A 
ATOM     41  C   UNL A   1      41.895  27.378  27.535  1.00  0.00    -0.014 A 
BRANCH  41  42
ATOM     42  C   UNL A   1      41.693  28.622  28.274  1.00  0.00     0.031 A 
ATOM     43  C   UNL A   1      42.803  29.556  27.942  1.00  0.00     0.074 A 
ATOM     44  C   UNL A   1      40.581  28.913  29.008  1.00  0.00     0.049 A 
ATOM     45  N   UNL A   1      43.833  29.757  28.690  1.00  0.00    -0.248 NA
ATOM     46  C   UNL A   1      42.994  30.058  26.564  1.00  0.00     0.031 C 
ATOM     47  C   UNL A   1      39.378  28.095  29.226  1.00  0.00     0.029 A 
ATOM     48  N   UNL A   1      40.269  30.053  29.721  1.00  0.00    -0.354 N 
ATOM     49  C   UNL A   1      44.611  30.691  28.022  1.00  0.00     0.074 A 
ATOM     50  C   UNL A   1      44.205  30.624  26.649  1.00  0.00     0.031 C 
ATOM     51  C   UNL A   1      38.393  28.839  29.793  1.00  0.00     0.029 A 
ATOM     52  C   UNL A   1      38.908  30.156  30.115  1.00  0.00     0.049 A 
ATOM     53  H   UNL A   1      40.937  30.742  29.940  1.00  0.00     0.167 HD
ATOM     54  C   UNL A   1      45.230  31.657  28.757  1.00  0.00     0.037 A 
ATOM     55  C   UNL A   1      38.294  31.239  30.696  1.00  0.00     0.037 A 
ATOM     56  C   UNL A   1      45.203  31.280  30.155  1.00  0.00     0.049 A 
ATOM     57  C   UNL A   1      39.373  32.069  31.300  1.00  0.00     0.074 A 
ATOM     58  C   UNL A   1      45.685  30.206  30.878  1.00  0.00     0.029 A 
ATOM     59  N   UNL A   1      44.180  31.823  30.891  1.00  0.00    -0.354 N 
ATOM     60  N   UNL A   1      40.072  31.662  32.323  1.00  0.00    -0.248 NA
ATOM     61  C   UNL A   1      40.033  33.004  30.401  1.00  0.00     0.031 C 
ATOM     62  C   UNL A   1      44.649  29.891  31.807  1.00  0.00     0.029 A 
ATOM     63  C   UNL A   1      43.669  30.879  31.737  1.00  0.00     0.049 A 
ATOM     64  H   UNL A   1      43.862  32.752  30.820  1.00  0.00     0.167 HD
ATOM     65  C   UNL A   1      41.383  31.848  31.914  1.00  0.00     0.074 A 
ATOM     66  C   UNL A   1      41.295  32.704  30.725  1.00  0.00     0.031 C 
ATOM     67  C   UNL A   1      42.371  31.012  32.350  1.00  0.00     0.037 A 
BRANCH  54  68
ATOM     68  C   UNL A   1      45.376  33.107  28.348  1.00  0.00     0.064 A 
ATOM     69  C   UNL A   1      46.659  33.692  28.435  1.00  0.00     0.173 A 
ATOM     70  C   UNL A   1      44.309  34.018  28.196  1.00  0.00     0.173 A 
ATOM     71  F   UNL A   1      47.750  32.926  28.593  1.00  0.00    -0.203 F 
ATOM     72  C   UNL A   1      46.845  35.075  28.469  1.00  0.00     0.198 A 
ATOM     73  C   UNL A   1      44.505  35.399  28.183  1.00  0.00     0.198 A 
ATOM     74  F   UNL A   1      43.031  33.631  28.159  1.00  0.00    -0.203 F 
ATOM     75  F   UNL A   1      48.068  35.576  28.691  1.00  0.00    -0.200 F 
ATOM     76  C   UNL A   1      45.766  35.928  28.350  1.00  0.00     0.200 A 
ATOM     77  F   UNL A   1      43.443  36.212  28.087  1.00  0.00    -0.200 F 
ATOM     78  F   UNL A   1      45.933  37.254  28.435  1.00  0.00    -0.200 F 
ENDBRANCH  54  68
BRANCH  55  79
ATOM     79  C   UNL A   1      36.910  31.797  30.548  1.00  0.00     0.064 A 
ATOM     80  C   UNL A   1      36.005  31.915  31.631  1.00  0.00     0.173 A 
ATOM     81  C   UNL A   1      36.564  32.526  29.396  1.00  0.00     0.173 A 
ATOM     82  F   UNL A   1      36.257  31.302  32.798  1.00  0.00    -0.203 F 
ATOM     83  C   UNL A   1      34.858  32.729  31.566  1.00  0.00     0.198 A 
ATOM     84  C   UNL A   1      35.427  33.342  29.335  1.00  0.00     0.198 A 
ATOM     85  F   UNL A   1      37.380  32.539  28.334  1.00  0.00    -0.203 F 
ATOM     86  F   UNL A   1      34.055  32.856  32.634  1.00  0.00    -0.200 F 
ATOM     87  C   UNL A   1      34.581  33.455  30.422  1.00  0.00     0.200 A 
ATOM     88  F   UNL A   1      35.197  34.071  28.235  1.00  0.00    -0.200 F 
ATOM     89  F   UNL A   1      33.531  34.288  30.377  1.00  0.00    -0.200 F 
ENDBRANCH  55  79
BRANCH  67  90
ATOM     90  C   UNL A   1      42.063  30.065  33.476  1.00  0.00     0.064 A 
ATOM     91  C   UNL A   1      41.598  28.745  33.325  1.00  0.00     0.173 A 
ATOM     92  C   UNL A   1      42.407  30.478  34.770  1.00  0.00     0.173 A 
ATOM     93  F   UNL A   1      41.364  28.231  32.111  1.00  0.00    -0.203 F 
ATOM     94  C   UNL A   1      41.428  27.909  34.430  1.00  0.00     0.198 A 
ATOM     95  C   UNL A   1      42.277  29.630  35.862  1.00  0.00     0.198 A 
ATOM     96  F   UNL A   1      42.927  31.700  34.964  1.00  0.00    -0.203 F 
ATOM     97  F   UNL A   1      40.968  26.660  34.265  1.00  0.00    -0.200 F 
ATOM     98  C   UNL A   1      41.768  28.354  35.696  1.00  0.00     0.200 A 
ATOM     99  F   UNL A   1      42.675  30.045  37.071  1.00  0.00    -0.200 F 
ATOM    100  F   UNL A   1      41.631  27.545  36.756  1.00  0.00    -0.200 F 
ENDBRANCH  67  90
ENDBRANCH  41  42
ENDBRANCH  33  36
ENDBRANCH  31  32
ENDBRANCH  30  31
ENDBRANCH   1  30
TORSDOF 13
ENDMDL
