MODEL 1
REMARK VINA RESULT:     -12.6      0.000      0.000
REMARK SMILES O=C(NCCCCNC(=O)c1cc(OC[C@@H]2Cc3cc(F)ccc3O2)cs1)c1ccc(-c2c3nc(c(-c4c(F)c(F)c(F)c(F)c4F)c4ccc([nH]4)c(-c4c(F)c(F)c(F)c(F)c4F)c4nc(c(-c5c(F)c(F)c(F)c(F)c5F)c5ccc2[nH]5)C=C4)C=C3)cc1
REMARK SMILES IDX 6 1 5 2 4 3 3 4 1 5 2 6 28 8 29 9 90 10 30 11 89 12 31 13
REMARK SMILES IDX 32 14 33 15 83 16 34 17 88 18 82 19 84 20 35 21 87 22 81 23
REMARK SMILES IDX 80 24 36 26 68 27 48 28 67 29 49 30 52 31 66 32 85 33 50 34
REMARK SMILES IDX 51 35 65 37 86 38 53 39 37 40 38 41 46 42 39 43 40 44 44 45
REMARK SMILES IDX 47 46 41 47 42 48 45 49 43 50 69 51 70 52 78 53 71 54 72 55
REMARK SMILES IDX 76 56 79 57 73 58 74 59 77 60 75 61 54 62 55 63 63 64 56 65
REMARK SMILES IDX 57 66 61 67 64 68 58 69 59 70 62 71 60 72 7 73 8 74 9 75
REMARK SMILES IDX 10 77 11 78 12 79 27 80 13 81 26 82 14 83 15 84 16 85 17 86
REMARK SMILES IDX 25 87 18 88 24 89 19 90 23 91 20 92 22 93 21 94
REMARK H PARENT 3 7 84 25 52 36 8 76
REMARK Flexibility Score: inf
ROOT
ATOM      1  C   UNL A   1      31.167  30.384  25.270  1.00  0.00     0.023 C 
ENDROOT
BRANCH   1   2
ATOM      2  C   UNL A   1      31.039  31.646  26.128  1.00  0.00     0.023 C 
BRANCH   2   3
ATOM      3  C   UNL A   1      32.274  32.068  26.918  1.00  0.00     0.116 C 
BRANCH   3   4
ATOM      4  N   UNL A   1      32.250  33.449  27.366  1.00  0.00    -0.352 N 
ATOM      5  O   UNL A   1      32.800  35.313  28.484  1.00  0.00    -0.269 OA
ATOM      6  C   UNL A   1      33.093  34.155  28.188  1.00  0.00     0.251 C 
ATOM      7  H   UNL A   1      31.492  33.972  27.018  1.00  0.00     0.163 HD
BRANCH   6   8
ATOM      8  C   UNL A   1      34.332  33.565  28.759  1.00  0.00     0.039 A 
ATOM      9  C   UNL A   1      34.213  32.389  29.510  1.00  0.00     0.014 A 
ATOM     10  C   UNL A   1      35.585  34.172  28.645  1.00  0.00     0.014 A 
ATOM     11  C   UNL A   1      35.340  31.807  30.102  1.00  0.00     0.010 A 
ATOM     12  C   UNL A   1      36.724  33.548  29.169  1.00  0.00     0.010 A 
ATOM     13  C   UNL A   1      36.614  32.368  29.919  1.00  0.00    -0.014 A 
BRANCH  13  14
ATOM     14  C   UNL A   1      37.811  31.751  30.555  1.00  0.00     0.031 A 
ATOM     15  C   UNL A   1      38.204  32.116  31.963  1.00  0.00     0.074 A 
ATOM     16  C   UNL A   1      38.555  30.855  29.876  1.00  0.00     0.049 A 
ATOM     17  N   UNL A   1      39.189  31.655  32.694  1.00  0.00    -0.248 NA
ATOM     18  C   UNL A   1      37.398  33.148  32.632  1.00  0.00     0.031 C 
ATOM     19  C   UNL A   1      38.316  30.434  28.496  1.00  0.00     0.029 A 
ATOM     20  N   UNL A   1      39.657  30.128  30.260  1.00  0.00    -0.354 N 
ATOM     21  C   UNL A   1      39.122  32.342  33.899  1.00  0.00     0.074 A 
ATOM     22  C   UNL A   1      38.040  33.295  33.781  1.00  0.00     0.031 C 
ATOM     23  C   UNL A   1      39.215  29.494  28.162  1.00  0.00     0.029 A 
ATOM     24  C   UNL A   1      40.112  29.263  29.293  1.00  0.00     0.049 A 
ATOM     25  H   UNL A   1      40.082  30.218  31.143  1.00  0.00     0.167 HD
ATOM     26  C   UNL A   1      39.868  32.172  35.017  1.00  0.00     0.037 A 
ATOM     27  C   UNL A   1      41.127  28.378  29.316  1.00  0.00     0.037 A 
ATOM     28  C   UNL A   1      40.916  31.200  35.159  1.00  0.00     0.049 A 
ATOM     29  C   UNL A   1      41.962  28.226  30.558  1.00  0.00     0.074 A 
ATOM     30  C   UNL A   1      41.664  30.898  36.284  1.00  0.00     0.029 A 
ATOM     31  N   UNL A   1      41.371  30.376  34.142  1.00  0.00    -0.354 N 
ATOM     32  N   UNL A   1      41.833  28.825  31.716  1.00  0.00    -0.248 NA
ATOM     33  C   UNL A   1      43.085  27.278  30.496  1.00  0.00     0.031 C 
ATOM     34  C   UNL A   1      42.600  29.921  35.937  1.00  0.00     0.029 A 
ATOM     35  C   UNL A   1      42.413  29.588  34.605  1.00  0.00     0.049 A 
ATOM     36  H   UNL A   1      41.008  30.352  33.227  1.00  0.00     0.167 HD
ATOM     37  C   UNL A   1      42.845  28.320  32.522  1.00  0.00     0.074 A 
ATOM     38  C   UNL A   1      43.574  27.355  31.727  1.00  0.00     0.031 C 
ATOM     39  C   UNL A   1      43.139  28.635  33.807  1.00  0.00     0.037 A 
BRANCH  26  40
ATOM     40  C   UNL A   1      39.559  33.050  36.195  1.00  0.00     0.064 A 
ATOM     41  C   UNL A   1      38.613  32.669  37.160  1.00  0.00     0.173 A 
ATOM     42  C   UNL A   1      40.244  34.258  36.385  1.00  0.00     0.173 A 
ATOM     43  F   UNL A   1      37.927  31.525  37.018  1.00  0.00    -0.203 F 
ATOM     44  C   UNL A   1      38.344  33.483  38.257  1.00  0.00     0.198 A 
ATOM     45  C   UNL A   1      39.992  35.055  37.499  1.00  0.00     0.198 A 
ATOM     46  F   UNL A   1      41.165  34.661  35.497  1.00  0.00    -0.203 F 
ATOM     47  F   UNL A   1      37.405  33.121  39.143  1.00  0.00    -0.200 F 
ATOM     48  C   UNL A   1      39.037  34.671  38.428  1.00  0.00     0.200 A 
ATOM     49  F   UNL A   1      40.672  36.197  37.671  1.00  0.00    -0.200 F 
ATOM     50  F   UNL A   1      38.782  35.449  39.489  1.00  0.00    -0.200 F 
ENDBRANCH  26  40
BRANCH  27  51
ATOM     51  C   UNL A   1      41.381  27.528  28.124  1.00  0.00     0.064 A 
ATOM     52  C   UNL A   1      42.276  27.945  27.128  1.00  0.00     0.173 A 
ATOM     53  C   UNL A   1      40.765  26.279  27.969  1.00  0.00     0.173 A 
ATOM     54  F   UNL A   1      42.872  29.142  27.223  1.00  0.00    -0.203 F 
ATOM     55  C   UNL A   1      42.547  27.141  26.023  1.00  0.00     0.198 A 
ATOM     56  C   UNL A   1      41.051  25.468  26.873  1.00  0.00     0.198 A 
ATOM     57  F   UNL A   1      39.900  25.838  28.895  1.00  0.00    -0.203 F 
ATOM     58  F   UNL A   1      43.390  27.570  25.075  1.00  0.00    -0.200 F 
ATOM     59  C   UNL A   1      41.940  25.900  25.900  1.00  0.00     0.200 A 
ATOM     60  F   UNL A   1      40.471  24.264  26.763  1.00  0.00    -0.200 F 
ATOM     61  F   UNL A   1      42.211  25.121  24.844  1.00  0.00    -0.200 F 
ENDBRANCH  27  51
BRANCH  39  62
ATOM     62  C   UNL A   1      44.306  27.947  34.450  1.00  0.00     0.064 A 
ATOM     63  C   UNL A   1      45.570  28.553  34.490  1.00  0.00     0.173 A 
ATOM     64  C   UNL A   1      44.136  26.730  35.126  1.00  0.00     0.173 A 
ATOM     65  F   UNL A   1      45.784  29.711  33.848  1.00  0.00    -0.203 F 
ATOM     66  C   UNL A   1      46.622  27.966  35.189  1.00  0.00     0.198 A 
ATOM     67  C   UNL A   1      45.184  26.156  35.842  1.00  0.00     0.198 A 
ATOM     68  F   UNL A   1      42.944  26.115  35.121  1.00  0.00    -0.203 F 
ATOM     69  F   UNL A   1      47.824  28.555  35.206  1.00  0.00    -0.200 F 
ATOM     70  C   UNL A   1      46.425  26.775  35.874  1.00  0.00     0.200 A 
ATOM     71  F   UNL A   1      44.989  25.014  36.514  1.00  0.00    -0.200 F 
ATOM     72  F   UNL A   1      47.431  26.226  36.568  1.00  0.00    -0.200 F 
ENDBRANCH  39  62
ENDBRANCH  13  14
ENDBRANCH   6   8
ENDBRANCH   3   4
ENDBRANCH   2   3
ENDBRANCH   1   2
BRANCH   1  73
ATOM     73  C   UNL A   1      32.465  29.591  25.405  1.00  0.00     0.116 C 
BRANCH  73  74
ATOM     74  N   UNL A   1      33.294  29.567  24.209  1.00  0.00    -0.351 N 
ATOM     75  C   UNL A   1      33.628  28.454  23.459  1.00  0.00     0.261 C 
ATOM     76  H   UNL A   1      33.653  30.431  23.903  1.00  0.00     0.163 HD
ATOM     77  O   UNL A   1      34.176  28.623  22.368  1.00  0.00    -0.268 OA
BRANCH  75  78
ATOM     78  C   UNL A   1      33.244  27.161  23.973  1.00  0.00     0.096 A 
ATOM     79  C   UNL A   1      33.937  26.358  24.857  1.00  0.00     0.072 A 
ATOM     80  S   UNL A   1      31.776  26.433  23.487  1.00  0.00    -0.135 S 
ATOM     81  C   UNL A   1      33.469  25.014  24.803  1.00  0.00     0.131 A 
ATOM     82  C   UNL A   1      32.242  24.935  24.182  1.00  0.00     0.112 A 
BRANCH  81  83
ATOM     83  O   UNL A   1      34.056  23.877  25.260  1.00  0.00    -0.489 OA
BRANCH  83  84
ATOM     84  C   UNL A   1      33.830  22.683  24.489  1.00  0.00     0.275 C 
BRANCH  84  85
ATOM     85  C   UNL A   1      33.123  21.549  25.277  1.00  0.00     0.215 C 
ATOM     86  C   UNL A   1      34.072  20.405  25.700  1.00  0.00     0.088 C 
ATOM     87  O   UNL A   1      32.086  20.959  24.449  1.00  0.00    -0.486 OA
ATOM     88  C   UNL A   1      33.742  19.387  24.673  1.00  0.00     0.001 A 
ATOM     89  C   UNL A   1      32.627  19.798  23.971  1.00  0.00     0.123 A 
ATOM     90  C   UNL A   1      34.326  18.165  24.394  1.00  0.00     0.047 A 
ATOM     91  C   UNL A   1      32.106  19.078  22.913  1.00  0.00     0.050 A 
ATOM     92  C   UNL A   1      33.782  17.401  23.357  1.00  0.00     0.123 A 
ATOM     93  C   UNL A   1      32.694  17.855  22.604  1.00  0.00     0.043 A 
ATOM     94  F   UNL A   1      34.310  16.203  23.075  1.00  0.00    -0.207 F 
ENDBRANCH  84  85
ENDBRANCH  83  84
ENDBRANCH  81  83
ENDBRANCH  75  78
ENDBRANCH  73  74
ENDBRANCH   1  73
TORSDOF 14
ENDMDL
MODEL 2
REMARK VINA RESULT:     -12.4      1.697      2.724
REMARK SMILES O=C(NCCCCNC(=O)c1cc(OC[C@@H]2Cc3cc(F)ccc3O2)cs1)c1ccc(-c2c3nc(c(-c4c(F)c(F)c(F)c(F)c4F)c4ccc([nH]4)c(-c4c(F)c(F)c(F)c(F)c4F)c4nc(c(-c5c(F)c(F)c(F)c(F)c5F)c5ccc2[nH]5)C=C4)C=C3)cc1
REMARK SMILES IDX 6 1 5 2 4 3 3 4 1 5 2 6 28 8 29 9 90 10 30 11 89 12 31 13
REMARK SMILES IDX 32 14 33 15 83 16 34 17 88 18 82 19 84 20 35 21 87 22 81 23
REMARK SMILES IDX 80 24 36 26 68 27 48 28 67 29 49 30 52 31 66 32 85 33 50 34
REMARK SMILES IDX 51 35 65 37 86 38 53 39 37 40 38 41 46 42 39 43 40 44 44 45
REMARK SMILES IDX 47 46 41 47 42 48 45 49 43 50 69 51 70 52 78 53 71 54 72 55
REMARK SMILES IDX 76 56 79 57 73 58 74 59 77 60 75 61 54 62 55 63 63 64 56 65
REMARK SMILES IDX 57 66 61 67 64 68 58 69 59 70 62 71 60 72 7 73 8 74 9 75
REMARK SMILES IDX 10 77 11 78 12 79 27 80 13 81 26 82 14 83 15 84 16 85 17 86
REMARK SMILES IDX 25 87 18 88 24 89 19 90 23 91 20 92 22 93 21 94
REMARK H PARENT 3 7 84 25 52 36 8 76
REMARK Flexibility Score: inf
ROOT
ATOM      1  C   UNL A   1      31.412  30.789  26.312  1.00  0.00     0.023 C 
ENDROOT
BRANCH   1   2
ATOM      2  C   UNL A   1      31.334  32.303  26.532  1.00  0.00     0.023 C 
BRANCH   2   3
ATOM      3  C   UNL A   1      32.626  33.007  26.932  1.00  0.00     0.116 C 
BRANCH   3   4
ATOM      4  N   UNL A   1      32.428  34.199  27.736  1.00  0.00    -0.352 N 
ATOM      5  O   UNL A   1      32.693  35.704  29.378  1.00  0.00    -0.269 OA
ATOM      6  C   UNL A   1      33.123  34.700  28.811  1.00  0.00     0.251 C 
ATOM      7  H   UNL A   1      31.657  34.747  27.463  1.00  0.00     0.163 HD
BRANCH   6   8
ATOM      8  C   UNL A   1      34.358  34.058  29.333  1.00  0.00     0.039 A 
ATOM      9  C   UNL A   1      34.214  32.980  30.216  1.00  0.00     0.014 A 
ATOM     10  C   UNL A   1      35.640  34.532  29.044  1.00  0.00     0.014 A 
ATOM     11  C   UNL A   1      35.341  32.360  30.767  1.00  0.00     0.010 A 
ATOM     12  C   UNL A   1      36.768  33.861  29.532  1.00  0.00     0.010 A 
ATOM     13  C   UNL A   1      36.633  32.779  30.414  1.00  0.00    -0.014 A 
BRANCH  13  14
ATOM     14  C   UNL A   1      37.831  32.121  31.007  1.00  0.00     0.031 A 
ATOM     15  C   UNL A   1      38.292  32.478  32.396  1.00  0.00     0.074 A 
ATOM     16  C   UNL A   1      38.515  31.195  30.306  1.00  0.00     0.049 A 
ATOM     17  N   UNL A   1      39.286  31.984  33.092  1.00  0.00    -0.248 NA
ATOM     18  C   UNL A   1      37.550  33.542  33.090  1.00  0.00     0.031 C 
ATOM     19  C   UNL A   1      38.207  30.777  28.939  1.00  0.00     0.029 A 
ATOM     20  N   UNL A   1      39.604  30.430  30.651  1.00  0.00    -0.354 N 
ATOM     21  C   UNL A   1      39.291  32.679  34.294  1.00  0.00     0.074 A 
ATOM     22  C   UNL A   1      38.241  33.670  34.212  1.00  0.00     0.031 C 
ATOM     23  C   UNL A   1      39.057  29.803  28.576  1.00  0.00     0.029 A 
ATOM     24  C   UNL A   1      39.989  29.544  29.673  1.00  0.00     0.049 A 
ATOM     25  H   UNL A   1      40.065  30.508  31.517  1.00  0.00     0.167 HD
ATOM     26  C   UNL A   1      40.073  32.487  35.384  1.00  0.00     0.037 A 
ATOM     27  C   UNL A   1      40.971  28.622  29.662  1.00  0.00     0.037 A 
ATOM     28  C   UNL A   1      41.090  31.478  35.491  1.00  0.00     0.049 A 
ATOM     29  C   UNL A   1      41.847  28.445  30.872  1.00  0.00     0.074 A 
ATOM     30  C   UNL A   1      41.869  31.153  36.589  1.00  0.00     0.029 A 
ATOM     31  N   UNL A   1      41.474  30.632  34.463  1.00  0.00    -0.354 N 
ATOM     32  N   UNL A   1      41.785  29.054  32.030  1.00  0.00    -0.248 NA
ATOM     33  C   UNL A   1      42.931  27.456  30.772  1.00  0.00     0.031 C 
ATOM     34  C   UNL A   1      42.755  30.140  36.212  1.00  0.00     0.029 A 
ATOM     35  C   UNL A   1      42.504  29.809  34.890  1.00  0.00     0.049 A 
ATOM     36  H   UNL A   1      41.075  30.618  33.563  1.00  0.00     0.167 HD
ATOM     37  C   UNL A   1      42.808  28.516  32.800  1.00  0.00     0.074 A 
ATOM     38  C   UNL A   1      43.470  27.521  31.983  1.00  0.00     0.031 C 
ATOM     39  C   UNL A   1      43.163  28.826  34.070  1.00  0.00     0.037 A 
BRANCH  26  40
ATOM     40  C   UNL A   1      39.842  33.381  36.567  1.00  0.00     0.064 A 
ATOM     41  C   UNL A   1      40.551  34.582  36.724  1.00  0.00     0.173 A 
ATOM     42  C   UNL A   1      38.875  33.056  37.530  1.00  0.00     0.173 A 
ATOM     43  F   UNL A   1      41.491  34.932  35.833  1.00  0.00    -0.203 F 
ATOM     44  C   UNL A   1      40.319  35.411  37.818  1.00  0.00     0.198 A 
ATOM     45  C   UNL A   1      38.627  33.903  38.607  1.00  0.00     0.198 A 
ATOM     46  F   UNL A   1      38.163  31.925  37.419  1.00  0.00    -0.203 F 
ATOM     47  F   UNL A   1      41.039  36.532  37.971  1.00  0.00    -0.200 F 
ATOM     48  C   UNL A   1      39.354  35.074  38.755  1.00  0.00     0.200 A 
ATOM     49  F   UNL A   1      37.685  33.583  39.505  1.00  0.00    -0.200 F 
ATOM     50  F   UNL A   1      39.129  35.878  39.803  1.00  0.00    -0.200 F 
ENDBRANCH  26  40
BRANCH  27  51
ATOM     51  C   UNL A   1      41.147  27.759  28.466  1.00  0.00     0.064 A 
ATOM     52  C   UNL A   1      40.403  26.579  28.321  1.00  0.00     0.173 A 
ATOM     53  C   UNL A   1      42.032  28.105  27.436  1.00  0.00     0.173 A 
ATOM     54  F   UNL A   1      39.561  26.196  29.291  1.00  0.00    -0.203 F 
ATOM     55  C   UNL A   1      40.537  25.780  27.188  1.00  0.00     0.198 A 
ATOM     56  C   UNL A   1      42.151  27.315  26.295  1.00  0.00     0.198 A 
ATOM     57  F   UNL A   1      42.767  29.223  27.530  1.00  0.00    -0.203 F 
ATOM     58  F   UNL A   1      39.830  24.647  27.082  1.00  0.00    -0.200 F 
ATOM     59  C   UNL A   1      41.405  26.152  26.172  1.00  0.00     0.200 A 
ATOM     60  F   UNL A   1      42.983  27.683  25.310  1.00  0.00    -0.200 F 
ATOM     61  F   UNL A   1      41.523  25.390  25.076  1.00  0.00    -0.200 F 
ENDBRANCH  27  51
BRANCH  39  62
ATOM     62  C   UNL A   1      44.329  28.099  34.672  1.00  0.00     0.064 A 
ATOM     63  C   UNL A   1      44.162  26.852  35.291  1.00  0.00     0.173 A 
ATOM     64  C   UNL A   1      45.632  28.598  34.533  1.00  0.00     0.173 A 
ATOM     65  F   UNL A   1      42.933  26.341  35.458  1.00  0.00    -0.203 F 
ATOM     66  C   UNL A   1      45.260  26.127  35.745  1.00  0.00     0.198 A 
ATOM     67  C   UNL A   1      46.730  27.860  34.969  1.00  0.00     0.198 A 
ATOM     68  F   UNL A   1      45.843  29.783  33.943  1.00  0.00    -0.203 F 
ATOM     69  F   UNL A   1      45.079  24.942  36.343  1.00  0.00    -0.200 F 
ATOM     70  C   UNL A   1      46.544  26.626  35.572  1.00  0.00     0.200 A 
ATOM     71  F   UNL A   1      47.970  28.337  34.789  1.00  0.00    -0.200 F 
ATOM     72  F   UNL A   1      47.602  25.915  35.985  1.00  0.00    -0.200 F 
ENDBRANCH  39  62
ENDBRANCH  13  14
ENDBRANCH   6   8
ENDBRANCH   3   4
ENDBRANCH   2   3
ENDBRANCH   1   2
BRANCH   1  73
ATOM     73  C   UNL A   1      32.714  30.104  26.720  1.00  0.00     0.116 C 
BRANCH  73  74
ATOM     74  N   UNL A   1      33.546  29.661  25.610  1.00  0.00    -0.351 N 
ATOM     75  C   UNL A   1      33.389  28.503  24.871  1.00  0.00     0.261 C 
ATOM     76  H   UNL A   1      34.298  30.246  25.361  1.00  0.00     0.163 HD
ATOM     77  O   UNL A   1      34.055  28.365  23.843  1.00  0.00    -0.268 OA
BRANCH  75  78
ATOM     78  C   UNL A   1      32.394  27.556  25.315  1.00  0.00     0.096 A 
ATOM     79  C   UNL A   1      32.468  26.681  26.380  1.00  0.00     0.072 A 
ATOM     80  S   UNL A   1      30.905  27.407  24.488  1.00  0.00    -0.135 S 
ATOM     81  C   UNL A   1      31.505  25.640  26.257  1.00  0.00     0.131 A 
ATOM     82  C   UNL A   1      30.531  25.965  25.338  1.00  0.00     0.112 A 
BRANCH  81  83
ATOM     83  O   UNL A   1      31.442  24.442  26.895  1.00  0.00    -0.489 OA
BRANCH  83  84
ATOM     84  C   UNL A   1      31.185  23.288  26.072  1.00  0.00     0.275 C 
BRANCH  84  85
ATOM     85  C   UNL A   1      32.247  22.167  26.212  1.00  0.00     0.215 C 
ATOM     86  C   UNL A   1      33.440  22.553  27.116  1.00  0.00     0.088 C 
ATOM     87  O   UNL A   1      32.789  21.849  24.903  1.00  0.00    -0.486 OA
ATOM     88  C   UNL A   1      34.461  22.876  26.089  1.00  0.00     0.001 A 
ATOM     89  C   UNL A   1      33.996  22.488  24.850  1.00  0.00     0.123 A 
ATOM     90  C   UNL A   1      35.727  23.419  26.216  1.00  0.00     0.047 A 
ATOM     91  C   UNL A   1      34.708  22.705  23.686  1.00  0.00     0.050 A 
ATOM     92  C   UNL A   1      36.481  23.601  25.054  1.00  0.00     0.123 A 
ATOM     93  C   UNL A   1      35.975  23.269  23.792  1.00  0.00     0.043 A 
ATOM     94  F   UNL A   1      37.719  24.105  25.143  1.00  0.00    -0.207 F 
ENDBRANCH  84  85
ENDBRANCH  83  84
ENDBRANCH  81  83
ENDBRANCH  75  78
ENDBRANCH  73  74
ENDBRANCH   1  73
TORSDOF 14
ENDMDL
MODEL 3
REMARK VINA RESULT:     -12.4      4.449      9.522
REMARK SMILES O=C(NCCCCNC(=O)c1cc(OC[C@@H]2Cc3cc(F)ccc3O2)cs1)c1ccc(-c2c3nc(c(-c4c(F)c(F)c(F)c(F)c4F)c4ccc([nH]4)c(-c4c(F)c(F)c(F)c(F)c4F)c4nc(c(-c5c(F)c(F)c(F)c(F)c5F)c5ccc2[nH]5)C=C4)C=C3)cc1
REMARK SMILES IDX 6 1 5 2 4 3 3 4 1 5 2 6 28 8 29 9 90 10 30 11 89 12 31 13
REMARK SMILES IDX 32 14 33 15 83 16 34 17 88 18 82 19 84 20 35 21 87 22 81 23
REMARK SMILES IDX 80 24 36 26 68 27 48 28 67 29 49 30 52 31 66 32 85 33 50 34
REMARK SMILES IDX 51 35 65 37 86 38 53 39 37 40 38 41 46 42 39 43 40 44 44 45
REMARK SMILES IDX 47 46 41 47 42 48 45 49 43 50 69 51 70 52 78 53 71 54 72 55
REMARK SMILES IDX 76 56 79 57 73 58 74 59 77 60 75 61 54 62 55 63 63 64 56 65
REMARK SMILES IDX 57 66 61 67 64 68 58 69 59 70 62 71 60 72 7 73 8 74 9 75
REMARK SMILES IDX 10 77 11 78 12 79 27 80 13 81 26 82 14 83 15 84 16 85 17 86
REMARK SMILES IDX 25 87 18 88 24 89 19 90 23 91 20 92 22 93 21 94
REMARK H PARENT 3 7 84 25 52 36 8 76
REMARK Flexibility Score: inf
ROOT
ATOM      1  C   UNL A   1      35.352  22.450  23.806  1.00  0.00     0.023 C 
ENDROOT
BRANCH   1   2
ATOM      2  C   UNL A   1      35.683  23.702  24.624  1.00  0.00     0.023 C 
BRANCH   2   3
ATOM      3  C   UNL A   1      36.329  23.480  25.988  1.00  0.00     0.116 C 
BRANCH   3   4
ATOM      4  N   UNL A   1      37.531  22.667  25.950  1.00  0.00    -0.352 N 
ATOM      5  O   UNL A   1      39.694  22.091  26.102  1.00  0.00    -0.269 OA
ATOM      6  C   UNL A   1      38.827  22.939  26.316  1.00  0.00     0.251 C 
ATOM      7  H   UNL A   1      37.393  21.758  25.598  1.00  0.00     0.163 HD
BRANCH   6   8
ATOM      8  C   UNL A   1      39.229  24.230  26.933  1.00  0.00     0.039 A 
ATOM      9  C   UNL A   1      39.863  25.178  26.120  1.00  0.00     0.014 A 
ATOM     10  C   UNL A   1      39.074  24.501  28.296  1.00  0.00     0.014 A 
ATOM     11  C   UNL A   1      40.295  26.397  26.655  1.00  0.00     0.010 A 
ATOM     12  C   UNL A   1      39.434  25.751  28.813  1.00  0.00     0.010 A 
ATOM     13  C   UNL A   1      40.066  26.708  28.004  1.00  0.00    -0.014 A 
BRANCH  13  14
ATOM     14  C   UNL A   1      40.533  28.003  28.573  1.00  0.00     0.031 A 
ATOM     15  C   UNL A   1      41.999  28.249  28.814  1.00  0.00     0.074 A 
ATOM     16  C   UNL A   1      39.645  28.971  28.875  1.00  0.00     0.049 A 
ATOM     17  N   UNL A   1      42.595  29.325  29.264  1.00  0.00    -0.248 NA
ATOM     18  C   UNL A   1      42.916  27.134  28.530  1.00  0.00     0.031 C 
ATOM     19  C   UNL A   1      38.194  28.860  28.729  1.00  0.00     0.029 A 
ATOM     20  N   UNL A   1      39.834  30.245  29.357  1.00  0.00    -0.354 N 
ATOM     21  C   UNL A   1      43.948  29.014  29.322  1.00  0.00     0.074 A 
ATOM     22  C   UNL A   1      44.080  27.631  28.920  1.00  0.00     0.031 C 
ATOM     23  C   UNL A   1      37.628  30.028  29.072  1.00  0.00     0.029 A 
ATOM     24  C   UNL A   1      38.671  30.965  29.488  1.00  0.00     0.049 A 
ATOM     25  H   UNL A   1      40.720  30.608  29.587  1.00  0.00     0.167 HD
ATOM     26  C   UNL A   1      44.991  29.816  29.645  1.00  0.00     0.037 A 
ATOM     27  C   UNL A   1      38.466  32.235  29.887  1.00  0.00     0.037 A 
ATOM     28  C   UNL A   1      44.874  31.202  30.005  1.00  0.00     0.049 A 
ATOM     29  C   UNL A   1      39.636  33.099  30.269  1.00  0.00     0.074 A 
ATOM     30  C   UNL A   1      45.885  32.114  30.260  1.00  0.00     0.029 A 
ATOM     31  N   UNL A   1      43.675  31.878  30.166  1.00  0.00    -0.354 N 
ATOM     32  N   UNL A   1      40.915  32.816  30.239  1.00  0.00    -0.248 NA
ATOM     33  C   UNL A   1      39.335  34.459  30.743  1.00  0.00     0.031 C 
ATOM     34  C   UNL A   1      45.297  33.329  30.618  1.00  0.00     0.029 A 
ATOM     35  C   UNL A   1      43.920  33.187  30.552  1.00  0.00     0.049 A 
ATOM     36  H   UNL A   1      42.782  31.487  30.027  1.00  0.00     0.167 HD
ATOM     37  C   UNL A   1      41.570  33.959  30.676  1.00  0.00     0.074 A 
ATOM     38  C   UNL A   1      40.550  34.949  30.953  1.00  0.00     0.031 C 
ATOM     39  C   UNL A   1      42.900  34.164  30.833  1.00  0.00     0.037 A 
BRANCH  26  40
ATOM     40  C   UNL A   1      46.365  29.214  29.601  1.00  0.00     0.064 A 
ATOM     41  C   UNL A   1      47.110  29.181  28.412  1.00  0.00     0.173 A 
ATOM     42  C   UNL A   1      46.960  28.707  30.765  1.00  0.00     0.173 A 
ATOM     43  F   UNL A   1      46.581  29.648  27.271  1.00  0.00    -0.203 F 
ATOM     44  C   UNL A   1      48.390  28.635  28.385  1.00  0.00     0.198 A 
ATOM     45  C   UNL A   1      48.252  28.188  30.740  1.00  0.00     0.198 A 
ATOM     46  F   UNL A   1      46.294  28.727  31.930  1.00  0.00    -0.203 F 
ATOM     47  F   UNL A   1      49.065  28.573  27.228  1.00  0.00    -0.200 F 
ATOM     48  C   UNL A   1      48.962  28.144  29.549  1.00  0.00     0.200 A 
ATOM     49  F   UNL A   1      48.810  27.726  31.867  1.00  0.00    -0.200 F 
ATOM     50  F   UNL A   1      50.197  27.625  29.521  1.00  0.00    -0.200 F 
ENDBRANCH  26  40
BRANCH  27  51
ATOM     51  C   UNL A   1      37.084  32.781  29.901  1.00  0.00     0.064 A 
ATOM     52  C   UNL A   1      36.309  32.731  31.068  1.00  0.00     0.173 A 
ATOM     53  C   UNL A   1      36.524  33.387  28.768  1.00  0.00     0.173 A 
ATOM     54  F   UNL A   1      36.796  32.141  32.170  1.00  0.00    -0.203 F 
ATOM     55  C   UNL A   1      35.025  33.270  31.102  1.00  0.00     0.198 A 
ATOM     56  C   UNL A   1      35.247  33.942  28.809  1.00  0.00     0.198 A 
ATOM     57  F   UNL A   1      37.226  33.457  27.628  1.00  0.00    -0.203 F 
ATOM     58  F   UNL A   1      34.296  33.192  32.223  1.00  0.00    -0.200 F 
ATOM     59  C   UNL A   1      34.497  33.882  29.975  1.00  0.00     0.200 A 
ATOM     60  F   UNL A   1      34.744  34.542  27.721  1.00  0.00    -0.200 F 
ATOM     61  F   UNL A   1      33.267  34.412  30.011  1.00  0.00    -0.200 F 
ENDBRANCH  27  51
BRANCH  39  62
ATOM     62  C   UNL A   1      43.352  35.501  31.339  1.00  0.00     0.064 A 
ATOM     63  C   UNL A   1      43.624  36.554  30.455  1.00  0.00     0.173 A 
ATOM     64  C   UNL A   1      43.407  35.764  32.716  1.00  0.00     0.173 A 
ATOM     65  F   UNL A   1      43.596  36.348  29.130  1.00  0.00    -0.203 F 
ATOM     66  C   UNL A   1      43.930  37.826  30.932  1.00  0.00     0.198 A 
ATOM     67  C   UNL A   1      43.692  37.042  33.190  1.00  0.00     0.198 A 
ATOM     68  F   UNL A   1      43.149  34.789  33.601  1.00  0.00    -0.203 F 
ATOM     69  F   UNL A   1      44.196  38.817  30.071  1.00  0.00    -0.200 F 
ATOM     70  C   UNL A   1      43.951  38.072  32.298  1.00  0.00     0.200 A 
ATOM     71  F   UNL A   1      43.699  37.280  34.508  1.00  0.00    -0.200 F 
ATOM     72  F   UNL A   1      44.219  39.303  32.755  1.00  0.00    -0.200 F 
ENDBRANCH  39  62
ENDBRANCH  13  14
ENDBRANCH   6   8
ENDBRANCH   3   4
ENDBRANCH   2   3
ENDBRANCH   1   2
BRANCH   1  73
ATOM     73  C   UNL A   1      33.884  22.239  23.440  1.00  0.00     0.116 C 
BRANCH  73  74
ATOM     74  N   UNL A   1      33.373  20.903  23.709  1.00  0.00    -0.351 N 
ATOM     75  C   UNL A   1      32.643  20.505  24.814  1.00  0.00     0.261 C 
ATOM     76  H   UNL A   1      33.568  20.211  23.036  1.00  0.00     0.163 HD
ATOM     77  O   UNL A   1      32.119  19.389  24.803  1.00  0.00    -0.268 OA
BRANCH  75  78
ATOM     78  C   UNL A   1      32.478  21.458  25.886  1.00  0.00     0.096 A 
ATOM     79  C   UNL A   1      31.517  22.442  26.008  1.00  0.00     0.072 A 
ATOM     80  S   UNL A   1      33.553  21.467  27.215  1.00  0.00    -0.135 S 
ATOM     81  C   UNL A   1      31.913  23.430  26.954  1.00  0.00     0.131 A 
ATOM     82  C   UNL A   1      32.941  22.977  27.752  1.00  0.00     0.112 A 
BRANCH  81  83
ATOM     83  O   UNL A   1      31.428  24.685  27.144  1.00  0.00    -0.489 OA
BRANCH  83  84
ATOM     84  C   UNL A   1      30.989  25.389  25.967  1.00  0.00     0.275 C 
BRANCH  84  85
ATOM     85  C   UNL A   1      32.135  26.086  25.187  1.00  0.00     0.215 C 
ATOM     86  C   UNL A   1      33.387  26.368  26.047  1.00  0.00     0.088 C 
ATOM     87  O   UNL A   1      31.666  27.365  24.683  1.00  0.00    -0.486 OA
ATOM     88  C   UNL A   1      33.202  27.813  26.327  1.00  0.00     0.001 A 
ATOM     89  C   UNL A   1      32.173  28.297  25.545  1.00  0.00     0.123 A 
ATOM     90  C   UNL A   1      33.904  28.668  27.157  1.00  0.00     0.047 A 
ATOM     91  C   UNL A   1      31.733  29.605  25.620  1.00  0.00     0.050 A 
ATOM     92  C   UNL A   1      33.503  30.006  27.209  1.00  0.00     0.123 A 
ATOM     93  C   UNL A   1      32.415  30.475  26.466  1.00  0.00     0.043 A 
ATOM     94  F   UNL A   1      34.175  30.865  27.986  1.00  0.00    -0.207 F 
ENDBRANCH  84  85
ENDBRANCH  83  84
ENDBRANCH  81  83
ENDBRANCH  75  78
ENDBRANCH  73  74
ENDBRANCH   1  73
TORSDOF 14
ENDMDL
