MODEL 1
REMARK VINA RESULT:     -12.2      0.000      0.000
REMARK SMILES CC(C)[NH2+][C@@]1(C(=O)NCCCCNC(=O)c2ccc(-c3c4nc(c(-c5c(F)c(F)c(F)c(F)c5F)c5ccc([nH]5)c(-c5c(F)c(F)c(F)c(F)c5F)c5nc(c(-c6c(F)c(F)c(F)c(F)c6F)c6ccc3[nH]6)C=C5)C=C4)cc2)CCC[C@@H](Sc2nncn2C)C1
REMARK SMILES IDX 10 1 9 2 8 3 6 4 7 5 5 7 79 8 90 9 80 10 82 11 81 12 4 13
REMARK SMILES IDX 2 16 1 17 3 18 83 19 84 20 85 21 88 22 86 23 87 24 89 25
REMARK SMILES IDX 11 26 12 27 13 28 14 29 15 31 16 32 17 33 78 34 18 35 77 36
REMARK SMILES IDX 19 37 20 38 21 39 71 40 22 41 76 42 70 43 72 44 23 45 75 46
REMARK SMILES IDX 69 47 68 48 24 50 56 51 36 52 55 53 37 54 40 55 54 56 73 57
REMARK SMILES IDX 38 58 39 59 53 61 74 62 41 63 25 64 26 65 34 66 27 67 28 68
REMARK SMILES IDX 32 69 35 70 29 71 30 72 33 73 31 74 57 75 58 76 66 77 59 78
REMARK SMILES IDX 60 79 64 80 67 81 61 82 62 83 65 84 63 85 42 86 43 87 51 88
REMARK SMILES IDX 44 89 45 90 49 91 52 92 46 93 47 94 50 95 48 96
REMARK H PARENT 8 6 4 14 4 15 13 30 72 49 40 60
REMARK Flexibility Score: inf
ROOT
ATOM      1  C   UNL A   1      32.057  27.616  27.098  1.00  0.00     0.023 C 
ENDROOT
BRANCH   1   2
ATOM      2  C   UNL A   1      31.182  26.707  26.227  1.00  0.00     0.116 C 
BRANCH   2   3
ATOM      3  N   UNL A   1      31.010  25.407  26.828  1.00  0.00    -0.351 N 
ATOM      4  C   UNL A   1      31.340  24.137  26.514  1.00  0.00     0.281 C 
ATOM      5  O   UNL A   1      30.821  23.310  27.289  1.00  0.00    -0.268 OA
ATOM      6  H   UNL A   1      30.529  25.459  27.685  1.00  0.00     0.163 HD
BRANCH   4   7
ATOM      7  C   UNL A   1      32.234  23.599  25.292  1.00  0.00     0.176 C 
ATOM      8  C   UNL A   1      33.760  23.782  25.488  1.00  0.00     0.079 C 
ATOM      9  C   UNL A   1      31.712  24.156  23.954  1.00  0.00     0.094 C 
ATOM     10  C   UNL A   1      34.445  24.986  24.835  1.00  0.00     0.008 C 
ATOM     11  C   UNL A   1      32.331  25.482  23.542  1.00  0.00     0.061 C 
ATOM     12  C   UNL A   1      33.854  25.418  23.497  1.00  0.00     0.015 C 
BRANCH   7  13
ATOM     13  N   UNL A   1      32.017  22.109  25.408  1.00  0.00    -0.332 N 
ATOM     14  H   UNL A   1      31.966  21.900  26.405  1.00  0.00     0.347 HD
ATOM     15  H   UNL A   1      31.185  21.962  24.837  1.00  0.00     0.347 HD
BRANCH  13  16
ATOM     16  C   UNL A   1      32.965  21.156  24.835  1.00  0.00     0.176 C 
ATOM     17  C   UNL A   1      33.208  20.085  25.905  1.00  0.00     0.075 C 
ATOM     18  C   UNL A   1      32.431  20.455  23.579  1.00  0.00     0.075 C 
ENDBRANCH  13  16
ENDBRANCH   7  13
BRANCH  11  19
ATOM     19  S   UNL A   1      31.580  26.176  22.027  1.00  0.00    -0.082 SA
BRANCH  19  20
ATOM     20  C   UNL A   1      30.809  27.598  22.616  1.00  0.00     0.191 A 
ATOM     21  N   UNL A   1      29.520  27.804  22.746  1.00  0.00    -0.124 NA
ATOM     22  N   UNL A   1      31.492  28.716  22.992  1.00  0.00    -0.312 N 
ATOM     23  N   UNL A   1      29.348  29.092  23.202  1.00  0.00    -0.138 NA
ATOM     24  C   UNL A   1      30.541  29.626  23.342  1.00  0.00     0.226 A 
ATOM     25  C   UNL A   1      32.914  28.929  22.986  1.00  0.00     0.153 C 
ENDBRANCH  19  20
ENDBRANCH  11  19
ENDBRANCH   4   7
ENDBRANCH   2   3
ENDBRANCH   1   2
BRANCH   1  26
ATOM     26  C   UNL A   1      31.669  29.089  27.085  1.00  0.00     0.023 C 
BRANCH  26  27
ATOM     27  C   UNL A   1      32.714  30.015  26.474  1.00  0.00     0.116 C 
BRANCH  27  28
ATOM     28  N   UNL A   1      32.577  31.417  26.850  1.00  0.00    -0.352 N 
ATOM     29  C   UNL A   1      33.498  32.209  27.506  1.00  0.00     0.251 C 
ATOM     30  H   UNL A   1      31.728  31.851  26.607  1.00  0.00     0.163 HD
ATOM     31  O   UNL A   1      33.246  33.366  27.802  1.00  0.00    -0.269 OA
BRANCH  29  32
ATOM     32  C   UNL A   1      34.782  31.592  27.898  1.00  0.00     0.039 A 
ATOM     33  C   UNL A   1      35.903  32.411  28.049  1.00  0.00     0.014 A 
ATOM     34  C   UNL A   1      34.828  30.242  28.251  1.00  0.00     0.014 A 
ATOM     35  C   UNL A   1      37.047  31.894  28.657  1.00  0.00     0.010 A 
ATOM     36  C   UNL A   1      35.934  29.757  28.935  1.00  0.00     0.010 A 
ATOM     37  C   UNL A   1      37.050  30.581  29.156  1.00  0.00    -0.014 A 
BRANCH  37  38
ATOM     38  C   UNL A   1      38.200  30.045  29.927  1.00  0.00     0.031 A 
ATOM     39  C   UNL A   1      38.425  30.501  31.342  1.00  0.00     0.074 A 
ATOM     40  C   UNL A   1      39.094  29.236  29.324  1.00  0.00     0.049 A 
ATOM     41  N   UNL A   1      39.428  30.249  32.143  1.00  0.00    -0.248 NA
ATOM     42  C   UNL A   1      37.407  31.395  31.918  1.00  0.00     0.031 C 
ATOM     43  C   UNL A   1      39.028  28.783  27.932  1.00  0.00     0.029 A 
ATOM     44  N   UNL A   1      40.245  28.663  29.803  1.00  0.00    -0.354 N 
ATOM     45  C   UNL A   1      39.182  30.983  33.295  1.00  0.00     0.074 A 
ATOM     46  C   UNL A   1      37.958  31.722  33.077  1.00  0.00     0.031 C 
ATOM     47  C   UNL A   1      40.081  27.988  27.678  1.00  0.00     0.029 A 
ATOM     48  C   UNL A   1      40.911  27.899  28.874  1.00  0.00     0.049 A 
ATOM     49  H   UNL A   1      40.565  28.787  30.725  1.00  0.00     0.167 HD
ATOM     50  C   UNL A   1      39.900  31.018  34.441  1.00  0.00     0.037 A 
ATOM     51  C   UNL A   1      42.063  27.209  28.977  1.00  0.00     0.037 A 
ATOM     52  C   UNL A   1      41.074  30.223  34.682  1.00  0.00     0.049 A 
ATOM     53  C   UNL A   1      42.803  27.213  30.290  1.00  0.00     0.074 A 
ATOM     54  C   UNL A   1      41.807  30.102  35.849  1.00  0.00     0.029 A 
ATOM     55  N   UNL A   1      41.678  29.407  33.740  1.00  0.00    -0.354 N 
ATOM     56  N   UNL A   1      42.509  27.837  31.403  1.00  0.00    -0.248 NA
ATOM     57  C   UNL A   1      44.032  26.409  30.360  1.00  0.00     0.031 C 
ATOM     58  C   UNL A   1      42.873  29.232  35.605  1.00  0.00     0.029 A 
ATOM     59  C   UNL A   1      42.784  28.786  34.295  1.00  0.00     0.049 A 
ATOM     60  H   UNL A   1      41.367  29.285  32.813  1.00  0.00     0.167 HD
ATOM     61  C   UNL A   1      43.493  27.478  32.313  1.00  0.00     0.074 A 
ATOM     62  C   UNL A   1      44.389  26.572  31.626  1.00  0.00     0.031 C 
ATOM     63  C   UNL A   1      43.646  27.867  33.601  1.00  0.00     0.037 A 
BRANCH  50  64
ATOM     64  C   UNL A   1      39.428  31.928  35.533  1.00  0.00     0.064 A 
ATOM     65  C   UNL A   1      38.496  31.503  36.491  1.00  0.00     0.173 A 
ATOM     66  C   UNL A   1      39.957  33.222  35.657  1.00  0.00     0.173 A 
ATOM     67  F   UNL A   1      37.951  30.280  36.407  1.00  0.00    -0.203 F 
ATOM     68  C   UNL A   1      38.094  32.348  37.522  1.00  0.00     0.198 A 
ATOM     69  C   UNL A   1      39.573  34.055  36.704  1.00  0.00     0.198 A 
ATOM     70  F   UNL A   1      40.854  33.673  34.767  1.00  0.00    -0.203 F 
ATOM     71  F   UNL A   1      37.174  31.935  38.403  1.00  0.00    -0.200 F 
ATOM     72  C   UNL A   1      38.639  33.619  37.632  1.00  0.00     0.200 A 
ATOM     73  F   UNL A   1      40.107  35.278  36.816  1.00  0.00    -0.200 F 
ATOM     74  F   UNL A   1      38.261  34.426  38.632  1.00  0.00    -0.200 F 
ENDBRANCH  50  64
BRANCH  51  75
ATOM     75  C   UNL A   1      42.582  26.430  27.823  1.00  0.00     0.064 A 
ATOM     76  C   UNL A   1      43.454  27.017  26.895  1.00  0.00     0.173 A 
ATOM     77  C   UNL A   1      42.192  25.103  27.602  1.00  0.00     0.173 A 
ATOM     78  F   UNL A   1      43.838  28.293  27.054  1.00  0.00    -0.203 F 
ATOM     79  C   UNL A   1      43.892  26.317  25.773  1.00  0.00     0.198 A 
ATOM     80  C   UNL A   1      42.651  24.394  26.493  1.00  0.00     0.198 A 
ATOM     81  F   UNL A   1      41.364  24.493  28.462  1.00  0.00    -0.203 F 
ATOM     82  F   UNL A   1      44.679  26.922  24.874  1.00  0.00    -0.200 F 
ATOM     83  C   UNL A   1      43.491  25.005  25.574  1.00  0.00     0.200 A 
ATOM     84  F   UNL A   1      42.271  23.122  26.308  1.00  0.00    -0.200 F 
ATOM     85  F   UNL A   1      43.906  24.334  24.491  1.00  0.00    -0.200 F 
ENDBRANCH  51  75
BRANCH  63  86
ATOM     86  C   UNL A   1      44.793  27.281  34.366  1.00  0.00     0.064 A 
ATOM     87  C   UNL A   1      46.034  27.928  34.437  1.00  0.00     0.173 A 
ATOM     88  C   UNL A   1      44.631  26.082  35.077  1.00  0.00     0.173 A 
ATOM     89  F   UNL A   1      46.239  29.069  33.761  1.00  0.00    -0.203 F 
ATOM     90  C   UNL A   1      47.080  27.386  35.177  1.00  0.00     0.198 A 
ATOM     91  C   UNL A   1      45.671  25.555  35.837  1.00  0.00     0.198 A 
ATOM     92  F   UNL A   1      43.459  25.429  35.044  1.00  0.00    -0.203 F 
ATOM     93  F   UNL A   1      48.270  28.000  35.201  1.00  0.00    -0.200 F 
ATOM     94  C   UNL A   1      46.896  26.205  35.882  1.00  0.00     0.200 A 
ATOM     95  F   UNL A   1      45.489  24.421  36.525  1.00  0.00    -0.200 F 
ATOM     96  F   UNL A   1      47.902  25.689  36.601  1.00  0.00    -0.200 F 
ENDBRANCH  63  86
ENDBRANCH  37  38
ENDBRANCH  29  32
ENDBRANCH  27  28
ENDBRANCH  26  27
ENDBRANCH   1  26
TORSDOF 15
ENDMDL
MODEL 2
REMARK VINA RESULT:     -12.2      4.686      8.041
REMARK SMILES CC(C)[NH2+][C@@]1(C(=O)NCCCCNC(=O)c2ccc(-c3c4nc(c(-c5c(F)c(F)c(F)c(F)c5F)c5ccc([nH]5)c(-c5c(F)c(F)c(F)c(F)c5F)c5nc(c(-c6c(F)c(F)c(F)c(F)c6F)c6ccc3[nH]6)C=C5)C=C4)cc2)CCC[C@@H](Sc2nncn2C)C1
REMARK SMILES IDX 10 1 9 2 8 3 6 4 7 5 5 7 79 8 90 9 80 10 82 11 81 12 4 13
REMARK SMILES IDX 2 16 1 17 3 18 83 19 84 20 85 21 88 22 86 23 87 24 89 25
REMARK SMILES IDX 11 26 12 27 13 28 14 29 15 31 16 32 17 33 78 34 18 35 77 36
REMARK SMILES IDX 19 37 20 38 21 39 71 40 22 41 76 42 70 43 72 44 23 45 75 46
REMARK SMILES IDX 69 47 68 48 24 50 56 51 36 52 55 53 37 54 40 55 54 56 73 57
REMARK SMILES IDX 38 58 39 59 53 61 74 62 41 63 25 64 26 65 34 66 27 67 28 68
REMARK SMILES IDX 32 69 35 70 29 71 30 72 33 73 31 74 57 75 58 76 66 77 59 78
REMARK SMILES IDX 60 79 64 80 67 81 61 82 62 83 65 84 63 85 42 86 43 87 51 88
REMARK SMILES IDX 44 89 45 90 49 91 52 92 46 93 47 94 50 95 48 96
REMARK H PARENT 8 6 4 14 4 15 13 30 72 49 40 60
REMARK Flexibility Score: inf
ROOT
ATOM      1  C   UNL A   1      36.171  33.908  28.603  1.00  0.00     0.023 C 
ENDROOT
BRANCH   1   2
ATOM      2  C   UNL A   1      37.125  33.043  29.435  1.00  0.00     0.116 C 
BRANCH   2   3
ATOM      3  N   UNL A   1      38.299  33.781  29.830  1.00  0.00    -0.351 N 
ATOM      4  C   UNL A   1      38.920  34.078  30.991  1.00  0.00     0.281 C 
ATOM      5  O   UNL A   1      39.841  34.904  30.835  1.00  0.00    -0.268 OA
ATOM      6  H   UNL A   1      38.767  34.168  29.055  1.00  0.00     0.163 HD
BRANCH   4   7
ATOM      7  C   UNL A   1      38.592  33.554  32.473  1.00  0.00     0.176 C 
ATOM      8  C   UNL A   1      38.347  32.027  32.572  1.00  0.00     0.079 C 
ATOM      9  C   UNL A   1      37.473  34.400  33.110  1.00  0.00     0.094 C 
ATOM     10  C   UNL A   1      36.905  31.513  32.585  1.00  0.00     0.008 C 
ATOM     11  C   UNL A   1      36.068  33.883  32.847  1.00  0.00     0.061 C 
ATOM     12  C   UNL A   1      35.899  32.429  33.275  1.00  0.00     0.015 C 
BRANCH   7  13
ATOM     13  N   UNL A   1      39.921  33.767  33.157  1.00  0.00    -0.332 N 
ATOM     14  H   UNL A   1      40.438  32.892  33.064  1.00  0.00     0.347 HD
ATOM     15  H   UNL A   1      40.281  34.597  32.689  1.00  0.00     0.347 HD
BRANCH  13  16
ATOM     16  C   UNL A   1      39.998  34.142  34.568  1.00  0.00     0.176 C 
ATOM     17  C   UNL A   1      40.825  33.054  35.264  1.00  0.00     0.075 C 
ATOM     18  C   UNL A   1      40.701  35.487  34.795  1.00  0.00     0.075 C 
ENDBRANCH  13  16
ENDBRANCH   7  13
BRANCH  11  19
ATOM     19  S   UNL A   1      34.769  34.995  33.496  1.00  0.00    -0.082 SA
BRANCH  19  20
ATOM     20  C   UNL A   1      33.851  35.351  32.084  1.00  0.00     0.191 A 
ATOM     21  N   UNL A   1      33.407  34.499  31.192  1.00  0.00    -0.124 NA
ATOM     22  N   UNL A   1      33.505  36.618  31.720  1.00  0.00    -0.312 N 
ATOM     23  N   UNL A   1      32.770  35.220  30.208  1.00  0.00    -0.138 NA
ATOM     24  C   UNL A   1      32.839  36.491  30.538  1.00  0.00     0.226 A 
ATOM     25  C   UNL A   1      33.807  37.849  32.399  1.00  0.00     0.153 C 
ENDBRANCH  19  20
ENDBRANCH  11  19
ENDBRANCH   4   7
ENDBRANCH   2   3
ENDBRANCH   1   2
BRANCH   1  26
ATOM     26  C   UNL A   1      34.970  33.171  28.026  1.00  0.00     0.023 C 
BRANCH  26  27
ATOM     27  C   UNL A   1      34.461  32.018  28.883  1.00  0.00     0.116 C 
BRANCH  27  28
ATOM     28  N   UNL A   1      34.044  30.840  28.132  1.00  0.00    -0.352 N 
ATOM     29  C   UNL A   1      34.808  29.742  27.793  1.00  0.00     0.251 C 
ATOM     30  H   UNL A   1      33.107  30.826  27.832  1.00  0.00     0.163 HD
ATOM     31  O   UNL A   1      34.350  28.832  27.121  1.00  0.00    -0.269 OA
BRANCH  29  32
ATOM     32  C   UNL A   1      36.223  29.729  28.217  1.00  0.00     0.039 A 
ATOM     33  C   UNL A   1      36.538  29.259  29.493  1.00  0.00     0.014 A 
ATOM     34  C   UNL A   1      37.229  30.041  27.300  1.00  0.00     0.014 A 
ATOM     35  C   UNL A   1      37.871  29.003  29.815  1.00  0.00     0.010 A 
ATOM     36  C   UNL A   1      38.542  29.701  27.592  1.00  0.00     0.010 A 
ATOM     37  C   UNL A   1      38.876  29.167  28.847  1.00  0.00    -0.014 A 
BRANCH  37  38
ATOM     38  C   UNL A   1      40.283  28.776  29.113  1.00  0.00     0.031 A 
ATOM     39  C   UNL A   1      41.203  29.738  29.811  1.00  0.00     0.074 A 
ATOM     40  C   UNL A   1      40.756  27.606  28.637  1.00  0.00     0.049 A 
ATOM     41  N   UNL A   1      42.489  29.640  30.031  1.00  0.00    -0.248 NA
ATOM     42  C   UNL A   1      40.607  30.996  30.287  1.00  0.00     0.031 C 
ATOM     43  C   UNL A   1      39.982  26.622  27.876  1.00  0.00     0.029 A 
ATOM     44  N   UNL A   1      42.011  27.055  28.707  1.00  0.00    -0.354 N 
ATOM     45  C   UNL A   1      42.859  30.836  30.631  1.00  0.00     0.074 A 
ATOM     46  C   UNL A   1      41.674  31.661  30.704  1.00  0.00     0.031 C 
ATOM     47  C   UNL A   1      40.774  25.581  27.570  1.00  0.00     0.029 A 
ATOM     48  C   UNL A   1      42.116  25.836  28.082  1.00  0.00     0.049 A 
ATOM     49  H   UNL A   1      42.766  27.493  29.163  1.00  0.00     0.167 HD
ATOM     50  C   UNL A   1      44.074  31.202  31.100  1.00  0.00     0.037 A 
ATOM     51  C   UNL A   1      43.178  25.020  27.936  1.00  0.00     0.037 A 
ATOM     52  C   UNL A   1      45.232  30.350  31.095  1.00  0.00     0.049 A 
ATOM     53  C   UNL A   1      44.501  25.427  28.531  1.00  0.00     0.074 A 
ATOM     54  C   UNL A   1      46.477  30.587  31.648  1.00  0.00     0.029 A 
ATOM     55  N   UNL A   1      45.281  29.093  30.515  1.00  0.00    -0.354 N 
ATOM     56  N   UNL A   1      44.814  26.521  29.179  1.00  0.00    -0.248 NA
ATOM     57  C   UNL A   1      45.615  24.480  28.379  1.00  0.00     0.031 C 
ATOM     58  C   UNL A   1      47.290  29.482  31.380  1.00  0.00     0.029 A 
ATOM     59  C   UNL A   1      46.539  28.544  30.688  1.00  0.00     0.049 A 
ATOM     60  H   UNL A   1      44.531  28.654  30.051  1.00  0.00     0.167 HD
ATOM     61  C   UNL A   1      46.147  26.382  29.540  1.00  0.00     0.074 A 
ATOM     62  C   UNL A   1      46.582  25.091  29.049  1.00  0.00     0.031 C 
ATOM     63  C   UNL A   1      46.942  27.246  30.214  1.00  0.00     0.037 A 
BRANCH  50  64
ATOM     64  C   UNL A   1      44.213  32.577  31.679  1.00  0.00     0.064 A 
ATOM     65  C   UNL A   1      43.986  32.826  33.040  1.00  0.00     0.173 A 
ATOM     66  C   UNL A   1      44.632  33.647  30.874  1.00  0.00     0.173 A 
ATOM     67  F   UNL A   1      43.571  31.839  33.848  1.00  0.00    -0.203 F 
ATOM     68  C   UNL A   1      44.156  34.102  33.572  1.00  0.00     0.198 A 
ATOM     69  C   UNL A   1      44.825  34.915  31.414  1.00  0.00     0.198 A 
ATOM     70  F   UNL A   1      44.864  33.459  29.566  1.00  0.00    -0.203 F 
ATOM     71  F   UNL A   1      43.897  34.325  34.867  1.00  0.00    -0.200 F 
ATOM     72  C   UNL A   1      44.583  35.142  32.760  1.00  0.00     0.200 A 
ATOM     73  F   UNL A   1      45.248  35.918  30.632  1.00  0.00    -0.200 F 
ATOM     74  F   UNL A   1      44.756  36.367  33.276  1.00  0.00    -0.200 F 
ENDBRANCH  50  64
BRANCH  51  75
ATOM     75  C   UNL A   1      43.040  23.722  27.226  1.00  0.00     0.064 A 
ATOM     76  C   UNL A   1      42.468  22.613  27.865  1.00  0.00     0.173 A 
ATOM     77  C   UNL A   1      43.506  23.552  25.916  1.00  0.00     0.173 A 
ATOM     78  F   UNL A   1      42.027  22.722  29.127  1.00  0.00    -0.203 F 
ATOM     79  C   UNL A   1      42.396  21.374  27.232  1.00  0.00     0.198 A 
ATOM     80  C   UNL A   1      43.410  22.319  25.273  1.00  0.00     0.198 A 
ATOM     81  F   UNL A   1      44.056  24.583  25.259  1.00  0.00    -0.203 F 
ATOM     82  F   UNL A   1      41.896  20.317  27.888  1.00  0.00    -0.200 F 
ATOM     83  C   UNL A   1      42.866  21.228  25.936  1.00  0.00     0.200 A 
ATOM     84  F   UNL A   1      43.854  22.183  24.017  1.00  0.00    -0.200 F 
ATOM     85  F   UNL A   1      42.803  20.035  25.329  1.00  0.00    -0.200 F 
ENDBRANCH  51  75
BRANCH  63  86
ATOM     86  C   UNL A   1      48.347  26.809  30.501  1.00  0.00     0.064 A 
ATOM     87  C   UNL A   1      48.654  26.007  31.608  1.00  0.00     0.173 A 
ATOM     88  C   UNL A   1      49.388  27.159  29.628  1.00  0.00     0.173 A 
ATOM     89  F   UNL A   1      47.692  25.661  32.477  1.00  0.00    -0.203 F 
ATOM     90  C   UNL A   1      49.959  25.585  31.842  1.00  0.00     0.198 A 
ATOM     91  C   UNL A   1      50.688  26.714  29.852  1.00  0.00     0.198 A 
ATOM     92  F   UNL A   1      49.142  27.921  28.551  1.00  0.00    -0.203 F 
ATOM     93  F   UNL A   1      50.238  24.850  32.927  1.00  0.00    -0.200 F 
ATOM     94  C   UNL A   1      50.972  25.932  30.961  1.00  0.00     0.200 A 
ATOM     95  F   UNL A   1      51.663  27.041  28.994  1.00  0.00    -0.200 F 
ATOM     96  F   UNL A   1      52.227  25.517  31.185  1.00  0.00    -0.200 F 
ENDBRANCH  63  86
ENDBRANCH  37  38
ENDBRANCH  29  32
ENDBRANCH  27  28
ENDBRANCH  26  27
ENDBRANCH   1  26
TORSDOF 15
ENDMDL
MODEL 3
REMARK VINA RESULT:     -12.1      2.019      3.486
REMARK SMILES CC(C)[NH2+][C@@]1(C(=O)NCCCCNC(=O)c2ccc(-c3c4nc(c(-c5c(F)c(F)c(F)c(F)c5F)c5ccc([nH]5)c(-c5c(F)c(F)c(F)c(F)c5F)c5nc(c(-c6c(F)c(F)c(F)c(F)c6F)c6ccc3[nH]6)C=C5)C=C4)cc2)CCC[C@@H](Sc2nncn2C)C1
REMARK SMILES IDX 10 1 9 2 8 3 6 4 7 5 5 7 79 8 90 9 80 10 82 11 81 12 4 13
REMARK SMILES IDX 2 16 1 17 3 18 83 19 84 20 85 21 88 22 86 23 87 24 89 25
REMARK SMILES IDX 11 26 12 27 13 28 14 29 15 31 16 32 17 33 78 34 18 35 77 36
REMARK SMILES IDX 19 37 20 38 21 39 71 40 22 41 76 42 70 43 72 44 23 45 75 46
REMARK SMILES IDX 69 47 68 48 24 50 56 51 36 52 55 53 37 54 40 55 54 56 73 57
REMARK SMILES IDX 38 58 39 59 53 61 74 62 41 63 25 64 26 65 34 66 27 67 28 68
REMARK SMILES IDX 32 69 35 70 29 71 30 72 33 73 31 74 57 75 58 76 66 77 59 78
REMARK SMILES IDX 60 79 64 80 67 81 61 82 62 83 65 84 63 85 42 86 43 87 51 88
REMARK SMILES IDX 44 89 45 90 49 91 52 92 46 93 47 94 50 95 48 96
REMARK H PARENT 8 6 4 14 4 15 13 30 72 49 40 60
REMARK Flexibility Score: inf
ROOT
ATOM      1  C   UNL A   1      32.066  30.745  26.019  1.00  0.00     0.023 C 
ENDROOT
BRANCH   1   2
ATOM      2  C   UNL A   1      33.081  29.705  26.508  1.00  0.00     0.116 C 
BRANCH   2   3
ATOM      3  N   UNL A   1      32.426  28.519  27.003  1.00  0.00    -0.351 N 
ATOM      4  C   UNL A   1      31.870  27.414  26.463  1.00  0.00     0.281 C 
ATOM      5  O   UNL A   1      31.270  26.726  27.312  1.00  0.00    -0.268 OA
ATOM      6  H   UNL A   1      32.369  28.515  27.986  1.00  0.00     0.163 HD
BRANCH   4   7
ATOM      7  C   UNL A   1      31.854  26.941  24.928  1.00  0.00     0.176 C 
ATOM      8  C   UNL A   1      33.077  27.411  24.101  1.00  0.00     0.079 C 
ATOM      9  C   UNL A   1      30.501  27.277  24.273  1.00  0.00     0.094 C 
ATOM     10  C   UNL A   1      32.935  28.656  23.221  1.00  0.00     0.008 C 
ATOM     11  C   UNL A   1      30.441  28.651  23.626  1.00  0.00     0.061 C 
ATOM     12  C   UNL A   1      31.554  28.856  22.605  1.00  0.00     0.015 C 
BRANCH   7  13
ATOM     13  N   UNL A   1      32.054  25.452  25.082  1.00  0.00    -0.332 N 
ATOM     14  H   UNL A   1      32.829  25.200  24.469  1.00  0.00     0.347 HD
ATOM     15  H   UNL A   1      32.175  25.348  26.089  1.00  0.00     0.347 HD
BRANCH  13  16
ATOM     16  C   UNL A   1      30.976  24.507  24.795  1.00  0.00     0.176 C 
ATOM     17  C   UNL A   1      31.399  23.733  23.540  1.00  0.00     0.075 C 
ATOM     18  C   UNL A   1      30.750  23.491  25.922  1.00  0.00     0.075 C 
ENDBRANCH  13  16
ENDBRANCH   7  13
BRANCH  11  19
ATOM     19  S   UNL A   1      28.776  29.064  22.991  1.00  0.00    -0.082 SA
BRANCH  19  20
ATOM     20  C   UNL A   1      28.823  30.784  22.928  1.00  0.00     0.191 A 
ATOM     21  N   UNL A   1      29.166  31.603  23.894  1.00  0.00    -0.124 NA
ATOM     22  N   UNL A   1      28.460  31.500  21.827  1.00  0.00    -0.312 N 
ATOM     23  N   UNL A   1      29.008  32.888  23.425  1.00  0.00    -0.138 NA
ATOM     24  C   UNL A   1      28.582  32.809  22.184  1.00  0.00     0.226 A 
ATOM     25  C   UNL A   1      27.998  31.003  20.559  1.00  0.00     0.153 C 
ENDBRANCH  19  20
ENDBRANCH  11  19
ENDBRANCH   4   7
ENDBRANCH   2   3
ENDBRANCH   1   2
BRANCH   1  26
ATOM     26  C   UNL A   1      31.694  31.811  27.040  1.00  0.00     0.023 C 
BRANCH  26  27
ATOM     27  C   UNL A   1      32.821  32.776  27.391  1.00  0.00     0.116 C 
BRANCH  27  28
ATOM     28  N   UNL A   1      32.387  34.136  27.684  1.00  0.00    -0.352 N 
ATOM     29  C   UNL A   1      32.949  35.027  28.575  1.00  0.00     0.251 C 
ATOM     30  H   UNL A   1      31.601  34.458  27.187  1.00  0.00     0.163 HD
ATOM     31  O   UNL A   1      32.464  36.132  28.761  1.00  0.00    -0.269 OA
BRANCH  29  32
ATOM     32  C   UNL A   1      34.125  34.580  29.348  1.00  0.00     0.039 A 
ATOM     33  C   UNL A   1      33.928  34.035  30.619  1.00  0.00     0.014 A 
ATOM     34  C   UNL A   1      35.388  34.567  28.752  1.00  0.00     0.014 A 
ATOM     35  C   UNL A   1      34.985  33.381  31.252  1.00  0.00     0.010 A 
ATOM     36  C   UNL A   1      36.411  33.840  29.345  1.00  0.00     0.010 A 
ATOM     37  C   UNL A   1      36.217  33.229  30.594  1.00  0.00    -0.014 A 
BRANCH  37  38
ATOM     38  C   UNL A   1      37.317  32.424  31.181  1.00  0.00     0.031 A 
ATOM     39  C   UNL A   1      37.820  32.745  32.561  1.00  0.00     0.074 A 
ATOM     40  C   UNL A   1      37.928  31.479  30.438  1.00  0.00     0.049 A 
ATOM     41  N   UNL A   1      38.844  32.246  33.205  1.00  0.00    -0.248 NA
ATOM     42  C   UNL A   1      37.104  33.799  33.297  1.00  0.00     0.031 C 
ATOM     43  C   UNL A   1      37.583  31.126  29.059  1.00  0.00     0.029 A 
ATOM     44  N   UNL A   1      38.983  30.653  30.735  1.00  0.00    -0.354 N 
ATOM     45  C   UNL A   1      38.916  32.952  34.399  1.00  0.00     0.074 A 
ATOM     46  C   UNL A   1      37.862  33.940  34.374  1.00  0.00     0.031 C 
ATOM     47  C   UNL A   1      38.396  30.143  28.638  1.00  0.00     0.029 A 
ATOM     48  C   UNL A   1      39.340  29.818  29.702  1.00  0.00     0.049 A 
ATOM     49  H   UNL A   1      39.442  30.657  31.606  1.00  0.00     0.167 HD
ATOM     50  C   UNL A   1      39.771  32.773  35.431  1.00  0.00     0.037 A 
ATOM     51  C   UNL A   1      40.321  28.899  29.625  1.00  0.00     0.037 A 
ATOM     52  C   UNL A   1      40.768  31.739  35.485  1.00  0.00     0.049 A 
ATOM     53  C   UNL A   1      41.212  28.676  30.819  1.00  0.00     0.074 A 
ATOM     54  C   UNL A   1      41.606  31.405  36.533  1.00  0.00     0.029 A 
ATOM     55  N   UNL A   1      41.053  30.867  34.447  1.00  0.00    -0.354 N 
ATOM     56  N   UNL A   1      41.209  29.287  31.978  1.00  0.00    -0.248 NA
ATOM     57  C   UNL A   1      42.238  27.631  30.695  1.00  0.00     0.031 C 
ATOM     58  C   UNL A   1      42.419  30.345  36.119  1.00  0.00     0.029 A 
ATOM     59  C   UNL A   1      42.063  29.999  34.825  1.00  0.00     0.049 A 
ATOM     60  H   UNL A   1      40.603  30.863  33.571  1.00  0.00     0.167 HD
ATOM     61  C   UNL A   1      42.206  28.681  32.731  1.00  0.00     0.074 A 
ATOM     62  C   UNL A   1      42.787  27.646  31.902  1.00  0.00     0.031 C 
ATOM     63  C   UNL A   1      42.608  28.959  33.994  1.00  0.00     0.037 A 
BRANCH  50  64
ATOM     64  C   UNL A   1      39.655  33.701  36.602  1.00  0.00     0.064 A 
ATOM     65  C   UNL A   1      40.291  34.950  36.615  1.00  0.00     0.173 A 
ATOM     66  C   UNL A   1      38.851  33.359  37.701  1.00  0.00     0.173 A 
ATOM     67  F   UNL A   1      41.081  35.316  35.594  1.00  0.00    -0.203 F 
ATOM     68  C   UNL A   1      40.143  35.818  37.694  1.00  0.00     0.198 A 
ATOM     69  C   UNL A   1      38.685  34.239  38.767  1.00  0.00     0.198 A 
ATOM     70  F   UNL A   1      38.219  32.176  37.735  1.00  0.00    -0.203 F 
ATOM     71  F   UNL A   1      40.791  36.990  37.702  1.00  0.00    -0.200 F 
ATOM     72  C   UNL A   1      39.334  35.464  38.764  1.00  0.00     0.200 A 
ATOM     73  F   UNL A   1      37.895  33.902  39.795  1.00  0.00    -0.200 F 
ATOM     74  F   UNL A   1      39.184  36.305  39.797  1.00  0.00    -0.200 F 
ENDBRANCH  50  64
BRANCH  51  75
ATOM     75  C   UNL A   1      40.502  28.091  28.390  1.00  0.00     0.064 A 
ATOM     76  C   UNL A   1      39.921  26.821  28.273  1.00  0.00     0.173 A 
ATOM     77  C   UNL A   1      41.285  28.552  27.324  1.00  0.00     0.173 A 
ATOM     78  F   UNL A   1      39.180  26.329  29.278  1.00  0.00    -0.203 F 
ATOM     79  C   UNL A   1      40.141  26.028  27.148  1.00  0.00     0.198 A 
ATOM     80  C   UNL A   1      41.484  27.769  26.188  1.00  0.00     0.198 A 
ATOM     81  F   UNL A   1      41.859  29.762  27.384  1.00  0.00    -0.203 F 
ATOM     82  F   UNL A   1      39.619  24.795  27.088  1.00  0.00    -0.200 F 
ATOM     83  C   UNL A   1      40.921  26.504  26.106  1.00  0.00     0.200 A 
ATOM     84  F   UNL A   1      42.229  28.235  25.176  1.00  0.00    -0.200 F 
ATOM     85  F   UNL A   1      41.139  25.739  25.027  1.00  0.00    -0.200 F 
ENDBRANCH  51  75
BRANCH  63  86
ATOM     86  C   UNL A   1      43.694  28.106  34.574  1.00  0.00     0.064 A 
ATOM     87  C   UNL A   1      43.412  26.886  35.202  1.00  0.00     0.173 A 
ATOM     88  C   UNL A   1      45.037  28.493  34.454  1.00  0.00     0.173 A 
ATOM     89  F   UNL A   1      42.141  26.483  35.352  1.00  0.00    -0.203 F 
ATOM     90  C   UNL A   1      44.436  26.091  35.709  1.00  0.00     0.198 A 
ATOM     91  C   UNL A   1      46.061  27.684  34.939  1.00  0.00     0.198 A 
ATOM     92  F   UNL A   1      45.357  29.650  33.855  1.00  0.00    -0.203 F 
ATOM     93  F   UNL A   1      44.142  24.946  36.340  1.00  0.00    -0.200 F 
ATOM     94  C   UNL A   1      45.758  26.487  35.570  1.00  0.00     0.200 A 
ATOM     95  F   UNL A   1      47.337  28.062  34.795  1.00  0.00    -0.200 F 
ATOM     96  F   UNL A   1      46.743  25.715  36.051  1.00  0.00    -0.200 F 
ENDBRANCH  63  86
ENDBRANCH  37  38
ENDBRANCH  29  32
ENDBRANCH  27  28
ENDBRANCH  26  27
ENDBRANCH   1  26
TORSDOF 15
ENDMDL
