MODEL 1
REMARK VINA RESULT:     -11.2      0.000      0.000
REMARK SMILES C=CCN(CC(=O)NCCCCNC(=O)c1ccc(-c2c3nc(c(-c4c(F)c(F)c(F)c(F)c4F)c4ccc([nH]4)c(-c4c(F)c(F)c(F)c(F)c4F)c4nc(c(-c5c(F)c(F)c(F)c(F)c5F)c5ccc2[nH]5)C=C4)C=C3)cc1)C(=O)NC
REMARK SMILES IDX 10 1 9 2 8 3 6 4 7 5 5 7 4 8 3 9 2 10 1 11 79 12 80 13 81 14
REMARK SMILES IDX 82 15 11 17 12 18 13 19 14 20 15 22 16 23 17 24 78 25 18 26
REMARK SMILES IDX 77 27 19 28 20 29 21 30 71 31 22 32 76 33 70 34 72 35 23 36
REMARK SMILES IDX 75 37 69 38 68 39 24 41 56 42 36 43 55 44 37 45 40 46 54 47
REMARK SMILES IDX 73 48 38 49 39 50 53 52 74 53 41 54 25 55 26 56 34 57 27 58
REMARK SMILES IDX 28 59 32 60 35 61 29 62 30 63 33 64 31 65 57 66 58 67 66 68
REMARK SMILES IDX 59 69 60 70 64 71 67 72 61 73 62 74 65 75 63 76 42 77 43 78
REMARK SMILES IDX 51 79 44 80 45 81 49 82 52 83 46 84 47 85 50 86 48 87
REMARK H PARENT 8 6 81 16 13 21 72 40 40 51
REMARK Flexibility Score: inf
ROOT
ATOM      1  C   UNL A   1      31.787  30.448  26.741  1.00  0.00     0.023 C 
ENDROOT
BRANCH   1   2
ATOM      2  C   UNL A   1      32.101  29.866  25.366  1.00  0.00     0.116 C 
BRANCH   2   3
ATOM      3  N   UNL A   1      31.307  28.699  25.051  1.00  0.00    -0.355 N 
ATOM      4  C   UNL A   1      30.647  28.391  23.897  1.00  0.00     0.239 C 
ATOM      5  O   UNL A   1      30.277  27.221  23.755  1.00  0.00    -0.273 OA
ATOM      6  H   UNL A   1      31.232  28.032  25.771  1.00  0.00     0.163 HD
BRANCH   4   7
ATOM      7  C   UNL A   1      30.500  29.406  22.749  1.00  0.00     0.221 C 
BRANCH   7   8
ATOM      8  N   UNL A   1      29.242  30.156  22.732  1.00  0.00    -0.312 N 
BRANCH   8   9
ATOM      9  C   UNL A   1      29.135  31.282  23.661  1.00  0.00     0.149 C 
BRANCH   9  10
ATOM     10  C   UNL A   1      28.715  32.536  22.951  1.00  0.00    -0.013 C 
ATOM     11  C   UNL A   1      29.169  33.751  23.290  1.00  0.00     0.006 C 
ENDBRANCH   9  10
ENDBRANCH   8   9
BRANCH   8  12
ATOM     12  C   UNL A   1      28.145  29.882  21.963  1.00  0.00     0.317 C 
ATOM     13  O   UNL A   1      28.032  30.325  20.815  1.00  0.00    -0.249 OA
ATOM     14  N   UNL A   1      27.102  29.148  22.386  1.00  0.00    -0.341 N 
ATOM     15  C   UNL A   1      26.763  28.355  23.545  1.00  0.00     0.144 C 
ATOM     16  H   UNL A   1      26.370  29.152  21.727  1.00  0.00     0.165 HD
ENDBRANCH   8  12
ENDBRANCH   7   8
ENDBRANCH   4   7
ENDBRANCH   2   3
ENDBRANCH   1   2
BRANCH   1  17
ATOM     17  C   UNL A   1      31.574  31.962  26.771  1.00  0.00     0.023 C 
BRANCH  17  18
ATOM     18  C   UNL A   1      32.751  32.783  27.286  1.00  0.00     0.116 C 
BRANCH  18  19
ATOM     19  N   UNL A   1      32.401  34.154  27.627  1.00  0.00    -0.352 N 
ATOM     20  C   UNL A   1      32.981  34.982  28.558  1.00  0.00     0.251 C 
ATOM     21  H   UNL A   1      31.649  34.539  27.124  1.00  0.00     0.163 HD
ATOM     22  O   UNL A   1      32.506  36.090  28.785  1.00  0.00    -0.269 OA
BRANCH  20  23
ATOM     23  C   UNL A   1      34.157  34.514  29.320  1.00  0.00     0.039 A 
ATOM     24  C   UNL A   1      33.957  33.922  30.569  1.00  0.00     0.014 A 
ATOM     25  C   UNL A   1      35.447  34.627  28.793  1.00  0.00     0.014 A 
ATOM     26  C   UNL A   1      35.040  33.377  31.258  1.00  0.00     0.010 A 
ATOM     27  C   UNL A   1      36.515  34.022  29.447  1.00  0.00     0.010 A 
ATOM     28  C   UNL A   1      36.322  33.388  30.684  1.00  0.00    -0.014 A 
BRANCH  28  29
ATOM     29  C   UNL A   1      37.473  32.734  31.357  1.00  0.00     0.031 A 
ATOM     30  C   UNL A   1      38.184  31.590  30.693  1.00  0.00     0.074 A 
ATOM     31  C   UNL A   1      37.829  33.124  32.597  1.00  0.00     0.049 A 
ATOM     32  N   UNL A   1      39.157  30.842  31.151  1.00  0.00    -0.248 NA
ATOM     33  C   UNL A   1      37.726  31.220  29.346  1.00  0.00     0.031 C 
ATOM     34  C   UNL A   1      37.183  34.189  33.367  1.00  0.00     0.029 A 
ATOM     35  N   UNL A   1      38.813  32.660  33.433  1.00  0.00    -0.354 N 
ATOM     36  C   UNL A   1      39.414  29.908  30.156  1.00  0.00     0.074 A 
ATOM     37  C   UNL A   1      38.462  30.148  29.093  1.00  0.00     0.031 C 
ATOM     38  C   UNL A   1      37.802  34.312  34.552  1.00  0.00     0.029 A 
ATOM     39  C   UNL A   1      38.861  33.311  34.642  1.00  0.00     0.049 A 
ATOM     40  H   UNL A   1      39.427  31.931  33.189  1.00  0.00     0.167 HD
ATOM     41  C   UNL A   1      40.372  28.952  30.122  1.00  0.00     0.037 A 
ATOM     42  C   UNL A   1      39.664  33.117  35.705  1.00  0.00     0.037 A 
ATOM     43  C   UNL A   1      41.334  28.732  31.170  1.00  0.00     0.049 A 
ATOM     44  C   UNL A   1      40.719  32.045  35.643  1.00  0.00     0.074 A 
ATOM     45  C   UNL A   1      42.382  27.827  31.206  1.00  0.00     0.029 A 
ATOM     46  N   UNL A   1      41.365  29.426  32.372  1.00  0.00    -0.354 N 
ATOM     47  N   UNL A   1      40.997  31.212  34.670  1.00  0.00    -0.248 NA
ATOM     48  C   UNL A   1      41.578  31.892  36.826  1.00  0.00     0.031 C 
ATOM     49  C   UNL A   1      43.019  27.944  32.444  1.00  0.00     0.029 A 
ATOM     50  C   UNL A   1      42.401  28.955  33.163  1.00  0.00     0.049 A 
ATOM     51  H   UNL A   1      40.743  30.146  32.624  1.00  0.00     0.167 HD
ATOM     52  C   UNL A   1      42.075  30.458  35.109  1.00  0.00     0.074 A 
ATOM     53  C   UNL A   1      42.412  30.942  36.432  1.00  0.00     0.031 C 
ATOM     54  C   UNL A   1      42.730  29.454  34.474  1.00  0.00     0.037 A 
BRANCH  41  55
ATOM     55  C   UNL A   1      40.432  28.073  28.907  1.00  0.00     0.064 A 
ATOM     56  C   UNL A   1      39.729  26.860  28.843  1.00  0.00     0.173 A 
ATOM     57  C   UNL A   1      41.174  28.461  27.781  1.00  0.00     0.173 A 
ATOM     58  F   UNL A   1      39.015  26.437  29.897  1.00  0.00    -0.203 F 
ATOM     59  C   UNL A   1      39.791  26.054  27.709  1.00  0.00     0.198 A 
ATOM     60  C   UNL A   1      41.208  27.668  26.637  1.00  0.00     0.198 A 
ATOM     61  F   UNL A   1      41.860  29.614  27.787  1.00  0.00    -0.203 F 
ATOM     62  F   UNL A   1      39.152  24.877  27.690  1.00  0.00    -0.200 F 
ATOM     63  C   UNL A   1      40.523  26.463  26.605  1.00  0.00     0.200 A 
ATOM     64  F   UNL A   1      41.906  28.070  25.566  1.00  0.00    -0.200 F 
ATOM     65  F   UNL A   1      40.576  25.690  25.511  1.00  0.00    -0.200 F 
ENDBRANCH  41  55
BRANCH  42  66
ATOM     66  C   UNL A   1      39.522  33.975  36.910  1.00  0.00     0.064 A 
ATOM     67  C   UNL A   1      38.771  33.543  38.012  1.00  0.00     0.173 A 
ATOM     68  C   UNL A   1      40.124  35.239  36.984  1.00  0.00     0.173 A 
ATOM     69  F   UNL A   1      38.158  32.351  37.980  1.00  0.00    -0.203 F 
ATOM     70  C   UNL A   1      38.610  34.353  39.136  1.00  0.00     0.198 A 
ATOM     71  C   UNL A   1      39.986  36.035  38.119  1.00  0.00     0.198 A 
ATOM     72  F   UNL A   1      40.856  35.695  35.957  1.00  0.00    -0.203 F 
ATOM     73  F   UNL A   1      37.850  33.935  40.156  1.00  0.00    -0.200 F 
ATOM     74  C   UNL A   1      39.223  35.596  39.190  1.00  0.00     0.200 A 
ATOM     75  F   UNL A   1      40.589  37.231  38.172  1.00  0.00    -0.200 F 
ATOM     76  F   UNL A   1      39.071  36.373  40.271  1.00  0.00    -0.200 F 
ENDBRANCH  42  66
BRANCH  54  77
ATOM     77  C   UNL A   1      43.899  28.837  35.183  1.00  0.00     0.064 A 
ATOM     78  C   UNL A   1      43.739  27.760  36.066  1.00  0.00     0.173 A 
ATOM     79  C   UNL A   1      45.200  29.304  34.943  1.00  0.00     0.173 A 
ATOM     80  F   UNL A   1      42.514  27.287  36.341  1.00  0.00    -0.203 F 
ATOM     81  C   UNL A   1      44.838  27.189  36.703  1.00  0.00     0.198 A 
ATOM     82  C   UNL A   1      46.298  28.711  35.558  1.00  0.00     0.198 A 
ATOM     83  F   UNL A   1      45.407  30.328  34.101  1.00  0.00    -0.203 F 
ATOM     84  F   UNL A   1      44.658  26.190  37.578  1.00  0.00    -0.200 F 
ATOM     85  C   UNL A   1      46.117  27.659  36.442  1.00  0.00     0.200 A 
ATOM     86  F   UNL A   1      47.535  29.159  35.295  1.00  0.00    -0.200 F 
ATOM     87  F   UNL A   1      47.173  27.103  37.050  1.00  0.00    -0.200 F 
ENDBRANCH  54  77
ENDBRANCH  28  29
ENDBRANCH  20  23
ENDBRANCH  18  19
ENDBRANCH  17  18
ENDBRANCH   1  17
TORSDOF 15
ENDMDL
MODEL 2
REMARK VINA RESULT:     -10.8      1.518      7.856
REMARK SMILES C=CCN(CC(=O)NCCCCNC(=O)c1ccc(-c2c3nc(c(-c4c(F)c(F)c(F)c(F)c4F)c4ccc([nH]4)c(-c4c(F)c(F)c(F)c(F)c4F)c4nc(c(-c5c(F)c(F)c(F)c(F)c5F)c5ccc2[nH]5)C=C4)C=C3)cc1)C(=O)NC
REMARK SMILES IDX 10 1 9 2 8 3 6 4 7 5 5 7 4 8 3 9 2 10 1 11 79 12 80 13 81 14
REMARK SMILES IDX 82 15 11 17 12 18 13 19 14 20 15 22 16 23 17 24 78 25 18 26
REMARK SMILES IDX 77 27 19 28 20 29 21 30 71 31 22 32 76 33 70 34 72 35 23 36
REMARK SMILES IDX 75 37 69 38 68 39 24 41 56 42 36 43 55 44 37 45 40 46 54 47
REMARK SMILES IDX 73 48 38 49 39 50 53 52 74 53 41 54 25 55 26 56 34 57 27 58
REMARK SMILES IDX 28 59 32 60 35 61 29 62 30 63 33 64 31 65 57 66 58 67 66 68
REMARK SMILES IDX 59 69 60 70 64 71 67 72 61 73 62 74 65 75 63 76 42 77 43 78
REMARK SMILES IDX 51 79 44 80 45 81 49 82 52 83 46 84 47 85 50 86 48 87
REMARK H PARENT 8 6 81 16 13 21 72 40 40 51
REMARK Flexibility Score: inf
ROOT
ATOM      1  C   UNL A   1      31.446  30.497  26.538  1.00  0.00     0.023 C 
ENDROOT
BRANCH   1   2
ATOM      2  C   UNL A   1      32.267  29.856  25.422  1.00  0.00     0.116 C 
BRANCH   2   3
ATOM      3  N   UNL A   1      31.489  29.575  24.237  1.00  0.00    -0.355 N 
ATOM      4  C   UNL A   1      31.803  28.792  23.164  1.00  0.00     0.239 C 
ATOM      5  O   UNL A   1      30.878  28.472  22.411  1.00  0.00    -0.273 OA
ATOM      6  H   UNL A   1      30.606  30.009  24.198  1.00  0.00     0.163 HD
BRANCH   4   7
ATOM      7  C   UNL A   1      33.211  28.200  22.975  1.00  0.00     0.221 C 
BRANCH   7   8
ATOM      8  N   UNL A   1      33.275  26.737  22.937  1.00  0.00    -0.312 N 
BRANCH   8   9
ATOM      9  C   UNL A   1      34.028  26.083  24.008  1.00  0.00     0.149 C 
BRANCH   9  10
ATOM     10  C   UNL A   1      33.596  26.575  25.357  1.00  0.00    -0.013 C 
ATOM     11  C   UNL A   1      32.541  26.071  26.012  1.00  0.00     0.006 C 
ENDBRANCH   9  10
ENDBRANCH   8   9
BRANCH   8  12
ATOM     12  C   UNL A   1      32.735  25.926  21.975  1.00  0.00     0.317 C 
ATOM     13  O   UNL A   1      33.278  25.778  20.875  1.00  0.00    -0.249 OA
ATOM     14  N   UNL A   1      31.580  25.259  22.125  1.00  0.00    -0.341 N 
ATOM     15  C   UNL A   1      30.625  25.014  23.182  1.00  0.00     0.144 C 
ATOM     16  H   UNL A   1      31.310  24.817  21.288  1.00  0.00     0.165 HD
ENDBRANCH   8  12
ENDBRANCH   7   8
ENDBRANCH   4   7
ENDBRANCH   2   3
ENDBRANCH   1   2
BRANCH   1  17
ATOM     17  C   UNL A   1      31.442  32.026  26.543  1.00  0.00     0.023 C 
BRANCH  17  18
ATOM     18  C   UNL A   1      32.643  32.686  27.210  1.00  0.00     0.116 C 
BRANCH  18  19
ATOM     19  N   UNL A   1      32.404  34.065  27.608  1.00  0.00    -0.352 N 
ATOM     20  C   UNL A   1      33.053  34.808  28.565  1.00  0.00     0.251 C 
ATOM     21  H   UNL A   1      31.682  34.528  27.127  1.00  0.00     0.163 HD
ATOM     22  O   UNL A   1      32.669  35.940  28.839  1.00  0.00    -0.269 OA
BRANCH  20  23
ATOM     23  C   UNL A   1      34.193  34.219  29.298  1.00  0.00     0.039 A 
ATOM     24  C   UNL A   1      33.933  33.356  30.365  1.00  0.00     0.014 A 
ATOM     25  C   UNL A   1      35.510  34.487  28.915  1.00  0.00     0.014 A 
ATOM     26  C   UNL A   1      34.989  32.706  31.003  1.00  0.00     0.010 A 
ATOM     27  C   UNL A   1      36.557  33.786  29.504  1.00  0.00     0.010 A 
ATOM     28  C   UNL A   1      36.307  32.886  30.551  1.00  0.00    -0.014 A 
BRANCH  28  29
ATOM     29  C   UNL A   1      37.437  32.134  31.154  1.00  0.00     0.031 A 
ATOM     30  C   UNL A   1      37.917  32.473  32.536  1.00  0.00     0.074 A 
ATOM     31  C   UNL A   1      38.076  31.196  30.427  1.00  0.00     0.049 A 
ATOM     32  N   UNL A   1      38.934  31.986  33.203  1.00  0.00    -0.248 NA
ATOM     33  C   UNL A   1      37.172  33.517  33.256  1.00  0.00     0.031 C 
ATOM     34  C   UNL A   1      37.736  30.812  29.056  1.00  0.00     0.029 A 
ATOM     35  N   UNL A   1      39.153  30.404  30.736  1.00  0.00    -0.354 N 
ATOM     36  C   UNL A   1      38.957  32.673  34.409  1.00  0.00     0.074 A 
ATOM     37  C   UNL A   1      37.888  33.647  34.363  1.00  0.00     0.031 C 
ATOM     38  C   UNL A   1      38.573  29.843  28.651  1.00  0.00     0.029 A 
ATOM     39  C   UNL A   1      39.531  29.565  29.717  1.00  0.00     0.049 A 
ATOM     40  H   UNL A   1      39.611  30.434  31.607  1.00  0.00     0.167 HD
ATOM     41  C   UNL A   1      39.780  32.492  35.468  1.00  0.00     0.037 A 
ATOM     42  C   UNL A   1      40.541  28.677  29.647  1.00  0.00     0.037 A 
ATOM     43  C   UNL A   1      40.827  31.505  35.521  1.00  0.00     0.049 A 
ATOM     44  C   UNL A   1      41.444  28.497  30.837  1.00  0.00     0.074 A 
ATOM     45  C   UNL A   1      41.678  31.203  36.571  1.00  0.00     0.029 A 
ATOM     46  N   UNL A   1      41.167  30.658  34.475  1.00  0.00    -0.354 N 
ATOM     47  N   UNL A   1      41.415  29.106  31.998  1.00  0.00    -0.248 NA
ATOM     48  C   UNL A   1      42.518  27.501  30.710  1.00  0.00     0.031 C 
ATOM     49  C   UNL A   1      42.559  30.205  36.146  1.00  0.00     0.029 A 
ATOM     50  C   UNL A   1      42.227  29.848  34.849  1.00  0.00     0.049 A 
ATOM     51  H   UNL A   1      40.720  30.636  33.599  1.00  0.00     0.167 HD
ATOM     52  C   UNL A   1      42.443  28.549  32.747  1.00  0.00     0.074 A 
ATOM     53  C   UNL A   1      43.068  27.543  31.914  1.00  0.00     0.031 C 
ATOM     54  C   UNL A   1      42.833  28.844  34.011  1.00  0.00     0.037 A 
BRANCH  41  55
ATOM     55  C   UNL A   1      39.579  33.378  36.663  1.00  0.00     0.064 A 
ATOM     56  C   UNL A   1      38.727  33.009  37.715  1.00  0.00     0.173 A 
ATOM     57  C   UNL A   1      40.270  34.594  36.774  1.00  0.00     0.173 A 
ATOM     58  F   UNL A   1      38.034  31.863  37.652  1.00  0.00    -0.203 F 
ATOM     59  C   UNL A   1      38.551  33.839  38.820  1.00  0.00     0.198 A 
ATOM     60  C   UNL A   1      40.115  35.406  37.894  1.00  0.00     0.198 A 
ATOM     61  F   UNL A   1      41.101  34.992  35.799  1.00  0.00    -0.203 F 
ATOM     62  F   UNL A   1      37.694  33.489  39.788  1.00  0.00    -0.200 F 
ATOM     63  C   UNL A   1      39.251  35.032  38.911  1.00  0.00     0.200 A 
ATOM     64  F   UNL A   1      40.802  36.554  37.987  1.00  0.00    -0.200 F 
ATOM     65  F   UNL A   1      39.087  35.826  39.979  1.00  0.00    -0.200 F 
ENDBRANCH  41  55
BRANCH  42  66
ATOM     66  C   UNL A   1      40.736  27.869  28.416  1.00  0.00     0.064 A 
ATOM     67  C   UNL A   1      40.126  26.614  28.277  1.00  0.00     0.173 A 
ATOM     68  C   UNL A   1      41.536  28.326  27.359  1.00  0.00     0.173 A 
ATOM     69  F   UNL A   1      39.368  26.125  29.270  1.00  0.00    -0.203 F 
ATOM     70  C   UNL A   1      40.324  25.839  27.137  1.00  0.00     0.198 A 
ATOM     71  C   UNL A   1      41.712  27.562  26.207  1.00  0.00     0.198 A 
ATOM     72  F   UNL A   1      42.139  29.522  27.441  1.00  0.00    -0.203 F 
ATOM     73  F   UNL A   1      39.767  24.624  27.050  1.00  0.00    -0.200 F 
ATOM     74  C   UNL A   1      41.113  26.316  26.100  1.00  0.00     0.200 A 
ATOM     75  F   UNL A   1      42.465  28.031  25.203  1.00  0.00    -0.200 F 
ATOM     76  F   UNL A   1      41.303  25.571  25.003  1.00  0.00    -0.200 F 
ENDBRANCH  42  66
BRANCH  54  77
ATOM     77  C   UNL A   1      43.965  28.045  34.587  1.00  0.00     0.064 A 
ATOM     78  C   UNL A   1      43.754  26.796  35.189  1.00  0.00     0.173 A 
ATOM     79  C   UNL A   1      45.283  28.518  34.497  1.00  0.00     0.173 A 
ATOM     80  F   UNL A   1      42.510  26.307  35.312  1.00  0.00    -0.203 F 
ATOM     81  C   UNL A   1      44.819  26.061  35.702  1.00  0.00     0.198 A 
ATOM     82  C   UNL A   1      46.348  27.767  34.986  1.00  0.00     0.198 A 
ATOM     83  F   UNL A   1      45.539  29.705  33.925  1.00  0.00    -0.203 F 
ATOM     84  F   UNL A   1      44.589  24.891  36.314  1.00  0.00    -0.200 F 
ATOM     85  C   UNL A   1      46.115  26.543  35.593  1.00  0.00     0.200 A 
ATOM     86  F   UNL A   1      47.601  28.228  34.867  1.00  0.00    -0.200 F 
ATOM     87  F   UNL A   1      47.139  25.830  36.081  1.00  0.00    -0.200 F 
ENDBRANCH  54  77
ENDBRANCH  28  29
ENDBRANCH  20  23
ENDBRANCH  18  19
ENDBRANCH  17  18
ENDBRANCH   1  17
TORSDOF 15
ENDMDL
MODEL 3
REMARK VINA RESULT:     -10.7      1.675      2.504
REMARK SMILES C=CCN(CC(=O)NCCCCNC(=O)c1ccc(-c2c3nc(c(-c4c(F)c(F)c(F)c(F)c4F)c4ccc([nH]4)c(-c4c(F)c(F)c(F)c(F)c4F)c4nc(c(-c5c(F)c(F)c(F)c(F)c5F)c5ccc2[nH]5)C=C4)C=C3)cc1)C(=O)NC
REMARK SMILES IDX 10 1 9 2 8 3 6 4 7 5 5 7 4 8 3 9 2 10 1 11 79 12 80 13 81 14
REMARK SMILES IDX 82 15 11 17 12 18 13 19 14 20 15 22 16 23 17 24 78 25 18 26
REMARK SMILES IDX 77 27 19 28 20 29 21 30 71 31 22 32 76 33 70 34 72 35 23 36
REMARK SMILES IDX 75 37 69 38 68 39 24 41 56 42 36 43 55 44 37 45 40 46 54 47
REMARK SMILES IDX 73 48 38 49 39 50 53 52 74 53 41 54 25 55 26 56 34 57 27 58
REMARK SMILES IDX 28 59 32 60 35 61 29 62 30 63 33 64 31 65 57 66 58 67 66 68
REMARK SMILES IDX 59 69 60 70 64 71 67 72 61 73 62 74 65 75 63 76 42 77 43 78
REMARK SMILES IDX 51 79 44 80 45 81 49 82 52 83 46 84 47 85 50 86 48 87
REMARK H PARENT 8 6 81 16 13 21 72 40 40 51
REMARK Flexibility Score: inf
ROOT
ATOM      1  C   UNL A   1      31.562  30.563  26.546  1.00  0.00     0.023 C 
ENDROOT
BRANCH   1   2
ATOM      2  C   UNL A   1      31.486  30.007  25.128  1.00  0.00     0.116 C 
BRANCH   2   3
ATOM      3  N   UNL A   1      32.786  29.719  24.563  1.00  0.00    -0.355 N 
ATOM      4  C   UNL A   1      33.262  28.548  24.048  1.00  0.00     0.239 C 
ATOM      5  O   UNL A   1      34.290  28.611  23.365  1.00  0.00    -0.273 OA
ATOM      6  H   UNL A   1      33.416  30.475  24.546  1.00  0.00     0.163 HD
BRANCH   4   7
ATOM      7  C   UNL A   1      32.480  27.228  24.171  1.00  0.00     0.221 C 
BRANCH   7   8
ATOM      8  N   UNL A   1      31.930  26.706  22.918  1.00  0.00    -0.312 N 
BRANCH   8   9
ATOM      9  C   UNL A   1      30.659  27.276  22.469  1.00  0.00     0.149 C 
BRANCH   9  10
ATOM     10  C   UNL A   1      29.677  27.375  23.598  1.00  0.00    -0.013 C 
ATOM     11  C   UNL A   1      28.786  26.411  23.875  1.00  0.00     0.006 C 
ENDBRANCH   9  10
ENDBRANCH   8   9
BRANCH   8  12
ATOM     12  C   UNL A   1      32.467  25.710  22.149  1.00  0.00     0.317 C 
ATOM     13  O   UNL A   1      33.280  25.953  21.251  1.00  0.00    -0.249 OA
ATOM     14  N   UNL A   1      32.145  24.412  22.278  1.00  0.00    -0.341 N 
ATOM     15  C   UNL A   1      31.358  23.598  23.176  1.00  0.00     0.144 C 
ATOM     16  H   UNL A   1      32.558  23.868  21.568  1.00  0.00     0.165 HD
ENDBRANCH   8  12
ENDBRANCH   7   8
ENDBRANCH   4   7
ENDBRANCH   2   3
ENDBRANCH   1   2
BRANCH   1  17
ATOM     17  C   UNL A   1      31.333  32.070  26.665  1.00  0.00     0.023 C 
BRANCH  17  18
ATOM     18  C   UNL A   1      32.587  32.914  26.856  1.00  0.00     0.116 C 
BRANCH  18  19
ATOM     19  N   UNL A   1      32.357  34.140  27.606  1.00  0.00    -0.352 N 
ATOM     20  C   UNL A   1      33.043  34.624  28.693  1.00  0.00     0.251 C 
ATOM     21  H   UNL A   1      31.610  34.698  27.291  1.00  0.00     0.163 HD
ATOM     22  O   UNL A   1      32.663  35.640  29.266  1.00  0.00    -0.269 OA
BRANCH  20  23
ATOM     23  C   UNL A   1      34.220  33.889  29.200  1.00  0.00     0.039 A 
ATOM     24  C   UNL A   1      35.493  34.417  28.972  1.00  0.00     0.014 A 
ATOM     25  C   UNL A   1      34.070  32.703  29.925  1.00  0.00     0.014 A 
ATOM     26  C   UNL A   1      36.610  33.797  29.532  1.00  0.00     0.010 A 
ATOM     27  C   UNL A   1      35.175  32.125  30.540  1.00  0.00     0.010 A 
ATOM     28  C   UNL A   1      36.456  32.668  30.353  1.00  0.00    -0.014 A 
BRANCH  28  29
ATOM     29  C   UNL A   1      37.620  32.047  31.033  1.00  0.00     0.031 A 
ATOM     30  C   UNL A   1      38.425  30.988  30.335  1.00  0.00     0.074 A 
ATOM     31  C   UNL A   1      37.906  32.384  32.306  1.00  0.00     0.049 A 
ATOM     32  N   UNL A   1      39.425  30.274  30.788  1.00  0.00    -0.248 NA
ATOM     33  C   UNL A   1      38.039  30.670  28.952  1.00  0.00     0.031 C 
ATOM     34  C   UNL A   1      37.168  33.362  33.107  1.00  0.00     0.029 A 
ATOM     35  N   UNL A   1      38.887  31.933  33.153  1.00  0.00    -0.354 N 
ATOM     36  C   UNL A   1      39.775  29.417  29.754  1.00  0.00     0.074 A 
ATOM     37  C   UNL A   1      38.848  29.660  28.670  1.00  0.00     0.031 C 
ATOM     38  C   UNL A   1      37.735  33.453  34.322  1.00  0.00     0.029 A 
ATOM     39  C   UNL A   1      38.851  32.514  34.397  1.00  0.00     0.049 A 
ATOM     40  H   UNL A   1      39.553  31.257  32.893  1.00  0.00     0.167 HD
ATOM     41  C   UNL A   1      40.791  28.524  29.705  1.00  0.00     0.037 A 
ATOM     42  C   UNL A   1      39.625  32.308  35.479  1.00  0.00     0.037 A 
ATOM     43  C   UNL A   1      41.727  28.301  30.777  1.00  0.00     0.049 A 
ATOM     44  C   UNL A   1      40.747  31.307  35.399  1.00  0.00     0.074 A 
ATOM     45  C   UNL A   1      42.827  27.461  30.803  1.00  0.00     0.029 A 
ATOM     46  N   UNL A   1      41.671  28.925  32.015  1.00  0.00    -0.354 N 
ATOM     47  N   UNL A   1      41.110  30.550  34.393  1.00  0.00    -0.248 NA
ATOM     48  C   UNL A   1      41.570  31.138  36.605  1.00  0.00     0.031 C 
ATOM     49  C   UNL A   1      43.411  27.544  32.070  1.00  0.00     0.029 A 
ATOM     50  C   UNL A   1      42.706  28.473  32.819  1.00  0.00     0.049 A 
ATOM     51  H   UNL A   1      40.997  29.590  32.283  1.00  0.00     0.167 HD
ATOM     52  C   UNL A   1      42.217  29.837  34.832  1.00  0.00     0.074 A 
ATOM     53  C   UNL A   1      42.476  30.264  36.192  1.00  0.00     0.031 C 
ATOM     54  C   UNL A   1      42.955  28.914  34.168  1.00  0.00     0.037 A 
BRANCH  41  55
ATOM     55  C   UNL A   1      40.950  27.721  28.447  1.00  0.00     0.064 A 
ATOM     56  C   UNL A   1      41.778  28.153  27.400  1.00  0.00     0.173 A 
ATOM     57  C   UNL A   1      40.292  26.491  28.298  1.00  0.00     0.173 A 
ATOM     58  F   UNL A   1      42.419  29.328  27.487  1.00  0.00    -0.203 F 
ATOM     59  C   UNL A   1      41.918  27.398  26.238  1.00  0.00     0.198 A 
ATOM     60  C   UNL A   1      40.460  25.723  27.148  1.00  0.00     0.198 A 
ATOM     61  F   UNL A   1      39.492  26.028  29.270  1.00  0.00    -0.203 F 
ATOM     62  F   UNL A   1      42.675  27.855  25.231  1.00  0.00    -0.200 F 
ATOM     63  C   UNL A   1      41.266  26.181  26.117  1.00  0.00     0.200 A 
ATOM     64  F   UNL A   1      39.838  24.541  27.037  1.00  0.00    -0.200 F 
ATOM     65  F   UNL A   1      41.408  25.451  25.002  1.00  0.00    -0.200 F 
ENDBRANCH  41  55
BRANCH  42  66
ATOM     66  C   UNL A   1      39.387  33.084  36.723  1.00  0.00     0.064 A 
ATOM     67  C   UNL A   1      38.469  32.635  37.683  1.00  0.00     0.173 A 
ATOM     68  C   UNL A   1      40.061  34.288  36.975  1.00  0.00     0.173 A 
ATOM     69  F   UNL A   1      37.784  31.501  37.477  1.00  0.00    -0.203 F 
ATOM     70  C   UNL A   1      38.220  33.371  38.841  1.00  0.00     0.198 A 
ATOM     71  C   UNL A   1      39.831  35.008  38.146  1.00  0.00     0.198 A 
ATOM     72  F   UNL A   1      40.951  34.758  36.090  1.00  0.00    -0.203 F 
ATOM     73  F   UNL A   1      37.305  32.943  39.720  1.00  0.00    -0.200 F 
ATOM     74  C   UNL A   1      38.906  34.554  39.073  1.00  0.00     0.200 A 
ATOM     75  F   UNL A   1      40.504  36.144  38.373  1.00  0.00    -0.200 F 
ATOM     76  F   UNL A   1      38.668  35.260  40.187  1.00  0.00    -0.200 F 
ENDBRANCH  42  66
BRANCH  54  77
ATOM     77  C   UNL A   1      44.134  28.328  34.887  1.00  0.00     0.064 A 
ATOM     78  C   UNL A   1      44.032  27.139  35.623  1.00  0.00     0.173 A 
ATOM     79  C   UNL A   1      45.392  28.944  34.804  1.00  0.00     0.173 A 
ATOM     80  F   UNL A   1      42.847  26.520  35.745  1.00  0.00    -0.203 F 
ATOM     81  C   UNL A   1      45.141  26.600  36.270  1.00  0.00     0.198 A 
ATOM     82  C   UNL A   1      46.504  28.387  35.428  1.00  0.00     0.198 A 
ATOM     83  F   UNL A   1      45.545  30.080  34.107  1.00  0.00    -0.203 F 
ATOM     84  F   UNL A   1      45.009  25.488  37.005  1.00  0.00    -0.200 F 
ATOM     85  C   UNL A   1      46.377  27.220  36.165  1.00  0.00     0.200 A 
ATOM     86  F   UNL A   1      47.702  28.980  35.315  1.00  0.00    -0.200 F 
ATOM     87  F   UNL A   1      47.445  26.696  36.783  1.00  0.00    -0.200 F 
ENDBRANCH  54  77
ENDBRANCH  28  29
ENDBRANCH  20  23
ENDBRANCH  18  19
ENDBRANCH  17  18
ENDBRANCH   1  17
TORSDOF 15
ENDMDL
