MODEL 1
REMARK VINA RESULT:     -13.3      0.000      0.000
REMARK SMILES O=C(NCCCCNC(=O)c1nnn(-c2cccc(OC(F)(F)F)c2)c1-c1ccncc1)c1ccc(-c2c3nc(c(-c4c(F)c(F)c(F)c(F)c4F)c4ccc([nH]4)c(-c4c(F)c(F)c(F)c(F)c4F)c4nc(c(-c5c(F)c(F)c(F)c(F)c5F)c5ccc2[nH]5)C=C4)C=C3)cc1
REMARK SMILES IDX 6 1 5 2 4 3 3 4 1 5 2 6 33 8 34 9 95 10 35 11 94 12 36 13
REMARK SMILES IDX 37 14 38 15 88 16 39 17 93 18 87 19 89 20 40 21 92 22 86 23
REMARK SMILES IDX 85 24 41 26 73 27 53 28 72 29 54 30 57 31 71 32 90 33 55 34
REMARK SMILES IDX 56 35 70 37 91 38 58 39 42 40 43 41 51 42 44 43 45 44 49 45
REMARK SMILES IDX 52 46 46 47 47 48 50 49 48 50 74 51 75 52 83 53 76 54 77 55
REMARK SMILES IDX 81 56 84 57 78 58 79 59 82 60 80 61 59 62 60 63 68 64 61 65
REMARK SMILES IDX 62 66 66 67 69 68 63 69 64 70 67 71 65 72 7 73 8 74 9 75
REMARK SMILES IDX 10 77 11 78 12 79 26 80 13 81 14 82 27 83 28 84 32 85 29 86
REMARK SMILES IDX 31 87 30 88 15 89 16 90 25 91 17 92 19 93 18 94 20 95 21 96
REMARK SMILES IDX 22 97 23 98 24 99
REMARK H PARENT 3 7 89 25 57 36 8 76
REMARK Flexibility Score: inf
ROOT
ATOM      1  C   UNL A   1      35.103  22.837  24.166  1.00  0.00     0.023 C 
ENDROOT
BRANCH   1   2
ATOM      2  C   UNL A   1      36.610  22.612  24.280  1.00  0.00     0.023 C 
BRANCH   2   3
ATOM      3  C   UNL A   1      37.106  21.976  25.585  1.00  0.00     0.116 C 
BRANCH   3   4
ATOM      4  N   UNL A   1      38.463  21.464  25.565  1.00  0.00    -0.352 N 
ATOM      5  O   UNL A   1      40.590  21.061  26.030  1.00  0.00    -0.269 OA
ATOM      6  C   UNL A   1      39.641  21.838  26.154  1.00  0.00     0.251 C 
ATOM      7  H   UNL A   1      38.559  20.665  24.997  1.00  0.00     0.163 HD
BRANCH   6   8
ATOM      8  C   UNL A   1      39.867  23.127  26.867  1.00  0.00     0.039 A 
ATOM      9  C   UNL A   1      39.113  24.287  26.697  1.00  0.00     0.014 A 
ATOM     10  C   UNL A   1      40.959  23.170  27.753  1.00  0.00     0.014 A 
ATOM     11  C   UNL A   1      39.513  25.489  27.271  1.00  0.00     0.010 A 
ATOM     12  C   UNL A   1      41.333  24.357  28.377  1.00  0.00     0.010 A 
ATOM     13  C   UNL A   1      40.639  25.533  28.090  1.00  0.00    -0.014 A 
BRANCH  13  14
ATOM     14  C   UNL A   1      40.997  26.819  28.690  1.00  0.00     0.031 A 
ATOM     15  C   UNL A   1      42.251  27.470  28.195  1.00  0.00     0.074 A 
ATOM     16  C   UNL A   1      40.172  27.480  29.526  1.00  0.00     0.049 A 
ATOM     17  N   UNL A   1      43.211  28.020  28.875  1.00  0.00    -0.248 NA
ATOM     18  C   UNL A   1      42.465  27.495  26.739  1.00  0.00     0.031 C 
ATOM     19  C   UNL A   1      38.792  27.136  29.877  1.00  0.00     0.029 A 
ATOM     20  N   UNL A   1      40.363  28.682  30.143  1.00  0.00    -0.354 N 
ATOM     21  C   UNL A   1      44.074  28.589  27.935  1.00  0.00     0.074 A 
ATOM     22  C   UNL A   1      43.609  28.169  26.640  1.00  0.00     0.031 C 
ATOM     23  C   UNL A   1      38.202  28.209  30.445  1.00  0.00     0.029 A 
ATOM     24  C   UNL A   1      39.193  29.260  30.605  1.00  0.00     0.049 A 
ATOM     25  H   UNL A   1      41.248  29.099  30.250  1.00  0.00     0.167 HD
ATOM     26  C   UNL A   1      45.024  29.507  28.268  1.00  0.00     0.037 A 
ATOM     27  C   UNL A   1      39.022  30.543  31.004  1.00  0.00     0.037 A 
ATOM     28  C   UNL A   1      45.406  29.418  29.649  1.00  0.00     0.049 A 
ATOM     29  C   UNL A   1      40.351  31.119  31.308  1.00  0.00     0.074 A 
ATOM     30  C   UNL A   1      45.969  28.437  30.443  1.00  0.00     0.029 A 
ATOM     31  N   UNL A   1      45.001  30.395  30.521  1.00  0.00    -0.354 N 
ATOM     32  N   UNL A   1      41.090  30.787  32.328  1.00  0.00    -0.248 NA
ATOM     33  C   UNL A   1      41.036  31.850  30.251  1.00  0.00     0.031 C 
ATOM     34  C   UNL A   1      45.426  28.651  31.744  1.00  0.00     0.029 A 
ATOM     35  C   UNL A   1      44.572  29.749  31.650  1.00  0.00     0.049 A 
ATOM     36  H   UNL A   1      45.015  31.366  30.366  1.00  0.00     0.167 HD
ATOM     37  C   UNL A   1      42.394  30.902  31.871  1.00  0.00     0.074 A 
ATOM     38  C   UNL A   1      42.300  31.672  30.638  1.00  0.00     0.031 C 
ATOM     39  C   UNL A   1      43.392  30.128  32.386  1.00  0.00     0.037 A 
BRANCH  26  40
ATOM     40  C   UNL A   1      45.401  30.686  27.401  1.00  0.00     0.064 A 
ATOM     41  C   UNL A   1      46.759  30.939  27.117  1.00  0.00     0.173 A 
ATOM     42  C   UNL A   1      44.511  31.739  27.097  1.00  0.00     0.173 A 
ATOM     43  F   UNL A   1      47.698  30.019  27.383  1.00  0.00    -0.203 F 
ATOM     44  C   UNL A   1      47.198  32.179  26.642  1.00  0.00     0.198 A 
ATOM     45  C   UNL A   1      44.947  32.956  26.573  1.00  0.00     0.198 A 
ATOM     46  F   UNL A   1      43.208  31.673  27.394  1.00  0.00    -0.203 F 
ATOM     47  F   UNL A   1      48.510  32.414  26.509  1.00  0.00    -0.200 F 
ATOM     48  C   UNL A   1      46.292  33.189  26.376  1.00  0.00     0.200 A 
ATOM     49  F   UNL A   1      44.056  33.930  26.337  1.00  0.00    -0.200 F 
ATOM     50  F   UNL A   1      46.715  34.397  25.982  1.00  0.00    -0.200 F 
ENDBRANCH  26  40
BRANCH  27  51
ATOM     51  C   UNL A   1      37.806  31.374  30.857  1.00  0.00     0.064 A 
ATOM     52  C   UNL A   1      37.349  31.778  29.595  1.00  0.00     0.173 A 
ATOM     53  C   UNL A   1      36.932  31.585  31.942  1.00  0.00     0.173 A 
ATOM     54  F   UNL A   1      38.096  31.560  28.503  1.00  0.00    -0.203 F 
ATOM     55  C   UNL A   1      36.087  32.359  29.429  1.00  0.00     0.198 A 
ATOM     56  C   UNL A   1      35.682  32.177  31.777  1.00  0.00     0.198 A 
ATOM     57  F   UNL A   1      37.237  31.139  33.169  1.00  0.00    -0.203 F 
ATOM     58  F   UNL A   1      35.659  32.684  28.201  1.00  0.00    -0.200 F 
ATOM     59  C   UNL A   1      35.254  32.555  30.518  1.00  0.00     0.200 A 
ATOM     60  F   UNL A   1      34.872  32.327  32.835  1.00  0.00    -0.200 F 
ATOM     61  F   UNL A   1      34.028  33.068  30.352  1.00  0.00    -0.200 F 
ENDBRANCH  27  51
BRANCH  39  62
ATOM     62  C   UNL A   1      43.110  29.371  33.649  1.00  0.00     0.064 A 
ATOM     63  C   UNL A   1      43.332  29.902  34.931  1.00  0.00     0.173 A 
ATOM     64  C   UNL A   1      42.458  28.134  33.563  1.00  0.00     0.173 A 
ATOM     65  F   UNL A   1      43.846  31.129  35.087  1.00  0.00    -0.203 F 
ATOM     66  C   UNL A   1      42.966  29.198  36.075  1.00  0.00     0.198 A 
ATOM     67  C   UNL A   1      42.061  27.449  34.709  1.00  0.00     0.198 A 
ATOM     68  F   UNL A   1      42.160  27.612  32.363  1.00  0.00    -0.203 F 
ATOM     69  F   UNL A   1      43.199  29.721  37.289  1.00  0.00    -0.200 F 
ATOM     70  C   UNL A   1      42.326  27.975  35.963  1.00  0.00     0.200 A 
ATOM     71  F   UNL A   1      41.394  26.292  34.597  1.00  0.00    -0.200 F 
ATOM     72  F   UNL A   1      41.935  27.318  37.064  1.00  0.00    -0.200 F 
ENDBRANCH  39  62
ENDBRANCH  13  14
ENDBRANCH   6   8
ENDBRANCH   3   4
ENDBRANCH   2   3
ENDBRANCH   1   2
BRANCH   1  73
ATOM     73  C   UNL A   1      34.561  23.974  25.013  1.00  0.00     0.116 C 
BRANCH  73  74
ATOM     74  N   UNL A   1      33.695  23.543  26.089  1.00  0.00    -0.351 N 
ATOM     75  C   UNL A   1      32.358  23.841  26.275  1.00  0.00     0.274 C 
ATOM     76  H   UNL A   1      34.108  22.966  26.772  1.00  0.00     0.163 HD
ATOM     77  O   UNL A   1      31.783  23.393  27.251  1.00  0.00    -0.267 OA
BRANCH  75  78
ATOM     78  C   UNL A   1      31.690  24.684  25.290  1.00  0.00     0.178 A 
ATOM     79  N   UNL A   1      30.808  24.164  24.377  1.00  0.00    -0.124 NA
ATOM     80  C   UNL A   1      31.741  26.064  25.146  1.00  0.00     0.108 A 
ATOM     81  N   UNL A   1      30.252  25.170  23.716  1.00  0.00    -0.061 NA
ATOM     82  N   UNL A   1      30.893  26.303  24.069  1.00  0.00    -0.212 N 
BRANCH  80  83
ATOM     83  C   UNL A   1      32.327  27.101  26.000  1.00  0.00     0.006 A 
ATOM     84  C   UNL A   1      31.551  27.808  26.916  1.00  0.00     0.030 A 
ATOM     85  C   UNL A   1      33.677  27.445  25.848  1.00  0.00     0.030 A 
ATOM     86  C   UNL A   1      32.156  28.832  27.626  1.00  0.00     0.111 A 
ATOM     87  C   UNL A   1      34.187  28.490  26.597  1.00  0.00     0.111 A 
ATOM     88  N   UNL A   1      33.447  29.198  27.473  1.00  0.00    -0.265 NA
ENDBRANCH  80  83
BRANCH  82  89
ATOM     89  C   UNL A   1      30.623  27.542  23.447  1.00  0.00     0.071 A 
ATOM     90  C   UNL A   1      31.585  28.129  22.622  1.00  0.00     0.029 A 
ATOM     91  C   UNL A   1      29.352  28.120  23.594  1.00  0.00     0.075 A 
ATOM     92  C   UNL A   1      31.230  29.245  21.869  1.00  0.00     0.006 A 
ATOM     93  C   UNL A   1      29.007  29.252  22.862  1.00  0.00     0.131 A 
ATOM     94  C   UNL A   1      29.947  29.794  21.980  1.00  0.00     0.047 A 
BRANCH  93  95
ATOM     95  O   UNL A   1      27.804  29.896  22.901  1.00  0.00    -0.406 OA
BRANCH  95  96
ATOM     96  C   UNL A   1      27.788  31.236  23.372  1.00  0.00     0.573 C 
ATOM     97  F   UNL A   1      27.665  32.111  22.351  1.00  0.00    -0.132 F 
ATOM     98  F   UNL A   1      26.779  31.430  24.249  1.00  0.00    -0.132 F 
ATOM     99  F   UNL A   1      28.952  31.491  24.007  1.00  0.00    -0.132 F 
ENDBRANCH  95  96
ENDBRANCH  93  95
ENDBRANCH  82  89
ENDBRANCH  75  78
ENDBRANCH  73  74
ENDBRANCH   1  73
TORSDOF 15
ENDMDL
MODEL 2
REMARK VINA RESULT:     -13.3      3.775      8.754
REMARK SMILES O=C(NCCCCNC(=O)c1nnn(-c2cccc(OC(F)(F)F)c2)c1-c1ccncc1)c1ccc(-c2c3nc(c(-c4c(F)c(F)c(F)c(F)c4F)c4ccc([nH]4)c(-c4c(F)c(F)c(F)c(F)c4F)c4nc(c(-c5c(F)c(F)c(F)c(F)c5F)c5ccc2[nH]5)C=C4)C=C3)cc1
REMARK SMILES IDX 6 1 5 2 4 3 3 4 1 5 2 6 33 8 34 9 95 10 35 11 94 12 36 13
REMARK SMILES IDX 37 14 38 15 88 16 39 17 93 18 87 19 89 20 40 21 92 22 86 23
REMARK SMILES IDX 85 24 41 26 73 27 53 28 72 29 54 30 57 31 71 32 90 33 55 34
REMARK SMILES IDX 56 35 70 37 91 38 58 39 42 40 43 41 51 42 44 43 45 44 49 45
REMARK SMILES IDX 52 46 46 47 47 48 50 49 48 50 74 51 75 52 83 53 76 54 77 55
REMARK SMILES IDX 81 56 84 57 78 58 79 59 82 60 80 61 59 62 60 63 68 64 61 65
REMARK SMILES IDX 62 66 66 67 69 68 63 69 64 70 67 71 65 72 7 73 8 74 9 75
REMARK SMILES IDX 10 77 11 78 12 79 26 80 13 81 14 82 27 83 28 84 32 85 29 86
REMARK SMILES IDX 31 87 30 88 15 89 16 90 25 91 17 92 19 93 18 94 20 95 21 96
REMARK SMILES IDX 22 97 23 98 24 99
REMARK H PARENT 3 7 89 25 57 36 8 76
REMARK Flexibility Score: inf
ROOT
ATOM      1  C   UNL A   1      32.471  29.024  27.034  1.00  0.00     0.023 C 
ENDROOT
BRANCH   1   2
ATOM      2  C   UNL A   1      33.977  29.157  27.251  1.00  0.00     0.023 C 
BRANCH   2   3
ATOM      3  C   UNL A   1      34.541  30.584  27.250  1.00  0.00     0.116 C 
BRANCH   3   4
ATOM      4  N   UNL A   1      34.389  31.327  28.486  1.00  0.00    -0.352 N 
ATOM      5  O   UNL A   1      34.782  32.419  30.372  1.00  0.00    -0.269 OA
ATOM      6  C   UNL A   1      35.210  31.612  29.544  1.00  0.00     0.251 C 
ATOM      7  H   UNL A   1      33.489  31.714  28.588  1.00  0.00     0.163 HD
BRANCH   6   8
ATOM      8  C   UNL A   1      36.535  30.975  29.791  1.00  0.00     0.039 A 
ATOM      9  C   UNL A   1      37.769  31.618  29.705  1.00  0.00     0.014 A 
ATOM     10  C   UNL A   1      36.522  29.602  30.099  1.00  0.00     0.014 A 
ATOM     11  C   UNL A   1      38.956  30.897  29.776  1.00  0.00     0.010 A 
ATOM     12  C   UNL A   1      37.708  28.883  30.228  1.00  0.00     0.010 A 
ATOM     13  C   UNL A   1      38.928  29.524  30.010  1.00  0.00    -0.014 A 
BRANCH  13  14
ATOM     14  C   UNL A   1      40.208  28.822  30.103  1.00  0.00     0.031 A 
ATOM     15  C   UNL A   1      40.804  28.678  31.469  1.00  0.00     0.074 A 
ATOM     16  C   UNL A   1      40.762  28.188  29.049  1.00  0.00     0.049 A 
ATOM     17  N   UNL A   1      42.026  28.883  31.855  1.00  0.00    -0.248 NA
ATOM     18  C   UNL A   1      39.900  28.262  32.554  1.00  0.00     0.031 C 
ATOM     19  C   UNL A   1      40.172  27.972  27.726  1.00  0.00     0.029 A 
ATOM     20  N   UNL A   1      41.931  27.487  28.992  1.00  0.00    -0.354 N 
ATOM     21  C   UNL A   1      42.083  28.482  33.192  1.00  0.00     0.074 A 
ATOM     22  C   UNL A   1      40.733  28.183  33.590  1.00  0.00     0.031 C 
ATOM     23  C   UNL A   1      40.871  27.012  27.084  1.00  0.00     0.029 A 
ATOM     24  C   UNL A   1      42.016  26.640  27.900  1.00  0.00     0.049 A 
ATOM     25  H   UNL A   1      42.647  27.575  29.662  1.00  0.00     0.167 HD
ATOM     26  C   UNL A   1      43.257  28.260  33.846  1.00  0.00     0.037 A 
ATOM     27  C   UNL A   1      42.906  25.636  27.717  1.00  0.00     0.037 A 
ATOM     28  C   UNL A   1      44.353  28.972  33.252  1.00  0.00     0.049 A 
ATOM     29  C   UNL A   1      44.055  25.858  28.624  1.00  0.00     0.074 A 
ATOM     30  C   UNL A   1      44.643  30.304  33.028  1.00  0.00     0.029 A 
ATOM     31  N   UNL A   1      45.299  28.276  32.545  1.00  0.00    -0.354 N 
ATOM     32  N   UNL A   1      44.935  26.809  28.492  1.00  0.00    -0.248 NA
ATOM     33  C   UNL A   1      44.032  25.204  29.925  1.00  0.00     0.031 C 
ATOM     34  C   UNL A   1      45.412  30.323  31.827  1.00  0.00     0.029 A 
ATOM     35  C   UNL A   1      45.538  29.000  31.406  1.00  0.00     0.049 A 
ATOM     36  H   UNL A   1      45.721  27.426  32.803  1.00  0.00     0.167 HD
ATOM     37  C   UNL A   1      45.290  27.143  29.789  1.00  0.00     0.074 A 
ATOM     38  C   UNL A   1      44.801  26.048  30.615  1.00  0.00     0.031 C 
ATOM     39  C   UNL A   1      45.701  28.406  30.103  1.00  0.00     0.037 A 
BRANCH  26  40
ATOM     40  C   UNL A   1      43.464  27.161  34.862  1.00  0.00     0.064 A 
ATOM     41  C   UNL A   1      43.824  27.490  36.185  1.00  0.00     0.173 A 
ATOM     42  C   UNL A   1      43.621  25.802  34.511  1.00  0.00     0.173 A 
ATOM     43  F   UNL A   1      43.737  28.754  36.625  1.00  0.00    -0.203 F 
ATOM     44  C   UNL A   1      44.373  26.547  37.060  1.00  0.00     0.198 A 
ATOM     45  C   UNL A   1      44.119  24.854  35.404  1.00  0.00     0.198 A 
ATOM     46  F   UNL A   1      43.402  25.363  33.266  1.00  0.00    -0.203 F 
ATOM     47  F   UNL A   1      44.819  26.936  38.263  1.00  0.00    -0.200 F 
ATOM     48  C   UNL A   1      44.527  25.231  36.666  1.00  0.00     0.200 A 
ATOM     49  F   UNL A   1      44.276  23.585  34.999  1.00  0.00    -0.200 F 
ATOM     50  F   UNL A   1      45.110  24.341  37.479  1.00  0.00    -0.200 F 
ENDBRANCH  26  40
BRANCH  27  51
ATOM     51  C   UNL A   1      42.681  24.354  27.013  1.00  0.00     0.064 A 
ATOM     52  C   UNL A   1      43.268  24.095  25.766  1.00  0.00     0.173 A 
ATOM     53  C   UNL A   1      42.079  23.260  27.665  1.00  0.00     0.173 A 
ATOM     54  F   UNL A   1      43.912  25.069  25.107  1.00  0.00    -0.203 F 
ATOM     55  C   UNL A   1      43.254  22.814  25.206  1.00  0.00     0.198 A 
ATOM     56  C   UNL A   1      42.052  21.987  27.099  1.00  0.00     0.198 A 
ATOM     57  F   UNL A   1      41.583  23.385  28.905  1.00  0.00    -0.203 F 
ATOM     58  F   UNL A   1      43.872  22.590  24.037  1.00  0.00    -0.200 F 
ATOM     59  C   UNL A   1      42.649  21.761  25.873  1.00  0.00     0.200 A 
ATOM     60  F   UNL A   1      41.495  20.971  27.773  1.00  0.00    -0.200 F 
ATOM     61  F   UNL A   1      42.677  20.525  25.358  1.00  0.00    -0.200 F 
ENDBRANCH  27  51
BRANCH  39  62
ATOM     62  C   UNL A   1      46.043  29.332  28.975  1.00  0.00     0.064 A 
ATOM     63  C   UNL A   1      45.084  30.093  28.286  1.00  0.00     0.173 A 
ATOM     64  C   UNL A   1      47.392  29.570  28.683  1.00  0.00     0.173 A 
ATOM     65  F   UNL A   1      43.783  30.002  28.593  1.00  0.00    -0.203 F 
ATOM     66  C   UNL A   1      45.459  31.011  27.309  1.00  0.00     0.198 A 
ATOM     67  C   UNL A   1      47.766  30.515  27.731  1.00  0.00     0.198 A 
ATOM     68  F   UNL A   1      48.353  28.920  29.359  1.00  0.00    -0.203 F 
ATOM     69  F   UNL A   1      44.524  31.718  26.656  1.00  0.00    -0.200 F 
ATOM     70  C   UNL A   1      46.800  31.225  27.036  1.00  0.00     0.200 A 
ATOM     71  F   UNL A   1      49.065  30.758  27.507  1.00  0.00    -0.200 F 
ATOM     72  F   UNL A   1      47.163  32.140  26.126  1.00  0.00    -0.200 F 
ENDBRANCH  39  62
ENDBRANCH  13  14
ENDBRANCH   6   8
ENDBRANCH   3   4
ENDBRANCH   2   3
ENDBRANCH   1   2
BRANCH   1  73
ATOM     73  C   UNL A   1      31.890  27.668  27.393  1.00  0.00     0.116 C 
BRANCH  73  74
ATOM     74  N   UNL A   1      30.733  27.299  26.607  1.00  0.00    -0.351 N 
ATOM     75  C   UNL A   1      30.447  26.069  26.042  1.00  0.00     0.274 C 
ATOM     76  H   UNL A   1      30.068  28.009  26.457  1.00  0.00     0.163 HD
ATOM     77  O   UNL A   1      29.420  25.939  25.401  1.00  0.00    -0.267 OA
BRANCH  75  78
ATOM     78  C   UNL A   1      31.393  24.977  26.239  1.00  0.00     0.178 A 
ATOM     79  N   UNL A   1      31.232  24.059  27.247  1.00  0.00    -0.124 NA
ATOM     80  C   UNL A   1      32.493  24.627  25.468  1.00  0.00     0.108 A 
ATOM     81  N   UNL A   1      32.146  23.110  27.094  1.00  0.00    -0.061 NA
ATOM     82  N   UNL A   1      32.990  23.501  26.117  1.00  0.00    -0.212 N 
BRANCH  80  83
ATOM     83  C   UNL A   1      32.952  25.118  24.166  1.00  0.00     0.006 A 
ATOM     84  C   UNL A   1      33.475  26.401  24.021  1.00  0.00     0.030 A 
ATOM     85  C   UNL A   1      32.797  24.317  23.026  1.00  0.00     0.030 A 
ATOM     86  C   UNL A   1      33.807  26.827  22.745  1.00  0.00     0.111 A 
ATOM     87  C   UNL A   1      33.150  24.836  21.794  1.00  0.00     0.111 A 
ATOM     88  N   UNL A   1      33.639  26.081  21.631  1.00  0.00    -0.265 NA
ENDBRANCH  80  83
BRANCH  82  89
ATOM     89  C   UNL A   1      34.154  22.767  25.794  1.00  0.00     0.071 A 
ATOM     90  C   UNL A   1      34.058  21.405  25.505  1.00  0.00     0.029 A 
ATOM     91  C   UNL A   1      35.379  23.444  25.677  1.00  0.00     0.075 A 
ATOM     92  C   UNL A   1      35.177  20.746  25.004  1.00  0.00     0.006 A 
ATOM     93  C   UNL A   1      36.505  22.777  25.201  1.00  0.00     0.131 A 
ATOM     94  C   UNL A   1      36.387  21.431  24.842  1.00  0.00     0.047 A 
BRANCH  93  95
ATOM     95  O   UNL A   1      37.744  23.323  25.025  1.00  0.00    -0.406 OA
BRANCH  95  96
ATOM     96  C   UNL A   1      38.566  23.477  26.173  1.00  0.00     0.573 C 
ATOM     97  F   UNL A   1      37.892  24.078  27.178  1.00  0.00    -0.132 F 
ATOM     98  F   UNL A   1      39.032  22.284  26.601  1.00  0.00    -0.132 F 
ATOM     99  F   UNL A   1      39.624  24.253  25.854  1.00  0.00    -0.132 F 
ENDBRANCH  95  96
ENDBRANCH  93  95
ENDBRANCH  82  89
ENDBRANCH  75  78
ENDBRANCH  73  74
ENDBRANCH   1  73
TORSDOF 15
ENDMDL
MODEL 3
REMARK VINA RESULT:     -13.2      3.972      8.977
REMARK SMILES O=C(NCCCCNC(=O)c1nnn(-c2cccc(OC(F)(F)F)c2)c1-c1ccncc1)c1ccc(-c2c3nc(c(-c4c(F)c(F)c(F)c(F)c4F)c4ccc([nH]4)c(-c4c(F)c(F)c(F)c(F)c4F)c4nc(c(-c5c(F)c(F)c(F)c(F)c5F)c5ccc2[nH]5)C=C4)C=C3)cc1
REMARK SMILES IDX 6 1 5 2 4 3 3 4 1 5 2 6 33 8 34 9 95 10 35 11 94 12 36 13
REMARK SMILES IDX 37 14 38 15 88 16 39 17 93 18 87 19 89 20 40 21 92 22 86 23
REMARK SMILES IDX 85 24 41 26 73 27 53 28 72 29 54 30 57 31 71 32 90 33 55 34
REMARK SMILES IDX 56 35 70 37 91 38 58 39 42 40 43 41 51 42 44 43 45 44 49 45
REMARK SMILES IDX 52 46 46 47 47 48 50 49 48 50 74 51 75 52 83 53 76 54 77 55
REMARK SMILES IDX 81 56 84 57 78 58 79 59 82 60 80 61 59 62 60 63 68 64 61 65
REMARK SMILES IDX 62 66 66 67 69 68 63 69 64 70 67 71 65 72 7 73 8 74 9 75
REMARK SMILES IDX 10 77 11 78 12 79 26 80 13 81 14 82 27 83 28 84 32 85 29 86
REMARK SMILES IDX 31 87 30 88 15 89 16 90 25 91 17 92 19 93 18 94 20 95 21 96
REMARK SMILES IDX 22 97 23 98 24 99
REMARK H PARENT 3 7 89 25 57 36 8 76
REMARK Flexibility Score: inf
ROOT
ATOM      1  C   UNL A   1      32.754  28.562  26.460  1.00  0.00     0.023 C 
ENDROOT
BRANCH   1   2
ATOM      2  C   UNL A   1      33.173  29.884  27.103  1.00  0.00     0.023 C 
BRANCH   2   3
ATOM      3  C   UNL A   1      34.628  29.975  27.583  1.00  0.00     0.116 C 
BRANCH   3   4
ATOM      4  N   UNL A   1      34.896  30.966  28.607  1.00  0.00    -0.352 N 
ATOM      5  O   UNL A   1      35.898  32.310  30.054  1.00  0.00    -0.269 OA
ATOM      6  C   UNL A   1      35.982  31.282  29.379  1.00  0.00     0.251 C 
ATOM      7  H   UNL A   1      34.119  31.543  28.790  1.00  0.00     0.163 HD
BRANCH   6   8
ATOM      8  C   UNL A   1      37.212  30.449  29.503  1.00  0.00     0.039 A 
ATOM      9  C   UNL A   1      37.237  29.075  29.739  1.00  0.00     0.014 A 
ATOM     10  C   UNL A   1      38.440  31.128  29.410  1.00  0.00     0.014 A 
ATOM     11  C   UNL A   1      38.431  28.420  30.020  1.00  0.00     0.010 A 
ATOM     12  C   UNL A   1      39.646  30.468  29.633  1.00  0.00     0.010 A 
ATOM     13  C   UNL A   1      39.635  29.120  29.994  1.00  0.00    -0.014 A 
BRANCH  13  14
ATOM     14  C   UNL A   1      40.863  28.374  30.269  1.00  0.00     0.031 A 
ATOM     15  C   UNL A   1      41.302  28.297  31.699  1.00  0.00     0.074 A 
ATOM     16  C   UNL A   1      41.495  27.649  29.324  1.00  0.00     0.049 A 
ATOM     17  N   UNL A   1      42.484  28.476  32.203  1.00  0.00    -0.248 NA
ATOM     18  C   UNL A   1      40.269  27.992  32.702  1.00  0.00     0.031 C 
ATOM     19  C   UNL A   1      41.040  27.369  27.960  1.00  0.00     0.029 A 
ATOM     20  N   UNL A   1      42.629  26.897  29.439  1.00  0.00    -0.354 N 
ATOM     21  C   UNL A   1      42.379  28.163  33.561  1.00  0.00     0.074 A 
ATOM     22  C   UNL A   1      40.981  27.947  33.826  1.00  0.00     0.031 C 
ATOM     23  C   UNL A   1      41.756  26.341  27.460  1.00  0.00     0.029 A 
ATOM     24  C   UNL A   1      42.789  25.977  28.417  1.00  0.00     0.049 A 
ATOM     25  H   UNL A   1      43.272  27.000  30.176  1.00  0.00     0.167 HD
ATOM     26  C   UNL A   1      43.464  27.937  34.352  1.00  0.00     0.037 A 
ATOM     27  C   UNL A   1      43.643  24.927  28.395  1.00  0.00     0.037 A 
ATOM     28  C   UNL A   1      44.651  28.561  33.839  1.00  0.00     0.049 A 
ATOM     29  C   UNL A   1      44.698  25.161  29.408  1.00  0.00     0.074 A 
ATOM     30  C   UNL A   1      45.027  29.862  33.566  1.00  0.00     0.029 A 
ATOM     31  N   UNL A   1      45.632  27.782  33.284  1.00  0.00    -0.354 N 
ATOM     32  N   UNL A   1      45.632  26.064  29.314  1.00  0.00    -0.248 NA
ATOM     33  C   UNL A   1      44.505  24.597  30.736  1.00  0.00     0.031 C 
ATOM     34  C   UNL A   1      45.920  29.769  32.457  1.00  0.00     0.029 A 
ATOM     35  C   UNL A   1      46.026  28.417  32.136  1.00  0.00     0.049 A 
ATOM     36  H   UNL A   1      45.983  26.934  33.639  1.00  0.00     0.167 HD
ATOM     37  C   UNL A   1      45.863  26.469  30.619  1.00  0.00     0.074 A 
ATOM     38  C   UNL A   1      45.236  25.452  31.452  1.00  0.00     0.031 C 
ATOM     39  C   UNL A   1      46.298  27.732  30.898  1.00  0.00     0.037 A 
BRANCH  26  40
ATOM     40  C   UNL A   1      43.509  26.900  35.450  1.00  0.00     0.064 A 
ATOM     41  C   UNL A   1      43.856  27.285  36.762  1.00  0.00     0.173 A 
ATOM     42  C   UNL A   1      43.523  25.510  35.203  1.00  0.00     0.173 A 
ATOM     43  F   UNL A   1      43.897  28.581  37.108  1.00  0.00    -0.203 F 
ATOM     44  C   UNL A   1      44.262  26.355  37.724  1.00  0.00     0.198 A 
ATOM     45  C   UNL A   1      43.878  24.581  36.181  1.00  0.00     0.198 A 
ATOM     46  F   UNL A   1      43.300  25.006  33.983  1.00  0.00    -0.203 F 
ATOM     47  F   UNL A   1      44.706  26.780  38.915  1.00  0.00    -0.200 F 
ATOM     48  C   UNL A   1      44.280  25.004  37.430  1.00  0.00     0.200 A 
ATOM     49  F   UNL A   1      43.904  23.276  35.873  1.00  0.00    -0.200 F 
ATOM     50  F   UNL A   1      44.729  24.118  38.328  1.00  0.00    -0.200 F 
ENDBRANCH  26  40
BRANCH  27  51
ATOM     51  C   UNL A   1      43.433  23.612  27.751  1.00  0.00     0.064 A 
ATOM     52  C   UNL A   1      42.514  22.687  28.268  1.00  0.00     0.173 A 
ATOM     53  C   UNL A   1      43.955  23.333  26.472  1.00  0.00     0.173 A 
ATOM     54  F   UNL A   1      41.927  22.908  29.453  1.00  0.00    -0.203 F 
ATOM     55  C   UNL A   1      42.139  21.549  27.545  1.00  0.00     0.198 A 
ATOM     56  C   UNL A   1      43.593  22.192  25.760  1.00  0.00     0.198 A 
ATOM     57  F   UNL A   1      44.760  24.208  25.851  1.00  0.00    -0.203 F 
ATOM     58  F   UNL A   1      41.218  20.714  28.046  1.00  0.00    -0.200 F 
ATOM     59  C   UNL A   1      42.676  21.305  26.292  1.00  0.00     0.200 A 
ATOM     60  F   UNL A   1      44.092  21.987  24.533  1.00  0.00    -0.200 F 
ATOM     61  F   UNL A   1      42.281  20.240  25.580  1.00  0.00    -0.200 F 
ENDBRANCH  27  51
BRANCH  39  62
ATOM     62  C   UNL A   1      46.803  28.566  29.759  1.00  0.00     0.064 A 
ATOM     63  C   UNL A   1      45.964  29.341  28.942  1.00  0.00     0.173 A 
ATOM     64  C   UNL A   1      48.186  28.702  29.584  1.00  0.00     0.173 A 
ATOM     65  F   UNL A   1      44.637  29.349  29.128  1.00  0.00    -0.203 F 
ATOM     66  C   UNL A   1      46.487  30.174  27.956  1.00  0.00     0.198 A 
ATOM     67  C   UNL A   1      48.708  29.564  28.622  1.00  0.00     0.198 A 
ATOM     68  F   UNL A   1      49.035  28.037  30.383  1.00  0.00    -0.203 F 
ATOM     69  F   UNL A   1      45.665  30.897  27.180  1.00  0.00    -0.200 F 
ATOM     70  C   UNL A   1      47.859  30.289  27.801  1.00  0.00     0.200 A 
ATOM     71  F   UNL A   1      50.034  29.713  28.510  1.00  0.00    -0.200 F 
ATOM     72  F   UNL A   1      48.363  31.123  26.882  1.00  0.00    -0.200 F 
ENDBRANCH  39  62
ENDBRANCH  13  14
ENDBRANCH   6   8
ENDBRANCH   3   4
ENDBRANCH   2   3
ENDBRANCH   1   2
BRANCH   1  73
ATOM     73  C   UNL A   1      31.828  27.706  27.304  1.00  0.00     0.116 C 
BRANCH  73  74
ATOM     74  N   UNL A   1      30.700  27.168  26.576  1.00  0.00    -0.351 N 
ATOM     75  C   UNL A   1      30.556  25.898  26.048  1.00  0.00     0.274 C 
ATOM     76  H   UNL A   1      29.941  27.781  26.440  1.00  0.00     0.163 HD
ATOM     77  O   UNL A   1      29.531  25.617  25.454  1.00  0.00    -0.267 OA
BRANCH  75  78
ATOM     78  C   UNL A   1      31.645  24.944  26.227  1.00  0.00     0.178 A 
ATOM     79  N   UNL A   1      31.664  24.063  27.279  1.00  0.00    -0.124 NA
ATOM     80  C   UNL A   1      32.733  24.698  25.401  1.00  0.00     0.108 A 
ATOM     81  N   UNL A   1      32.682  23.231  27.106  1.00  0.00    -0.061 NA
ATOM     82  N   UNL A   1      33.409  23.677  26.061  1.00  0.00    -0.212 N 
BRANCH  80  83
ATOM     83  C   UNL A   1      33.047  25.180  24.053  1.00  0.00     0.006 A 
ATOM     84  C   UNL A   1      33.572  26.453  23.843  1.00  0.00     0.030 A 
ATOM     85  C   UNL A   1      32.747  24.380  22.941  1.00  0.00     0.030 A 
ATOM     86  C   UNL A   1      33.761  26.871  22.536  1.00  0.00     0.111 A 
ATOM     87  C   UNL A   1      32.963  24.891  21.675  1.00  0.00     0.111 A 
ATOM     88  N   UNL A   1      33.451  26.127  21.452  1.00  0.00    -0.265 NA
ENDBRANCH  80  83
BRANCH  82  89
ATOM     89  C   UNL A   1      34.636  23.081  25.692  1.00  0.00     0.071 A 
ATOM     90  C   UNL A   1      34.642  21.831  25.071  1.00  0.00     0.029 A 
ATOM     91  C   UNL A   1      35.828  23.800  25.874  1.00  0.00     0.075 A 
ATOM     92  C   UNL A   1      35.838  21.350  24.544  1.00  0.00     0.006 A 
ATOM     93  C   UNL A   1      37.028  23.306  25.371  1.00  0.00     0.131 A 
ATOM     94  C   UNL A   1      37.019  22.089  24.683  1.00  0.00     0.047 A 
BRANCH  93  95
ATOM     95  O   UNL A   1      38.247  23.914  25.464  1.00  0.00    -0.406 OA
BRANCH  95  96
ATOM     96  C   UNL A   1      39.038  23.632  26.609  1.00  0.00     0.573 C 
ATOM     97  F   UNL A   1      38.595  24.312  27.689  1.00  0.00    -0.132 F 
ATOM     98  F   UNL A   1      39.039  22.310  26.885  1.00  0.00    -0.132 F 
ATOM     99  F   UNL A   1      40.311  24.012  26.368  1.00  0.00    -0.132 F 
ENDBRANCH  95  96
ENDBRANCH  93  95
ENDBRANCH  82  89
ENDBRANCH  75  78
ENDBRANCH  73  74
ENDBRANCH   1  73
TORSDOF 15
ENDMDL
