MODEL 1
REMARK VINA RESULT:     -12.8      0.000      0.000
REMARK SMILES O=C(Cn1cc(C(=O)C(F)(F)F)c2ccccc21)NCCCCNC(=O)c1ccc(-c2c3nc(c(-c4c(F)c(F)c(F)c(F)c4F)c4ccc([nH]4)c(-c4c(F)c(F)c(F)c(F)c4F)c4nc(c(-c5c(F)c(F)c(F)c(F)c5F)c5ccc2[nH]5)C=C4)C=C3)cc1
REMARK SMILES IDX 21 1 20 2 19 3 1 4 2 5 3 7 4 8 5 9 18 10 6 11 13 12 17 13
REMARK SMILES IDX 14 14 16 15 15 16 7 17 8 18 9 19 10 20 11 21 12 22 22 23
REMARK SMILES IDX 23 24 24 25 25 26 26 28 27 29 28 30 89 31 29 32 88 33 30 34
REMARK SMILES IDX 31 35 32 36 82 37 33 38 87 39 81 40 83 41 34 42 86 43 80 44
REMARK SMILES IDX 79 45 35 47 67 48 47 49 66 50 48 51 51 52 65 53 84 54 49 55
REMARK SMILES IDX 50 56 64 58 85 59 52 60 36 61 37 62 45 63 38 64 39 65 43 66
REMARK SMILES IDX 46 67 40 68 41 69 44 70 42 71 68 72 69 73 77 74 70 75 71 76
REMARK SMILES IDX 75 77 78 78 72 79 73 80 76 81 74 82 53 83 54 84 62 85 55 86
REMARK SMILES IDX 56 87 60 88 63 89 57 90 58 91 61 92 59 93
REMARK H PARENT 19 6 24 27 83 46 51 57
REMARK Flexibility Score: inf
ROOT
ATOM      1  C   UNL A   1      32.645  28.083  27.263  1.00  0.00     0.023 C 
ENDROOT
BRANCH   1   2
ATOM      2  C   UNL A   1      33.447  27.539  26.082  1.00  0.00     0.116 C 
BRANCH   2   3
ATOM      3  N   UNL A   1      32.635  27.406  24.888  1.00  0.00    -0.355 N 
ATOM      4  O   UNL A   1      33.792  28.941  23.635  1.00  0.00    -0.273 OA
ATOM      5  C   UNL A   1      32.919  28.094  23.720  1.00  0.00     0.239 C 
ATOM      6  H   UNL A   1      31.854  26.806  24.910  1.00  0.00     0.163 HD
BRANCH   5   7
ATOM      7  C   UNL A   1      32.044  27.696  22.540  1.00  0.00     0.222 C 
BRANCH   7   8
ATOM      8  N   UNL A   1      30.761  28.392  22.548  1.00  0.00    -0.337 N 
ATOM      9  C   UNL A   1      30.553  29.631  21.994  1.00  0.00     0.099 A 
ATOM     10  C   UNL A   1      29.568  27.899  23.036  1.00  0.00     0.049 A 
ATOM     11  C   UNL A   1      29.244  30.015  22.218  1.00  0.00     0.053 A 
ATOM     12  C   UNL A   1      28.607  28.902  22.856  1.00  0.00     0.011 A 
ATOM     13  C   UNL A   1      29.247  26.663  23.626  1.00  0.00     0.027 A 
ATOM     14  C   UNL A   1      27.287  28.658  23.296  1.00  0.00     0.011 A 
ATOM     15  C   UNL A   1      27.928  26.446  24.037  1.00  0.00     0.002 A 
ATOM     16  C   UNL A   1      26.960  27.430  23.878  1.00  0.00     0.001 A 
BRANCH  11  17
ATOM     17  C   UNL A   1      28.652  31.309  21.846  1.00  0.00     0.268 C 
ATOM     18  O   UNL A   1      28.415  31.579  20.666  1.00  0.00    -0.284 OA
BRANCH  17  19
ATOM     19  C   UNL A   1      28.352  32.294  22.977  1.00  0.00     0.454 C 
ATOM     20  F   UNL A   1      27.243  31.949  23.697  1.00  0.00    -0.163 F 
ATOM     21  F   UNL A   1      29.368  32.369  23.890  1.00  0.00    -0.163 F 
ATOM     22  F   UNL A   1      28.139  33.571  22.550  1.00  0.00    -0.163 F 
ENDBRANCH  17  19
ENDBRANCH  11  17
ENDBRANCH   7   8
ENDBRANCH   5   7
ENDBRANCH   2   3
ENDBRANCH   1   2
BRANCH   1  23
ATOM     23  C   UNL A   1      32.383  29.597  27.250  1.00  0.00     0.023 C 
BRANCH  23  24
ATOM     24  C   UNL A   1      33.626  30.471  27.081  1.00  0.00     0.116 C 
BRANCH  24  25
ATOM     25  N   UNL A   1      33.936  31.275  28.244  1.00  0.00    -0.352 N 
ATOM     26  C   UNL A   1      35.072  31.563  28.947  1.00  0.00     0.251 C 
ATOM     27  H   UNL A   1      33.140  31.720  28.615  1.00  0.00     0.163 HD
ATOM     28  O   UNL A   1      34.967  32.451  29.796  1.00  0.00    -0.269 OA
BRANCH  26  29
ATOM     29  C   UNL A   1      36.372  30.847  28.825  1.00  0.00     0.039 A 
ATOM     30  C   UNL A   1      36.544  29.507  28.480  1.00  0.00     0.014 A 
ATOM     31  C   UNL A   1      37.510  31.600  29.180  1.00  0.00     0.014 A 
ATOM     32  C   UNL A   1      37.793  28.903  28.611  1.00  0.00     0.010 A 
ATOM     33  C   UNL A   1      38.760  31.008  29.297  1.00  0.00     0.010 A 
ATOM     34  C   UNL A   1      38.884  29.642  29.077  1.00  0.00    -0.014 A 
BRANCH  34  35
ATOM     35  C   UNL A   1      40.161  28.956  29.251  1.00  0.00     0.031 A 
ATOM     36  C   UNL A   1      40.617  28.816  30.666  1.00  0.00     0.074 A 
ATOM     37  C   UNL A   1      40.832  28.390  28.227  1.00  0.00     0.049 A 
ATOM     38  N   UNL A   1      41.718  29.239  31.197  1.00  0.00    -0.248 NA
ATOM     39  C   UNL A   1      39.681  28.216  31.631  1.00  0.00     0.031 C 
ATOM     40  C   UNL A   1      40.400  28.218  26.837  1.00  0.00     0.029 A 
ATOM     41  N   UNL A   1      42.037  27.756  28.244  1.00  0.00    -0.354 N 
ATOM     42  C   UNL A   1      41.691  28.826  32.529  1.00  0.00     0.074 A 
ATOM     43  C   UNL A   1      40.368  28.308  32.770  1.00  0.00     0.031 C 
ATOM     44  C   UNL A   1      41.210  27.326  26.223  1.00  0.00     0.029 A 
ATOM     45  C   UNL A   1      42.287  26.968  27.129  1.00  0.00     0.049 A 
ATOM     46  H   UNL A   1      42.678  27.849  28.985  1.00  0.00     0.167 HD
ATOM     47  C   UNL A   1      42.819  28.771  33.288  1.00  0.00     0.037 A 
ATOM     48  C   UNL A   1      43.261  26.029  27.009  1.00  0.00     0.037 A 
ATOM     49  C   UNL A   1      43.864  29.597  32.746  1.00  0.00     0.049 A 
ATOM     50  C   UNL A   1      44.303  26.347  28.023  1.00  0.00     0.074 A 
ATOM     51  C   UNL A   1      43.987  30.951  32.499  1.00  0.00     0.029 A 
ATOM     52  N   UNL A   1      44.876  29.001  32.036  1.00  0.00    -0.354 N 
ATOM     53  N   UNL A   1      45.058  27.410  27.976  1.00  0.00    -0.248 NA
ATOM     54  C   UNL A   1      44.167  25.727  29.334  1.00  0.00     0.031 C 
ATOM     55  C   UNL A   1      44.701  31.032  31.269  1.00  0.00     0.029 A 
ATOM     56  C   UNL A   1      45.023  29.731  30.884  1.00  0.00     0.049 A 
ATOM     57  H   UNL A   1      45.394  28.207  32.300  1.00  0.00     0.167 HD
ATOM     58  C   UNL A   1      45.145  27.836  29.293  1.00  0.00     0.074 A 
ATOM     59  C   UNL A   1      44.625  26.727  30.091  1.00  0.00     0.031 C 
ATOM     60  C   UNL A   1      45.354  29.147  29.607  1.00  0.00     0.037 A 
BRANCH  47  61
ATOM     61  C   UNL A   1      43.086  27.723  34.338  1.00  0.00     0.064 A 
ATOM     62  C   UNL A   1      43.288  28.113  35.677  1.00  0.00     0.173 A 
ATOM     63  C   UNL A   1      43.451  26.395  34.029  1.00  0.00     0.173 A 
ATOM     64  F   UNL A   1      42.997  29.361  36.076  1.00  0.00    -0.203 F 
ATOM     65  C   UNL A   1      43.879  27.261  36.613  1.00  0.00     0.198 A 
ATOM     66  C   UNL A   1      43.994  25.531  34.977  1.00  0.00     0.198 A 
ATOM     67  F   UNL A   1      43.405  25.920  32.778  1.00  0.00    -0.203 F 
ATOM     68  F   UNL A   1      44.166  27.716  37.840  1.00  0.00    -0.200 F 
ATOM     69  C   UNL A   1      44.238  25.972  36.261  1.00  0.00     0.200 A 
ATOM     70  F   UNL A   1      44.353  24.293  34.611  1.00  0.00    -0.200 F 
ATOM     71  F   UNL A   1      44.862  25.175  37.137  1.00  0.00    -0.200 F 
ENDBRANCH  47  61
BRANCH  48  72
ATOM     72  C   UNL A   1      43.144  24.688  26.372  1.00  0.00     0.064 A 
ATOM     73  C   UNL A   1      43.926  24.340  25.256  1.00  0.00     0.173 A 
ATOM     74  C   UNL A   1      42.464  23.627  27.005  1.00  0.00     0.173 A 
ATOM     75  F   UNL A   1      44.650  25.275  24.622  1.00  0.00    -0.203 F 
ATOM     76  C   UNL A   1      44.037  23.014  24.819  1.00  0.00     0.198 A 
ATOM     77  C   UNL A   1      42.567  22.308  26.561  1.00  0.00     0.198 A 
ATOM     78  F   UNL A   1      41.759  23.828  28.126  1.00  0.00    -0.203 F 
ATOM     79  F   UNL A   1      44.842  22.713  23.790  1.00  0.00    -0.200 F 
ATOM     80  C   UNL A   1      43.363  21.998  25.476  1.00  0.00     0.200 A 
ATOM     81  F   UNL A   1      41.939  21.331  27.232  1.00  0.00    -0.200 F 
ATOM     82  F   UNL A   1      43.515  20.722  25.095  1.00  0.00    -0.200 F 
ENDBRANCH  48  72
BRANCH  60  83
ATOM     83  C   UNL A   1      45.690  30.112  28.506  1.00  0.00     0.064 A 
ATOM     84  C   UNL A   1      44.722  30.793  27.748  1.00  0.00     0.173 A 
ATOM     85  C   UNL A   1      47.023  30.526  28.370  1.00  0.00     0.173 A 
ATOM     86  F   UNL A   1      43.419  30.525  27.893  1.00  0.00    -0.203 F 
ATOM     87  C   UNL A   1      45.076  31.829  26.884  1.00  0.00     0.198 A 
ATOM     88  C   UNL A   1      47.368  31.585  27.534  1.00  0.00     0.198 A 
ATOM     89  F   UNL A   1      47.982  29.951  29.111  1.00  0.00    -0.203 F 
ATOM     90  F   UNL A   1      44.130  32.475  26.186  1.00  0.00    -0.200 F 
ATOM     91  C   UNL A   1      46.397  32.233  26.790  1.00  0.00     0.200 A 
ATOM     92  F   UNL A   1      48.639  32.008  27.488  1.00  0.00    -0.200 F 
ATOM     93  F   UNL A   1      46.729  33.273  26.012  1.00  0.00    -0.200 F 
ENDBRANCH  60  83
ENDBRANCH  34  35
ENDBRANCH  26  29
ENDBRANCH  24  25
ENDBRANCH  23  24
ENDBRANCH   1  23
TORSDOF 14
ENDMDL
MODEL 2
REMARK VINA RESULT:     -12.8      4.626      9.620
REMARK SMILES O=C(Cn1cc(C(=O)C(F)(F)F)c2ccccc21)NCCCCNC(=O)c1ccc(-c2c3nc(c(-c4c(F)c(F)c(F)c(F)c4F)c4ccc([nH]4)c(-c4c(F)c(F)c(F)c(F)c4F)c4nc(c(-c5c(F)c(F)c(F)c(F)c5F)c5ccc2[nH]5)C=C4)C=C3)cc1
REMARK SMILES IDX 21 1 20 2 19 3 1 4 2 5 3 7 4 8 5 9 18 10 6 11 13 12 17 13
REMARK SMILES IDX 14 14 16 15 15 16 7 17 8 18 9 19 10 20 11 21 12 22 22 23
REMARK SMILES IDX 23 24 24 25 25 26 26 28 27 29 28 30 89 31 29 32 88 33 30 34
REMARK SMILES IDX 31 35 32 36 82 37 33 38 87 39 81 40 83 41 34 42 86 43 80 44
REMARK SMILES IDX 79 45 35 47 67 48 47 49 66 50 48 51 51 52 65 53 84 54 49 55
REMARK SMILES IDX 50 56 64 58 85 59 52 60 36 61 37 62 45 63 38 64 39 65 43 66
REMARK SMILES IDX 46 67 40 68 41 69 44 70 42 71 68 72 69 73 77 74 70 75 71 76
REMARK SMILES IDX 75 77 78 78 72 79 73 80 76 81 74 82 53 83 54 84 62 85 55 86
REMARK SMILES IDX 56 87 60 88 63 89 57 90 58 91 61 92 59 93
REMARK H PARENT 19 6 24 27 83 46 51 57
REMARK Flexibility Score: inf
ROOT
ATOM      1  C   UNL A   1      40.705  21.432  27.316  1.00  0.00     0.023 C 
ENDROOT
BRANCH   1   2
ATOM      2  C   UNL A   1      39.877  21.492  26.033  1.00  0.00     0.116 C 
BRANCH   2   3
ATOM      3  N   UNL A   1      38.539  21.994  26.273  1.00  0.00    -0.355 N 
ATOM      4  O   UNL A   1      37.633  21.215  24.313  1.00  0.00    -0.273 OA
ATOM      5  C   UNL A   1      37.492  21.758  25.396  1.00  0.00     0.239 C 
ATOM      6  H   UNL A   1      38.368  22.522  27.086  1.00  0.00     0.163 HD
BRANCH   5   7
ATOM      7  C   UNL A   1      36.140  22.232  25.906  1.00  0.00     0.222 C 
BRANCH   7   8
ATOM      8  N   UNL A   1      35.033  21.531  25.263  1.00  0.00    -0.337 N 
ATOM      9  C   UNL A   1      34.651  20.248  25.572  1.00  0.00     0.099 A 
ATOM     10  C   UNL A   1      34.172  22.053  24.320  1.00  0.00     0.049 A 
ATOM     11  C   UNL A   1      33.607  19.874  24.749  1.00  0.00     0.053 A 
ATOM     12  C   UNL A   1      33.280  21.031  23.970  1.00  0.00     0.011 A 
ATOM     13  C   UNL A   1      34.099  23.330  23.737  1.00  0.00     0.027 A 
ATOM     14  C   UNL A   1      32.295  21.300  22.993  1.00  0.00     0.011 A 
ATOM     15  C   UNL A   1      33.104  23.571  22.785  1.00  0.00     0.002 A 
ATOM     16  C   UNL A   1      32.215  22.570  22.415  1.00  0.00     0.001 A 
BRANCH  11  17
ATOM     17  C   UNL A   1      32.969  18.549  24.718  1.00  0.00     0.268 C 
ATOM     18  O   UNL A   1      32.113  18.239  25.552  1.00  0.00    -0.284 OA
BRANCH  17  19
ATOM     19  C   UNL A   1      33.411  17.582  23.618  1.00  0.00     0.454 C 
ATOM     20  F   UNL A   1      34.771  17.502  23.501  1.00  0.00    -0.163 F 
ATOM     21  F   UNL A   1      32.992  16.301  23.848  1.00  0.00    -0.163 F 
ATOM     22  F   UNL A   1      32.947  17.911  22.380  1.00  0.00    -0.163 F 
ENDBRANCH  17  19
ENDBRANCH  11  17
ENDBRANCH   7   8
ENDBRANCH   5   7
ENDBRANCH   2   3
ENDBRANCH   1   2
BRANCH   1  23
ATOM     23  C   UNL A   1      42.026  20.653  27.222  1.00  0.00     0.023 C 
BRANCH  23  24
ATOM     24  C   UNL A   1      42.053  19.543  26.171  1.00  0.00     0.116 C 
BRANCH  24  25
ATOM     25  N   UNL A   1      43.062  19.730  25.151  1.00  0.00    -0.352 N 
ATOM     26  C   UNL A   1      43.990  20.694  24.873  1.00  0.00     0.251 C 
ATOM     27  H   UNL A   1      43.085  18.988  24.505  1.00  0.00     0.163 HD
ATOM     28  O   UNL A   1      44.812  20.412  23.998  1.00  0.00    -0.269 OA
BRANCH  26  29
ATOM     29  C   UNL A   1      44.032  22.056  25.474  1.00  0.00     0.039 A 
ATOM     30  C   UNL A   1      44.817  22.453  26.556  1.00  0.00     0.014 A 
ATOM     31  C   UNL A   1      43.121  22.984  24.930  1.00  0.00     0.014 A 
ATOM     32  C   UNL A   1      44.607  23.692  27.158  1.00  0.00     0.010 A 
ATOM     33  C   UNL A   1      42.918  24.226  25.516  1.00  0.00     0.010 A 
ATOM     34  C   UNL A   1      43.616  24.550  26.672  1.00  0.00    -0.014 A 
BRANCH  34  35
ATOM     35  C   UNL A   1      43.393  25.814  27.367  1.00  0.00     0.031 A 
ATOM     36  C   UNL A   1      44.361  26.900  27.034  1.00  0.00     0.074 A 
ATOM     37  C   UNL A   1      42.328  26.029  28.168  1.00  0.00     0.049 A 
ATOM     38  N   UNL A   1      45.138  27.552  27.837  1.00  0.00    -0.248 NA
ATOM     39  C   UNL A   1      44.558  27.230  25.613  1.00  0.00     0.031 C 
ATOM     40  C   UNL A   1      41.166  25.165  28.393  1.00  0.00     0.029 A 
ATOM     41  N   UNL A   1      42.020  27.137  28.897  1.00  0.00    -0.354 N 
ATOM     42  C   UNL A   1      45.814  28.485  27.050  1.00  0.00     0.074 A 
ATOM     43  C   UNL A   1      45.508  28.163  25.679  1.00  0.00     0.031 C 
ATOM     44  C   UNL A   1      40.188  25.877  28.996  1.00  0.00     0.029 A 
ATOM     45  C   UNL A   1      40.698  27.198  29.317  1.00  0.00     0.049 A 
ATOM     46  H   UNL A   1      42.680  27.837  29.109  1.00  0.00     0.167 HD
ATOM     47  C   UNL A   1      46.431  29.571  27.592  1.00  0.00     0.037 A 
ATOM     48  C   UNL A   1      40.060  28.292  29.809  1.00  0.00     0.037 A 
ATOM     49  C   UNL A   1      46.705  29.382  28.990  1.00  0.00     0.049 A 
ATOM     50  C   UNL A   1      41.108  29.225  30.303  1.00  0.00     0.074 A 
ATOM     51  C   UNL A   1      47.466  28.478  29.707  1.00  0.00     0.029 A 
ATOM     52  N   UNL A   1      45.879  29.977  29.912  1.00  0.00    -0.354 N 
ATOM     53  N   UNL A   1      41.875  28.976  31.329  1.00  0.00    -0.248 NA
ATOM     54  C   UNL A   1      41.617  30.213  29.361  1.00  0.00     0.031 C 
ATOM     55  C   UNL A   1      46.701  28.206  30.878  1.00  0.00     0.029 A 
ATOM     56  C   UNL A   1      45.562  29.009  30.830  1.00  0.00     0.049 A 
ATOM     57  H   UNL A   1      45.575  30.913  29.913  1.00  0.00     0.167 HD
ATOM     58  C   UNL A   1      43.125  29.442  30.954  1.00  0.00     0.074 A 
ATOM     59  C   UNL A   1      42.892  30.246  29.755  1.00  0.00     0.031 C 
ATOM     60  C   UNL A   1      44.270  28.906  31.466  1.00  0.00     0.037 A 
BRANCH  47  61
ATOM     61  C   UNL A   1      46.496  30.926  26.936  1.00  0.00     0.064 A 
ATOM     62  C   UNL A   1      47.721  31.622  26.893  1.00  0.00     0.173 A 
ATOM     63  C   UNL A   1      45.350  31.690  26.625  1.00  0.00     0.173 A 
ATOM     64  F   UNL A   1      48.871  31.000  27.193  1.00  0.00    -0.203 F 
ATOM     65  C   UNL A   1      47.781  32.994  26.632  1.00  0.00     0.198 A 
ATOM     66  C   UNL A   1      45.419  33.046  26.316  1.00  0.00     0.198 A 
ATOM     67  F   UNL A   1      44.114  31.184  26.721  1.00  0.00    -0.203 F 
ATOM     68  F   UNL A   1      48.953  33.638  26.725  1.00  0.00    -0.200 F 
ATOM     69  C   UNL A   1      46.630  33.706  26.350  1.00  0.00     0.200 A 
ATOM     70  F   UNL A   1      44.290  33.723  26.065  1.00  0.00    -0.200 F 
ATOM     71  F   UNL A   1      46.677  35.031  26.163  1.00  0.00    -0.200 F 
ENDBRANCH  47  61
BRANCH  48  72
ATOM     72  C   UNL A   1      38.670  28.732  29.508  1.00  0.00     0.064 A 
ATOM     73  C   UNL A   1      37.763  29.038  30.538  1.00  0.00     0.173 A 
ATOM     74  C   UNL A   1      38.285  29.125  28.209  1.00  0.00     0.173 A 
ATOM     75  F   UNL A   1      38.067  28.749  31.812  1.00  0.00    -0.203 F 
ATOM     76  C   UNL A   1      36.560  29.712  30.285  1.00  0.00     0.198 A 
ATOM     77  C   UNL A   1      37.082  29.787  27.958  1.00  0.00     0.198 A 
ATOM     78  F   UNL A   1      39.108  28.962  27.165  1.00  0.00    -0.203 F 
ATOM     79  F   UNL A   1      35.751  30.040  31.302  1.00  0.00    -0.200 F 
ATOM     80  C   UNL A   1      36.225  30.093  28.997  1.00  0.00     0.200 A 
ATOM     81  F   UNL A   1      36.791  30.183  26.710  1.00  0.00    -0.200 F 
ATOM     82  F   UNL A   1      35.104  30.788  28.762  1.00  0.00    -0.200 F 
ENDBRANCH  48  72
BRANCH  60  83
ATOM     83  C   UNL A   1      44.169  27.927  32.601  1.00  0.00     0.064 A 
ATOM     84  C   UNL A   1      44.028  26.540  32.421  1.00  0.00     0.173 A 
ATOM     85  C   UNL A   1      44.449  28.383  33.897  1.00  0.00     0.173 A 
ATOM     86  F   UNL A   1      43.859  26.018  31.200  1.00  0.00    -0.203 F 
ATOM     87  C   UNL A   1      44.148  25.656  33.491  1.00  0.00     0.198 A 
ATOM     88  C   UNL A   1      44.603  27.494  34.958  1.00  0.00     0.198 A 
ATOM     89  F   UNL A   1      44.650  29.691  34.119  1.00  0.00    -0.203 F 
ATOM     90  F   UNL A   1      44.027  24.335  33.289  1.00  0.00    -0.200 F 
ATOM     91  C   UNL A   1      44.449  26.132  34.755  1.00  0.00     0.200 A 
ATOM     92  F   UNL A   1      44.949  27.955  36.167  1.00  0.00    -0.200 F 
ATOM     93  F   UNL A   1      44.632  25.277  35.772  1.00  0.00    -0.200 F 
ENDBRANCH  60  83
ENDBRANCH  34  35
ENDBRANCH  26  29
ENDBRANCH  24  25
ENDBRANCH  23  24
ENDBRANCH   1  23
TORSDOF 14
ENDMDL
MODEL 3
REMARK VINA RESULT:     -12.7      3.145      8.107
REMARK SMILES O=C(Cn1cc(C(=O)C(F)(F)F)c2ccccc21)NCCCCNC(=O)c1ccc(-c2c3nc(c(-c4c(F)c(F)c(F)c(F)c4F)c4ccc([nH]4)c(-c4c(F)c(F)c(F)c(F)c4F)c4nc(c(-c5c(F)c(F)c(F)c(F)c5F)c5ccc2[nH]5)C=C4)C=C3)cc1
REMARK SMILES IDX 21 1 20 2 19 3 1 4 2 5 3 7 4 8 5 9 18 10 6 11 13 12 17 13
REMARK SMILES IDX 14 14 16 15 15 16 7 17 8 18 9 19 10 20 11 21 12 22 22 23
REMARK SMILES IDX 23 24 24 25 25 26 26 28 27 29 28 30 89 31 29 32 88 33 30 34
REMARK SMILES IDX 31 35 32 36 82 37 33 38 87 39 81 40 83 41 34 42 86 43 80 44
REMARK SMILES IDX 79 45 35 47 67 48 47 49 66 50 48 51 51 52 65 53 84 54 49 55
REMARK SMILES IDX 50 56 64 58 85 59 52 60 36 61 37 62 45 63 38 64 39 65 43 66
REMARK SMILES IDX 46 67 40 68 41 69 44 70 42 71 68 72 69 73 77 74 70 75 71 76
REMARK SMILES IDX 75 77 78 78 72 79 73 80 76 81 74 82 53 83 54 84 62 85 55 86
REMARK SMILES IDX 56 87 60 88 63 89 57 90 58 91 61 92 59 93
REMARK H PARENT 19 6 24 27 83 46 51 57
REMARK Flexibility Score: inf
ROOT
ATOM      1  C   UNL A   1      35.600  23.427  24.207  1.00  0.00     0.023 C 
ENDROOT
BRANCH   1   2
ATOM      2  C   UNL A   1      34.332  22.882  23.552  1.00  0.00     0.116 C 
BRANCH   2   3
ATOM      3  N   UNL A   1      33.135  23.499  24.088  1.00  0.00    -0.355 N 
ATOM      4  O   UNL A   1      33.108  25.276  22.635  1.00  0.00    -0.273 OA
ATOM      5  C   UNL A   1      32.581  24.642  23.533  1.00  0.00     0.239 C 
ATOM      6  H   UNL A   1      32.702  23.093  24.873  1.00  0.00     0.163 HD
BRANCH   5   7
ATOM      7  C   UNL A   1      31.243  25.037  24.141  1.00  0.00     0.222 C 
BRANCH   7   8
ATOM      8  N   UNL A   1      31.011  26.476  24.069  1.00  0.00    -0.337 N 
ATOM      9  C   UNL A   1      30.215  27.082  23.128  1.00  0.00     0.099 A 
ATOM     10  C   UNL A   1      31.482  27.425  24.953  1.00  0.00     0.049 A 
ATOM     11  C   UNL A   1      30.250  28.450  23.314  1.00  0.00     0.053 A 
ATOM     12  C   UNL A   1      31.033  28.670  24.494  1.00  0.00     0.011 A 
ATOM     13  C   UNL A   1      32.268  27.303  26.113  1.00  0.00     0.027 A 
ATOM     14  C   UNL A   1      31.400  29.827  25.217  1.00  0.00     0.011 A 
ATOM     15  C   UNL A   1      32.601  28.465  26.815  1.00  0.00     0.002 A 
ATOM     16  C   UNL A   1      32.176  29.712  26.373  1.00  0.00     0.001 A 
BRANCH  11  17
ATOM     17  C   UNL A   1      29.590  29.452  22.464  1.00  0.00     0.268 C 
ATOM     18  O   UNL A   1      30.144  29.885  21.450  1.00  0.00    -0.284 OA
BRANCH  17  19
ATOM     19  C   UNL A   1      28.200  29.928  22.891  1.00  0.00     0.454 C 
ATOM     20  F   UNL A   1      27.431  28.922  23.404  1.00  0.00    -0.163 F 
ATOM     21  F   UNL A   1      28.252  30.880  23.872  1.00  0.00    -0.163 F 
ATOM     22  F   UNL A   1      27.473  30.477  21.877  1.00  0.00    -0.163 F 
ENDBRANCH  17  19
ENDBRANCH  11  17
ENDBRANCH   7   8
ENDBRANCH   5   7
ENDBRANCH   2   3
ENDBRANCH   1   2
BRANCH   1  23
ATOM     23  C   UNL A   1      36.819  22.491  24.182  1.00  0.00     0.023 C 
BRANCH  23  24
ATOM     24  C   UNL A   1      37.311  22.027  25.553  1.00  0.00     0.116 C 
BRANCH  24  25
ATOM     25  N   UNL A   1      38.719  21.695  25.586  1.00  0.00    -0.352 N 
ATOM     26  C   UNL A   1      39.812  22.181  26.248  1.00  0.00     0.251 C 
ATOM     27  H   UNL A   1      38.941  20.943  24.993  1.00  0.00     0.163 HD
ATOM     28  O   UNL A   1      40.841  21.509  26.148  1.00  0.00    -0.269 OA
BRANCH  26  29
ATOM     29  C   UNL A   1      39.874  23.469  26.992  1.00  0.00     0.039 A 
ATOM     30  C   UNL A   1      38.975  24.529  26.878  1.00  0.00     0.014 A 
ATOM     31  C   UNL A   1      41.005  23.634  27.818  1.00  0.00     0.014 A 
ATOM     32  C   UNL A   1      39.263  25.759  27.465  1.00  0.00     0.010 A 
ATOM     33  C   UNL A   1      41.289  24.852  28.418  1.00  0.00     0.010 A 
ATOM     34  C   UNL A   1      40.449  25.934  28.184  1.00  0.00    -0.014 A 
BRANCH  34  35
ATOM     35  C   UNL A   1      40.737  27.255  28.735  1.00  0.00     0.031 A 
ATOM     36  C   UNL A   1      41.982  27.898  28.222  1.00  0.00     0.074 A 
ATOM     37  C   UNL A   1      39.889  27.901  29.562  1.00  0.00     0.049 A 
ATOM     38  N   UNL A   1      43.007  28.308  28.898  1.00  0.00    -0.248 NA
ATOM     39  C   UNL A   1      42.147  28.005  26.764  1.00  0.00     0.031 C 
ATOM     40  C   UNL A   1      38.528  27.523  29.952  1.00  0.00     0.029 A 
ATOM     41  N   UNL A   1      40.047  29.109  30.170  1.00  0.00    -0.354 N 
ATOM     42  C   UNL A   1      43.885  28.868  27.970  1.00  0.00     0.074 A 
ATOM     43  C   UNL A   1      43.361  28.549  26.666  1.00  0.00     0.031 C 
ATOM     44  C   UNL A   1      37.913  28.585  30.519  1.00  0.00     0.029 A 
ATOM     45  C   UNL A   1      38.871  29.668  30.652  1.00  0.00     0.049 A 
ATOM     46  H   UNL A   1      40.923  29.550  30.261  1.00  0.00     0.167 HD
ATOM     47  C   UNL A   1      44.883  29.715  28.345  1.00  0.00     0.037 A 
ATOM     48  C   UNL A   1      38.694  30.956  31.045  1.00  0.00     0.037 A 
ATOM     49  C   UNL A   1      45.204  29.571  29.739  1.00  0.00     0.049 A 
ATOM     50  C   UNL A   1      40.039  31.505  31.366  1.00  0.00     0.074 A 
ATOM     51  C   UNL A   1      45.673  28.528  30.515  1.00  0.00     0.029 A 
ATOM     52  N   UNL A   1      44.721  30.500  30.627  1.00  0.00    -0.354 N 
ATOM     53  N   UNL A   1      40.766  31.098  32.371  1.00  0.00    -0.248 NA
ATOM     54  C   UNL A   1      40.765  32.161  30.288  1.00  0.00     0.031 C 
ATOM     55  C   UNL A   1      44.974  28.651  31.749  1.00  0.00     0.029 A 
ATOM     56  C   UNL A   1      44.179  29.793  31.669  1.00  0.00     0.049 A 
ATOM     57  H   UNL A   1      44.757  31.479  30.534  1.00  0.00     0.167 HD
ATOM     58  C   UNL A   1      42.060  31.061  31.875  1.00  0.00     0.074 A 
ATOM     59  C   UNL A   1      42.005  31.782  30.604  1.00  0.00     0.031 C 
ATOM     60  C   UNL A   1      42.995  30.208  32.383  1.00  0.00     0.037 A 
BRANCH  47  61
ATOM     61  C   UNL A   1      45.346  30.895  27.530  1.00  0.00     0.064 A 
ATOM     62  C   UNL A   1      46.710  31.020  27.196  1.00  0.00     0.173 A 
ATOM     63  C   UNL A   1      44.562  32.051  27.330  1.00  0.00     0.173 A 
ATOM     64  F   UNL A   1      47.552  29.990  27.368  1.00  0.00    -0.203 F 
ATOM     65  C   UNL A   1      47.256  32.232  26.766  1.00  0.00     0.198 A 
ATOM     66  C   UNL A   1      45.100  33.244  26.853  1.00  0.00     0.198 A 
ATOM     67  F   UNL A   1      43.274  32.106  27.695  1.00  0.00    -0.203 F 
ATOM     68  F   UNL A   1      48.579  32.337  26.581  1.00  0.00    -0.200 F 
ATOM     69  C   UNL A   1      46.452  33.345  26.602  1.00  0.00     0.200 A 
ATOM     70  F   UNL A   1      44.308  34.317  26.719  1.00  0.00    -0.200 F 
ATOM     71  F   UNL A   1      46.983  34.523  26.252  1.00  0.00    -0.200 F 
ENDBRANCH  47  61
BRANCH  48  72
ATOM     72  C   UNL A   1      37.516  31.825  30.771  1.00  0.00     0.064 A 
ATOM     73  C   UNL A   1      37.216  32.255  29.466  1.00  0.00     0.173 A 
ATOM     74  C   UNL A   1      36.508  32.029  31.736  1.00  0.00     0.173 A 
ATOM     75  F   UNL A   1      38.094  32.055  28.472  1.00  0.00    -0.203 F 
ATOM     76  C   UNL A   1      35.979  32.830  29.146  1.00  0.00     0.198 A 
ATOM     77  C   UNL A   1      35.280  32.611  31.417  1.00  0.00     0.198 A 
ATOM     78  F   UNL A   1      36.651  31.582  32.990  1.00  0.00    -0.203 F 
ATOM     79  F   UNL A   1      35.707  33.170  27.878  1.00  0.00    -0.200 F 
ATOM     80  C   UNL A   1      35.010  33.001  30.120  1.00  0.00     0.200 A 
ATOM     81  F   UNL A   1      34.339  32.734  32.364  1.00  0.00    -0.200 F 
ATOM     82  F   UNL A   1      33.806  33.496  29.804  1.00  0.00    -0.200 F 
ENDBRANCH  48  72
BRANCH  60  83
ATOM     83  C   UNL A   1      42.671  29.436  33.631  1.00  0.00     0.064 A 
ATOM     84  C   UNL A   1      41.941  28.234  33.632  1.00  0.00     0.173 A 
ATOM     85  C   UNL A   1      43.309  29.803  34.824  1.00  0.00     0.173 A 
ATOM     86  F   UNL A   1      41.385  27.763  32.510  1.00  0.00    -0.203 F 
ATOM     87  C   UNL A   1      41.844  27.448  34.780  1.00  0.00     0.198 A 
ATOM     88  C   UNL A   1      43.240  28.998  35.957  1.00  0.00     0.198 A 
ATOM     89  F   UNL A   1      44.067  30.910  34.865  1.00  0.00    -0.203 F 
ATOM     90  F   UNL A   1      41.157  26.297  34.750  1.00  0.00    -0.200 F 
ATOM     91  C   UNL A   1      42.506  27.824  35.936  1.00  0.00     0.200 A 
ATOM     92  F   UNL A   1      43.927  29.337  37.056  1.00  0.00    -0.200 F 
ATOM     93  F   UNL A   1      42.469  27.035  37.020  1.00  0.00    -0.200 F 
ENDBRANCH  60  83
ENDBRANCH  34  35
ENDBRANCH  26  29
ENDBRANCH  24  25
ENDBRANCH  23  24
ENDBRANCH   1  23
TORSDOF 14
ENDMDL
