MODEL 1
REMARK VINA RESULT:     -11.5      0.000      0.000
REMARK SMILES COCC[C@H](NC(=O)N1CCN2C(=O)NC[C@H]2C1)C(=O)NCCCCNC(=O)c1ccc(-c2c3nc(c(-c4c(F)c(F)c(F)c(F)c4F)c4ccc([nH]4)c(-c4c(F)c(F)c(F)c(F)c4F)c4nc(c(-c5c(F)c(F)c(F)c(F)c5F)c5ccc2[nH]5)C=C4)C=C3)cc1
REMARK SMILES IDX 23 1 22 2 21 3 19 4 20 5 5 7 4 8 3 9 2 10 1 11 6 12 7 13
REMARK SMILES IDX 8 15 9 16 10 17 18 18 11 19 17 20 12 21 16 22 13 23 15 24
REMARK SMILES IDX 14 25 24 27 25 28 26 29 27 30 28 32 29 33 30 34 91 35 31 36
REMARK SMILES IDX 90 37 32 38 33 39 34 40 84 41 35 42 89 43 83 44 85 45 36 46
REMARK SMILES IDX 88 47 82 48 81 49 37 51 69 52 49 53 68 54 50 55 53 56 67 57
REMARK SMILES IDX 86 58 51 59 52 60 66 62 87 63 54 64 38 65 39 66 47 67 40 68
REMARK SMILES IDX 41 69 45 70 48 71 42 72 43 73 46 74 44 75 70 76 71 77 79 78
REMARK SMILES IDX 72 79 73 80 77 81 80 82 74 83 75 84 78 85 76 86 55 87 56 88
REMARK SMILES IDX 64 89 57 90 58 91 62 92 65 93 59 94 60 95 63 96 61 97
REMARK H PARENT 21 6 6 14 15 26 26 31 85 50 53 61
REMARK Flexibility Score: inf
ROOT
ATOM      1  C   UNL A   1      31.556  27.156  25.774  1.00  0.00     0.023 C 
ENDROOT
BRANCH   1   2
ATOM      2  C   UNL A   1      30.232  26.406  25.530  1.00  0.00     0.116 C 
BRANCH   2   3
ATOM      3  N   UNL A   1      29.826  25.283  26.366  1.00  0.00    -0.354 N 
ATOM      4  C   UNL A   1      30.293  23.996  26.475  1.00  0.00     0.242 C 
ATOM      5  O   UNL A   1      29.873  23.298  27.403  1.00  0.00    -0.273 OA
ATOM      6  H   UNL A   1      29.072  25.486  26.967  1.00  0.00     0.163 HD
BRANCH   4   7
ATOM      7  C   UNL A   1      31.347  23.453  25.519  1.00  0.00     0.175 C 
BRANCH   7   8
ATOM      8  C   UNL A   1      30.782  23.659  24.082  1.00  0.00     0.063 C 
BRANCH   8   9
ATOM      9  C   UNL A   1      31.798  24.138  23.039  1.00  0.00     0.162 C 
BRANCH   9  10
ATOM     10  O   UNL A   1      32.561  23.044  22.530  1.00  0.00    -0.385 OA
ATOM     11  C   UNL A   1      33.962  23.271  22.582  1.00  0.00     0.194 C 
ENDBRANCH   9  10
ENDBRANCH   8   9
ENDBRANCH   7   8
BRANCH   7  12
ATOM     12  N   UNL A   1      31.677  22.042  25.789  1.00  0.00    -0.326 N 
ATOM     13  C   UNL A   1      32.777  21.279  25.619  1.00  0.00     0.318 C 
ATOM     14  H   UNL A   1      30.925  21.543  26.181  1.00  0.00     0.166 HD
ATOM     15  O   UNL A   1      32.533  20.114  25.283  1.00  0.00    -0.249 OA
BRANCH  13  16
ATOM     16  N   UNL A   1      34.062  21.687  25.834  1.00  0.00    -0.321 N 
ATOM     17  C   UNL A   1      34.599  22.690  26.764  1.00  0.00     0.143 C 
ATOM     18  C   UNL A   1      35.145  20.794  25.382  1.00  0.00     0.148 C 
ATOM     19  C   UNL A   1      35.585  23.629  26.093  1.00  0.00     0.143 C 
ATOM     20  C   UNL A   1      36.365  21.575  24.846  1.00  0.00     0.125 C 
ATOM     21  N   UNL A   1      36.658  22.799  25.587  1.00  0.00    -0.317 N 
ATOM     22  C   UNL A   1      37.680  20.803  24.967  1.00  0.00     0.144 C 
ATOM     23  C   UNL A   1      37.999  22.936  25.865  1.00  0.00     0.317 C 
ATOM     24  N   UNL A   1      38.632  21.798  25.399  1.00  0.00    -0.336 N 
ATOM     25  O   UNL A   1      38.543  23.853  26.459  1.00  0.00    -0.249 OA
ATOM     26  H   UNL A   1      39.609  21.682  25.365  1.00  0.00     0.165 HD
ENDBRANCH  13  16
ENDBRANCH   7  12
ENDBRANCH   4   7
ENDBRANCH   2   3
ENDBRANCH   1   2
BRANCH   1  27
ATOM     27  C   UNL A   1      32.308  27.883  24.657  1.00  0.00     0.023 C 
BRANCH  27  28
ATOM     28  C   UNL A   1      33.418  28.835  25.065  1.00  0.00     0.116 C 
BRANCH  28  29
ATOM     29  N   UNL A   1      32.855  30.106  25.480  1.00  0.00    -0.352 N 
ATOM     30  C   UNL A   1      33.119  30.819  26.624  1.00  0.00     0.251 C 
ATOM     31  H   UNL A   1      32.202  30.509  24.863  1.00  0.00     0.163 HD
ATOM     32  O   UNL A   1      32.315  31.661  27.015  1.00  0.00    -0.269 OA
BRANCH  30  33
ATOM     33  C   UNL A   1      34.369  30.584  27.386  1.00  0.00     0.039 A 
ATOM     34  C   UNL A   1      34.596  29.324  27.946  1.00  0.00     0.014 A 
ATOM     35  C   UNL A   1      35.283  31.619  27.607  1.00  0.00     0.014 A 
ATOM     36  C   UNL A   1      35.749  29.093  28.700  1.00  0.00     0.010 A 
ATOM     37  C   UNL A   1      36.462  31.372  28.308  1.00  0.00     0.010 A 
ATOM     38  C   UNL A   1      36.703  30.110  28.872  1.00  0.00    -0.014 A 
BRANCH  38  39
ATOM     39  C   UNL A   1      37.951  29.871  29.645  1.00  0.00     0.031 A 
ATOM     40  C   UNL A   1      39.001  28.928  29.121  1.00  0.00     0.074 A 
ATOM     41  C   UNL A   1      38.119  30.464  30.842  1.00  0.00     0.049 A 
ATOM     42  N   UNL A   1      40.124  28.545  29.676  1.00  0.00    -0.248 NA
ATOM     43  C   UNL A   1      38.746  28.320  27.806  1.00  0.00     0.031 C 
ATOM     44  C   UNL A   1      37.162  31.373  31.473  1.00  0.00     0.029 A 
ATOM     45  N   UNL A   1      39.146  30.381  31.750  1.00  0.00    -0.354 N 
ATOM     46  C   UNL A   1      40.700  27.645  28.788  1.00  0.00     0.074 A 
ATOM     47  C   UNL A   1      39.782  27.501  27.679  1.00  0.00     0.031 C 
ATOM     48  C   UNL A   1      37.652  31.777  32.655  1.00  0.00     0.029 A 
ATOM     49  C   UNL A   1      38.933  31.119  32.891  1.00  0.00     0.049 A 
ATOM     50  H   UNL A   1      39.957  29.845  31.599  1.00  0.00     0.167 HD
ATOM     51  C   UNL A   1      41.895  27.012  28.881  1.00  0.00     0.037 A 
ATOM     52  C   UNL A   1      39.679  31.238  34.006  1.00  0.00     0.037 A 
ATOM     53  C   UNL A   1      42.810  27.170  29.981  1.00  0.00     0.049 A 
ATOM     54  C   UNL A   1      40.984  30.492  34.100  1.00  0.00     0.074 A 
ATOM     55  C   UNL A   1      44.071  26.620  30.138  1.00  0.00     0.029 A 
ATOM     56  N   UNL A   1      42.557  27.922  31.119  1.00  0.00    -0.354 N 
ATOM     57  N   UNL A   1      41.554  29.707  33.219  1.00  0.00    -0.248 NA
ATOM     58  C   UNL A   1      41.751  30.652  35.343  1.00  0.00     0.031 C 
ATOM     59  C   UNL A   1      44.552  26.986  31.399  1.00  0.00     0.029 A 
ATOM     60  C   UNL A   1      43.623  27.820  31.999  1.00  0.00     0.049 A 
ATOM     61  H   UNL A   1      41.742  28.450  31.277  1.00  0.00     0.167 HD
ATOM     62  C   UNL A   1      42.754  29.301  33.788  1.00  0.00     0.074 A 
ATOM     63  C   UNL A   1      42.841  29.943  35.083  1.00  0.00     0.031 C 
ATOM     64  C   UNL A   1      43.699  28.470  33.283  1.00  0.00     0.037 A 
BRANCH  51  65
ATOM     65  C   UNL A   1      42.284  26.082  27.766  1.00  0.00     0.064 A 
ATOM     66  C   UNL A   1      43.179  26.471  26.757  1.00  0.00     0.173 A 
ATOM     67  C   UNL A   1      41.795  24.767  27.734  1.00  0.00     0.173 A 
ATOM     68  F   UNL A   1      43.671  27.719  26.736  1.00  0.00    -0.203 F 
ATOM     69  C   UNL A   1      43.545  25.589  25.743  1.00  0.00     0.198 A 
ATOM     70  C   UNL A   1      42.191  23.877  26.738  1.00  0.00     0.198 A 
ATOM     71  F   UNL A   1      40.946  24.337  28.679  1.00  0.00    -0.203 F 
ATOM     72  F   UNL A   1      44.363  26.000  24.763  1.00  0.00    -0.200 F 
ATOM     73  C   UNL A   1      43.058  24.292  25.739  1.00  0.00     0.200 A 
ATOM     74  F   UNL A   1      41.734  22.617  26.747  1.00  0.00    -0.200 F 
ATOM     75  F   UNL A   1      43.422  23.441  24.769  1.00  0.00    -0.200 F 
ENDBRANCH  51  65
BRANCH  52  76
ATOM     76  C   UNL A   1      39.209  32.097  35.127  1.00  0.00     0.064 A 
ATOM     77  C   UNL A   1      39.480  33.472  35.146  1.00  0.00     0.173 A 
ATOM     78  C   UNL A   1      38.491  31.560  36.206  1.00  0.00     0.173 A 
ATOM     79  F   UNL A   1      40.181  34.030  34.148  1.00  0.00    -0.203 F 
ATOM     80  C   UNL A   1      39.075  34.271  36.213  1.00  0.00     0.198 A 
ATOM     81  C   UNL A   1      38.055  32.367  37.255  1.00  0.00     0.198 A 
ATOM     82  F   UNL A   1      38.197  30.252  36.236  1.00  0.00    -0.203 F 
ATOM     83  F   UNL A   1      39.394  35.573  36.231  1.00  0.00    -0.200 F 
ATOM     84  C   UNL A   1      38.356  33.720  37.263  1.00  0.00     0.200 A 
ATOM     85  F   UNL A   1      37.345  31.833  38.258  1.00  0.00    -0.200 F 
ATOM     86  F   UNL A   1      37.961  34.491  38.286  1.00  0.00    -0.200 F 
ENDBRANCH  52  76
BRANCH  64  87
ATOM     87  C   UNL A   1      44.925  28.227  34.116  1.00  0.00     0.064 A 
ATOM     88  C   UNL A   1      46.026  29.095  34.082  1.00  0.00     0.173 A 
ATOM     89  C   UNL A   1      44.975  27.141  35.005  1.00  0.00     0.173 A 
ATOM     90  F   UNL A   1      46.036  30.139  33.238  1.00  0.00    -0.203 F 
ATOM     91  C   UNL A   1      47.138  28.874  34.889  1.00  0.00     0.198 A 
ATOM     92  C   UNL A   1      46.074  26.943  35.836  1.00  0.00     0.198 A 
ATOM     93  F   UNL A   1      43.946  26.283  35.084  1.00  0.00    -0.203 F 
ATOM     94  F   UNL A   1      48.198  29.691  34.805  1.00  0.00    -0.200 F 
ATOM     95  C   UNL A   1      47.157  27.806  35.773  1.00  0.00     0.200 A 
ATOM     96  F   UNL A   1      46.082  25.920  36.702  1.00  0.00    -0.200 F 
ATOM     97  F   UNL A   1      48.223  27.603  36.560  1.00  0.00    -0.200 F 
ENDBRANCH  64  87
ENDBRANCH  38  39
ENDBRANCH  30  33
ENDBRANCH  28  29
ENDBRANCH  27  28
ENDBRANCH   1  27
TORSDOF 16
ENDMDL
MODEL 2
REMARK VINA RESULT:     -11.4      2.125      3.723
REMARK SMILES COCC[C@H](NC(=O)N1CCN2C(=O)NC[C@H]2C1)C(=O)NCCCCNC(=O)c1ccc(-c2c3nc(c(-c4c(F)c(F)c(F)c(F)c4F)c4ccc([nH]4)c(-c4c(F)c(F)c(F)c(F)c4F)c4nc(c(-c5c(F)c(F)c(F)c(F)c5F)c5ccc2[nH]5)C=C4)C=C3)cc1
REMARK SMILES IDX 23 1 22 2 21 3 19 4 20 5 5 7 4 8 3 9 2 10 1 11 6 12 7 13
REMARK SMILES IDX 8 15 9 16 10 17 18 18 11 19 17 20 12 21 16 22 13 23 15 24
REMARK SMILES IDX 14 25 24 27 25 28 26 29 27 30 28 32 29 33 30 34 91 35 31 36
REMARK SMILES IDX 90 37 32 38 33 39 34 40 84 41 35 42 89 43 83 44 85 45 36 46
REMARK SMILES IDX 88 47 82 48 81 49 37 51 69 52 49 53 68 54 50 55 53 56 67 57
REMARK SMILES IDX 86 58 51 59 52 60 66 62 87 63 54 64 38 65 39 66 47 67 40 68
REMARK SMILES IDX 41 69 45 70 48 71 42 72 43 73 46 74 44 75 70 76 71 77 79 78
REMARK SMILES IDX 72 79 73 80 77 81 80 82 74 83 75 84 78 85 76 86 55 87 56 88
REMARK SMILES IDX 64 89 57 90 58 91 62 92 65 93 59 94 60 95 63 96 61 97
REMARK H PARENT 21 6 6 14 15 26 26 31 85 50 53 61
REMARK Flexibility Score: inf
ROOT
ATOM      1  C   UNL A   1      31.140  30.841  26.215  1.00  0.00     0.023 C 
ENDROOT
BRANCH   1   2
ATOM      2  C   UNL A   1      31.859  30.009  25.135  1.00  0.00     0.116 C 
BRANCH   2   3
ATOM      3  N   UNL A   1      31.238  29.731  23.847  1.00  0.00    -0.354 N 
ATOM      4  C   UNL A   1      31.029  28.562  23.155  1.00  0.00     0.242 C 
ATOM      5  O   UNL A   1      30.310  28.597  22.152  1.00  0.00    -0.273 OA
ATOM      6  H   UNL A   1      30.904  30.533  23.383  1.00  0.00     0.163 HD
BRANCH   4   7
ATOM      7  C   UNL A   1      31.613  27.242  23.638  1.00  0.00     0.175 C 
BRANCH   7   8
ATOM      8  C   UNL A   1      31.308  26.195  22.526  1.00  0.00     0.063 C 
BRANCH   8   9
ATOM      9  C   UNL A   1      32.470  25.262  22.165  1.00  0.00     0.162 C 
BRANCH   9  10
ATOM     10  O   UNL A   1      33.210  25.773  21.056  1.00  0.00    -0.385 OA
ATOM     11  C   UNL A   1      32.564  25.557  19.810  1.00  0.00     0.194 C 
ENDBRANCH   9  10
ENDBRANCH   8   9
ENDBRANCH   7   8
BRANCH   7  12
ATOM     12  N   UNL A   1      31.071  26.834  24.948  1.00  0.00    -0.326 N 
ATOM     13  C   UNL A   1      31.204  25.740  25.727  1.00  0.00     0.318 C 
ATOM     14  H   UNL A   1      30.478  27.513  25.343  1.00  0.00     0.166 HD
ATOM     15  O   UNL A   1      30.169  25.422  26.324  1.00  0.00    -0.249 OA
BRANCH  13  16
ATOM     16  N   UNL A   1      32.361  25.041  25.916  1.00  0.00    -0.321 N 
ATOM     17  C   UNL A   1      33.761  25.480  25.843  1.00  0.00     0.143 C 
ATOM     18  C   UNL A   1      32.274  23.768  26.655  1.00  0.00     0.148 C 
ATOM     19  C   UNL A   1      34.621  24.531  25.030  1.00  0.00     0.143 C 
ATOM     20  C   UNL A   1      33.251  22.704  26.108  1.00  0.00     0.125 C 
ATOM     21  N   UNL A   1      34.541  23.244  25.687  1.00  0.00    -0.317 N 
ATOM     22  C   UNL A   1      33.663  21.666  27.153  1.00  0.00     0.144 C 
ATOM     23  C   UNL A   1      35.598  22.487  26.136  1.00  0.00     0.317 C 
ATOM     24  N   UNL A   1      35.075  21.476  26.922  1.00  0.00    -0.336 N 
ATOM     25  O   UNL A   1      36.787  22.682  25.938  1.00  0.00    -0.249 OA
ATOM     26  H   UNL A   1      35.599  20.724  27.278  1.00  0.00     0.165 HD
ENDBRANCH  13  16
ENDBRANCH   7  12
ENDBRANCH   4   7
ENDBRANCH   2   3
ENDBRANCH   1   2
BRANCH   1  27
ATOM     27  C   UNL A   1      31.401  32.336  26.412  1.00  0.00     0.023 C 
BRANCH  27  28
ATOM     28  C   UNL A   1      32.635  32.733  27.202  1.00  0.00     0.116 C 
BRANCH  28  29
ATOM     29  N   UNL A   1      32.563  34.135  27.568  1.00  0.00    -0.352 N 
ATOM     30  C   UNL A   1      33.148  34.765  28.639  1.00  0.00     0.251 C 
ATOM     31  H   UNL A   1      32.027  34.707  26.972  1.00  0.00     0.163 HD
ATOM     32  O   UNL A   1      32.705  35.842  29.027  1.00  0.00    -0.269 OA
BRANCH  30  33
ATOM     33  C   UNL A   1      34.312  34.157  29.325  1.00  0.00     0.039 A 
ATOM     34  C   UNL A   1      34.094  33.337  30.436  1.00  0.00     0.014 A 
ATOM     35  C   UNL A   1      35.619  34.446  28.919  1.00  0.00     0.014 A 
ATOM     36  C   UNL A   1      35.181  32.785  31.121  1.00  0.00     0.010 A 
ATOM     37  C   UNL A   1      36.700  33.846  29.565  1.00  0.00     0.010 A 
ATOM     38  C   UNL A   1      36.494  33.020  30.680  1.00  0.00    -0.014 A 
BRANCH  38  39
ATOM     39  C   UNL A   1      37.659  32.414  31.377  1.00  0.00     0.031 A 
ATOM     40  C   UNL A   1      38.404  31.263  30.755  1.00  0.00     0.074 A 
ATOM     41  C   UNL A   1      38.016  32.866  32.595  1.00  0.00     0.049 A 
ATOM     42  N   UNL A   1      39.403  30.566  31.235  1.00  0.00    -0.248 NA
ATOM     43  C   UNL A   1      37.954  30.828  29.424  1.00  0.00     0.031 C 
ATOM     44  C   UNL A   1      37.354  33.952  33.317  1.00  0.00     0.029 A 
ATOM     45  N   UNL A   1      39.014  32.459  33.447  1.00  0.00    -0.354 N 
ATOM     46  C   UNL A   1      39.691  29.604  30.274  1.00  0.00     0.074 A 
ATOM     47  C   UNL A   1      38.732  29.776  29.205  1.00  0.00     0.031 C 
ATOM     48  C   UNL A   1      37.972  34.137  34.494  1.00  0.00     0.029 A 
ATOM     49  C   UNL A   1      39.041  33.153  34.633  1.00  0.00     0.049 A 
ATOM     50  H   UNL A   1      39.648  31.740  33.229  1.00  0.00     0.167 HD
ATOM     51  C   UNL A   1      40.678  28.676  30.276  1.00  0.00     0.037 A 
ATOM     52  C   UNL A   1      39.827  33.002  35.715  1.00  0.00     0.037 A 
ATOM     53  C   UNL A   1      41.639  28.518  31.337  1.00  0.00     0.049 A 
ATOM     54  C   UNL A   1      40.891  31.936  35.708  1.00  0.00     0.074 A 
ATOM     55  C   UNL A   1      42.713  27.649  31.405  1.00  0.00     0.029 A 
ATOM     56  N   UNL A   1      41.631  29.237  32.524  1.00  0.00    -0.354 N 
ATOM     57  N   UNL A   1      41.205  31.086  34.761  1.00  0.00    -0.248 NA
ATOM     58  C   UNL A   1      41.714  31.810  36.919  1.00  0.00     0.031 C 
ATOM     59  C   UNL A   1      43.315  27.795  32.658  1.00  0.00     0.029 A 
ATOM     60  C   UNL A   1      42.660  28.804  33.345  1.00  0.00     0.049 A 
ATOM     61  H   UNL A   1      40.990  29.949  32.749  1.00  0.00     0.167 HD
ATOM     62  C   UNL A   1      42.272  30.345  35.248  1.00  0.00     0.074 A 
ATOM     63  C   UNL A   1      42.568  30.859  36.570  1.00  0.00     0.031 C 
ATOM     64  C   UNL A   1      42.947  29.329  34.656  1.00  0.00     0.037 A 
BRANCH  51  65
ATOM     65  C   UNL A   1      40.771  27.748  29.097  1.00  0.00     0.064 A 
ATOM     66  C   UNL A   1      39.919  26.641  28.958  1.00  0.00     0.173 A 
ATOM     67  C   UNL A   1      41.690  27.998  28.065  1.00  0.00     0.173 A 
ATOM     68  F   UNL A   1      39.026  26.353  29.917  1.00  0.00    -0.203 F 
ATOM     69  C   UNL A   1      40.004  25.804  27.848  1.00  0.00     0.198 A 
ATOM     70  C   UNL A   1      41.749  27.178  26.941  1.00  0.00     0.198 A 
ATOM     71  F   UNL A   1      42.522  29.048  28.140  1.00  0.00    -0.203 F 
ATOM     72  F   UNL A   1      39.212  24.726  27.763  1.00  0.00    -0.200 F 
ATOM     73  C   UNL A   1      40.912  26.078  26.838  1.00  0.00     0.200 A 
ATOM     74  F   UNL A   1      42.615  27.455  25.956  1.00  0.00    -0.200 F 
ATOM     75  F   UNL A   1      40.984  25.277  25.764  1.00  0.00    -0.200 F 
ENDBRANCH  51  65
BRANCH  52  76
ATOM     76  C   UNL A   1      39.638  33.881  36.902  1.00  0.00     0.064 A 
ATOM     77  C   UNL A   1      38.835  33.480  37.978  1.00  0.00     0.173 A 
ATOM     78  C   UNL A   1      40.247  35.143  36.980  1.00  0.00     0.173 A 
ATOM     79  F   UNL A   1      38.215  32.291  37.944  1.00  0.00    -0.203 F 
ATOM     80  C   UNL A   1      38.625  34.316  39.072  1.00  0.00     0.198 A 
ATOM     81  C   UNL A   1      40.066  35.964  38.091  1.00  0.00     0.198 A 
ATOM     82  F   UNL A   1      41.032  35.575  35.982  1.00  0.00    -0.203 F 
ATOM     83  F   UNL A   1      37.810  33.928  40.063  1.00  0.00    -0.200 F 
ATOM     84  C   UNL A   1      39.247  35.554  39.131  1.00  0.00     0.200 A 
ATOM     85  F   UNL A   1      40.683  37.151  38.151  1.00  0.00    -0.200 F 
ATOM     86  F   UNL A   1      39.050  36.356  40.187  1.00  0.00    -0.200 F 
ENDBRANCH  52  76
BRANCH  64  87
ATOM     87  C   UNL A   1      44.092  28.720  35.416  1.00  0.00     0.064 A 
ATOM     88  C   UNL A   1      43.908  27.636  36.286  1.00  0.00     0.173 A 
ATOM     89  C   UNL A   1      45.400  29.192  35.225  1.00  0.00     0.173 A 
ATOM     90  F   UNL A   1      42.675  27.157  36.517  1.00  0.00    -0.203 F 
ATOM     91  C   UNL A   1      44.986  27.061  36.952  1.00  0.00     0.198 A 
ATOM     92  C   UNL A   1      46.481  28.593  35.865  1.00  0.00     0.198 A 
ATOM     93  F   UNL A   1      45.634  30.222  34.397  1.00  0.00    -0.203 F 
ATOM     94  F   UNL A   1      44.780  26.056  37.815  1.00  0.00    -0.200 F 
ATOM     95  C   UNL A   1      46.272  27.532  36.734  1.00  0.00     0.200 A 
ATOM     96  F   UNL A   1      47.724  29.038  35.638  1.00  0.00    -0.200 F 
ATOM     97  F   UNL A   1      47.311  26.968  37.364  1.00  0.00    -0.200 F 
ENDBRANCH  64  87
ENDBRANCH  38  39
ENDBRANCH  30  33
ENDBRANCH  28  29
ENDBRANCH  27  28
ENDBRANCH   1  27
TORSDOF 16
ENDMDL
MODEL 3
REMARK VINA RESULT:     -11.4      1.985      3.545
REMARK SMILES COCC[C@H](NC(=O)N1CCN2C(=O)NC[C@H]2C1)C(=O)NCCCCNC(=O)c1ccc(-c2c3nc(c(-c4c(F)c(F)c(F)c(F)c4F)c4ccc([nH]4)c(-c4c(F)c(F)c(F)c(F)c4F)c4nc(c(-c5c(F)c(F)c(F)c(F)c5F)c5ccc2[nH]5)C=C4)C=C3)cc1
REMARK SMILES IDX 23 1 22 2 21 3 19 4 20 5 5 7 4 8 3 9 2 10 1 11 6 12 7 13
REMARK SMILES IDX 8 15 9 16 10 17 18 18 11 19 17 20 12 21 16 22 13 23 15 24
REMARK SMILES IDX 14 25 24 27 25 28 26 29 27 30 28 32 29 33 30 34 91 35 31 36
REMARK SMILES IDX 90 37 32 38 33 39 34 40 84 41 35 42 89 43 83 44 85 45 36 46
REMARK SMILES IDX 88 47 82 48 81 49 37 51 69 52 49 53 68 54 50 55 53 56 67 57
REMARK SMILES IDX 86 58 51 59 52 60 66 62 87 63 54 64 38 65 39 66 47 67 40 68
REMARK SMILES IDX 41 69 45 70 48 71 42 72 43 73 46 74 44 75 70 76 71 77 79 78
REMARK SMILES IDX 72 79 73 80 77 81 80 82 74 83 75 84 78 85 76 86 55 87 56 88
REMARK SMILES IDX 64 89 57 90 58 91 62 92 65 93 59 94 60 95 63 96 61 97
REMARK H PARENT 21 6 6 14 15 26 26 31 85 50 53 61
REMARK Flexibility Score: inf
ROOT
ATOM      1  C   UNL A   1      31.049  30.788  25.533  1.00  0.00     0.023 C 
ENDROOT
BRANCH   1   2
ATOM      2  C   UNL A   1      32.148  29.708  25.513  1.00  0.00     0.116 C 
BRANCH   2   3
ATOM      3  N   UNL A   1      33.163  29.671  24.467  1.00  0.00    -0.354 N 
ATOM      4  C   UNL A   1      33.662  28.646  23.700  1.00  0.00     0.242 C 
ATOM      5  O   UNL A   1      34.401  28.931  22.752  1.00  0.00    -0.273 OA
ATOM      6  H   UNL A   1      33.567  30.548  24.272  1.00  0.00     0.163 HD
BRANCH   4   7
ATOM      7  C   UNL A   1      33.272  27.199  23.964  1.00  0.00     0.175 C 
BRANCH   7   8
ATOM      8  C   UNL A   1      32.104  26.874  22.985  1.00  0.00     0.063 C 
BRANCH   8   9
ATOM      9  C   UNL A   1      32.526  26.326  21.617  1.00  0.00     0.162 C 
BRANCH   9  10
ATOM     10  O   UNL A   1      33.648  25.451  21.741  1.00  0.00    -0.385 OA
ATOM     11  C   UNL A   1      33.277  24.104  21.996  1.00  0.00     0.194 C 
ENDBRANCH   9  10
ENDBRANCH   8   9
ENDBRANCH   7   8
BRANCH   7  12
ATOM     12  N   UNL A   1      32.898  26.965  25.371  1.00  0.00    -0.326 N 
ATOM     13  C   UNL A   1      32.243  25.983  26.025  1.00  0.00     0.318 C 
ATOM     14  H   UNL A   1      33.192  27.690  25.968  1.00  0.00     0.166 HD
ATOM     15  O   UNL A   1      31.526  26.387  26.948  1.00  0.00    -0.249 OA
BRANCH  13  16
ATOM     16  N   UNL A   1      32.362  24.647  25.769  1.00  0.00    -0.321 N 
ATOM     17  C   UNL A   1      31.484  23.740  25.018  1.00  0.00     0.143 C 
ATOM     18  C   UNL A   1      33.699  24.043  25.913  1.00  0.00     0.148 C 
ATOM     19  C   UNL A   1      31.217  22.446  25.764  1.00  0.00     0.143 C 
ATOM     20  C   UNL A   1      33.637  22.605  26.471  1.00  0.00     0.125 C 
ATOM     21  N   UNL A   1      32.507  21.824  25.974  1.00  0.00    -0.317 N 
ATOM     22  C   UNL A   1      34.830  21.742  26.058  1.00  0.00     0.144 C 
ATOM     23  C   UNL A   1      32.874  20.553  25.595  1.00  0.00     0.317 C 
ATOM     24  N   UNL A   1      34.246  20.460  25.747  1.00  0.00    -0.336 N 
ATOM     25  O   UNL A   1      32.153  19.674  25.150  1.00  0.00    -0.249 OA
ATOM     26  H   UNL A   1      34.758  19.624  25.655  1.00  0.00     0.165 HD
ENDBRANCH  13  16
ENDBRANCH   7  12
ENDBRANCH   4   7
ENDBRANCH   2   3
ENDBRANCH   1   2
BRANCH   1  27
ATOM     27  C   UNL A   1      31.085  31.980  26.492  1.00  0.00     0.023 C 
BRANCH  27  28
ATOM     28  C   UNL A   1      32.441  32.417  27.014  1.00  0.00     0.116 C 
BRANCH  28  29
ATOM     29  N   UNL A   1      32.419  33.832  27.336  1.00  0.00    -0.352 N 
ATOM     30  C   UNL A   1      33.044  34.477  28.376  1.00  0.00     0.251 C 
ATOM     31  H   UNL A   1      31.888  34.401  26.734  1.00  0.00     0.163 HD
ATOM     32  O   UNL A   1      32.642  35.579  28.738  1.00  0.00    -0.269 OA
BRANCH  30  33
ATOM     33  C   UNL A   1      34.204  33.855  29.057  1.00  0.00     0.039 A 
ATOM     34  C   UNL A   1      35.494  34.282  28.729  1.00  0.00     0.014 A 
ATOM     35  C   UNL A   1      34.028  32.807  29.966  1.00  0.00     0.014 A 
ATOM     36  C   UNL A   1      36.603  33.682  29.332  1.00  0.00     0.010 A 
ATOM     37  C   UNL A   1      35.132  32.250  30.612  1.00  0.00     0.010 A 
ATOM     38  C   UNL A   1      36.431  32.672  30.294  1.00  0.00    -0.014 A 
BRANCH  38  39
ATOM     39  C   UNL A   1      37.599  32.046  30.968  1.00  0.00     0.031 A 
ATOM     40  C   UNL A   1      38.397  30.976  30.272  1.00  0.00     0.074 A 
ATOM     41  C   UNL A   1      37.913  32.405  32.228  1.00  0.00     0.049 A 
ATOM     42  N   UNL A   1      39.407  30.272  30.717  1.00  0.00    -0.248 NA
ATOM     43  C   UNL A   1      37.992  30.640  28.898  1.00  0.00     0.031 C 
ATOM     44  C   UNL A   1      37.199  33.406  33.021  1.00  0.00     0.029 A 
ATOM     45  N   UNL A   1      38.904  31.960  33.068  1.00  0.00    -0.354 N 
ATOM     46  C   UNL A   1      39.749  29.404  29.687  1.00  0.00     0.074 A 
ATOM     47  C   UNL A   1      38.810  29.635  28.612  1.00  0.00     0.031 C 
ATOM     48  C   UNL A   1      37.783  33.511  34.225  1.00  0.00     0.029 A 
ATOM     49  C   UNL A   1      38.881  32.553  34.308  1.00  0.00     0.049 A 
ATOM     50  H   UNL A   1      39.567  31.282  32.808  1.00  0.00     0.167 HD
ATOM     51  C   UNL A   1      40.767  28.510  29.637  1.00  0.00     0.037 A 
ATOM     52  C   UNL A   1      39.647  32.336  35.395  1.00  0.00     0.037 A 
ATOM     53  C   UNL A   1      41.707  28.294  30.706  1.00  0.00     0.049 A 
ATOM     54  C   UNL A   1      40.745  31.308  35.326  1.00  0.00     0.074 A 
ATOM     55  C   UNL A   1      42.808  27.456  30.729  1.00  0.00     0.029 A 
ATOM     56  N   UNL A   1      41.648  28.910  31.949  1.00  0.00    -0.354 N 
ATOM     57  N   UNL A   1      41.109  30.551  34.319  1.00  0.00    -0.248 NA
ATOM     58  C   UNL A   1      41.544  31.107  36.543  1.00  0.00     0.031 C 
ATOM     59  C   UNL A   1      43.376  27.516  32.005  1.00  0.00     0.029 A 
ATOM     60  C   UNL A   1      42.672  28.442  32.757  1.00  0.00     0.049 A 
ATOM     61  H   UNL A   1      40.978  29.581  32.215  1.00  0.00     0.167 HD
ATOM     62  C   UNL A   1      42.189  29.805  34.771  1.00  0.00     0.074 A 
ATOM     63  C   UNL A   1      42.437  30.215  36.138  1.00  0.00     0.031 C 
ATOM     64  C   UNL A   1      42.911  28.864  34.114  1.00  0.00     0.037 A 
BRANCH  51  65
ATOM     65  C   UNL A   1      40.917  27.689  28.388  1.00  0.00     0.064 A 
ATOM     66  C   UNL A   1      41.715  28.115  27.314  1.00  0.00     0.173 A 
ATOM     67  C   UNL A   1      40.297  26.434  28.282  1.00  0.00     0.173 A 
ATOM     68  F   UNL A   1      42.325  29.309  27.359  1.00  0.00    -0.203 F 
ATOM     69  C   UNL A   1      41.860  27.331  26.172  1.00  0.00     0.198 A 
ATOM     70  C   UNL A   1      40.474  25.637  27.153  1.00  0.00     0.198 A 
ATOM     71  F   UNL A   1      39.533  25.971  29.283  1.00  0.00    -0.203 F 
ATOM     72  F   UNL A   1      42.587  27.783  25.140  1.00  0.00    -0.200 F 
ATOM     73  C   UNL A   1      41.247  26.091  26.096  1.00  0.00     0.200 A 
ATOM     74  F   UNL A   1      39.895  24.430  27.090  1.00  0.00    -0.200 F 
ATOM     75  F   UNL A   1      41.399  25.333  25.001  1.00  0.00    -0.200 F 
ENDBRANCH  51  65
BRANCH  52  76
ATOM     76  C   UNL A   1      39.401  33.106  36.644  1.00  0.00     0.064 A 
ATOM     77  C   UNL A   1      38.474  32.660  37.597  1.00  0.00     0.173 A 
ATOM     78  C   UNL A   1      40.078  34.306  36.907  1.00  0.00     0.173 A 
ATOM     79  F   UNL A   1      37.786  31.529  37.384  1.00  0.00    -0.203 F 
ATOM     80  C   UNL A   1      38.214  33.399  38.750  1.00  0.00     0.198 A 
ATOM     81  C   UNL A   1      39.844  35.025  38.078  1.00  0.00     0.198 A 
ATOM     82  F   UNL A   1      40.981  34.775  36.034  1.00  0.00    -0.203 F 
ATOM     83  F   UNL A   1      37.285  32.976  39.618  1.00  0.00    -0.200 F 
ATOM     84  C   UNL A   1      38.905  34.576  38.993  1.00  0.00     0.200 A 
ATOM     85  F   UNL A   1      40.527  36.153  38.316  1.00  0.00    -0.200 F 
ATOM     86  F   UNL A   1      38.659  35.283  40.105  1.00  0.00    -0.200 F 
ENDBRANCH  52  76
BRANCH  64  87
ATOM     87  C   UNL A   1      44.057  28.230  34.849  1.00  0.00     0.064 A 
ATOM     88  C   UNL A   1      43.905  27.032  35.563  1.00  0.00     0.173 A 
ATOM     89  C   UNL A   1      45.339  28.799  34.790  1.00  0.00     0.173 A 
ATOM     90  F   UNL A   1      42.698  26.455  35.665  1.00  0.00    -0.203 F 
ATOM     91  C   UNL A   1      44.988  26.440  36.207  1.00  0.00     0.198 A 
ATOM     92  C   UNL A   1      46.427  28.186  35.406  1.00  0.00     0.198 A 
ATOM     93  F   UNL A   1      45.542  29.941  34.115  1.00  0.00    -0.203 F 
ATOM     94  F   UNL A   1      44.810  25.320  36.922  1.00  0.00    -0.200 F 
ATOM     95  C   UNL A   1      46.249  27.011  36.119  1.00  0.00     0.200 A 
ATOM     96  F   UNL A   1      47.647  28.730  35.304  1.00  0.00    -0.200 F 
ATOM     97  F   UNL A   1      47.293  26.431  36.727  1.00  0.00    -0.200 F 
ENDBRANCH  64  87
ENDBRANCH  38  39
ENDBRANCH  30  33
ENDBRANCH  28  29
ENDBRANCH  27  28
ENDBRANCH   1  27
TORSDOF 16
ENDMDL
