MODEL 1
REMARK VINA RESULT:     -10.8      0.000      0.000
REMARK SMILES Cc1ccc2oc(CCCC(=O)NCCCCNC(=O)c3ccc(-c4c5nc(c(-c6c(F)c(F)c(F)c(F)c6F)c6ccc([nH]6)c(-c6c(F)c(F)c(F)c(F)c6F)c6nc(c(-c7c(F)c(F)c(F)c(F)c7F)c7ccc4[nH]7)C=C6)C=C5)cc3)cc(=O)c2c1
REMARK SMILES IDX 15 1 14 2 13 3 11 4 12 5 10 7 9 8 8 9 7 10 1 11 2 12 3 13
REMARK SMILES IDX 88 14 4 15 87 16 5 17 85 18 6 19 84 20 86 21 16 22 17 23
REMARK SMILES IDX 18 24 19 25 20 27 21 28 22 29 83 30 23 31 82 32 24 33 25 34
REMARK SMILES IDX 26 35 76 36 27 37 81 38 75 39 77 40 28 41 80 42 74 43 73 44
REMARK SMILES IDX 29 46 61 47 41 48 60 49 42 50 45 51 59 52 78 53 43 54 44 55
REMARK SMILES IDX 58 57 79 58 46 59 30 60 31 61 39 62 32 63 33 64 37 65 40 66
REMARK SMILES IDX 34 67 35 68 38 69 36 70 62 71 63 72 71 73 64 74 65 75 69 76
REMARK SMILES IDX 72 77 66 78 67 79 70 80 68 81 47 82 48 83 56 84 49 85 50 86
REMARK SMILES IDX 54 87 57 88 51 89 52 90 55 91 53 92
REMARK H PARENT 13 6 18 26 77 45 45 56
REMARK Flexibility Score: inf
ROOT
ATOM      1  C   UNL A   1      34.223  35.403  28.766  1.00  0.00     0.023 C 
ENDROOT
BRANCH   1   2
ATOM      2  C   UNL A   1      32.922  35.951  29.353  1.00  0.00     0.116 C 
BRANCH   2   3
ATOM      3  N   UNL A   1      33.199  37.071  30.229  1.00  0.00    -0.356 N 
ATOM      4  C   UNL A   1      33.168  37.133  31.588  1.00  0.00     0.220 C 
ATOM      5  O   UNL A   1      33.279  38.236  32.126  1.00  0.00    -0.275 OA
ATOM      6  H   UNL A   1      33.446  37.909  29.774  1.00  0.00     0.163 HD
BRANCH   4   7
ATOM      7  C   UNL A   1      33.051  35.867  32.414  1.00  0.00     0.100 C 
BRANCH   7   8
ATOM      8  C   UNL A   1      34.345  35.396  33.089  1.00  0.00     0.018 C 
BRANCH   8   9
ATOM      9  C   UNL A   1      34.527  33.897  33.384  1.00  0.00     0.076 C 
BRANCH   9  10
ATOM     10  C   UNL A   1      35.928  33.337  33.499  1.00  0.00     0.108 A 
ATOM     11  C   UNL A   1      40.929  29.201  33.781  1.00  0.00     0.044 C 
ATOM     12  C   UNL A   1      39.643  29.958  33.622  1.00  0.00    -0.050 A 
ATOM     13  C   UNL A   1      38.512  29.334  33.077  1.00  0.00     0.007 A 
ATOM     14  C   UNL A   1      39.573  31.310  33.990  1.00  0.00     0.019 A 
ATOM     15  C   UNL A   1      37.330  30.053  32.892  1.00  0.00     0.048 A 
ATOM     16  C   UNL A   1      38.382  32.021  33.806  1.00  0.00     0.065 A 
ATOM     17  C   UNL A   1      37.272  31.398  33.251  1.00  0.00     0.138 A 
ATOM     18  C   UNL A   1      38.262  33.433  34.203  1.00  0.00     0.192 A 
ATOM     19  O   UNL A   1      36.089  32.048  33.026  1.00  0.00    -0.461 OA
ATOM     20  C   UNL A   1      36.928  34.046  34.048  1.00  0.00     0.095 A 
ATOM     21  O   UNL A   1      39.199  34.068  34.669  1.00  0.00    -0.289 OA
ENDBRANCH   9  10
ENDBRANCH   8   9
ENDBRANCH   7   8
ENDBRANCH   4   7
ENDBRANCH   2   3
ENDBRANCH   1   2
BRANCH   1  22
ATOM     22  C   UNL A   1      34.689  34.096  29.399  1.00  0.00     0.023 C 
BRANCH  22  23
ATOM     23  C   UNL A   1      35.181  33.057  28.402  1.00  0.00     0.116 C 
BRANCH  23  24
ATOM     24  N   UNL A   1      34.156  32.105  27.998  1.00  0.00    -0.352 N 
ATOM     25  C   UNL A   1      34.286  30.750  27.801  1.00  0.00     0.251 C 
ATOM     26  H   UNL A   1      33.257  32.478  27.845  1.00  0.00     0.163 HD
ATOM     27  O   UNL A   1      33.354  30.077  27.376  1.00  0.00    -0.269 OA
BRANCH  25  28
ATOM     28  C   UNL A   1      35.596  30.124  28.065  1.00  0.00     0.039 A 
ATOM     29  C   UNL A   1      36.552  30.106  27.047  1.00  0.00     0.014 A 
ATOM     30  C   UNL A   1      35.904  29.657  29.344  1.00  0.00     0.014 A 
ATOM     31  C   UNL A   1      37.854  29.703  27.338  1.00  0.00     0.010 A 
ATOM     32  C   UNL A   1      37.218  29.328  29.650  1.00  0.00     0.010 A 
ATOM     33  C   UNL A   1      38.208  29.361  28.654  1.00  0.00    -0.014 A 
BRANCH  33  34
ATOM     34  C   UNL A   1      39.609  29.053  29.026  1.00  0.00     0.031 A 
ATOM     35  C   UNL A   1      40.424  30.072  29.766  1.00  0.00     0.074 A 
ATOM     36  C   UNL A   1      40.174  27.904  28.607  1.00  0.00     0.049 A 
ATOM     37  N   UNL A   1      41.700  30.060  30.058  1.00  0.00    -0.248 NA
ATOM     38  C   UNL A   1      39.717  31.285  30.207  1.00  0.00     0.031 C 
ATOM     39  C   UNL A   1      39.500  26.859  27.836  1.00  0.00     0.029 A 
ATOM     40  N   UNL A   1      41.455  27.432  28.755  1.00  0.00    -0.354 N 
ATOM     41  C   UNL A   1      41.952  31.270  30.688  1.00  0.00     0.074 A 
ATOM     42  C   UNL A   1      40.709  32.012  30.700  1.00  0.00     0.031 C 
ATOM     43  C   UNL A   1      40.367  25.862  27.592  1.00  0.00     0.029 A 
ATOM     44  C   UNL A   1      41.667  26.215  28.155  1.00  0.00     0.049 A 
ATOM     45  H   UNL A   1      42.155  27.920  29.247  1.00  0.00     0.167 HD
ATOM     46  C   UNL A   1      43.111  31.714  31.227  1.00  0.00     0.037 A 
ATOM     47  C   UNL A   1      42.788  25.475  28.058  1.00  0.00     0.037 A 
ATOM     48  C   UNL A   1      44.333  30.955  31.255  1.00  0.00     0.049 A 
ATOM     49  C   UNL A   1      44.060  25.986  28.677  1.00  0.00     0.074 A 
ATOM     50  C   UNL A   1      45.537  31.279  31.854  1.00  0.00     0.029 A 
ATOM     51  N   UNL A   1      44.501  29.714  30.659  1.00  0.00    -0.354 N 
ATOM     52  N   UNL A   1      44.272  27.106  29.324  1.00  0.00    -0.248 NA
ATOM     53  C   UNL A   1      45.248  25.131  28.548  1.00  0.00     0.031 C 
ATOM     54  C   UNL A   1      46.445  30.248  31.592  1.00  0.00     0.029 A 
ATOM     55  C   UNL A   1      45.797  29.267  30.859  1.00  0.00     0.049 A 
ATOM     56  H   UNL A   1      43.804  29.223  30.168  1.00  0.00     0.167 HD
ATOM     57  C   UNL A   1      45.609  27.084  29.695  1.00  0.00     0.074 A 
ATOM     58  C   UNL A   1      46.156  25.832  29.213  1.00  0.00     0.031 C 
ATOM     59  C   UNL A   1      46.321  28.018  30.370  1.00  0.00     0.037 A 
BRANCH  46  60
ATOM     60  C   UNL A   1      43.109  33.082  31.840  1.00  0.00     0.064 A 
ATOM     61  C   UNL A   1      43.351  34.230  31.070  1.00  0.00     0.173 A 
ATOM     62  C   UNL A   1      42.840  33.249  33.206  1.00  0.00     0.173 A 
ATOM     63  F   UNL A   1      43.629  34.120  29.762  1.00  0.00    -0.203 F 
ATOM     64  C   UNL A   1      43.351  35.494  31.652  1.00  0.00     0.198 A 
ATOM     65  C   UNL A   1      42.815  34.518  33.779  1.00  0.00     0.198 A 
ATOM     66  F   UNL A   1      42.600  32.184  33.984  1.00  0.00    -0.203 F 
ATOM     67  F   UNL A   1      43.632  36.572  30.908  1.00  0.00    -0.200 F 
ATOM     68  C   UNL A   1      43.077  35.638  33.005  1.00  0.00     0.200 A 
ATOM     69  F   UNL A   1      42.542  34.656  35.084  1.00  0.00    -0.200 F 
ATOM     70  F   UNL A   1      43.074  36.855  33.563  1.00  0.00    -0.200 F 
ENDBRANCH  46  60
BRANCH  47  71
ATOM     71  C   UNL A   1      42.754  24.165  27.360  1.00  0.00     0.064 A 
ATOM     72  C   UNL A   1      43.124  24.064  26.013  1.00  0.00     0.173 A 
ATOM     73  C   UNL A   1      42.350  22.995  28.019  1.00  0.00     0.173 A 
ATOM     74  F   UNL A   1      43.495  25.160  25.336  1.00  0.00    -0.203 F 
ATOM     75  C   UNL A   1      43.079  22.841  25.345  1.00  0.00     0.198 A 
ATOM     76  C   UNL A   1      42.328  21.770  27.356  1.00  0.00     0.198 A 
ATOM     77  F   UNL A   1      41.989  23.041  29.309  1.00  0.00    -0.203 F 
ATOM     78  F   UNL A   1      43.403  22.778  24.046  1.00  0.00    -0.200 F 
ATOM     79  C   UNL A   1      42.686  21.695  26.018  1.00  0.00     0.200 A 
ATOM     80  F   UNL A   1      41.957  20.662  28.013  1.00  0.00    -0.200 F 
ATOM     81  F   UNL A   1      42.645  20.519  25.376  1.00  0.00    -0.200 F 
ENDBRANCH  47  71
BRANCH  59  82
ATOM     82  C   UNL A   1      47.764  27.717  30.640  1.00  0.00     0.064 A 
ATOM     83  C   UNL A   1      48.158  26.999  31.779  1.00  0.00     0.173 A 
ATOM     84  C   UNL A   1      48.756  28.108  29.729  1.00  0.00     0.173 A 
ATOM     85  F   UNL A   1      47.245  26.619  32.686  1.00  0.00    -0.203 F 
ATOM     86  C   UNL A   1      49.497  26.694  32.002  1.00  0.00     0.198 A 
ATOM     87  C   UNL A   1      50.091  27.782  29.944  1.00  0.00     0.198 A 
ATOM     88  F   UNL A   1      48.427  28.794  28.625  1.00  0.00    -0.203 F 
ATOM     89  F   UNL A   1      49.856  26.036  33.112  1.00  0.00    -0.200 F 
ATOM     90  C   UNL A   1      50.461  27.079  31.082  1.00  0.00     0.200 A 
ATOM     91  F   UNL A   1      51.021  28.145  29.050  1.00  0.00    -0.200 F 
ATOM     92  F   UNL A   1      51.750  26.777  31.294  1.00  0.00    -0.200 F 
ENDBRANCH  59  82
ENDBRANCH  33  34
ENDBRANCH  25  28
ENDBRANCH  23  24
ENDBRANCH  22  23
ENDBRANCH   1  22
TORSDOF 14
ENDMDL
MODEL 2
REMARK VINA RESULT:     -10.7      5.263     10.303
REMARK SMILES Cc1ccc2oc(CCCC(=O)NCCCCNC(=O)c3ccc(-c4c5nc(c(-c6c(F)c(F)c(F)c(F)c6F)c6ccc([nH]6)c(-c6c(F)c(F)c(F)c(F)c6F)c6nc(c(-c7c(F)c(F)c(F)c(F)c7F)c7ccc4[nH]7)C=C6)C=C5)cc3)cc(=O)c2c1
REMARK SMILES IDX 15 1 14 2 13 3 11 4 12 5 10 7 9 8 8 9 7 10 1 11 2 12 3 13
REMARK SMILES IDX 88 14 4 15 87 16 5 17 85 18 6 19 84 20 86 21 16 22 17 23
REMARK SMILES IDX 18 24 19 25 20 27 21 28 22 29 83 30 23 31 82 32 24 33 25 34
REMARK SMILES IDX 26 35 76 36 27 37 81 38 75 39 77 40 28 41 80 42 74 43 73 44
REMARK SMILES IDX 29 46 61 47 41 48 60 49 42 50 45 51 59 52 78 53 43 54 44 55
REMARK SMILES IDX 58 57 79 58 46 59 30 60 31 61 39 62 32 63 33 64 37 65 40 66
REMARK SMILES IDX 34 67 35 68 38 69 36 70 62 71 63 72 71 73 64 74 65 75 69 76
REMARK SMILES IDX 72 77 66 78 67 79 70 80 68 81 47 82 48 83 56 84 49 85 50 86
REMARK SMILES IDX 54 87 57 88 51 89 52 90 55 91 53 92
REMARK H PARENT 13 6 18 26 77 45 45 56
REMARK Flexibility Score: inf
ROOT
ATOM      1  C   UNL A   1      37.350  21.757  24.534  1.00  0.00     0.023 C 
ENDROOT
BRANCH   1   2
ATOM      2  C   UNL A   1      36.896  22.700  25.649  1.00  0.00     0.116 C 
BRANCH   2   3
ATOM      3  N   UNL A   1      36.024  22.004  26.572  1.00  0.00    -0.356 N 
ATOM      4  C   UNL A   1      34.664  21.947  26.601  1.00  0.00     0.220 C 
ATOM      5  O   UNL A   1      34.122  21.427  27.578  1.00  0.00    -0.275 OA
ATOM      6  H   UNL A   1      36.482  21.497  27.282  1.00  0.00     0.163 HD
BRANCH   4   7
ATOM      7  C   UNL A   1      33.847  22.465  25.434  1.00  0.00     0.100 C 
BRANCH   7   8
ATOM      8  C   UNL A   1      33.440  21.415  24.394  1.00  0.00     0.018 C 
BRANCH   8   9
ATOM      9  C   UNL A   1      32.514  21.833  23.238  1.00  0.00     0.076 C 
BRANCH   9  10
ATOM     10  C   UNL A   1      32.290  23.306  22.973  1.00  0.00     0.108 A 
ATOM     11  C   UNL A   1      29.522  29.171  22.609  1.00  0.00     0.044 C 
ATOM     12  C   UNL A   1      29.969  27.759  22.852  1.00  0.00    -0.050 A 
ATOM     13  C   UNL A   1      29.258  26.927  23.729  1.00  0.00     0.007 A 
ATOM     14  C   UNL A   1      31.124  27.270  22.224  1.00  0.00     0.019 A 
ATOM     15  C   UNL A   1      29.700  25.628  23.983  1.00  0.00     0.048 A 
ATOM     16  C   UNL A   1      31.557  25.965  22.481  1.00  0.00     0.065 A 
ATOM     17  C   UNL A   1      30.854  25.154  23.363  1.00  0.00     0.138 A 
ATOM     18  C   UNL A   1      32.748  25.407  21.822  1.00  0.00     0.192 A 
ATOM     19  O   UNL A   1      31.242  23.878  23.671  1.00  0.00    -0.461 OA
ATOM     20  C   UNL A   1      33.048  23.989  22.101  1.00  0.00     0.095 A 
ATOM     21  O   UNL A   1      33.444  26.062  21.057  1.00  0.00    -0.289 OA
ENDBRANCH   9  10
ENDBRANCH   8   9
ENDBRANCH   7   8
ENDBRANCH   4   7
ENDBRANCH   2   3
ENDBRANCH   1   2
BRANCH   1  22
ATOM     22  C   UNL A   1      37.973  20.457  25.034  1.00  0.00     0.023 C 
BRANCH  22  23
ATOM     23  C   UNL A   1      39.304  20.636  25.750  1.00  0.00     0.116 C 
BRANCH  23  24
ATOM     24  N   UNL A   1      40.099  19.417  25.817  1.00  0.00    -0.352 N 
ATOM     25  C   UNL A   1      41.440  19.293  26.095  1.00  0.00     0.251 C 
ATOM     26  H   UNL A   1      39.616  18.577  25.641  1.00  0.00     0.163 HD
ATOM     27  O   UNL A   1      42.003  18.206  26.035  1.00  0.00    -0.269 OA
BRANCH  25  28
ATOM     28  C   UNL A   1      42.207  20.512  26.419  1.00  0.00     0.039 A 
ATOM     29  C   UNL A   1      42.745  21.266  25.374  1.00  0.00     0.014 A 
ATOM     30  C   UNL A   1      42.296  20.952  27.740  1.00  0.00     0.014 A 
ATOM     31  C   UNL A   1      43.296  22.518  25.648  1.00  0.00     0.010 A 
ATOM     32  C   UNL A   1      42.776  22.229  28.001  1.00  0.00     0.010 A 
ATOM     33  C   UNL A   1      43.267  23.029  26.956  1.00  0.00    -0.014 A 
BRANCH  33  34
ATOM     34  C   UNL A   1      43.725  24.405  27.263  1.00  0.00     0.031 A 
ATOM     35  C   UNL A   1      42.745  25.417  27.780  1.00  0.00     0.074 A 
ATOM     36  C   UNL A   1      44.990  24.768  26.976  1.00  0.00     0.049 A 
ATOM     37  N   UNL A   1      42.905  26.702  27.972  1.00  0.00    -0.248 NA
ATOM     38  C   UNL A   1      41.393  24.925  28.089  1.00  0.00     0.031 C 
ATOM     39  C   UNL A   1      46.020  23.888  26.421  1.00  0.00     0.029 A 
ATOM     40  N   UNL A   1      45.620  25.981  27.095  1.00  0.00    -0.354 N 
ATOM     41  C   UNL A   1      41.670  27.174  28.395  1.00  0.00     0.074 A 
ATOM     42  C   UNL A   1      40.760  26.049  28.392  1.00  0.00     0.031 C 
ATOM     43  C   UNL A   1      47.156  24.586  26.262  1.00  0.00     0.029 A 
ATOM     44  C   UNL A   1      46.925  25.969  26.666  1.00  0.00     0.049 A 
ATOM     45  H   UNL A   1      45.179  26.785  27.454  1.00  0.00     0.167 HD
ATOM     46  C   UNL A   1      41.333  28.428  28.773  1.00  0.00     0.037 A 
ATOM     47  C   UNL A   1      47.827  26.966  26.595  1.00  0.00     0.037 A 
ATOM     48  C   UNL A   1      42.252  29.534  28.820  1.00  0.00     0.049 A 
ATOM     49  C   UNL A   1      47.430  28.348  27.033  1.00  0.00     0.074 A 
ATOM     50  C   UNL A   1      42.030  30.822  29.272  1.00  0.00     0.029 A 
ATOM     51  N   UNL A   1      43.574  29.476  28.403  1.00  0.00    -0.354 N 
ATOM     52  N   UNL A   1      46.276  28.770  27.490  1.00  0.00    -0.248 NA
ATOM     53  C   UNL A   1      48.460  29.393  26.942  1.00  0.00     0.031 C 
ATOM     54  C   UNL A   1      43.209  31.555  29.097  1.00  0.00     0.029 A 
ATOM     55  C   UNL A   1      44.174  30.713  28.567  1.00  0.00     0.049 A 
ATOM     56  H   UNL A   1      44.019  28.675  28.044  1.00  0.00     0.167 HD
ATOM     57  C   UNL A   1      46.444  30.122  27.757  1.00  0.00     0.074 A 
ATOM     58  C   UNL A   1      47.816  30.447  27.425  1.00  0.00     0.031 C 
ATOM     59  C   UNL A   1      45.542  31.015  28.230  1.00  0.00     0.037 A 
BRANCH  46  60
ATOM     60  C   UNL A   1      39.909  28.669  29.175  1.00  0.00     0.064 A 
ATOM     61  C   UNL A   1      39.470  28.443  30.489  1.00  0.00     0.173 A 
ATOM     62  C   UNL A   1      38.979  29.153  28.244  1.00  0.00     0.173 A 
ATOM     63  F   UNL A   1      40.319  27.966  31.411  1.00  0.00    -0.203 F 
ATOM     64  C   UNL A   1      38.144  28.667  30.848  1.00  0.00     0.198 A 
ATOM     65  C   UNL A   1      37.660  29.400  28.614  1.00  0.00     0.198 A 
ATOM     66  F   UNL A   1      39.349  29.387  26.977  1.00  0.00    -0.203 F 
ATOM     67  F   UNL A   1      37.736  28.398  32.096  1.00  0.00    -0.200 F 
ATOM     68  C   UNL A   1      37.241  29.151  29.912  1.00  0.00     0.200 A 
ATOM     69  F   UNL A   1      36.790  29.876  27.711  1.00  0.00    -0.200 F 
ATOM     70  F   UNL A   1      35.966  29.368  30.261  1.00  0.00    -0.200 F 
ENDBRANCH  46  60
BRANCH  47  71
ATOM     71  C   UNL A   1      49.201  26.689  26.102  1.00  0.00     0.064 A 
ATOM     72  C   UNL A   1      49.553  26.965  24.775  1.00  0.00     0.173 A 
ATOM     73  C   UNL A   1      50.183  26.144  26.942  1.00  0.00     0.173 A 
ATOM     74  F   UNL A   1      48.640  27.466  23.930  1.00  0.00    -0.203 F 
ATOM     75  C   UNL A   1      50.835  26.693  24.300  1.00  0.00     0.198 A 
ATOM     76  C   UNL A   1      51.470  25.893  26.472  1.00  0.00     0.198 A 
ATOM     77  F   UNL A   1      49.895  25.865  28.221  1.00  0.00    -0.203 F 
ATOM     78  F   UNL A   1      51.135  26.931  23.016  1.00  0.00    -0.200 F 
ATOM     79  C   UNL A   1      51.794  26.162  25.149  1.00  0.00     0.200 A 
ATOM     80  F   UNL A   1      52.397  25.390  27.298  1.00  0.00    -0.200 F 
ATOM     81  F   UNL A   1      53.026  25.903  24.692  1.00  0.00    -0.200 F 
ENDBRANCH  47  71
BRANCH  59  82
ATOM     82  C   UNL A   1      46.012  32.423  28.432  1.00  0.00     0.064 A 
ATOM     83  C   UNL A   1      45.880  33.387  27.422  1.00  0.00     0.173 A 
ATOM     84  C   UNL A   1      46.554  32.824  29.661  1.00  0.00     0.173 A 
ATOM     85  F   UNL A   1      45.381  33.045  26.224  1.00  0.00    -0.203 F 
ATOM     86  C   UNL A   1      46.287  34.701  27.632  1.00  0.00     0.198 A 
ATOM     87  C   UNL A   1      46.939  34.144  29.876  1.00  0.00     0.198 A 
ATOM     88  F   UNL A   1      46.697  31.938  30.658  1.00  0.00    -0.203 F 
ATOM     89  F   UNL A   1      46.184  35.599  26.643  1.00  0.00    -0.200 F 
ATOM     90  C   UNL A   1      46.810  35.080  28.860  1.00  0.00     0.200 A 
ATOM     91  F   UNL A   1      47.435  34.511  31.066  1.00  0.00    -0.200 F 
ATOM     92  F   UNL A   1      47.194  36.348  29.064  1.00  0.00    -0.200 F 
ENDBRANCH  59  82
ENDBRANCH  33  34
ENDBRANCH  25  28
ENDBRANCH  23  24
ENDBRANCH  22  23
ENDBRANCH   1  22
TORSDOF 14
ENDMDL
MODEL 3
REMARK VINA RESULT:     -10.7      4.699     10.892
REMARK SMILES Cc1ccc2oc(CCCC(=O)NCCCCNC(=O)c3ccc(-c4c5nc(c(-c6c(F)c(F)c(F)c(F)c6F)c6ccc([nH]6)c(-c6c(F)c(F)c(F)c(F)c6F)c6nc(c(-c7c(F)c(F)c(F)c(F)c7F)c7ccc4[nH]7)C=C6)C=C5)cc3)cc(=O)c2c1
REMARK SMILES IDX 15 1 14 2 13 3 11 4 12 5 10 7 9 8 8 9 7 10 1 11 2 12 3 13
REMARK SMILES IDX 88 14 4 15 87 16 5 17 85 18 6 19 84 20 86 21 16 22 17 23
REMARK SMILES IDX 18 24 19 25 20 27 21 28 22 29 83 30 23 31 82 32 24 33 25 34
REMARK SMILES IDX 26 35 76 36 27 37 81 38 75 39 77 40 28 41 80 42 74 43 73 44
REMARK SMILES IDX 29 46 61 47 41 48 60 49 42 50 45 51 59 52 78 53 43 54 44 55
REMARK SMILES IDX 58 57 79 58 46 59 30 60 31 61 39 62 32 63 33 64 37 65 40 66
REMARK SMILES IDX 34 67 35 68 38 69 36 70 62 71 63 72 71 73 64 74 65 75 69 76
REMARK SMILES IDX 72 77 66 78 67 79 70 80 68 81 47 82 48 83 56 84 49 85 50 86
REMARK SMILES IDX 54 87 57 88 51 89 52 90 55 91 53 92
REMARK H PARENT 13 6 18 26 77 45 45 56
REMARK Flexibility Score: inf
ROOT
ATOM      1  C   UNL A   1      32.438  30.159  27.115  1.00  0.00     0.023 C 
ENDROOT
BRANCH   1   2
ATOM      2  C   UNL A   1      33.841  29.849  26.593  1.00  0.00     0.116 C 
BRANCH   2   3
ATOM      3  N   UNL A   1      33.769  29.298  25.255  1.00  0.00    -0.356 N 
ATOM      4  C   UNL A   1      33.839  28.000  24.850  1.00  0.00     0.220 C 
ATOM      5  O   UNL A   1      33.921  27.768  23.643  1.00  0.00    -0.275 OA
ATOM      6  H   UNL A   1      33.653  29.959  24.534  1.00  0.00     0.163 HD
BRANCH   4   7
ATOM      7  C   UNL A   1      33.764  26.873  25.862  1.00  0.00     0.100 C 
BRANCH   7   8
ATOM      8  C   UNL A   1      34.196  25.495  25.348  1.00  0.00     0.018 C 
BRANCH   8   9
ATOM      9  C   UNL A   1      33.484  24.242  25.890  1.00  0.00     0.076 C 
BRANCH   9  10
ATOM     10  C   UNL A   1      33.984  22.877  25.473  1.00  0.00     0.108 A 
ATOM     11  C   UNL A   1      34.160  16.594  23.834  1.00  0.00     0.044 C 
ATOM     12  C   UNL A   1      33.868  18.026  24.170  1.00  0.00    -0.050 A 
ATOM     13  C   UNL A   1      32.563  18.530  24.071  1.00  0.00     0.007 A 
ATOM     14  C   UNL A   1      34.908  18.884  24.557  1.00  0.00     0.019 A 
ATOM     15  C   UNL A   1      32.302  19.874  24.344  1.00  0.00     0.048 A 
ATOM     16  C   UNL A   1      34.637  20.228  24.836  1.00  0.00     0.065 A 
ATOM     17  C   UNL A   1      33.343  20.720  24.719  1.00  0.00     0.138 A 
ATOM     18  C   UNL A   1      35.696  21.151  25.270  1.00  0.00     0.192 A 
ATOM     19  O   UNL A   1      33.022  22.029  24.955  1.00  0.00    -0.461 OA
ATOM     20  C   UNL A   1      35.269  22.519  25.626  1.00  0.00     0.095 A 
ATOM     21  O   UNL A   1      36.868  20.810  25.367  1.00  0.00    -0.289 OA
ENDBRANCH   9  10
ENDBRANCH   8   9
ENDBRANCH   7   8
ENDBRANCH   4   7
ENDBRANCH   2   3
ENDBRANCH   1   2
BRANCH   1  22
ATOM     22  C   UNL A   1      32.033  31.623  26.980  1.00  0.00     0.023 C 
BRANCH  22  23
ATOM     23  C   UNL A   1      33.098  32.611  27.434  1.00  0.00     0.116 C 
BRANCH  23  24
ATOM     24  N   UNL A   1      32.583  33.952  27.679  1.00  0.00    -0.352 N 
ATOM     25  C   UNL A   1      33.032  34.879  28.590  1.00  0.00     0.251 C 
ATOM     26  H   UNL A   1      31.819  34.229  27.123  1.00  0.00     0.163 HD
ATOM     27  O   UNL A   1      32.449  35.946  28.749  1.00  0.00    -0.269 OA
BRANCH  25  28
ATOM     28  C   UNL A   1      34.208  34.543  29.415  1.00  0.00     0.039 A 
ATOM     29  C   UNL A   1      34.006  33.998  30.685  1.00  0.00     0.014 A 
ATOM     30  C   UNL A   1      35.494  34.670  28.887  1.00  0.00     0.014 A 
ATOM     31  C   UNL A   1      35.095  33.491  31.393  1.00  0.00     0.010 A 
ATOM     32  C   UNL A   1      36.566  34.098  29.560  1.00  0.00     0.010 A 
ATOM     33  C   UNL A   1      36.374  33.491  30.812  1.00  0.00    -0.014 A 
BRANCH  33  34
ATOM     34  C   UNL A   1      37.530  32.846  31.479  1.00  0.00     0.031 A 
ATOM     35  C   UNL A   1      38.214  31.683  30.822  1.00  0.00     0.074 A 
ATOM     36  C   UNL A   1      37.893  33.239  32.715  1.00  0.00     0.049 A 
ATOM     37  N   UNL A   1      39.143  30.892  31.297  1.00  0.00    -0.248 NA
ATOM     38  C   UNL A   1      37.770  31.341  29.461  1.00  0.00     0.031 C 
ATOM     39  C   UNL A   1      37.270  34.321  33.478  1.00  0.00     0.029 A 
ATOM     40  N   UNL A   1      38.863  32.756  33.557  1.00  0.00    -0.354 N 
ATOM     41  C   UNL A   1      39.371  29.946  30.307  1.00  0.00     0.074 A 
ATOM     42  C   UNL A   1      38.456  30.234  29.223  1.00  0.00     0.031 C 
ATOM     43  C   UNL A   1      37.883  34.431  34.668  1.00  0.00     0.029 A 
ATOM     44  C   UNL A   1      38.914  33.403  34.768  1.00  0.00     0.049 A 
ATOM     45  H   UNL A   1      39.466  32.016  33.316  1.00  0.00     0.167 HD
ATOM     46  C   UNL A   1      40.277  28.942  30.296  1.00  0.00     0.037 A 
ATOM     47  C   UNL A   1      39.696  33.180  35.842  1.00  0.00     0.037 A 
ATOM     48  C   UNL A   1      41.216  28.687  31.355  1.00  0.00     0.049 A 
ATOM     49  C   UNL A   1      40.704  32.065  35.798  1.00  0.00     0.074 A 
ATOM     50  C   UNL A   1      42.232  27.749  31.401  1.00  0.00     0.029 A 
ATOM     51  N   UNL A   1      41.255  29.382  32.555  1.00  0.00    -0.354 N 
ATOM     52  N   UNL A   1      40.953  31.215  34.832  1.00  0.00    -0.248 NA
ATOM     53  C   UNL A   1      41.535  31.877  36.995  1.00  0.00     0.031 C 
ATOM     54  C   UNL A   1      42.865  27.853  32.644  1.00  0.00     0.029 A 
ATOM     55  C   UNL A   1      42.265  28.878  33.358  1.00  0.00     0.049 A 
ATOM     56  H   UNL A   1      40.654  30.122  32.800  1.00  0.00     0.167 HD
ATOM     57  C   UNL A   1      41.979  30.403  35.295  1.00  0.00     0.074 A 
ATOM     58  C   UNL A   1      42.316  30.872  36.623  1.00  0.00     0.031 C 
ATOM     59  C   UNL A   1      42.584  29.360  34.677  1.00  0.00     0.037 A 
BRANCH  46  60
ATOM     60  C   UNL A   1      40.301  28.047  29.093  1.00  0.00     0.064 A 
ATOM     61  C   UNL A   1      39.557  26.858  29.049  1.00  0.00     0.173 A 
ATOM     62  C   UNL A   1      41.058  28.392  27.965  1.00  0.00     0.173 A 
ATOM     63  F   UNL A   1      38.829  26.477  30.110  1.00  0.00    -0.203 F 
ATOM     64  C   UNL A   1      39.591  26.033  27.928  1.00  0.00     0.198 A 
ATOM     65  C   UNL A   1      41.069  27.578  26.835  1.00  0.00     0.198 A 
ATOM     66  F   UNL A   1      41.785  29.519  27.956  1.00  0.00    -0.203 F 
ATOM     67  F   UNL A   1      38.911  24.879  27.926  1.00  0.00    -0.200 F 
ATOM     68  C   UNL A   1      40.342  26.397  26.819  1.00  0.00     0.200 A 
ATOM     69  F   UNL A   1      41.789  27.934  25.761  1.00  0.00    -0.200 F 
ATOM     70  F   UNL A   1      40.373  25.604  25.741  1.00  0.00    -0.200 F 
ENDBRANCH  46  60
BRANCH  47  71
ATOM     71  C   UNL A   1      39.568  34.043  37.043  1.00  0.00     0.064 A 
ATOM     72  C   UNL A   1      38.763  33.651  38.121  1.00  0.00     0.173 A 
ATOM     73  C   UNL A   1      40.239  35.270  37.139  1.00  0.00     0.173 A 
ATOM     74  F   UNL A   1      38.085  32.496  38.065  1.00  0.00    -0.203 F 
ATOM     75  C   UNL A   1      38.623  34.462  39.246  1.00  0.00     0.198 A 
ATOM     76  C   UNL A   1      40.116  36.069  38.273  1.00  0.00     0.198 A 
ATOM     77  F   UNL A   1      41.023  35.687  36.134  1.00  0.00    -0.203 F 
ATOM     78  F   UNL A   1      37.818  34.081  40.248  1.00  0.00    -0.200 F 
ATOM     79  C   UNL A   1      39.303  35.667  39.324  1.00  0.00     0.200 A 
ATOM     80  F   UNL A   1      40.783  37.228  38.349  1.00  0.00    -0.200 F 
ATOM     81  F   UNL A   1      39.170  36.446  40.407  1.00  0.00    -0.200 F 
ENDBRANCH  47  71
BRANCH  59  82
ATOM     82  C   UNL A   1      43.682  28.665  35.423  1.00  0.00     0.064 A 
ATOM     83  C   UNL A   1      45.024  29.036  35.258  1.00  0.00     0.173 A 
ATOM     84  C   UNL A   1      43.385  27.653  36.347  1.00  0.00     0.173 A 
ATOM     85  F   UNL A   1      45.356  29.988  34.373  1.00  0.00    -0.203 F 
ATOM     86  C   UNL A   1      46.033  28.408  35.982  1.00  0.00     0.198 A 
ATOM     87  C   UNL A   1      44.393  27.043  37.087  1.00  0.00     0.198 A 
ATOM     88  F   UNL A   1      42.116  27.266  36.542  1.00  0.00    -0.203 F 
ATOM     89  F   UNL A   1      47.312  28.753  35.785  1.00  0.00    -0.200 F 
ATOM     90  C   UNL A   1      45.716  27.417  36.901  1.00  0.00     0.200 A 
ATOM     91  F   UNL A   1      44.086  26.093  37.981  1.00  0.00    -0.200 F 
ATOM     92  F   UNL A   1      46.688  26.819  37.604  1.00  0.00    -0.200 F 
ENDBRANCH  59  82
ENDBRANCH  33  34
ENDBRANCH  25  28
ENDBRANCH  23  24
ENDBRANCH  22  23
ENDBRANCH   1  22
TORSDOF 14
ENDMDL
