MODEL 1
REMARK VINA RESULT:     -13.4      0.000      0.000
REMARK SMILES Cc1[nH]cnc1C[NH+]1CCC(Oc2cccc(F)c2)(C(=O)NCCCCNC(=O)c2ccc(-c3c4nc(c(-c5c(F)c(F)c(F)c(F)c5F)c5ccc([nH]5)c(-c5c(F)c(F)c(F)c(F)c5F)c5nc(c(-c6c(F)c(F)c(F)c(F)c6F)c6ccc3[nH]6)C=C5)C=C4)cc2)CC1
REMARK SMILES IDX 24 1 23 2 22 3 20 4 21 5 11 7 8 8 9 9 94 10 10 12 93 13 7 14
REMARK SMILES IDX 6 15 1 16 2 17 3 18 4 19 5 21 12 22 13 23 14 24 19 25 15 26
REMARK SMILES IDX 17 27 16 28 18 29 25 30 26 31 27 32 28 33 29 35 30 36 31 37
REMARK SMILES IDX 92 38 32 39 91 40 33 41 34 42 35 43 85 44 36 45 90 46 84 47
REMARK SMILES IDX 86 48 37 49 89 50 83 51 82 52 38 54 70 55 50 56 69 57 51 58
REMARK SMILES IDX 54 59 68 60 87 61 52 62 53 63 67 65 88 66 55 67 39 68 40 69
REMARK SMILES IDX 48 70 41 71 42 72 46 73 49 74 43 75 44 76 47 77 45 78 71 79
REMARK SMILES IDX 72 80 80 81 73 82 74 83 78 84 81 85 75 86 76 87 79 88 77 89
REMARK SMILES IDX 56 90 57 91 65 92 58 93 59 94 63 95 66 96 60 97 61 98 64 99
REMARK SMILES IDX 62 100
REMARK H PARENT 22 6 8 11 3 20 27 34 86 53 54 64
REMARK Flexibility Score: inf
ROOT
ATOM      1  C   UNL A   1      31.907  30.495  26.689  1.00  0.00     0.023 C 
ENDROOT
BRANCH   1   2
ATOM      2  C   UNL A   1      31.418  29.924  25.360  1.00  0.00     0.116 C 
BRANCH   2   3
ATOM      3  N   UNL A   1      32.512  29.725  24.432  1.00  0.00    -0.353 N 
ATOM      4  C   UNL A   1      32.648  28.841  23.396  1.00  0.00     0.264 C 
ATOM      5  O   UNL A   1      33.651  28.999  22.692  1.00  0.00    -0.270 OA
ATOM      6  H   UNL A   1      33.283  30.322  24.569  1.00  0.00     0.163 HD
BRANCH   4   7
ATOM      7  C   UNL A   1      31.589  27.729  23.125  1.00  0.00     0.197 C 
ATOM      8  N   UNL A   1      32.319  25.432  24.789  1.00  0.00    -0.330 N 
ATOM      9  C   UNL A   1      31.791  26.645  25.408  1.00  0.00     0.267 C 
ATOM     10  C   UNL A   1      33.120  25.734  23.594  1.00  0.00     0.267 C 
ATOM     11  H   UNL A   1      31.513  24.892  24.476  1.00  0.00     0.348 HD
ATOM     12  C   UNL A   1      30.857  27.332  24.418  1.00  0.00     0.120 C 
ATOM     13  C   UNL A   1      32.286  26.480  22.542  1.00  0.00     0.120 C 
BRANCH   8  14
ATOM     14  C   UNL A   1      33.033  24.564  25.748  1.00  0.00     0.321 C 
BRANCH  14  15
ATOM     15  C   UNL A   1      32.685  23.106  25.644  1.00  0.00     0.115 A 
ATOM     16  C   UNL A   1      30.279  22.888  26.683  1.00  0.00     0.066 C 
ATOM     17  C   UNL A   1      31.541  22.439  26.053  1.00  0.00     0.040 A 
ATOM     18  N   UNL A   1      31.775  21.120  25.750  1.00  0.00    -0.348 N 
ATOM     19  C   UNL A   1      33.002  21.036  25.163  1.00  0.00     0.197 A 
ATOM     20  H   UNL A   1      31.165  20.367  25.926  1.00  0.00     0.167 HD
ATOM     21  N   UNL A   1      33.561  22.216  25.057  1.00  0.00    -0.236 NA
ENDBRANCH  14  15
ENDBRANCH   8  14
BRANCH   7  22
ATOM     22  O   UNL A   1      30.755  28.399  22.138  1.00  0.00    -0.477 OA
BRANCH  22  23
ATOM     23  C   UNL A   1      29.640  29.050  22.571  1.00  0.00     0.123 A 
ATOM     24  C   UNL A   1      29.536  30.440  22.498  1.00  0.00     0.046 A 
ATOM     25  C   UNL A   1      28.541  28.285  22.950  1.00  0.00     0.085 A 
ATOM     26  C   UNL A   1      28.364  31.075  22.908  1.00  0.00     0.007 A 
ATOM     27  C   UNL A   1      27.372  28.927  23.338  1.00  0.00     0.126 A 
ATOM     28  C   UNL A   1      27.279  30.315  23.338  1.00  0.00     0.039 A 
ATOM     29  F   UNL A   1      26.312  28.197  23.711  1.00  0.00    -0.207 F 
ENDBRANCH  22  23
ENDBRANCH   7  22
ENDBRANCH   4   7
ENDBRANCH   2   3
ENDBRANCH   1   2
BRANCH   1  30
ATOM     30  C   UNL A   1      31.642  31.990  26.874  1.00  0.00     0.023 C 
BRANCH  30  31
ATOM     31  C   UNL A   1      32.864  32.822  27.244  1.00  0.00     0.116 C 
BRANCH  31  32
ATOM     32  N   UNL A   1      32.526  34.181  27.640  1.00  0.00    -0.352 N 
ATOM     33  C   UNL A   1      33.045  34.946  28.654  1.00  0.00     0.251 C 
ATOM     34  H   UNL A   1      31.823  34.614  27.103  1.00  0.00     0.163 HD
ATOM     35  O   UNL A   1      32.534  36.026  28.934  1.00  0.00    -0.269 OA
BRANCH  33  36
ATOM     36  C   UNL A   1      34.197  34.450  29.434  1.00  0.00     0.039 A 
ATOM     37  C   UNL A   1      33.957  33.834  30.665  1.00  0.00     0.014 A 
ATOM     38  C   UNL A   1      35.504  34.574  28.952  1.00  0.00     0.014 A 
ATOM     39  C   UNL A   1      35.021  33.277  31.375  1.00  0.00     0.010 A 
ATOM     40  C   UNL A   1      36.550  33.947  29.621  1.00  0.00     0.010 A 
ATOM     41  C   UNL A   1      36.320  33.289  30.838  1.00  0.00    -0.014 A 
BRANCH  41  42
ATOM     42  C   UNL A   1      37.432  32.585  31.525  1.00  0.00     0.031 A 
ATOM     43  C   UNL A   1      38.127  31.426  30.869  1.00  0.00     0.074 A 
ATOM     44  C   UNL A   1      37.781  32.964  32.770  1.00  0.00     0.049 A 
ATOM     45  N   UNL A   1      39.107  30.687  31.327  1.00  0.00    -0.248 NA
ATOM     46  C   UNL A   1      37.649  31.030  29.537  1.00  0.00     0.031 C 
ATOM     47  C   UNL A   1      37.141  34.037  33.534  1.00  0.00     0.029 A 
ATOM     48  N   UNL A   1      38.759  32.496  33.612  1.00  0.00    -0.354 N 
ATOM     49  C   UNL A   1      39.357  29.740  30.343  1.00  0.00     0.074 A 
ATOM     50  C   UNL A   1      38.389  29.958  29.290  1.00  0.00     0.031 C 
ATOM     51  C   UNL A   1      37.766  34.171  34.713  1.00  0.00     0.029 A 
ATOM     52  C   UNL A   1      38.823  33.168  34.808  1.00  0.00     0.049 A 
ATOM     53  H   UNL A   1      39.356  31.748  33.381  1.00  0.00     0.167 HD
ATOM     54  C   UNL A   1      40.324  28.794  30.312  1.00  0.00     0.037 A 
ATOM     55  C   UNL A   1      39.642  32.999  35.864  1.00  0.00     0.037 A 
ATOM     56  C   UNL A   1      41.297  28.594  31.355  1.00  0.00     0.049 A 
ATOM     57  C   UNL A   1      40.702  31.934  35.808  1.00  0.00     0.074 A 
ATOM     58  C   UNL A   1      42.357  27.705  31.383  1.00  0.00     0.029 A 
ATOM     59  N   UNL A   1      41.325  29.288  32.556  1.00  0.00    -0.354 N 
ATOM     60  N   UNL A   1      40.976  31.093  34.841  1.00  0.00    -0.248 NA
ATOM     61  C   UNL A   1      41.568  31.797  36.987  1.00  0.00     0.031 C 
ATOM     62  C   UNL A   1      42.990  27.818  32.623  1.00  0.00     0.029 A 
ATOM     63  C   UNL A   1      42.365  28.822  33.346  1.00  0.00     0.049 A 
ATOM     64  H   UNL A   1      40.700  30.006  32.809  1.00  0.00     0.167 HD
ATOM     65  C   UNL A   1      42.051  30.336  35.286  1.00  0.00     0.074 A 
ATOM     66  C   UNL A   1      42.396  30.836  36.601  1.00  0.00     0.031 C 
ATOM     67  C   UNL A   1      42.691  29.318  34.660  1.00  0.00     0.037 A 
BRANCH  54  68
ATOM     68  C   UNL A   1      40.394  27.902  29.105  1.00  0.00     0.064 A 
ATOM     69  C   UNL A   1      41.161  28.272  27.988  1.00  0.00     0.173 A 
ATOM     70  C   UNL A   1      39.645  26.719  29.021  1.00  0.00     0.173 A 
ATOM     71  F   UNL A   1      41.892  29.397  28.012  1.00  0.00    -0.203 F 
ATOM     72  C   UNL A   1      41.163  27.498  26.831  1.00  0.00     0.198 A 
ATOM     73  C   UNL A   1      39.675  25.930  27.874  1.00  0.00     0.198 A 
ATOM     74  F   UNL A   1      38.903  26.314  30.064  1.00  0.00    -0.203 F 
ATOM     75  F   UNL A   1      41.874  27.891  25.765  1.00  0.00    -0.200 F 
ATOM     76  C   UNL A   1      40.425  26.326  26.777  1.00  0.00     0.200 A 
ATOM     77  F   UNL A   1      38.980  24.785  27.833  1.00  0.00    -0.200 F 
ATOM     78  F   UNL A   1      40.436  25.576  25.666  1.00  0.00    -0.200 F 
ENDBRANCH  54  68
BRANCH  55  79
ATOM     79  C   UNL A   1      39.505  33.892  37.044  1.00  0.00     0.064 A 
ATOM     80  C   UNL A   1      38.727  33.523  38.152  1.00  0.00     0.173 A 
ATOM     81  C   UNL A   1      40.112  35.154  37.065  1.00  0.00     0.173 A 
ATOM     82  F   UNL A   1      38.119  32.327  38.178  1.00  0.00    -0.203 F 
ATOM     83  C   UNL A   1      38.540  34.394  39.223  1.00  0.00     0.198 A 
ATOM     84  C   UNL A   1      39.949  36.014  38.150  1.00  0.00     0.198 A 
ATOM     85  F   UNL A   1      40.880  35.544  36.038  1.00  0.00    -0.203 F 
ATOM     86  F   UNL A   1      37.756  34.035  40.248  1.00  0.00    -0.200 F 
ATOM     87  C   UNL A   1      39.153  35.637  39.222  1.00  0.00     0.200 A 
ATOM     88  F   UNL A   1      40.561  37.205  38.155  1.00  0.00    -0.200 F 
ATOM     89  F   UNL A   1      38.979  36.474  40.255  1.00  0.00    -0.200 F 
ENDBRANCH  55  79
BRANCH  67  90
ATOM     90  C   UNL A   1      43.834  28.666  35.384  1.00  0.00     0.064 A 
ATOM     91  C   UNL A   1      43.599  27.646  36.319  1.00  0.00     0.173 A 
ATOM     92  C   UNL A   1      45.158  29.095  35.201  1.00  0.00     0.173 A 
ATOM     93  F   UNL A   1      42.352  27.204  36.538  1.00  0.00    -0.203 F 
ATOM     94  C   UNL A   1      44.643  27.092  37.055  1.00  0.00     0.198 A 
ATOM     95  C   UNL A   1      46.203  28.516  35.915  1.00  0.00     0.198 A 
ATOM     96  F   UNL A   1      45.438  30.058  34.310  1.00  0.00    -0.203 F 
ATOM     97  F   UNL A   1      44.388  26.145  37.969  1.00  0.00    -0.200 F 
ATOM     98  C   UNL A   1      45.944  27.523  36.848  1.00  0.00     0.200 A 
ATOM     99  F   UNL A   1      47.463  28.914  35.694  1.00  0.00    -0.200 F 
ATOM    100  F   UNL A   1      46.950  26.978  37.546  1.00  0.00    -0.200 F 
ENDBRANCH  67  90
ENDBRANCH  41  42
ENDBRANCH  33  36
ENDBRANCH  31  32
ENDBRANCH  30  31
ENDBRANCH   1  30
TORSDOF 15
ENDMDL
MODEL 2
REMARK VINA RESULT:     -13.4      0.544      7.212
REMARK SMILES Cc1[nH]cnc1C[NH+]1CCC(Oc2cccc(F)c2)(C(=O)NCCCCNC(=O)c2ccc(-c3c4nc(c(-c5c(F)c(F)c(F)c(F)c5F)c5ccc([nH]5)c(-c5c(F)c(F)c(F)c(F)c5F)c5nc(c(-c6c(F)c(F)c(F)c(F)c6F)c6ccc3[nH]6)C=C5)C=C4)cc2)CC1
REMARK SMILES IDX 24 1 23 2 22 3 20 4 21 5 11 7 8 8 9 9 94 10 10 12 93 13 7 14
REMARK SMILES IDX 6 15 1 16 2 17 3 18 4 19 5 21 12 22 13 23 14 24 19 25 15 26
REMARK SMILES IDX 17 27 16 28 18 29 25 30 26 31 27 32 28 33 29 35 30 36 31 37
REMARK SMILES IDX 92 38 32 39 91 40 33 41 34 42 35 43 85 44 36 45 90 46 84 47
REMARK SMILES IDX 86 48 37 49 89 50 83 51 82 52 38 54 70 55 50 56 69 57 51 58
REMARK SMILES IDX 54 59 68 60 87 61 52 62 53 63 67 65 88 66 55 67 39 68 40 69
REMARK SMILES IDX 48 70 41 71 42 72 46 73 49 74 43 75 44 76 47 77 45 78 71 79
REMARK SMILES IDX 72 80 80 81 73 82 74 83 78 84 81 85 75 86 76 87 79 88 77 89
REMARK SMILES IDX 56 90 57 91 65 92 58 93 59 94 63 95 66 96 60 97 61 98 64 99
REMARK SMILES IDX 62 100
REMARK H PARENT 22 6 8 11 3 20 27 34 86 53 54 64
REMARK Flexibility Score: inf
ROOT
ATOM      1  C   UNL A   1      31.782  30.502  26.534  1.00  0.00     0.023 C 
ENDROOT
BRANCH   1   2
ATOM      2  C   UNL A   1      31.325  29.915  25.200  1.00  0.00     0.116 C 
BRANCH   2   3
ATOM      3  N   UNL A   1      32.443  29.702  24.303  1.00  0.00    -0.353 N 
ATOM      4  C   UNL A   1      32.633  28.759  23.330  1.00  0.00     0.264 C 
ATOM      5  O   UNL A   1      33.640  28.913  22.632  1.00  0.00    -0.270 OA
ATOM      6  H   UNL A   1      33.185  30.339  24.411  1.00  0.00     0.163 HD
BRANCH   4   7
ATOM      7  C   UNL A   1      31.626  27.587  23.118  1.00  0.00     0.197 C 
ATOM      8  N   UNL A   1      32.427  25.435  24.937  1.00  0.00    -0.330 N 
ATOM      9  C   UNL A   1      31.838  26.661  25.469  1.00  0.00     0.267 C 
ATOM     10  C   UNL A   1      33.232  25.693  23.735  1.00  0.00     0.267 C 
ATOM     11  H   UNL A   1      31.649  24.842  24.649  1.00  0.00     0.348 HD
ATOM     12  C   UNL A   1      30.892  27.242  24.425  1.00  0.00     0.120 C 
ATOM     13  C   UNL A   1      32.384  26.334  22.626  1.00  0.00     0.120 C 
BRANCH   8  14
ATOM     14  C   UNL A   1      33.163  24.662  25.959  1.00  0.00     0.321 C 
BRANCH  14  15
ATOM     15  C   UNL A   1      32.935  23.178  25.896  1.00  0.00     0.115 A 
ATOM     16  C   UNL A   1      30.396  22.835  26.490  1.00  0.00     0.066 C 
ATOM     17  C   UNL A   1      31.780  22.449  26.136  1.00  0.00     0.040 A 
ATOM     18  N   UNL A   1      32.153  21.137  25.975  1.00  0.00    -0.348 N 
ATOM     19  C   UNL A   1      33.471  21.114  25.630  1.00  0.00     0.197 A 
ATOM     20  H   UNL A   1      31.571  20.351  26.089  1.00  0.00     0.167 HD
ATOM     21  N   UNL A   1      33.962  22.325  25.545  1.00  0.00    -0.236 NA
ENDBRANCH  14  15
ENDBRANCH   8  14
BRANCH   7  22
ATOM     22  O   UNL A   1      30.779  28.156  22.080  1.00  0.00    -0.477 OA
BRANCH  22  23
ATOM     23  C   UNL A   1      29.668  28.845  22.459  1.00  0.00     0.123 A 
ATOM     24  C   UNL A   1      29.524  30.204  22.177  1.00  0.00     0.046 A 
ATOM     25  C   UNL A   1      28.607  28.127  23.003  1.00  0.00     0.085 A 
ATOM     26  C   UNL A   1      28.355  30.873  22.539  1.00  0.00     0.007 A 
ATOM     27  C   UNL A   1      27.440  28.799  23.342  1.00  0.00     0.126 A 
ATOM     28  C   UNL A   1      27.310  30.168  23.132  1.00  0.00     0.039 A 
ATOM     29  F   UNL A   1      26.416  28.116  23.873  1.00  0.00    -0.207 F 
ENDBRANCH  22  23
ENDBRANCH   7  22
ENDBRANCH   4   7
ENDBRANCH   2   3
ENDBRANCH   1   2
BRANCH   1  30
ATOM     30  C   UNL A   1      31.595  32.014  26.658  1.00  0.00     0.023 C 
BRANCH  30  31
ATOM     31  C   UNL A   1      32.812  32.777  27.168  1.00  0.00     0.116 C 
BRANCH  31  32
ATOM     32  N   UNL A   1      32.489  34.120  27.626  1.00  0.00    -0.352 N 
ATOM     33  C   UNL A   1      33.045  34.848  28.647  1.00  0.00     0.251 C 
ATOM     34  H   UNL A   1      31.767  34.572  27.131  1.00  0.00     0.163 HD
ATOM     35  O   UNL A   1      32.545  35.917  28.985  1.00  0.00    -0.269 OA
BRANCH  33  36
ATOM     36  C   UNL A   1      34.225  34.325  29.366  1.00  0.00     0.039 A 
ATOM     37  C   UNL A   1      34.024  33.587  30.535  1.00  0.00     0.014 A 
ATOM     38  C   UNL A   1      35.520  34.544  28.885  1.00  0.00     0.014 A 
ATOM     39  C   UNL A   1      35.117  33.006  31.179  1.00  0.00     0.010 A 
ATOM     40  C   UNL A   1      36.598  33.897  29.482  1.00  0.00     0.010 A 
ATOM     41  C   UNL A   1      36.408  33.118  30.633  1.00  0.00    -0.014 A 
BRANCH  41  42
ATOM     42  C   UNL A   1      37.554  32.395  31.240  1.00  0.00     0.031 A 
ATOM     43  C   UNL A   1      38.050  32.757  32.610  1.00  0.00     0.074 A 
ATOM     44  C   UNL A   1      38.180  31.438  30.526  1.00  0.00     0.049 A 
ATOM     45  N   UNL A   1      39.045  32.242  33.289  1.00  0.00    -0.248 NA
ATOM     46  C   UNL A   1      37.356  33.854  33.301  1.00  0.00     0.031 C 
ATOM     47  C   UNL A   1      37.827  31.038  29.163  1.00  0.00     0.029 A 
ATOM     48  N   UNL A   1      39.240  30.627  30.846  1.00  0.00    -0.354 N 
ATOM     49  C   UNL A   1      39.097  32.953  34.480  1.00  0.00     0.074 A 
ATOM     50  C   UNL A   1      38.074  33.974  34.409  1.00  0.00     0.031 C 
ATOM     51  C   UNL A   1      38.627  30.033  28.778  1.00  0.00     0.029 A 
ATOM     52  C   UNL A   1      39.578  29.745  29.849  1.00  0.00     0.049 A 
ATOM     53  H   UNL A   1      39.714  30.674  31.707  1.00  0.00     0.167 HD
ATOM     54  C   UNL A   1      39.906  32.751  35.546  1.00  0.00     0.037 A 
ATOM     55  C   UNL A   1      40.544  28.808  29.800  1.00  0.00     0.037 A 
ATOM     56  C   UNL A   1      40.909  31.720  35.619  1.00  0.00     0.049 A 
ATOM     57  C   UNL A   1      41.436  28.610  30.993  1.00  0.00     0.074 A 
ATOM     58  C   UNL A   1      41.733  31.395  36.682  1.00  0.00     0.029 A 
ATOM     59  N   UNL A   1      41.230  30.852  34.586  1.00  0.00    -0.354 N 
ATOM     60  N   UNL A   1      41.428  29.240  32.143  1.00  0.00    -0.248 NA
ATOM     61  C   UNL A   1      42.470  27.571  30.885  1.00  0.00     0.031 C 
ATOM     62  C   UNL A   1      42.592  30.372  36.274  1.00  0.00     0.029 A 
ATOM     63  C   UNL A   1      42.263  30.013  34.976  1.00  0.00     0.049 A 
ATOM     64  H   UNL A   1      40.788  30.832  33.705  1.00  0.00     0.167 HD
ATOM     65  C   UNL A   1      42.441  28.668  32.900  1.00  0.00     0.074 A 
ATOM     66  C   UNL A   1      43.028  27.622  32.087  1.00  0.00     0.031 C 
ATOM     67  C   UNL A   1      42.848  28.984  34.154  1.00  0.00     0.037 A 
BRANCH  54  68
ATOM     68  C   UNL A   1      39.740  33.655  36.735  1.00  0.00     0.064 A 
ATOM     69  C   UNL A   1      38.874  33.302  37.782  1.00  0.00     0.173 A 
ATOM     70  C   UNL A   1      40.376  34.903  36.803  1.00  0.00     0.173 A 
ATOM     71  F   UNL A   1      38.235  32.123  37.764  1.00  0.00    -0.203 F 
ATOM     72  C   UNL A   1      38.644  34.172  38.846  1.00  0.00     0.198 A 
ATOM     73  C   UNL A   1      40.169  35.756  37.884  1.00  0.00     0.198 A 
ATOM     74  F   UNL A   1      41.222  35.285  35.833  1.00  0.00    -0.203 F 
ATOM     75  F   UNL A   1      37.786  33.828  39.816  1.00  0.00    -0.200 F 
ATOM     76  C   UNL A   1      39.295  35.395  38.898  1.00  0.00     0.200 A 
ATOM     77  F   UNL A   1      40.818  36.927  37.945  1.00  0.00    -0.200 F 
ATOM     78  F   UNL A   1      39.080  36.225  39.928  1.00  0.00    -0.200 F 
ENDBRANCH  54  68
BRANCH  55  79
ATOM     79  C   UNL A   1      40.681  27.964  28.584  1.00  0.00     0.064 A 
ATOM     80  C   UNL A   1      41.442  28.387  27.485  1.00  0.00     0.173 A 
ATOM     81  C   UNL A   1      40.012  26.737  28.481  1.00  0.00     0.173 A 
ATOM     82  F   UNL A   1      42.098  29.557  27.531  1.00  0.00    -0.203 F 
ATOM     83  C   UNL A   1      41.508  27.628  26.319  1.00  0.00     0.198 A 
ATOM     84  C   UNL A   1      40.101  25.964  27.325  1.00  0.00     0.198 A 
ATOM     85  F   UNL A   1      39.286  26.282  29.512  1.00  0.00    -0.203 F 
ATOM     86  F   UNL A   1      42.206  28.076  25.267  1.00  0.00    -0.200 F 
ATOM     87  C   UNL A   1      40.839  26.416  26.241  1.00  0.00     0.200 A 
ATOM     88  F   UNL A   1      39.471  24.784  27.262  1.00  0.00    -0.200 F 
ATOM     89  F   UNL A   1      40.905  25.682  25.121  1.00  0.00    -0.200 F 
ENDBRANCH  55  79
BRANCH  67  90
ATOM     90  C   UNL A   1      43.987  28.195  34.735  1.00  0.00     0.064 A 
ATOM     91  C   UNL A   1      43.744  27.021  35.463  1.00  0.00     0.173 A 
ATOM     92  C   UNL A   1      45.314  28.636  34.625  1.00  0.00     0.173 A 
ATOM     93  F   UNL A   1      42.492  26.559  35.604  1.00  0.00    -0.203 F 
ATOM     94  C   UNL A   1      44.784  26.327  36.075  1.00  0.00     0.198 A 
ATOM     95  C   UNL A   1      46.356  27.921  35.211  1.00  0.00     0.198 A 
ATOM     96  F   UNL A   1      45.602  29.745  33.928  1.00  0.00    -0.203 F 
ATOM     97  F   UNL A   1      44.522  25.229  36.797  1.00  0.00    -0.200 F 
ATOM     98  C   UNL A   1      46.090  26.774  35.943  1.00  0.00     0.200 A 
ATOM     99  F   UNL A   1      47.620  28.340  35.059  1.00  0.00    -0.200 F 
ATOM    100  F   UNL A   1      47.093  26.097  36.519  1.00  0.00    -0.200 F 
ENDBRANCH  67  90
ENDBRANCH  41  42
ENDBRANCH  33  36
ENDBRANCH  31  32
ENDBRANCH  30  31
ENDBRANCH   1  30
TORSDOF 15
ENDMDL
MODEL 3
REMARK VINA RESULT:     -13.3      5.829     11.478
REMARK SMILES Cc1[nH]cnc1C[NH+]1CCC(Oc2cccc(F)c2)(C(=O)NCCCCNC(=O)c2ccc(-c3c4nc(c(-c5c(F)c(F)c(F)c(F)c5F)c5ccc([nH]5)c(-c5c(F)c(F)c(F)c(F)c5F)c5nc(c(-c6c(F)c(F)c(F)c(F)c6F)c6ccc3[nH]6)C=C5)C=C4)cc2)CC1
REMARK SMILES IDX 24 1 23 2 22 3 20 4 21 5 11 7 8 8 9 9 94 10 10 12 93 13 7 14
REMARK SMILES IDX 6 15 1 16 2 17 3 18 4 19 5 21 12 22 13 23 14 24 19 25 15 26
REMARK SMILES IDX 17 27 16 28 18 29 25 30 26 31 27 32 28 33 29 35 30 36 31 37
REMARK SMILES IDX 92 38 32 39 91 40 33 41 34 42 35 43 85 44 36 45 90 46 84 47
REMARK SMILES IDX 86 48 37 49 89 50 83 51 82 52 38 54 70 55 50 56 69 57 51 58
REMARK SMILES IDX 54 59 68 60 87 61 52 62 53 63 67 65 88 66 55 67 39 68 40 69
REMARK SMILES IDX 48 70 41 71 42 72 46 73 49 74 43 75 44 76 47 77 45 78 71 79
REMARK SMILES IDX 72 80 80 81 73 82 74 83 78 84 81 85 75 86 76 87 79 88 77 89
REMARK SMILES IDX 56 90 57 91 65 92 58 93 59 94 63 95 66 96 60 97 61 98 64 99
REMARK SMILES IDX 62 100
REMARK H PARENT 22 6 8 11 3 20 27 34 86 53 54 64
REMARK Flexibility Score: inf
ROOT
ATOM      1  C   UNL A   1      37.143  21.117  24.956  1.00  0.00     0.023 C 
ENDROOT
BRANCH   1   2
ATOM      2  C   UNL A   1      35.715  20.592  25.090  1.00  0.00     0.116 C 
BRANCH   2   3
ATOM      3  N   UNL A   1      35.058  21.134  26.263  1.00  0.00    -0.353 N 
ATOM      4  C   UNL A   1      33.757  21.510  26.458  1.00  0.00     0.264 C 
ATOM      5  O   UNL A   1      33.461  21.814  27.618  1.00  0.00    -0.270 OA
ATOM      6  H   UNL A   1      35.644  21.249  27.047  1.00  0.00     0.163 HD
BRANCH   4   7
ATOM      7  C   UNL A   1      32.727  21.529  25.288  1.00  0.00     0.197 C 
ATOM      8  N   UNL A   1      32.883  24.183  24.058  1.00  0.00    -0.330 N 
ATOM      9  C   UNL A   1      33.981  23.236  23.893  1.00  0.00     0.267 C 
ATOM     10  C   UNL A   1      32.228  24.037  25.366  1.00  0.00     0.267 C 
ATOM     11  H   UNL A   1      32.186  23.946  23.352  1.00  0.00     0.348 HD
ATOM     12  C   UNL A   1      33.418  21.821  23.944  1.00  0.00     0.120 C 
ATOM     13  C   UNL A   1      31.665  22.620  25.549  1.00  0.00     0.120 C 
BRANCH   8  14
ATOM     14  C   UNL A   1      33.281  25.578  23.774  1.00  0.00     0.321 C 
BRANCH  14  15
ATOM     15  C   UNL A   1      32.131  26.536  23.641  1.00  0.00     0.115 A 
ATOM     16  C   UNL A   1      32.238  28.058  25.784  1.00  0.00     0.066 C 
ATOM     17  C   UNL A   1      31.716  27.544  24.498  1.00  0.00     0.040 A 
ATOM     18  N   UNL A   1      30.596  28.073  23.903  1.00  0.00    -0.348 N 
ATOM     19  C   UNL A   1      30.391  27.407  22.731  1.00  0.00     0.197 A 
ATOM     20  H   UNL A   1      30.040  28.803  24.259  1.00  0.00     0.167 HD
ATOM     21  N   UNL A   1      31.312  26.499  22.531  1.00  0.00    -0.236 NA
ENDBRANCH  14  15
ENDBRANCH   8  14
BRANCH   7  22
ATOM     22  O   UNL A   1      32.174  20.188  25.406  1.00  0.00    -0.477 OA
BRANCH  22  23
ATOM     23  C   UNL A   1      32.618  19.229  24.548  1.00  0.00     0.123 A 
ATOM     24  C   UNL A   1      33.332  18.121  25.004  1.00  0.00     0.046 A 
ATOM     25  C   UNL A   1      32.212  19.301  23.219  1.00  0.00     0.085 A 
ATOM     26  C   UNL A   1      33.736  17.132  24.107  1.00  0.00     0.007 A 
ATOM     27  C   UNL A   1      32.602  18.301  22.338  1.00  0.00     0.126 A 
ATOM     28  C   UNL A   1      33.376  17.227  22.765  1.00  0.00     0.039 A 
ATOM     29  F   UNL A   1      32.221  18.367  21.055  1.00  0.00    -0.207 F 
ENDBRANCH  22  23
ENDBRANCH   7  22
ENDBRANCH   4   7
ENDBRANCH   2   3
ENDBRANCH   1   2
BRANCH   1  30
ATOM     30  C   UNL A   1      38.222  20.035  24.987  1.00  0.00     0.023 C 
BRANCH  30  31
ATOM     31  C   UNL A   1      39.310  20.236  26.035  1.00  0.00     0.116 C 
BRANCH  31  32
ATOM     32  N   UNL A   1      40.315  19.184  26.019  1.00  0.00    -0.352 N 
ATOM     33  C   UNL A   1      41.680  19.284  26.110  1.00  0.00     0.251 C 
ATOM     34  H   UNL A   1      39.965  18.268  25.930  1.00  0.00     0.163 HD
ATOM     35  O   UNL A   1      42.384  18.294  25.932  1.00  0.00    -0.269 OA
BRANCH  33  36
ATOM     36  C   UNL A   1      42.306  20.594  26.384  1.00  0.00     0.039 A 
ATOM     37  C   UNL A   1      42.636  21.417  25.304  1.00  0.00     0.014 A 
ATOM     38  C   UNL A   1      42.551  21.018  27.693  1.00  0.00     0.014 A 
ATOM     39  C   UNL A   1      43.142  22.695  25.542  1.00  0.00     0.010 A 
ATOM     40  C   UNL A   1      42.978  22.322  27.929  1.00  0.00     0.010 A 
ATOM     41  C   UNL A   1      43.275  23.176  26.857  1.00  0.00    -0.014 A 
BRANCH  41  42
ATOM     42  C   UNL A   1      43.688  24.578  27.114  1.00  0.00     0.031 A 
ATOM     43  C   UNL A   1      42.704  25.583  27.639  1.00  0.00     0.074 A 
ATOM     44  C   UNL A   1      44.949  24.955  26.825  1.00  0.00     0.049 A 
ATOM     45  N   UNL A   1      42.886  26.852  27.909  1.00  0.00    -0.248 NA
ATOM     46  C   UNL A   1      41.330  25.112  27.871  1.00  0.00     0.031 C 
ATOM     47  C   UNL A   1      45.980  24.084  26.257  1.00  0.00     0.029 A 
ATOM     48  N   UNL A   1      45.581  26.166  26.970  1.00  0.00    -0.354 N 
ATOM     49  C   UNL A   1      41.654  27.328  28.336  1.00  0.00     0.074 A 
ATOM     50  C   UNL A   1      40.717  26.230  28.235  1.00  0.00     0.031 C 
ATOM     51  C   UNL A   1      47.123  24.775  26.138  1.00  0.00     0.029 A 
ATOM     52  C   UNL A   1      46.898  26.148  26.582  1.00  0.00     0.049 A 
ATOM     53  H   UNL A   1      45.132  26.969  27.318  1.00  0.00     0.167 HD
ATOM     54  C   UNL A   1      41.342  28.562  28.798  1.00  0.00     0.037 A 
ATOM     55  C   UNL A   1      47.823  27.127  26.582  1.00  0.00     0.037 A 
ATOM     56  C   UNL A   1      42.284  29.645  28.916  1.00  0.00     0.049 A 
ATOM     57  C   UNL A   1      47.449  28.491  27.091  1.00  0.00     0.074 A 
ATOM     58  C   UNL A   1      42.077  30.911  29.434  1.00  0.00     0.029 A 
ATOM     59  N   UNL A   1      43.607  29.594  28.503  1.00  0.00    -0.354 N 
ATOM     60  N   UNL A   1      46.299  28.909  27.562  1.00  0.00    -0.248 NA
ATOM     61  C   UNL A   1      48.500  29.518  27.071  1.00  0.00     0.031 C 
ATOM     62  C   UNL A   1      43.256  31.644  29.281  1.00  0.00     0.029 A 
ATOM     63  C   UNL A   1      44.220  30.817  28.725  1.00  0.00     0.049 A 
ATOM     64  H   UNL A   1      44.047  28.804  28.111  1.00  0.00     0.167 HD
ATOM     65  C   UNL A   1      46.489  30.240  27.907  1.00  0.00     0.074 A 
ATOM     66  C   UNL A   1      47.873  30.553  27.614  1.00  0.00     0.031 C 
ATOM     67  C   UNL A   1      45.595  31.122  28.418  1.00  0.00     0.037 A 
BRANCH  54  68
ATOM     68  C   UNL A   1      39.924  28.812  29.226  1.00  0.00     0.064 A 
ATOM     69  C   UNL A   1      39.515  28.526  30.539  1.00  0.00     0.173 A 
ATOM     70  C   UNL A   1      38.952  29.265  28.321  1.00  0.00     0.173 A 
ATOM     71  F   UNL A   1      40.401  28.085  31.443  1.00  0.00    -0.203 F 
ATOM     72  C   UNL A   1      38.184  28.671  30.922  1.00  0.00     0.198 A 
ATOM     73  C   UNL A   1      37.629  29.439  28.717  1.00  0.00     0.198 A 
ATOM     74  F   UNL A   1      39.293  29.563  27.057  1.00  0.00    -0.203 F 
ATOM     75  F   UNL A   1      37.810  28.357  32.170  1.00  0.00    -0.200 F 
ATOM     76  C   UNL A   1      37.244  29.132  30.013  1.00  0.00     0.200 A 
ATOM     77  F   UNL A   1      36.727  29.908  27.843  1.00  0.00    -0.200 F 
ATOM     78  F   UNL A   1      35.965  29.281  30.387  1.00  0.00    -0.200 F 
ENDBRANCH  54  68
BRANCH  55  79
ATOM     79  C   UNL A   1      49.203  26.827  26.117  1.00  0.00     0.064 A 
ATOM     80  C   UNL A   1      49.585  27.036  24.784  1.00  0.00     0.173 A 
ATOM     81  C   UNL A   1      50.153  26.279  26.989  1.00  0.00     0.173 A 
ATOM     82  F   UNL A   1      48.710  27.552  23.907  1.00  0.00    -0.203 F 
ATOM     83  C   UNL A   1      50.855  26.684  24.335  1.00  0.00     0.198 A 
ATOM     84  C   UNL A   1      51.433  25.954  26.546  1.00  0.00     0.198 A 
ATOM     85  F   UNL A   1      49.841  26.078  28.278  1.00  0.00    -0.203 F 
ATOM     86  F   UNL A   1      51.180  26.852  23.046  1.00  0.00    -0.200 F 
ATOM     87  C   UNL A   1      51.779  26.145  25.217  1.00  0.00     0.200 A 
ATOM     88  F   UNL A   1      52.330  25.454  27.407  1.00  0.00    -0.200 F 
ATOM     89  F   UNL A   1      53.004  25.811  24.787  1.00  0.00    -0.200 F 
ENDBRANCH  55  79
BRANCH  67  90
ATOM     90  C   UNL A   1      46.076  32.517  28.696  1.00  0.00     0.064 A 
ATOM     91  C   UNL A   1      46.598  32.856  29.953  1.00  0.00     0.173 A 
ATOM     92  C   UNL A   1      45.960  33.536  27.738  1.00  0.00     0.173 A 
ATOM     93  F   UNL A   1      46.724  31.921  30.907  1.00  0.00    -0.203 F 
ATOM     94  C   UNL A   1      46.970  34.165  30.247  1.00  0.00     0.198 A 
ATOM     95  C   UNL A   1      46.364  34.837  28.025  1.00  0.00     0.198 A 
ATOM     96  F   UNL A   1      45.479  33.263  26.516  1.00  0.00    -0.203 F 
ATOM     97  F   UNL A   1      47.431  34.471  31.468  1.00  0.00    -0.200 F 
ATOM     98  C   UNL A   1      46.859  35.152  29.281  1.00  0.00     0.200 A 
ATOM     99  F   UNL A   1      46.281  35.785  27.081  1.00  0.00    -0.200 F 
ATOM    100  F   UNL A   1      47.232  36.409  29.560  1.00  0.00    -0.200 F 
ENDBRANCH  67  90
ENDBRANCH  41  42
ENDBRANCH  33  36
ENDBRANCH  31  32
ENDBRANCH  30  31
ENDBRANCH   1  30
TORSDOF 15
ENDMDL
