MODEL 1
REMARK VINA RESULT:     -12.9      0.000      0.000
REMARK SMILES Nc1c(Nc2ccc(I)cc2)ncnc1Nc1ccc(C(=O)NCCCCNC(=O)c2ccc(-c3c4nc(c(-c5c(F)c(F)c(F)c(F)c5F)c5ccc([nH]5)c(-c5c(F)c(F)c(F)c(F)c5F)c5nc(c(-c6c(F)c(F)c(F)c(F)c6F)c6ccc3[nH]6)C=C5)C=C4)cc2)cc1
REMARK SMILES IDX 24 1 23 2 21 3 22 4 20 6 17 7 18 8 95 9 19 10 94 11 16 12
REMARK SMILES IDX 15 14 2 15 3 16 12 17 14 18 13 19 1 20 4 23 5 25 6 26 11 27
REMARK SMILES IDX 7 28 10 29 8 30 9 31 25 32 26 33 27 34 28 35 29 36 30 38
REMARK SMILES IDX 31 39 32 40 93 41 33 42 92 43 34 44 35 45 36 46 86 47 37 48
REMARK SMILES IDX 91 49 85 50 87 51 38 52 90 53 84 54 83 55 39 57 71 58 51 59
REMARK SMILES IDX 70 60 52 61 55 62 69 63 88 64 53 65 54 66 68 68 89 69 56 70
REMARK SMILES IDX 40 71 41 72 49 73 42 74 43 75 47 76 50 77 44 78 45 79 48 80
REMARK SMILES IDX 46 81 72 82 73 83 81 84 74 85 75 86 79 87 82 88 76 89 77 90
REMARK SMILES IDX 80 91 78 92 57 93 58 94 66 95 59 96 60 97 64 98 67 99 61 100
REMARK SMILES IDX 62 101 65 102 63 103
REMARK H PARENT 23 5 16 13 1 21 1 22 4 24 28 37 87 56 55 67
REMARK Flexibility Score: inf
ROOT
ATOM      1  C   UNL A   1      36.065  20.812  25.348  1.00  0.00     0.116 C 
ENDROOT
BRANCH   1   2
ATOM      2  N   UNL A   1      35.327  19.601  25.051  1.00  0.00    -0.352 N 
ATOM      3  C   UNL A   1      34.041  19.388  24.624  1.00  0.00     0.251 C 
ATOM      4  O   UNL A   1      33.694  18.218  24.448  1.00  0.00    -0.269 OA
ATOM      5  H   UNL A   1      35.848  18.776  25.180  1.00  0.00     0.163 HD
BRANCH   3   6
ATOM      6  C   UNL A   1      33.077  20.483  24.311  1.00  0.00     0.039 A 
ATOM      7  C   UNL A   1      31.376  22.588  23.486  1.00  0.00     0.040 A 
ATOM      8  C   UNL A   1      31.832  21.644  22.564  1.00  0.00     0.027 A 
ATOM      9  C   UNL A   1      31.738  22.440  24.827  1.00  0.00     0.027 A 
ATOM     10  C   UNL A   1      32.677  20.606  22.971  1.00  0.00     0.016 A 
ATOM     11  C   UNL A   1      32.548  21.378  25.242  1.00  0.00     0.016 A 
BRANCH   7  12
ATOM     12  N   UNL A   1      30.704  23.741  23.049  1.00  0.00    -0.338 N 
ATOM     13  H   UNL A   1      29.801  23.635  22.673  1.00  0.00     0.168 HD
BRANCH  12  14
ATOM     14  C   UNL A   1      31.246  25.053  23.117  1.00  0.00     0.159 A 
ATOM     15  C   UNL A   1      30.767  25.929  24.100  1.00  0.00     0.118 A 
ATOM     16  C   UNL A   1      31.307  27.224  24.058  1.00  0.00     0.159 A 
ATOM     17  N   UNL A   1      32.188  27.611  23.117  1.00  0.00    -0.217 NA
ATOM     18  N   UNL A   1      32.175  25.416  22.212  1.00  0.00    -0.217 NA
ATOM     19  C   UNL A   1      32.589  26.682  22.250  1.00  0.00     0.226 A 
BRANCH  15  20
ATOM     20  N   UNL A   1      29.859  25.530  25.086  1.00  0.00    -0.393 N 
ATOM     21  H   UNL A   1      30.103  24.820  25.722  1.00  0.00     0.156 HD
ATOM     22  H   UNL A   1      28.975  25.958  25.142  1.00  0.00     0.156 HD
ENDBRANCH  15  20
BRANCH  16  23
ATOM     23  N   UNL A   1      30.921  28.149  25.060  1.00  0.00    -0.338 N 
ATOM     24  H   UNL A   1      29.968  28.155  25.306  1.00  0.00     0.168 HD
BRANCH  23  25
ATOM     25  C   UNL A   1      31.748  29.059  25.738  1.00  0.00     0.040 A 
ATOM     26  C   UNL A   1      31.410  30.418  25.767  1.00  0.00     0.027 A 
ATOM     27  C   UNL A   1      32.872  28.637  26.461  1.00  0.00     0.027 A 
ATOM     28  C   UNL A   1      32.161  31.328  26.517  1.00  0.00     0.017 A 
ATOM     29  C   UNL A   1      33.636  29.543  27.202  1.00  0.00     0.017 A 
ATOM     30  C   UNL A   1      33.270  30.886  27.235  1.00  0.00     0.013 A 
ATOM     31  I   UNL A   1      34.368  32.229  28.378  1.00  0.00    -0.044 I 
ENDBRANCH  23  25
ENDBRANCH  16  23
ENDBRANCH  12  14
ENDBRANCH   7  12
ENDBRANCH   3   6
ENDBRANCH   1   2
BRANCH   1  32
ATOM     32  C   UNL A   1      37.433  20.790  24.663  1.00  0.00     0.023 C 
BRANCH  32  33
ATOM     33  C   UNL A   1      38.305  19.591  25.040  1.00  0.00     0.023 C 
BRANCH  33  34
ATOM     34  C   UNL A   1      39.521  19.926  25.895  1.00  0.00     0.116 C 
BRANCH  34  35
ATOM     35  N   UNL A   1      40.551  18.900  25.856  1.00  0.00    -0.352 N 
ATOM     36  C   UNL A   1      41.905  19.049  26.041  1.00  0.00     0.251 C 
ATOM     37  H   UNL A   1      40.240  17.984  25.676  1.00  0.00     0.163 HD
ATOM     38  O   UNL A   1      42.669  18.107  25.885  1.00  0.00    -0.269 OA
BRANCH  36  39
ATOM     39  C   UNL A   1      42.430  20.384  26.387  1.00  0.00     0.039 A 
ATOM     40  C   UNL A   1      42.855  21.223  25.357  1.00  0.00     0.014 A 
ATOM     41  C   UNL A   1      42.447  20.816  27.717  1.00  0.00     0.014 A 
ATOM     42  C   UNL A   1      43.243  22.529  25.656  1.00  0.00     0.010 A 
ATOM     43  C   UNL A   1      42.772  22.137  28.005  1.00  0.00     0.010 A 
ATOM     44  C   UNL A   1      43.173  23.003  26.977  1.00  0.00    -0.014 A 
BRANCH  44  45
ATOM     45  C   UNL A   1      43.534  24.405  27.292  1.00  0.00     0.031 A 
ATOM     46  C   UNL A   1      44.930  24.893  27.041  1.00  0.00     0.074 A 
ATOM     47  C   UNL A   1      42.609  25.226  27.823  1.00  0.00     0.049 A 
ATOM     48  N   UNL A   1      45.434  26.087  27.230  1.00  0.00    -0.248 NA
ATOM     49  C   UNL A   1      45.897  23.907  26.530  1.00  0.00     0.031 C 
ATOM     50  C   UNL A   1      41.234  24.847  28.156  1.00  0.00     0.029 A 
ATOM     51  N   UNL A   1      42.682  26.551  28.169  1.00  0.00    -0.354 N 
ATOM     52  C   UNL A   1      46.766  25.994  26.856  1.00  0.00     0.074 A 
ATOM     53  C   UNL A   1      47.015  24.617  26.494  1.00  0.00     0.031 C 
ATOM     54  C   UNL A   1      40.582  25.926  28.617  1.00  0.00     0.029 A 
ATOM     55  C   UNL A   1      41.496  27.065  28.635  1.00  0.00     0.049 A 
ATOM     56  H   UNL A   1      43.506  27.085  28.092  1.00  0.00     0.167 HD
ATOM     57  C   UNL A   1      47.690  26.979  26.788  1.00  0.00     0.037 A 
ATOM     58  C   UNL A   1      41.183  28.317  29.017  1.00  0.00     0.037 A 
ATOM     59  C   UNL A   1      47.432  28.354  27.121  1.00  0.00     0.049 A 
ATOM     60  C   UNL A   1      42.234  29.390  28.951  1.00  0.00     0.074 A 
ATOM     61  C   UNL A   1      48.285  29.438  27.028  1.00  0.00     0.029 A 
ATOM     62  N   UNL A   1      46.225  28.830  27.610  1.00  0.00    -0.354 N 
ATOM     63  N   UNL A   1      43.472  29.307  28.528  1.00  0.00    -0.248 NA
ATOM     64  C   UNL A   1      41.846  30.730  29.414  1.00  0.00     0.031 C 
ATOM     65  C   UNL A   1      47.604  30.568  27.491  1.00  0.00     0.029 A 
ATOM     66  C   UNL A   1      46.317  30.192  27.842  1.00  0.00     0.049 A 
ATOM     67  H   UNL A   1      45.422  28.283  27.767  1.00  0.00     0.167 HD
ATOM     68  C   UNL A   1      44.004  30.582  28.655  1.00  0.00     0.074 A 
ATOM     69  C   UNL A   1      42.952  31.426  29.182  1.00  0.00     0.031 C 
ATOM     70  C   UNL A   1      45.255  31.013  28.362  1.00  0.00     0.037 A 
BRANCH  57  71
ATOM     71  C   UNL A   1      49.059  26.612  26.302  1.00  0.00     0.064 A 
ATOM     72  C   UNL A   1      49.435  26.824  24.967  1.00  0.00     0.173 A 
ATOM     73  C   UNL A   1      50.017  26.088  27.182  1.00  0.00     0.173 A 
ATOM     74  F   UNL A   1      48.549  27.312  24.085  1.00  0.00    -0.203 F 
ATOM     75  C   UNL A   1      50.716  26.506  24.526  1.00  0.00     0.198 A 
ATOM     76  C   UNL A   1      51.304  25.794  26.742  1.00  0.00     0.198 A 
ATOM     77  F   UNL A   1      49.706  25.870  28.468  1.00  0.00    -0.203 F 
ATOM     78  F   UNL A   1      51.043  26.684  23.238  1.00  0.00    -0.200 F 
ATOM     79  C   UNL A   1      51.652  25.999  25.415  1.00  0.00     0.200 A 
ATOM     80  F   UNL A   1      52.211  25.312  27.603  1.00  0.00    -0.200 F 
ATOM     81  F   UNL A   1      52.888  25.702  24.991  1.00  0.00    -0.200 F 
ENDBRANCH  57  71
BRANCH  58  82
ATOM     82  C   UNL A   1      39.795  28.634  29.443  1.00  0.00     0.064 A 
ATOM     83  C   UNL A   1      38.859  29.113  28.517  1.00  0.00     0.173 A 
ATOM     84  C   UNL A   1      39.375  28.455  30.768  1.00  0.00     0.173 A 
ATOM     85  F   UNL A   1      39.221  29.317  27.242  1.00  0.00    -0.203 F 
ATOM     86  C   UNL A   1      37.553  29.410  28.903  1.00  0.00     0.198 A 
ATOM     87  C   UNL A   1      38.063  28.734  31.148  1.00  0.00     0.198 A 
ATOM     88  F   UNL A   1      40.234  27.997  31.690  1.00  0.00    -0.203 F 
ATOM     89  F   UNL A   1      36.685  29.895  28.004  1.00  0.00    -0.200 F 
ATOM     90  C   UNL A   1      37.155  29.215  30.216  1.00  0.00     0.200 A 
ATOM     91  F   UNL A   1      37.679  28.535  32.416  1.00  0.00    -0.200 F 
ATOM     92  F   UNL A   1      35.898  29.496  30.586  1.00  0.00    -0.200 F 
ENDBRANCH  58  82
BRANCH  70  93
ATOM     93  C   UNL A   1      45.563  32.460  28.596  1.00  0.00     0.064 A 
ATOM     94  C   UNL A   1      46.138  32.892  29.799  1.00  0.00     0.173 A 
ATOM     95  C   UNL A   1      45.377  33.402  27.574  1.00  0.00     0.173 A 
ATOM     96  F   UNL A   1      46.323  32.028  30.808  1.00  0.00    -0.203 F 
ATOM     97  C   UNL A   1      46.515  34.220  29.970  1.00  0.00     0.198 A 
ATOM     98  C   UNL A   1      45.775  34.725  27.741  1.00  0.00     0.198 A 
ATOM     99  F   UNL A   1      44.836  33.032  26.403  1.00  0.00    -0.203 F 
ATOM    100  F   UNL A   1      47.049  34.618  31.133  1.00  0.00    -0.200 F 
ATOM    101  C   UNL A   1      46.344  35.133  28.938  1.00  0.00     0.200 A 
ATOM    102  F   UNL A   1      45.622  35.602  26.740  1.00  0.00    -0.200 F 
ATOM    103  F   UNL A   1      46.729  36.406  29.099  1.00  0.00    -0.200 F 
ENDBRANCH  70  93
ENDBRANCH  44  45
ENDBRANCH  36  39
ENDBRANCH  34  35
ENDBRANCH  33  34
ENDBRANCH  32  33
ENDBRANCH   1  32
TORSDOF 16
ENDMDL
MODEL 2
REMARK VINA RESULT:     -12.7      2.274      3.469
REMARK SMILES Nc1c(Nc2ccc(I)cc2)ncnc1Nc1ccc(C(=O)NCCCCNC(=O)c2ccc(-c3c4nc(c(-c5c(F)c(F)c(F)c(F)c5F)c5ccc([nH]5)c(-c5c(F)c(F)c(F)c(F)c5F)c5nc(c(-c6c(F)c(F)c(F)c(F)c6F)c6ccc3[nH]6)C=C5)C=C4)cc2)cc1
REMARK SMILES IDX 24 1 23 2 21 3 22 4 20 6 17 7 18 8 95 9 19 10 94 11 16 12
REMARK SMILES IDX 15 14 2 15 3 16 12 17 14 18 13 19 1 20 4 23 5 25 6 26 11 27
REMARK SMILES IDX 7 28 10 29 8 30 9 31 25 32 26 33 27 34 28 35 29 36 30 38
REMARK SMILES IDX 31 39 32 40 93 41 33 42 92 43 34 44 35 45 36 46 86 47 37 48
REMARK SMILES IDX 91 49 85 50 87 51 38 52 90 53 84 54 83 55 39 57 71 58 51 59
REMARK SMILES IDX 70 60 52 61 55 62 69 63 88 64 53 65 54 66 68 68 89 69 56 70
REMARK SMILES IDX 40 71 41 72 49 73 42 74 43 75 47 76 50 77 44 78 45 79 48 80
REMARK SMILES IDX 46 81 72 82 73 83 81 84 74 85 75 86 79 87 82 88 76 89 77 90
REMARK SMILES IDX 80 91 78 92 57 93 58 94 66 95 59 96 60 97 64 98 67 99 61 100
REMARK SMILES IDX 62 101 65 102 63 103
REMARK H PARENT 23 5 16 13 1 21 1 22 4 24 28 37 87 56 55 67
REMARK Flexibility Score: inf
ROOT
ATOM      1  C   UNL A   1      39.663  21.527  26.096  1.00  0.00     0.116 C 
ENDROOT
BRANCH   1   2
ATOM      2  N   UNL A   1      39.447  22.900  26.503  1.00  0.00    -0.352 N 
ATOM      3  C   UNL A   1      38.404  23.769  26.299  1.00  0.00     0.251 C 
ATOM      4  O   UNL A   1      38.508  24.896  26.785  1.00  0.00    -0.269 OA
ATOM      5  H   UNL A   1      40.189  23.283  27.025  1.00  0.00     0.163 HD
BRANCH   3   6
ATOM      6  C   UNL A   1      37.148  23.403  25.582  1.00  0.00     0.039 A 
ATOM      7  C   UNL A   1      34.840  22.877  24.031  1.00  0.00     0.040 A 
ATOM      8  C   UNL A   1      36.077  23.072  23.415  1.00  0.00     0.027 A 
ATOM      9  C   UNL A   1      34.778  22.899  25.427  1.00  0.00     0.027 A 
ATOM     10  C   UNL A   1      37.217  23.338  24.182  1.00  0.00     0.016 A 
ATOM     11  C   UNL A   1      35.926  23.122  26.195  1.00  0.00     0.016 A 
BRANCH   7  12
ATOM     12  N   UNL A   1      33.665  22.819  23.264  1.00  0.00    -0.338 N 
ATOM     13  H   UNL A   1      33.296  21.932  23.052  1.00  0.00     0.168 HD
BRANCH  12  14
ATOM     14  C   UNL A   1      32.975  23.961  22.775  1.00  0.00     0.159 A 
ATOM     15  C   UNL A   1      31.891  24.459  23.509  1.00  0.00     0.118 A 
ATOM     16  C   UNL A   1      31.225  25.547  22.927  1.00  0.00     0.159 A 
ATOM     17  N   UNL A   1      31.574  26.052  21.728  1.00  0.00    -0.217 NA
ATOM     18  N   UNL A   1      33.369  24.502  21.606  1.00  0.00    -0.217 NA
ATOM     19  C   UNL A   1      32.639  25.513  21.135  1.00  0.00     0.226 A 
BRANCH  15  20
ATOM     20  N   UNL A   1      31.530  23.944  24.760  1.00  0.00    -0.393 N 
ATOM     21  H   UNL A   1      30.668  24.194  25.164  1.00  0.00     0.156 HD
ATOM     22  H   UNL A   1      32.138  23.333  25.233  1.00  0.00     0.156 HD
ENDBRANCH  15  20
BRANCH  16  23
ATOM     23  N   UNL A   1      30.158  26.148  23.640  1.00  0.00    -0.338 N 
ATOM     24  H   UNL A   1      29.664  25.565  24.261  1.00  0.00     0.168 HD
BRANCH  23  25
ATOM     25  C   UNL A   1      29.727  27.482  23.558  1.00  0.00     0.040 A 
ATOM     26  C   UNL A   1      30.606  28.517  23.900  1.00  0.00     0.027 A 
ATOM     27  C   UNL A   1      28.459  27.820  23.067  1.00  0.00     0.027 A 
ATOM     28  C   UNL A   1      30.237  29.856  23.733  1.00  0.00     0.017 A 
ATOM     29  C   UNL A   1      28.077  29.155  22.910  1.00  0.00     0.017 A 
ATOM     30  C   UNL A   1      28.974  30.170  23.236  1.00  0.00     0.013 A 
ATOM     31  I   UNL A   1      28.435  32.156  22.954  1.00  0.00    -0.044 I 
ENDBRANCH  23  25
ENDBRANCH  16  23
ENDBRANCH  12  14
ENDBRANCH   7  12
ENDBRANCH   3   6
ENDBRANCH   1   2
BRANCH   1  32
ATOM     32  C   UNL A   1      41.007  21.016  26.618  1.00  0.00     0.023 C 
BRANCH  32  33
ATOM     33  C   UNL A   1      41.422  19.653  26.058  1.00  0.00     0.023 C 
BRANCH  33  34
ATOM     34  C   UNL A   1      42.903  19.328  26.197  1.00  0.00     0.116 C 
BRANCH  34  35
ATOM     35  N   UNL A   1      43.538  18.989  24.933  1.00  0.00    -0.352 N 
ATOM     36  C   UNL A   1      44.344  19.779  24.148  1.00  0.00     0.251 C 
ATOM     37  H   UNL A   1      43.370  18.079  24.597  1.00  0.00     0.163 HD
ATOM     38  O   UNL A   1      44.733  19.391  23.055  1.00  0.00    -0.269 OA
BRANCH  36  39
ATOM     39  C   UNL A   1      44.696  21.129  24.627  1.00  0.00     0.039 A 
ATOM     40  C   UNL A   1      44.303  22.231  23.868  1.00  0.00     0.014 A 
ATOM     41  C   UNL A   1      45.360  21.297  25.846  1.00  0.00     0.014 A 
ATOM     42  C   UNL A   1      44.524  23.516  24.365  1.00  0.00     0.010 A 
ATOM     43  C   UNL A   1      45.522  22.576  26.369  1.00  0.00     0.010 A 
ATOM     44  C   UNL A   1      45.105  23.694  25.632  1.00  0.00    -0.014 A 
BRANCH  44  45
ATOM     45  C   UNL A   1      45.294  25.055  26.186  1.00  0.00     0.031 A 
ATOM     46  C   UNL A   1      46.645  25.704  26.134  1.00  0.00     0.074 A 
ATOM     47  C   UNL A   1      44.253  25.692  26.754  1.00  0.00     0.049 A 
ATOM     48  N   UNL A   1      47.007  26.893  26.544  1.00  0.00    -0.248 NA
ATOM     49  C   UNL A   1      47.744  24.906  25.564  1.00  0.00     0.031 C 
ATOM     50  C   UNL A   1      42.905  25.139  26.906  1.00  0.00     0.029 A 
ATOM     51  N   UNL A   1      44.162  26.946  27.303  1.00  0.00    -0.354 N 
ATOM     52  C   UNL A   1      48.365  26.985  26.277  1.00  0.00     0.074 A 
ATOM     53  C   UNL A   1      48.781  25.713  25.732  1.00  0.00     0.031 C 
ATOM     54  C   UNL A   1      42.113  26.066  27.468  1.00  0.00     0.029 A 
ATOM     55  C   UNL A   1      42.900  27.267  27.737  1.00  0.00     0.049 A 
ATOM     56  H   UNL A   1      44.929  27.559  27.379  1.00  0.00     0.167 HD
ATOM     57  C   UNL A   1      49.183  28.050  26.439  1.00  0.00     0.037 A 
ATOM     58  C   UNL A   1      42.430  28.408  28.277  1.00  0.00     0.037 A 
ATOM     59  C   UNL A   1      48.759  29.324  26.953  1.00  0.00     0.049 A 
ATOM     60  C   UNL A   1      43.366  29.570  28.465  1.00  0.00     0.074 A 
ATOM     61  C   UNL A   1      49.499  30.483  27.100  1.00  0.00     0.029 A 
ATOM     62  N   UNL A   1      47.478  29.602  27.403  1.00  0.00    -0.354 N 
ATOM     63  N   UNL A   1      44.633  29.670  28.143  1.00  0.00    -0.248 NA
ATOM     64  C   UNL A   1      42.808  30.777  29.091  1.00  0.00     0.031 C 
ATOM     65  C   UNL A   1      48.672  31.457  27.668  1.00  0.00     0.029 A 
ATOM     66  C   UNL A   1      47.410  30.912  27.847  1.00  0.00     0.049 A 
ATOM     67  H   UNL A   1      46.728  28.965  27.406  1.00  0.00     0.167 HD
ATOM     68  C   UNL A   1      45.018  30.952  28.507  1.00  0.00     0.074 A 
ATOM     69  C   UNL A   1      43.848  31.600  29.064  1.00  0.00     0.031 C 
ATOM     70  C   UNL A   1      46.234  31.538  28.392  1.00  0.00     0.037 A 
BRANCH  57  71
ATOM     71  C   UNL A   1      50.614  27.893  26.022  1.00  0.00     0.064 A 
ATOM     72  C   UNL A   1      51.617  27.618  26.963  1.00  0.00     0.173 A 
ATOM     73  C   UNL A   1      50.980  27.970  24.670  1.00  0.00     0.173 A 
ATOM     74  F   UNL A   1      51.316  27.547  28.269  1.00  0.00    -0.203 F 
ATOM     75  C   UNL A   1      52.940  27.446  26.569  1.00  0.00     0.198 A 
ATOM     76  C   UNL A   1      52.301  27.774  24.278  1.00  0.00     0.198 A 
ATOM     77  F   UNL A   1      50.057  28.227  23.733  1.00  0.00    -0.203 F 
ATOM     78  F   UNL A   1      53.888  27.220  27.489  1.00  0.00    -0.200 F 
ATOM     79  C   UNL A   1      53.280  27.516  25.226  1.00  0.00     0.200 A 
ATOM     80  F   UNL A   1      52.629  27.833  22.980  1.00  0.00    -0.200 F 
ATOM     81  F   UNL A   1      54.553  27.341  24.847  1.00  0.00    -0.200 F 
ENDBRANCH  57  71
BRANCH  58  82
ATOM     82  C   UNL A   1      40.991  28.523  28.625  1.00  0.00     0.064 A 
ATOM     83  C   UNL A   1      40.535  28.160  29.900  1.00  0.00     0.173 A 
ATOM     84  C   UNL A   1      40.050  29.006  27.705  1.00  0.00     0.173 A 
ATOM     85  F   UNL A   1      41.397  27.677  30.806  1.00  0.00    -0.203 F 
ATOM     86  C   UNL A   1      39.189  28.269  30.240  1.00  0.00     0.198 A 
ATOM     87  C   UNL A   1      38.706  29.132  28.054  1.00  0.00     0.198 A 
ATOM     88  F   UNL A   1      40.437  29.367  26.474  1.00  0.00    -0.203 F 
ATOM     89  F   UNL A   1      38.774  27.887  31.456  1.00  0.00    -0.200 F 
ATOM     90  C   UNL A   1      38.276  28.758  29.318  1.00  0.00     0.200 A 
ATOM     91  F   UNL A   1      37.828  29.615  27.163  1.00  0.00    -0.200 F 
ATOM     92  F   UNL A   1      36.981  28.867  29.647  1.00  0.00    -0.200 F 
ENDBRANCH  58  82
BRANCH  70  93
ATOM     93  C   UNL A   1      46.372  32.951  28.868  1.00  0.00     0.064 A 
ATOM     94  C   UNL A   1      46.100  34.032  28.018  1.00  0.00     0.173 A 
ATOM     95  C   UNL A   1      46.680  33.224  30.209  1.00  0.00     0.173 A 
ATOM     96  F   UNL A   1      45.813  33.818  26.725  1.00  0.00    -0.203 F 
ATOM     97  C   UNL A   1      46.132  35.338  28.495  1.00  0.00     0.198 A 
ATOM     98  C   UNL A   1      46.690  34.530  30.688  1.00  0.00     0.198 A 
ATOM     99  F   UNL A   1      46.941  32.220  31.060  1.00  0.00    -0.203 F 
ATOM    100  F   UNL A   1      45.884  36.359  27.663  1.00  0.00    -0.200 F 
ATOM    101  C   UNL A   1      46.415  35.586  29.831  1.00  0.00     0.200 A 
ATOM    102  F   UNL A   1      46.951  34.768  31.980  1.00  0.00    -0.200 F 
ATOM    103  F   UNL A   1      46.423  36.844  30.292  1.00  0.00    -0.200 F 
ENDBRANCH  70  93
ENDBRANCH  44  45
ENDBRANCH  36  39
ENDBRANCH  34  35
ENDBRANCH  33  34
ENDBRANCH  32  33
ENDBRANCH   1  32
TORSDOF 16
ENDMDL
MODEL 3
REMARK VINA RESULT:     -12.6      5.659     10.360
REMARK SMILES Nc1c(Nc2ccc(I)cc2)ncnc1Nc1ccc(C(=O)NCCCCNC(=O)c2ccc(-c3c4nc(c(-c5c(F)c(F)c(F)c(F)c5F)c5ccc([nH]5)c(-c5c(F)c(F)c(F)c(F)c5F)c5nc(c(-c6c(F)c(F)c(F)c(F)c6F)c6ccc3[nH]6)C=C5)C=C4)cc2)cc1
REMARK SMILES IDX 24 1 23 2 21 3 22 4 20 6 17 7 18 8 95 9 19 10 94 11 16 12
REMARK SMILES IDX 15 14 2 15 3 16 12 17 14 18 13 19 1 20 4 23 5 25 6 26 11 27
REMARK SMILES IDX 7 28 10 29 8 30 9 31 25 32 26 33 27 34 28 35 29 36 30 38
REMARK SMILES IDX 31 39 32 40 93 41 33 42 92 43 34 44 35 45 36 46 86 47 37 48
REMARK SMILES IDX 91 49 85 50 87 51 38 52 90 53 84 54 83 55 39 57 71 58 51 59
REMARK SMILES IDX 70 60 52 61 55 62 69 63 88 64 53 65 54 66 68 68 89 69 56 70
REMARK SMILES IDX 40 71 41 72 49 73 42 74 43 75 47 76 50 77 44 78 45 79 48 80
REMARK SMILES IDX 46 81 72 82 73 83 81 84 74 85 75 86 79 87 82 88 76 89 77 90
REMARK SMILES IDX 80 91 78 92 57 93 58 94 66 95 59 96 60 97 64 98 67 99 61 100
REMARK SMILES IDX 62 101 65 102 63 103
REMARK H PARENT 23 5 16 13 1 21 1 22 4 24 28 37 87 56 55 67
REMARK Flexibility Score: inf
ROOT
ATOM      1  C   UNL A   1      30.979  30.457  25.227  1.00  0.00     0.116 C 
ENDROOT
BRANCH   1   2
ATOM      2  N   UNL A   1      30.405  30.462  23.896  1.00  0.00    -0.352 N 
ATOM      3  C   UNL A   1      30.033  29.449  23.049  1.00  0.00     0.251 C 
ATOM      4  O   UNL A   1      29.557  29.773  21.960  1.00  0.00    -0.269 OA
ATOM      5  H   UNL A   1      30.253  31.364  23.532  1.00  0.00     0.163 HD
BRANCH   3   6
ATOM      6  C   UNL A   1      30.120  28.001  23.399  1.00  0.00     0.039 A 
ATOM      7  C   UNL A   1      30.469  25.234  23.873  1.00  0.00     0.040 A 
ATOM      8  C   UNL A   1      31.563  26.041  23.560  1.00  0.00     0.027 A 
ATOM      9  C   UNL A   1      29.211  25.831  23.995  1.00  0.00     0.027 A 
ATOM     10  C   UNL A   1      31.389  27.408  23.320  1.00  0.00     0.016 A 
ATOM     11  C   UNL A   1      29.044  27.205  23.797  1.00  0.00     0.016 A 
BRANCH   7  12
ATOM     12  N   UNL A   1      30.603  23.836  23.908  1.00  0.00    -0.338 N 
ATOM     13  H   UNL A   1      30.017  23.301  23.326  1.00  0.00     0.168 HD
BRANCH  12  14
ATOM     14  C   UNL A   1      31.533  23.145  24.731  1.00  0.00     0.159 A 
ATOM     15  C   UNL A   1      32.583  22.446  24.121  1.00  0.00     0.118 A 
ATOM     16  C   UNL A   1      33.418  21.739  24.998  1.00  0.00     0.159 A 
ATOM     17  N   UNL A   1      33.203  21.698  26.328  1.00  0.00    -0.217 NA
ATOM     18  N   UNL A   1      31.350  23.159  26.065  1.00  0.00    -0.217 NA
ATOM     19  C   UNL A   1      32.187  22.423  26.795  1.00  0.00     0.226 A 
BRANCH  15  20
ATOM     20  N   UNL A   1      32.817  22.493  22.742  1.00  0.00    -0.393 N 
ATOM     21  H   UNL A   1      33.730  22.378  22.393  1.00  0.00     0.156 HD
ATOM     22  H   UNL A   1      32.068  22.643  22.122  1.00  0.00     0.156 HD
ENDBRANCH  15  20
BRANCH  16  23
ATOM     23  N   UNL A   1      34.541  21.060  24.464  1.00  0.00    -0.338 N 
ATOM     24  H   UNL A   1      34.357  20.396  23.762  1.00  0.00     0.168 HD
BRANCH  23  25
ATOM     25  C   UNL A   1      35.887  21.232  24.826  1.00  0.00     0.040 A 
ATOM     26  C   UNL A   1      36.342  22.491  25.235  1.00  0.00     0.027 A 
ATOM     27  C   UNL A   1      36.784  20.155  24.866  1.00  0.00     0.027 A 
ATOM     28  C   UNL A   1      37.651  22.668  25.695  1.00  0.00     0.017 A 
ATOM     29  C   UNL A   1      38.098  20.325  25.311  1.00  0.00     0.017 A 
ATOM     30  C   UNL A   1      38.523  21.582  25.733  1.00  0.00     0.013 A 
ATOM     31  I   UNL A   1      40.458  21.832  26.448  1.00  0.00    -0.044 I 
ENDBRANCH  23  25
ENDBRANCH  16  23
ENDBRANCH  12  14
ENDBRANCH   7  12
ENDBRANCH   3   6
ENDBRANCH   1   2
BRANCH   1  32
ATOM     32  C   UNL A   1      30.952  31.863  25.830  1.00  0.00     0.023 C 
BRANCH  32  33
ATOM     33  C   UNL A   1      31.667  31.982  27.178  1.00  0.00     0.023 C 
BRANCH  33  34
ATOM     34  C   UNL A   1      32.833  32.961  27.199  1.00  0.00     0.116 C 
BRANCH  34  35
ATOM     35  N   UNL A   1      32.450  34.303  27.608  1.00  0.00    -0.352 N 
ATOM     36  C   UNL A   1      32.967  35.060  28.632  1.00  0.00     0.251 C 
ATOM     37  H   UNL A   1      31.730  34.723  27.085  1.00  0.00     0.163 HD
ATOM     38  O   UNL A   1      32.479  36.143  28.923  1.00  0.00    -0.269 OA
BRANCH  36  39
ATOM     39  C   UNL A   1      34.099  34.520  29.410  1.00  0.00     0.039 A 
ATOM     40  C   UNL A   1      33.835  33.898  30.631  1.00  0.00     0.014 A 
ATOM     41  C   UNL A   1      35.401  34.581  28.904  1.00  0.00     0.014 A 
ATOM     42  C   UNL A   1      34.876  33.279  31.321  1.00  0.00     0.010 A 
ATOM     43  C   UNL A   1      36.425  33.909  29.562  1.00  0.00     0.010 A 
ATOM     44  C   UNL A   1      36.171  33.253  30.775  1.00  0.00    -0.014 A 
BRANCH  44  45
ATOM     45  C   UNL A   1      37.270  32.553  31.479  1.00  0.00     0.031 A 
ATOM     46  C   UNL A   1      37.960  31.394  30.824  1.00  0.00     0.074 A 
ATOM     47  C   UNL A   1      37.627  32.950  32.714  1.00  0.00     0.049 A 
ATOM     48  N   UNL A   1      38.956  30.668  31.266  1.00  0.00    -0.248 NA
ATOM     49  C   UNL A   1      37.455  30.979  29.504  1.00  0.00     0.031 C 
ATOM     50  C   UNL A   1      36.994  34.033  33.470  1.00  0.00     0.029 A 
ATOM     51  N   UNL A   1      38.615  32.495  33.550  1.00  0.00    -0.354 N 
ATOM     52  C   UNL A   1      39.196  29.721  30.282  1.00  0.00     0.074 A 
ATOM     53  C   UNL A   1      38.204  29.917  29.249  1.00  0.00     0.031 C 
ATOM     54  C   UNL A   1      37.636  34.187  34.638  1.00  0.00     0.029 A 
ATOM     55  C   UNL A   1      38.710  33.200  34.725  1.00  0.00     0.049 A 
ATOM     56  H   UNL A   1      39.201  31.735  33.329  1.00  0.00     0.167 HD
ATOM     57  C   UNL A   1      40.180  28.794  30.229  1.00  0.00     0.037 A 
ATOM     58  C   UNL A   1      39.578  33.072  35.747  1.00  0.00     0.037 A 
ATOM     59  C   UNL A   1      41.182  28.622  31.245  1.00  0.00     0.049 A 
ATOM     60  C   UNL A   1      40.649  32.020  35.673  1.00  0.00     0.074 A 
ATOM     61  C   UNL A   1      42.256  27.750  31.256  1.00  0.00     0.029 A 
ATOM     62  N   UNL A   1      41.232  29.340  32.430  1.00  0.00    -0.354 N 
ATOM     63  N   UNL A   1      40.912  31.176  34.704  1.00  0.00    -0.248 NA
ATOM     64  C   UNL A   1      41.546  31.901  36.832  1.00  0.00     0.031 C 
ATOM     65  C   UNL A   1      42.940  27.920  32.464  1.00  0.00     0.029 A 
ATOM     66  C   UNL A   1      42.309  28.917  33.190  1.00  0.00     0.049 A 
ATOM     67  H   UNL A   1      40.597  30.045  32.691  1.00  0.00     0.167 HD
ATOM     68  C   UNL A   1      42.011  30.442  35.126  1.00  0.00     0.074 A 
ATOM     69  C   UNL A   1      42.376  30.947  36.433  1.00  0.00     0.031 C 
ATOM     70  C   UNL A   1      42.657  29.438  34.486  1.00  0.00     0.037 A 
BRANCH  57  71
ATOM     71  C   UNL A   1      40.240  27.917  29.015  1.00  0.00     0.064 A 
ATOM     72  C   UNL A   1      41.022  28.270  27.905  1.00  0.00     0.173 A 
ATOM     73  C   UNL A   1      39.552  26.696  28.977  1.00  0.00     0.173 A 
ATOM     74  F   UNL A   1      41.688  29.434  27.890  1.00  0.00    -0.203 F 
ATOM     75  C   UNL A   1      41.096  27.440  26.791  1.00  0.00     0.198 A 
ATOM     76  C   UNL A   1      39.648  25.858  27.870  1.00  0.00     0.198 A 
ATOM     77  F   UNL A   1      38.794  26.314  30.016  1.00  0.00    -0.203 F 
ATOM     78  F   UNL A   1      41.820  27.813  25.726  1.00  0.00    -0.200 F 
ATOM     79  C   UNL A   1      40.416  26.231  26.777  1.00  0.00     0.200 A 
ATOM     80  F   UNL A   1      38.998  24.686  27.861  1.00  0.00    -0.200 F 
ATOM     81  F   UNL A   1      40.496  25.428  25.707  1.00  0.00    -0.200 F 
ENDBRANCH  57  71
BRANCH  58  82
ATOM     82  C   UNL A   1      39.501  34.002  36.902  1.00  0.00     0.064 A 
ATOM     83  C   UNL A   1      38.768  33.659  38.046  1.00  0.00     0.173 A 
ATOM     84  C   UNL A   1      40.163  35.238  36.895  1.00  0.00     0.173 A 
ATOM     85  F   UNL A   1      38.104  32.494  38.090  1.00  0.00    -0.203 F 
ATOM     86  C   UNL A   1      38.692  34.520  39.138  1.00  0.00     0.198 A 
ATOM     87  C   UNL A   1      40.102  36.091  37.996  1.00  0.00     0.198 A 
ATOM     88  F   UNL A   1      40.879  35.611  35.824  1.00  0.00    -0.203 F 
ATOM     89  F   UNL A   1      37.959  34.181  40.208  1.00  0.00    -0.200 F 
ATOM     90  C   UNL A   1      39.363  35.734  39.114  1.00  0.00     0.200 A 
ATOM     91  F   UNL A   1      40.760  37.258  37.973  1.00  0.00    -0.200 F 
ATOM     92  F   UNL A   1      39.294  36.560  40.166  1.00  0.00    -0.200 F 
ENDBRANCH  58  82
BRANCH  70  93
ATOM     93  C   UNL A   1      43.830  28.815  35.179  1.00  0.00     0.064 A 
ATOM     94  C   UNL A   1      43.677  27.670  35.973  1.00  0.00     0.173 A 
ATOM     95  C   UNL A   1      45.127  29.305  34.965  1.00  0.00     0.173 A 
ATOM     96  F   UNL A   1      42.455  27.174  36.214  1.00  0.00    -0.203 F 
ATOM     97  C   UNL A   1      44.784  27.037  36.530  1.00  0.00     0.198 A 
ATOM     98  C   UNL A   1      46.233  28.658  35.506  1.00  0.00     0.198 A 
ATOM     99  F   UNL A   1      45.321  30.394  34.206  1.00  0.00    -0.203 F 
ATOM    100  F   UNL A   1      44.617  25.954  37.300  1.00  0.00    -0.200 F 
ATOM    101  C   UNL A   1      46.061  27.524  36.287  1.00  0.00     0.200 A 
ATOM    102  F   UNL A   1      47.466  29.120  35.260  1.00  0.00    -0.200 F 
ATOM    103  F   UNL A   1      47.127  26.900  36.807  1.00  0.00    -0.200 F 
ENDBRANCH  70  93
ENDBRANCH  44  45
ENDBRANCH  36  39
ENDBRANCH  34  35
ENDBRANCH  33  34
ENDBRANCH  32  33
ENDBRANCH   1  32
TORSDOF 16
ENDMDL
