MODEL 1
REMARK VINA RESULT:     -12.5      0.000      0.000
REMARK SMILES O=C(NCCCCNC(=O)[C@@H]1CSCN1C(=O)c1cccc(Cl)c1)c1ccc(-c2c3nc(c(-c4c(F)c(F)c(F)c(F)c4F)c4ccc([nH]4)c(-c4c(F)c(F)c(F)c(F)c4F)c4nc(c(-c5c(F)c(F)c(F)c(F)c5F)c5ccc2[nH]5)C=C4)C=C3)cc1
REMARK SMILES IDX 5 1 4 2 3 3 1 4 2 5 25 7 26 8 87 9 27 10 86 11 28 12 29 13
REMARK SMILES IDX 30 14 80 15 31 16 85 17 79 18 81 19 32 20 84 21 78 22 77 23
REMARK SMILES IDX 33 25 65 26 45 27 64 28 46 29 49 30 63 31 82 32 47 33 48 34
REMARK SMILES IDX 62 36 83 37 50 38 34 39 35 40 43 41 36 42 37 43 41 44 44 45
REMARK SMILES IDX 38 46 39 47 42 48 40 49 66 50 67 51 75 52 68 53 69 54 73 55
REMARK SMILES IDX 76 56 70 57 71 58 74 59 72 60 51 61 52 62 60 63 53 64 54 65
REMARK SMILES IDX 58 66 61 67 55 68 56 69 59 70 57 71 6 72 7 73 8 74 9 75
REMARK SMILES IDX 10 77 11 78 12 79 15 80 13 81 14 82 16 83 17 84 18 85 19 86
REMARK SMILES IDX 24 87 20 88 22 89 21 90 23 91
REMARK H PARENT 3 6 81 24 49 35 8 76
REMARK Flexibility Score: inf
ROOT
ATOM      1  C   UNL A   1      31.508  31.995  26.804  1.00  0.00     0.023 C 
ENDROOT
BRANCH   1   2
ATOM      2  C   UNL A   1      32.727  32.790  27.250  1.00  0.00     0.116 C 
BRANCH   2   3
ATOM      3  N   UNL A   1      32.410  34.150  27.659  1.00  0.00    -0.352 N 
ATOM      4  O   UNL A   1      32.566  36.018  28.918  1.00  0.00    -0.269 OA
ATOM      5  C   UNL A   1      33.020  34.922  28.618  1.00  0.00     0.251 C 
ATOM      6  H   UNL A   1      31.657  34.573  27.186  1.00  0.00     0.163 HD
BRANCH   5   7
ATOM      7  C   UNL A   1      34.211  34.394  29.312  1.00  0.00     0.039 A 
ATOM      8  C   UNL A   1      35.492  34.625  28.803  1.00  0.00     0.014 A 
ATOM      9  C   UNL A   1      34.031  33.636  30.471  1.00  0.00     0.014 A 
ATOM     10  C   UNL A   1      36.585  33.991  29.383  1.00  0.00     0.010 A 
ATOM     11  C   UNL A   1      35.138  33.054  31.089  1.00  0.00     0.010 A 
ATOM     12  C   UNL A   1      36.417  33.201  30.530  1.00  0.00    -0.014 A 
BRANCH  12  13
ATOM     13  C   UNL A   1      37.589  32.555  31.163  1.00  0.00     0.031 A 
ATOM     14  C   UNL A   1      38.330  31.456  30.460  1.00  0.00     0.074 A 
ATOM     15  C   UNL A   1      37.973  32.961  32.387  1.00  0.00     0.049 A 
ATOM     16  N   UNL A   1      39.325  30.723  30.891  1.00  0.00    -0.248 NA
ATOM     17  C   UNL A   1      37.888  31.129  29.095  1.00  0.00     0.031 C 
ATOM     18  C   UNL A   1      37.328  34.023  33.160  1.00  0.00     0.029 A 
ATOM     19  N   UNL A   1      38.989  32.525  33.197  1.00  0.00    -0.354 N 
ATOM     20  C   UNL A   1      39.612  29.834  29.864  1.00  0.00     0.074 A 
ATOM     21  C   UNL A   1      38.675  30.106  28.794  1.00  0.00     0.031 C 
ATOM     22  C   UNL A   1      37.972  34.167  34.328  1.00  0.00     0.029 A 
ATOM     23  C   UNL A   1      39.034  33.170  34.407  1.00  0.00     0.049 A 
ATOM     24  H   UNL A   1      39.623  31.820  32.936  1.00  0.00     0.167 HD
ATOM     25  C   UNL A   1      40.573  28.879  29.824  1.00  0.00     0.037 A 
ATOM     26  C   UNL A   1      39.824  32.960  35.476  1.00  0.00     0.037 A 
ATOM     27  C   UNL A   1      41.511  28.629  30.887  1.00  0.00     0.049 A 
ATOM     28  C   UNL A   1      40.865  31.882  35.415  1.00  0.00     0.074 A 
ATOM     29  C   UNL A   1      42.545  27.710  30.929  1.00  0.00     0.029 A 
ATOM     30  N   UNL A   1      41.524  29.301  32.102  1.00  0.00    -0.354 N 
ATOM     31  N   UNL A   1      41.142  31.058  34.434  1.00  0.00    -0.248 NA
ATOM     32  C   UNL A   1      41.702  31.702  36.608  1.00  0.00     0.031 C 
ATOM     33  C   UNL A   1      43.157  27.798  32.185  1.00  0.00     0.029 A 
ATOM     34  C   UNL A   1      42.536  28.803  32.908  1.00  0.00     0.049 A 
ATOM     35  H   UNL A   1      40.906  30.025  32.353  1.00  0.00     0.167 HD
ATOM     36  C   UNL A   1      42.196  30.275  34.880  1.00  0.00     0.074 A 
ATOM     37  C   UNL A   1      42.515  30.728  36.219  1.00  0.00     0.031 C 
ATOM     38  C   UNL A   1      42.841  29.272  34.236  1.00  0.00     0.037 A 
BRANCH  25  39
ATOM     39  C   UNL A   1      40.641  28.015  28.598  1.00  0.00     0.064 A 
ATOM     40  C   UNL A   1      41.403  28.378  27.479  1.00  0.00     0.173 A 
ATOM     41  C   UNL A   1      39.954  26.792  28.555  1.00  0.00     0.173 A 
ATOM     42  F   UNL A   1      42.068  29.543  27.463  1.00  0.00    -0.203 F 
ATOM     43  C   UNL A   1      41.455  27.561  26.351  1.00  0.00     0.198 A 
ATOM     44  C   UNL A   1      40.029  25.966  27.437  1.00  0.00     0.198 A 
ATOM     45  F   UNL A   1      39.215  26.395  29.602  1.00  0.00    -0.203 F 
ATOM     46  F   UNL A   1      42.153  27.950  25.276  1.00  0.00    -0.200 F 
ATOM     47  C   UNL A   1      40.772  26.355  26.334  1.00  0.00     0.200 A 
ATOM     48  F   UNL A   1      39.377  24.795  27.426  1.00  0.00    -0.200 F 
ATOM     49  F   UNL A   1      40.825  25.568  25.248  1.00  0.00    -0.200 F 
ENDBRANCH  25  39
BRANCH  26  50
ATOM     50  C   UNL A   1      39.639  33.797  36.687  1.00  0.00     0.064 A 
ATOM     51  C   UNL A   1      40.241  35.057  36.788  1.00  0.00     0.173 A 
ATOM     52  C   UNL A   1      38.813  33.376  37.739  1.00  0.00     0.173 A 
ATOM     53  F   UNL A   1      41.050  35.493  35.813  1.00  0.00    -0.203 F 
ATOM     54  C   UNL A   1      40.024  35.868  37.901  1.00  0.00     0.198 A 
ATOM     55  C   UNL A   1      38.577  34.197  38.839  1.00  0.00     0.198 A 
ATOM     56  F   UNL A   1      38.209  32.181  37.683  1.00  0.00    -0.203 F 
ATOM     57  F   UNL A   1      40.627  37.061  37.985  1.00  0.00    -0.200 F 
ATOM     58  C   UNL A   1      39.184  35.441  38.920  1.00  0.00     0.200 A 
ATOM     59  F   UNL A   1      37.751  33.789  39.813  1.00  0.00    -0.200 F 
ATOM     60  F   UNL A   1      38.961  36.229  39.981  1.00  0.00    -0.200 F 
ENDBRANCH  26  50
BRANCH  38  61
ATOM     61  C   UNL A   1      43.982  28.619  34.957  1.00  0.00     0.064 A 
ATOM     62  C   UNL A   1      45.284  29.132  34.885  1.00  0.00     0.173 A 
ATOM     63  C   UNL A   1      43.757  27.498  35.769  1.00  0.00     0.173 A 
ATOM     64  F   UNL A   1      45.550  30.193  34.109  1.00  0.00    -0.203 F 
ATOM     65  C   UNL A   1      46.326  28.534  35.588  1.00  0.00     0.198 A 
ATOM     66  C   UNL A   1      44.796  26.917  36.489  1.00  0.00     0.198 A 
ATOM     67  F   UNL A   1      42.526  26.974  35.872  1.00  0.00    -0.203 F 
ATOM     68  F   UNL A   1      47.571  29.017  35.479  1.00  0.00    -0.200 F 
ATOM     69  C   UNL A   1      46.080  27.432  36.395  1.00  0.00     0.200 A 
ATOM     70  F   UNL A   1      44.555  25.858  37.275  1.00  0.00    -0.200 F 
ATOM     71  F   UNL A   1      47.082  26.863  37.078  1.00  0.00    -0.200 F 
ENDBRANCH  38  61
ENDBRANCH  12  13
ENDBRANCH   5   7
ENDBRANCH   2   3
ENDBRANCH   1   2
BRANCH   1  72
ATOM     72  C   UNL A   1      31.817  30.646  26.159  1.00  0.00     0.023 C 
BRANCH  72  73
ATOM     73  C   UNL A   1      31.786  29.454  27.107  1.00  0.00     0.116 C 
BRANCH  73  74
ATOM     74  N   UNL A   1      32.832  28.494  26.837  1.00  0.00    -0.354 N 
ATOM     75  C   UNL A   1      32.803  27.326  26.130  1.00  0.00     0.243 C 
ATOM     76  H   UNL A   1      33.709  28.717  27.229  1.00  0.00     0.163 HD
ATOM     77  O   UNL A   1      33.901  26.868  25.789  1.00  0.00    -0.273 OA
BRANCH  75  78
ATOM     78  C   UNL A   1      31.495  26.709  25.575  1.00  0.00     0.185 C 
ATOM     79  C   UNL A   1      31.367  25.281  26.103  1.00  0.00     0.106 C 
ATOM     80  N   UNL A   1      31.340  26.751  24.114  1.00  0.00    -0.317 N 
ATOM     81  S   UNL A   1      30.935  24.211  24.710  1.00  0.00    -0.138 SA
ATOM     82  C   UNL A   1      31.194  25.473  23.456  1.00  0.00     0.190 C 
BRANCH  80  83
ATOM     83  C   UNL A   1      31.226  28.001  23.513  1.00  0.00     0.255 C 
ATOM     84  O   UNL A   1      32.180  28.578  22.999  1.00  0.00    -0.269 OA
BRANCH  83  85
ATOM     85  C   UNL A   1      29.896  28.636  23.357  1.00  0.00     0.041 A 
ATOM     86  C   UNL A   1      28.714  27.899  23.253  1.00  0.00     0.014 A 
ATOM     87  C   UNL A   1      29.849  30.037  23.384  1.00  0.00     0.034 A 
ATOM     88  C   UNL A   1      27.497  28.563  23.085  1.00  0.00     0.002 A 
ATOM     89  C   UNL A   1      28.631  30.689  23.224  1.00  0.00     0.041 A 
ATOM     90  C   UNL A   1      27.456  29.958  23.059  1.00  0.00     0.020 A 
ATOM     91  Cl  UNL A   1      28.579  32.408  23.223  1.00  0.00    -0.084 Cl
ENDBRANCH  83  85
ENDBRANCH  80  83
ENDBRANCH  75  78
ENDBRANCH  73  74
ENDBRANCH  72  73
ENDBRANCH   1  72
TORSDOF 13
ENDMDL
MODEL 2
REMARK VINA RESULT:     -12.4      0.223      1.984
REMARK SMILES O=C(NCCCCNC(=O)[C@@H]1CSCN1C(=O)c1cccc(Cl)c1)c1ccc(-c2c3nc(c(-c4c(F)c(F)c(F)c(F)c4F)c4ccc([nH]4)c(-c4c(F)c(F)c(F)c(F)c4F)c4nc(c(-c5c(F)c(F)c(F)c(F)c5F)c5ccc2[nH]5)C=C4)C=C3)cc1
REMARK SMILES IDX 5 1 4 2 3 3 1 4 2 5 25 7 26 8 87 9 27 10 86 11 28 12 29 13
REMARK SMILES IDX 30 14 80 15 31 16 85 17 79 18 81 19 32 20 84 21 78 22 77 23
REMARK SMILES IDX 33 25 65 26 45 27 64 28 46 29 49 30 63 31 82 32 47 33 48 34
REMARK SMILES IDX 62 36 83 37 50 38 34 39 35 40 43 41 36 42 37 43 41 44 44 45
REMARK SMILES IDX 38 46 39 47 42 48 40 49 66 50 67 51 75 52 68 53 69 54 73 55
REMARK SMILES IDX 76 56 70 57 71 58 74 59 72 60 51 61 52 62 60 63 53 64 54 65
REMARK SMILES IDX 58 66 61 67 55 68 56 69 59 70 57 71 6 72 7 73 8 74 9 75
REMARK SMILES IDX 10 77 11 78 12 79 15 80 13 81 14 82 16 83 17 84 18 85 19 86
REMARK SMILES IDX 24 87 20 88 22 89 21 90 23 91
REMARK H PARENT 3 6 81 24 49 35 8 76
REMARK Flexibility Score: inf
ROOT
ATOM      1  C   UNL A   1      31.427  32.018  26.851  1.00  0.00     0.023 C 
ENDROOT
BRANCH   1   2
ATOM      2  C   UNL A   1      32.659  32.818  27.251  1.00  0.00     0.116 C 
BRANCH   2   3
ATOM      3  N   UNL A   1      32.357  34.190  27.629  1.00  0.00    -0.352 N 
ATOM      4  O   UNL A   1      32.528  36.083  28.849  1.00  0.00    -0.269 OA
ATOM      5  C   UNL A   1      32.969  34.975  28.576  1.00  0.00     0.251 C 
ATOM      6  H   UNL A   1      31.614  34.613  27.140  1.00  0.00     0.163 HD
BRANCH   5   7
ATOM      7  C   UNL A   1      34.146  34.445  29.293  1.00  0.00     0.039 A 
ATOM      8  C   UNL A   1      35.428  34.579  28.751  1.00  0.00     0.014 A 
ATOM      9  C   UNL A   1      33.952  33.785  30.507  1.00  0.00     0.014 A 
ATOM     10  C   UNL A   1      36.501  33.939  29.362  1.00  0.00     0.010 A 
ATOM     11  C   UNL A   1      35.042  33.199  31.152  1.00  0.00     0.010 A 
ATOM     12  C   UNL A   1      36.316  33.245  30.567  1.00  0.00    -0.014 A 
BRANCH  12  13
ATOM     13  C   UNL A   1      37.469  32.595  31.231  1.00  0.00     0.031 A 
ATOM     14  C   UNL A   1      38.207  31.474  30.560  1.00  0.00     0.074 A 
ATOM     15  C   UNL A   1      37.838  33.017  32.455  1.00  0.00     0.049 A 
ATOM     16  N   UNL A   1      39.184  30.736  31.020  1.00  0.00    -0.248 NA
ATOM     17  C   UNL A   1      37.783  31.130  29.194  1.00  0.00     0.031 C 
ATOM     18  C   UNL A   1      37.194  34.101  33.198  1.00  0.00     0.029 A 
ATOM     19  N   UNL A   1      38.834  32.582  33.290  1.00  0.00    -0.354 N 
ATOM     20  C   UNL A   1      39.476  29.825  30.014  1.00  0.00     0.074 A 
ATOM     21  C   UNL A   1      38.562  30.091  28.924  1.00  0.00     0.031 C 
ATOM     22  C   UNL A   1      37.820  34.256  34.374  1.00  0.00     0.029 A 
ATOM     23  C   UNL A   1      38.867  33.246  34.489  1.00  0.00     0.049 A 
ATOM     24  H   UNL A   1      39.463  31.864  33.051  1.00  0.00     0.167 HD
ATOM     25  C   UNL A   1      40.424  28.857  30.007  1.00  0.00     0.037 A 
ATOM     26  C   UNL A   1      39.636  33.045  35.575  1.00  0.00     0.037 A 
ATOM     27  C   UNL A   1      41.341  28.612  31.090  1.00  0.00     0.049 A 
ATOM     28  C   UNL A   1      40.663  31.952  35.550  1.00  0.00     0.074 A 
ATOM     29  C   UNL A   1      42.361  27.681  31.166  1.00  0.00     0.029 A 
ATOM     30  N   UNL A   1      41.342  29.306  32.293  1.00  0.00    -0.354 N 
ATOM     31  N   UNL A   1      40.945  31.107  34.588  1.00  0.00    -0.248 NA
ATOM     32  C   UNL A   1      41.477  31.782  36.760  1.00  0.00     0.031 C 
ATOM     33  C   UNL A   1      42.954  27.782  32.430  1.00  0.00     0.029 A 
ATOM     34  C   UNL A   1      42.334  28.808  33.124  1.00  0.00     0.049 A 
ATOM     35  H   UNL A   1      40.730  30.042  32.521  1.00  0.00     0.167 HD
ATOM     36  C   UNL A   1      41.981  30.319  35.065  1.00  0.00     0.074 A 
ATOM     37  C   UNL A   1      42.283  30.791  36.402  1.00  0.00     0.031 C 
ATOM     38  C   UNL A   1      42.623  29.296  34.450  1.00  0.00     0.037 A 
BRANCH  25  39
ATOM     39  C   UNL A   1      40.501  27.971  28.797  1.00  0.00     0.064 A 
ATOM     40  C   UNL A   1      39.792  26.764  28.717  1.00  0.00     0.173 A 
ATOM     41  C   UNL A   1      41.276  28.350  27.690  1.00  0.00     0.173 A 
ATOM     42  F   UNL A   1      39.046  26.349  29.753  1.00  0.00    -0.203 F 
ATOM     43  C   UNL A   1      39.874  25.957  27.585  1.00  0.00     0.198 A 
ATOM     44  C   UNL A   1      41.336  27.554  26.550  1.00  0.00     0.198 A 
ATOM     45  F   UNL A   1      41.970  29.498  27.713  1.00  0.00    -0.203 F 
ATOM     46  F   UNL A   1      39.224  24.786  27.550  1.00  0.00    -0.200 F 
ATOM     47  C   UNL A   1      40.643  26.355  26.501  1.00  0.00     0.200 A 
ATOM     48  F   UNL A   1      42.070  27.946  25.499  1.00  0.00    -0.200 F 
ATOM     49  F   UNL A   1      40.720  25.578  25.411  1.00  0.00    -0.200 F 
ENDBRANCH  25  39
BRANCH  26  50
ATOM     50  C   UNL A   1      39.442  33.905  36.768  1.00  0.00     0.064 A 
ATOM     51  C   UNL A   1      38.667  33.470  37.850  1.00  0.00     0.173 A 
ATOM     52  C   UNL A   1      40.075  35.152  36.871  1.00  0.00     0.173 A 
ATOM     53  F   UNL A   1      38.033  32.291  37.788  1.00  0.00    -0.203 F 
ATOM     54  C   UNL A   1      38.530  34.254  38.994  1.00  0.00     0.198 A 
ATOM     55  C   UNL A   1      39.958  35.924  38.025  1.00  0.00     0.198 A 
ATOM     56  F   UNL A   1      40.834  35.607  35.864  1.00  0.00    -0.203 F 
ATOM     57  F   UNL A   1      37.767  33.826  40.008  1.00  0.00    -0.200 F 
ATOM     58  C   UNL A   1      39.184  35.475  39.084  1.00  0.00     0.200 A 
ATOM     59  F   UNL A   1      40.605  37.093  38.115  1.00  0.00    -0.200 F 
ATOM     60  F   UNL A   1      39.066  36.219  40.192  1.00  0.00    -0.200 F 
ENDBRANCH  26  50
BRANCH  38  61
ATOM     61  C   UNL A   1      43.742  28.641  35.202  1.00  0.00     0.064 A 
ATOM     62  C   UNL A   1      43.512  27.560  36.064  1.00  0.00     0.173 A 
ATOM     63  C   UNL A   1      45.064  29.070  35.017  1.00  0.00     0.173 A 
ATOM     64  F   UNL A   1      42.263  27.126  36.284  1.00  0.00    -0.203 F 
ATOM     65  C   UNL A   1      44.568  26.942  36.730  1.00  0.00     0.198 A 
ATOM     66  C   UNL A   1      46.119  28.435  35.665  1.00  0.00     0.198 A 
ATOM     67  F   UNL A   1      45.334  30.098  34.199  1.00  0.00    -0.203 F 
ATOM     68  F   UNL A   1      44.325  25.933  37.578  1.00  0.00    -0.200 F 
ATOM     69  C   UNL A   1      45.870  27.375  36.524  1.00  0.00     0.200 A 
ATOM     70  F   UNL A   1      47.377  28.847  35.458  1.00  0.00    -0.200 F 
ATOM     71  F   UNL A   1      46.885  26.773  37.158  1.00  0.00    -0.200 F 
ENDBRANCH  38  61
ENDBRANCH  12  13
ENDBRANCH   5   7
ENDBRANCH   2   3
ENDBRANCH   1   2
BRANCH   1  72
ATOM     72  C   UNL A   1      31.717  30.702  26.132  1.00  0.00     0.023 C 
BRANCH  72  73
ATOM     73  C   UNL A   1      31.778  29.474  27.031  1.00  0.00     0.116 C 
BRANCH  73  74
ATOM     74  N   UNL A   1      32.852  28.572  26.679  1.00  0.00    -0.354 N 
ATOM     75  C   UNL A   1      32.836  27.416  25.951  1.00  0.00     0.243 C 
ATOM     76  H   UNL A   1      33.739  28.833  27.020  1.00  0.00     0.163 HD
ATOM     77  O   UNL A   1      33.931  27.020  25.535  1.00  0.00    -0.273 OA
BRANCH  75  78
ATOM     78  C   UNL A   1      31.528  26.744  25.465  1.00  0.00     0.185 C 
ATOM     79  C   UNL A   1      31.416  25.367  26.116  1.00  0.00     0.106 C 
ATOM     80  N   UNL A   1      31.358  26.659  24.007  1.00  0.00    -0.317 N 
ATOM     81  S   UNL A   1      30.980  24.177  24.825  1.00  0.00    -0.138 SA
ATOM     82  C   UNL A   1      31.216  25.328  23.464  1.00  0.00     0.190 C 
BRANCH  80  83
ATOM     83  C   UNL A   1      31.227  27.851  23.302  1.00  0.00     0.255 C 
ATOM     84  O   UNL A   1      32.136  28.321  22.623  1.00  0.00    -0.269 OA
BRANCH  83  85
ATOM     85  C   UNL A   1      29.920  28.545  23.243  1.00  0.00     0.041 A 
ATOM     86  C   UNL A   1      28.703  27.860  23.204  1.00  0.00     0.014 A 
ATOM     87  C   UNL A   1      29.935  29.945  23.296  1.00  0.00     0.034 A 
ATOM     88  C   UNL A   1      27.507  28.578  23.126  1.00  0.00     0.002 A 
ATOM     89  C   UNL A   1      28.739  30.652  23.225  1.00  0.00     0.041 A 
ATOM     90  C   UNL A   1      27.525  29.974  23.126  1.00  0.00     0.020 A 
ATOM     91  Cl  UNL A   1      28.761  32.371  23.256  1.00  0.00    -0.084 Cl
ENDBRANCH  83  85
ENDBRANCH  80  83
ENDBRANCH  75  78
ENDBRANCH  73  74
ENDBRANCH  72  73
ENDBRANCH   1  72
TORSDOF 13
ENDMDL
MODEL 3
REMARK VINA RESULT:     -12.4      6.432     11.591
REMARK SMILES O=C(NCCCCNC(=O)[C@@H]1CSCN1C(=O)c1cccc(Cl)c1)c1ccc(-c2c3nc(c(-c4c(F)c(F)c(F)c(F)c4F)c4ccc([nH]4)c(-c4c(F)c(F)c(F)c(F)c4F)c4nc(c(-c5c(F)c(F)c(F)c(F)c5F)c5ccc2[nH]5)C=C4)C=C3)cc1
REMARK SMILES IDX 5 1 4 2 3 3 1 4 2 5 25 7 26 8 87 9 27 10 86 11 28 12 29 13
REMARK SMILES IDX 30 14 80 15 31 16 85 17 79 18 81 19 32 20 84 21 78 22 77 23
REMARK SMILES IDX 33 25 65 26 45 27 64 28 46 29 49 30 63 31 82 32 47 33 48 34
REMARK SMILES IDX 62 36 83 37 50 38 34 39 35 40 43 41 36 42 37 43 41 44 44 45
REMARK SMILES IDX 38 46 39 47 42 48 40 49 66 50 67 51 75 52 68 53 69 54 73 55
REMARK SMILES IDX 76 56 70 57 71 58 74 59 72 60 51 61 52 62 60 63 53 64 54 65
REMARK SMILES IDX 58 66 61 67 55 68 56 69 59 70 57 71 6 72 7 73 8 74 9 75
REMARK SMILES IDX 10 77 11 78 12 79 15 80 13 81 14 82 16 83 17 84 18 85 19 86
REMARK SMILES IDX 24 87 20 88 22 89 21 90 23 91
REMARK H PARENT 3 6 81 24 49 35 8 76
REMARK Flexibility Score: inf
ROOT
ATOM      1  C   UNL A   1      38.149  19.639  24.888  1.00  0.00     0.023 C 
ENDROOT
BRANCH   1   2
ATOM      2  C   UNL A   1      39.345  20.000  25.760  1.00  0.00     0.116 C 
BRANCH   2   3
ATOM      3  N   UNL A   1      40.353  18.952  25.817  1.00  0.00    -0.352 N 
ATOM      4  O   UNL A   1      42.437  18.096  25.976  1.00  0.00    -0.269 OA
ATOM      5  C   UNL A   1      41.699  19.068  26.064  1.00  0.00     0.251 C 
ATOM      6  H   UNL A   1      40.026  18.037  25.657  1.00  0.00     0.163 HD
BRANCH   5   7
ATOM      7  C   UNL A   1      42.254  20.395  26.400  1.00  0.00     0.039 A 
ATOM      8  C   UNL A   1      42.298  20.833  27.727  1.00  0.00     0.014 A 
ATOM      9  C   UNL A   1      42.707  21.214  25.364  1.00  0.00     0.014 A 
ATOM     10  C   UNL A   1      42.677  22.141  28.005  1.00  0.00     0.010 A 
ATOM     11  C   UNL A   1      43.150  22.505  25.654  1.00  0.00     0.010 A 
ATOM     12  C   UNL A   1      43.107  22.987  26.971  1.00  0.00    -0.014 A 
BRANCH  12  13
ATOM     13  C   UNL A   1      43.543  24.368  27.278  1.00  0.00     0.031 A 
ATOM     14  C   UNL A   1      42.569  25.377  27.812  1.00  0.00     0.074 A 
ATOM     15  C   UNL A   1      44.825  24.710  27.056  1.00  0.00     0.049 A 
ATOM     16  N   UNL A   1      42.751  26.649  28.062  1.00  0.00    -0.248 NA
ATOM     17  C   UNL A   1      41.208  24.896  28.095  1.00  0.00     0.031 C 
ATOM     18  C   UNL A   1      45.857  23.809  26.541  1.00  0.00     0.029 A 
ATOM     19  N   UNL A   1      45.476  25.905  27.225  1.00  0.00    -0.354 N 
ATOM     20  C   UNL A   1      41.525  27.126  28.506  1.00  0.00     0.074 A 
ATOM     21  C   UNL A   1      40.601  26.012  28.476  1.00  0.00     0.031 C 
ATOM     22  C   UNL A   1      47.016  24.478  26.450  1.00  0.00     0.029 A 
ATOM     23  C   UNL A   1      46.792  25.866  26.843  1.00  0.00     0.049 A 
ATOM     24  H   UNL A   1      45.041  26.710  27.586  1.00  0.00     0.167 HD
ATOM     25  C   UNL A   1      41.206  28.382  28.902  1.00  0.00     0.037 A 
ATOM     26  C   UNL A   1      47.711  26.847  26.785  1.00  0.00     0.037 A 
ATOM     27  C   UNL A   1      42.137  29.479  28.945  1.00  0.00     0.049 A 
ATOM     28  C   UNL A   1      47.327  28.234  27.207  1.00  0.00     0.074 A 
ATOM     29  C   UNL A   1      41.922  30.780  29.365  1.00  0.00     0.029 A 
ATOM     30  N   UNL A   1      43.465  29.402  28.546  1.00  0.00    -0.354 N 
ATOM     31  N   UNL A   1      46.171  28.672  27.643  1.00  0.00    -0.248 NA
ATOM     32  C   UNL A   1      48.372  29.263  27.129  1.00  0.00     0.031 C 
ATOM     33  C   UNL A   1      43.108  31.501  29.182  1.00  0.00     0.029 A 
ATOM     34  C   UNL A   1      44.075  30.638  28.692  1.00  0.00     0.049 A 
ATOM     35  H   UNL A   1      43.908  28.589  28.210  1.00  0.00     0.167 HD
ATOM     36  C   UNL A   1      46.351  30.021  27.911  1.00  0.00     0.074 A 
ATOM     37  C   UNL A   1      47.732  30.327  27.595  1.00  0.00     0.031 C 
ATOM     38  C   UNL A   1      45.453  30.922  28.377  1.00  0.00     0.037 A 
BRANCH  25  39
ATOM     39  C   UNL A   1      39.781  28.643  29.298  1.00  0.00     0.064 A 
ATOM     40  C   UNL A   1      39.324  28.423  30.605  1.00  0.00     0.173 A 
ATOM     41  C   UNL A   1      38.868  29.149  28.361  1.00  0.00     0.173 A 
ATOM     42  F   UNL A   1      40.154  27.928  31.536  1.00  0.00    -0.203 F 
ATOM     43  C   UNL A   1      37.999  28.673  30.954  1.00  0.00     0.198 A 
ATOM     44  C   UNL A   1      37.550  29.423  28.718  1.00  0.00     0.198 A 
ATOM     45  F   UNL A   1      39.255  29.383  27.098  1.00  0.00    -0.203 F 
ATOM     46  F   UNL A   1      37.573  28.411  32.197  1.00  0.00    -0.200 F 
ATOM     47  C   UNL A   1      37.115  29.177  30.011  1.00  0.00     0.200 A 
ATOM     48  F   UNL A   1      36.700  29.921  27.809  1.00  0.00    -0.200 F 
ATOM     49  F   UNL A   1      35.840  29.420  30.348  1.00  0.00    -0.200 F 
ENDBRANCH  25  39
BRANCH  26  50
ATOM     50  C   UNL A   1      49.077  26.531  26.299  1.00  0.00     0.064 A 
ATOM     51  C   UNL A   1      49.444  26.781  24.971  1.00  0.00     0.173 A 
ATOM     52  C   UNL A   1      50.056  26.027  27.168  1.00  0.00     0.173 A 
ATOM     53  F   UNL A   1      48.536  27.249  24.102  1.00  0.00    -0.203 F 
ATOM     54  C   UNL A   1      50.742  26.536  24.528  1.00  0.00     0.198 A 
ATOM     55  C   UNL A   1      51.359  25.807  26.731  1.00  0.00     0.198 A 
ATOM     56  F   UNL A   1      49.754  25.781  28.451  1.00  0.00    -0.203 F 
ATOM     57  F   UNL A   1      51.065  26.764  23.248  1.00  0.00    -0.200 F 
ATOM     58  C   UNL A   1      51.701  26.059  25.411  1.00  0.00     0.200 A 
ATOM     59  F   UNL A   1      52.287  25.363  27.590  1.00  0.00    -0.200 F 
ATOM     60  F   UNL A   1      52.954  25.842  24.988  1.00  0.00    -0.200 F 
ENDBRANCH  26  50
BRANCH  38  61
ATOM     61  C   UNL A   1      45.944  32.319  28.609  1.00  0.00     0.064 A 
ATOM     62  C   UNL A   1      45.847  33.305  27.618  1.00  0.00     0.173 A 
ATOM     63  C   UNL A   1      46.473  32.684  29.856  1.00  0.00     0.173 A 
ATOM     64  F   UNL A   1      45.363  32.997  26.405  1.00  0.00    -0.203 F 
ATOM     65  C   UNL A   1      46.278  34.606  27.861  1.00  0.00     0.198 A 
ATOM     66  C   UNL A   1      46.881  33.992  30.103  1.00  0.00     0.198 A 
ATOM     67  F   UNL A   1      46.583  31.777  30.837  1.00  0.00    -0.203 F 
ATOM     68  F   UNL A   1      46.210  35.526  26.889  1.00  0.00    -0.200 F 
ATOM     69  C   UNL A   1      46.787  34.950  29.105  1.00  0.00     0.200 A 
ATOM     70  F   UNL A   1      47.364  34.325  31.308  1.00  0.00    -0.200 F 
ATOM     71  F   UNL A   1      47.193  36.205  29.341  1.00  0.00    -0.200 F 
ENDBRANCH  38  61
ENDBRANCH  12  13
ENDBRANCH   5   7
ENDBRANCH   2   3
ENDBRANCH   1   2
BRANCH   1  72
ATOM     72  C   UNL A   1      36.905  20.494  25.114  1.00  0.00     0.023 C 
BRANCH  72  73
ATOM     73  C   UNL A   1      37.175  21.958  25.433  1.00  0.00     0.116 C 
BRANCH  73  74
ATOM     74  N   UNL A   1      36.078  22.594  26.128  1.00  0.00    -0.354 N 
ATOM     75  C   UNL A   1      34.794  22.830  25.728  1.00  0.00     0.243 C 
ATOM     76  H   UNL A   1      36.292  22.908  27.037  1.00  0.00     0.163 HD
ATOM     77  O   UNL A   1      33.985  23.097  26.626  1.00  0.00    -0.273 OA
BRANCH  75  78
ATOM     78  C   UNL A   1      34.298  22.566  24.285  1.00  0.00     0.185 C 
ATOM     79  C   UNL A   1      34.668  23.766  23.415  1.00  0.00     0.106 C 
ATOM     80  N   UNL A   1      32.873  22.233  24.152  1.00  0.00    -0.317 N 
ATOM     81  S   UNL A   1      33.208  24.222  22.449  1.00  0.00    -0.138 SA
ATOM     82  C   UNL A   1      32.089  23.123  23.327  1.00  0.00     0.190 C 
BRANCH  80  83
ATOM     83  C   UNL A   1      32.433  21.041  24.720  1.00  0.00     0.255 C 
ATOM     84  O   UNL A   1      31.686  21.009  25.694  1.00  0.00    -0.269 OA
BRANCH  83  85
ATOM     85  C   UNL A   1      32.756  19.745  24.080  1.00  0.00     0.041 A 
ATOM     86  C   UNL A   1      32.196  19.341  22.866  1.00  0.00     0.014 A 
ATOM     87  C   UNL A   1      33.714  18.940  24.712  1.00  0.00     0.034 A 
ATOM     88  C   UNL A   1      32.528  18.095  22.330  1.00  0.00     0.002 A 
ATOM     89  C   UNL A   1      34.044  17.703  24.167  1.00  0.00     0.041 A 
ATOM     90  C   UNL A   1      33.444  17.270  22.987  1.00  0.00     0.020 A 
ATOM     91  Cl  UNL A   1      35.194  16.702  24.962  1.00  0.00    -0.084 Cl
ENDBRANCH  83  85
ENDBRANCH  80  83
ENDBRANCH  75  78
ENDBRANCH  73  74
ENDBRANCH  72  73
ENDBRANCH   1  72
TORSDOF 13
ENDMDL
