MODEL 1
REMARK VINA RESULT:     -11.3      0.000      0.000
REMARK SMILES C[C@H]([NH3+])C(=O)N1CCC[C@H]1C(=O)NCCCCNC(=O)c1ccc(-c2c3nc(c(-c4c(F)c(F)c(F)c(F)c4F)c4ccc([nH]4)c(-c4c(F)c(F)c(F)c(F)c4F)c4nc(c(-c5c(F)c(F)c(F)c(F)c5F)c5ccc2[nH]5)C=C4)C=C3)cc1
REMARK SMILES IDX 15 1 14 2 13 3 11 4 12 5 10 7 6 8 7 9 8 10 9 11 4 12 5 13
REMARK SMILES IDX 2 14 1 15 3 16 16 20 17 21 18 22 19 23 20 25 21 26 22 27
REMARK SMILES IDX 83 28 23 29 82 30 24 31 25 32 26 33 76 34 27 35 81 36 75 37
REMARK SMILES IDX 77 38 28 39 80 40 74 41 73 42 29 44 61 45 41 46 60 47 42 48
REMARK SMILES IDX 45 49 59 50 78 51 43 52 44 53 58 55 79 56 46 57 30 58 31 59
REMARK SMILES IDX 39 60 32 61 33 62 37 63 40 64 34 65 35 66 38 67 36 68 62 69
REMARK SMILES IDX 63 70 71 71 64 72 65 73 69 74 72 75 66 76 67 77 70 78 68 79
REMARK SMILES IDX 47 80 48 81 56 82 49 83 50 84 54 85 57 86 51 87 52 88 55 89
REMARK SMILES IDX 53 90
REMARK H PARENT 13 6 3 17 3 18 3 19 18 24 77 43 45 54
REMARK Flexibility Score: inf
ROOT
ATOM      1  C   UNL A   1      31.404  30.962  25.779  1.00  0.00     0.023 C 
ENDROOT
BRANCH   1   2
ATOM      2  C   UNL A   1      32.120  29.888  26.598  1.00  0.00     0.116 C 
BRANCH   2   3
ATOM      3  N   UNL A   1      33.004  29.094  25.764  1.00  0.00    -0.354 N 
ATOM      4  C   UNL A   1      32.720  27.947  25.066  1.00  0.00     0.242 C 
ATOM      5  O   UNL A   1      33.654  27.315  24.572  1.00  0.00    -0.273 OA
ATOM      6  H   UNL A   1      33.929  29.422  25.688  1.00  0.00     0.163 HD
BRANCH   4   7
ATOM      7  C   UNL A   1      31.254  27.473  25.021  1.00  0.00     0.174 C 
ATOM      8  N   UNL A   1      30.869  26.775  23.795  1.00  0.00    -0.326 N 
ATOM      9  C   UNL A   1      30.632  25.371  24.065  1.00  0.00     0.120 C 
ATOM     10  C   UNL A   1      30.164  25.366  25.506  1.00  0.00     0.024 C 
ATOM     11  C   UNL A   1      30.988  26.469  26.150  1.00  0.00     0.037 C 
BRANCH   8  12
ATOM     12  C   UNL A   1      30.660  27.516  22.652  1.00  0.00     0.281 C 
ATOM     13  O   UNL A   1      31.029  27.078  21.554  1.00  0.00    -0.268 OA
BRANCH  12  14
ATOM     14  C   UNL A   1      30.173  28.977  22.736  1.00  0.00     0.268 C 
ATOM     15  C   UNL A   1      28.647  28.985  22.753  1.00  0.00     0.086 C 
BRANCH  14  16
ATOM     16  N   UNL A   1      30.734  29.884  21.725  1.00  0.00    -0.348 N 
ATOM     17  H   UNL A   1      31.750  29.801  21.721  1.00  0.00     0.345 HD
ATOM     18  H   UNL A   1      30.472  30.844  21.947  1.00  0.00     0.345 HD
ATOM     19  H   UNL A   1      30.369  29.635  20.806  1.00  0.00     0.345 HD
ENDBRANCH  14  16
ENDBRANCH  12  14
ENDBRANCH   8  12
ENDBRANCH   4   7
ENDBRANCH   2   3
ENDBRANCH   1   2
BRANCH   1  20
ATOM     20  C   UNL A   1      31.234  32.298  26.506  1.00  0.00     0.023 C 
BRANCH  20  21
ATOM     21  C   UNL A   1      32.497  32.832  27.168  1.00  0.00     0.116 C 
BRANCH  21  22
ATOM     22  N   UNL A   1      32.356  34.206  27.626  1.00  0.00    -0.352 N 
ATOM     23  C   UNL A   1      33.054  34.867  28.605  1.00  0.00     0.251 C 
ATOM     24  H   UNL A   1      31.662  34.735  27.170  1.00  0.00     0.163 HD
ATOM     25  O   UNL A   1      32.697  35.989  28.962  1.00  0.00    -0.269 OA
BRANCH  23  26
ATOM     26  C   UNL A   1      34.214  34.222  29.255  1.00  0.00     0.039 A 
ATOM     27  C   UNL A   1      33.986  33.325  30.302  1.00  0.00     0.014 A 
ATOM     28  C   UNL A   1      35.520  34.498  28.841  1.00  0.00     0.014 A 
ATOM     29  C   UNL A   1      35.063  32.667  30.898  1.00  0.00     0.010 A 
ATOM     30  C   UNL A   1      36.585  33.781  29.379  1.00  0.00     0.010 A 
ATOM     31  C   UNL A   1      36.370  32.867  30.422  1.00  0.00    -0.014 A 
BRANCH  31  32
ATOM     32  C   UNL A   1      37.522  32.146  31.020  1.00  0.00     0.031 A 
ATOM     33  C   UNL A   1      38.004  32.502  32.400  1.00  0.00     0.074 A 
ATOM     34  C   UNL A   1      38.165  31.201  30.306  1.00  0.00     0.049 A 
ATOM     35  N   UNL A   1      39.010  32.012  33.080  1.00  0.00    -0.248 NA
ATOM     36  C   UNL A   1      37.273  33.570  33.100  1.00  0.00     0.031 C 
ATOM     37  C   UNL A   1      37.826  30.798  28.941  1.00  0.00     0.029 A 
ATOM     38  N   UNL A   1      39.241  30.412  30.629  1.00  0.00    -0.354 N 
ATOM     39  C   UNL A   1      39.038  32.717  34.276  1.00  0.00     0.074 A 
ATOM     40  C   UNL A   1      37.991  33.713  34.203  1.00  0.00     0.031 C 
ATOM     41  C   UNL A   1      38.656  29.817  28.554  1.00  0.00     0.029 A 
ATOM     42  C   UNL A   1      39.609  29.548  29.626  1.00  0.00     0.049 A 
ATOM     43  H   UNL A   1      39.704  30.462  31.496  1.00  0.00     0.167 HD
ATOM     44  C   UNL A   1      39.845  32.535  35.349  1.00  0.00     0.037 A 
ATOM     45  C   UNL A   1      40.605  28.643  29.579  1.00  0.00     0.037 A 
ATOM     46  C   UNL A   1      40.875  31.533  35.425  1.00  0.00     0.049 A 
ATOM     47  C   UNL A   1      41.498  28.469  30.779  1.00  0.00     0.074 A 
ATOM     48  C   UNL A   1      41.711  31.232  36.485  1.00  0.00     0.029 A 
ATOM     49  N   UNL A   1      41.214  30.669  34.392  1.00  0.00    -0.354 N 
ATOM     50  N   UNL A   1      41.468  29.092  31.932  1.00  0.00    -0.248 NA
ATOM     51  C   UNL A   1      42.557  27.456  30.672  1.00  0.00     0.031 C 
ATOM     52  C   UNL A   1      42.592  30.225  36.076  1.00  0.00     0.029 A 
ATOM     53  C   UNL A   1      42.263  29.852  34.783  1.00  0.00     0.049 A 
ATOM     54  H   UNL A   1      40.773  30.641  33.512  1.00  0.00     0.167 HD
ATOM     55  C   UNL A   1      42.478  28.525  32.699  1.00  0.00     0.074 A 
ATOM     56  C   UNL A   1      43.093  27.498  31.883  1.00  0.00     0.031 C 
ATOM     57  C   UNL A   1      42.860  28.827  33.964  1.00  0.00     0.037 A 
BRANCH  44  58
ATOM     58  C   UNL A   1      39.641  33.443  36.529  1.00  0.00     0.064 A 
ATOM     59  C   UNL A   1      38.794  33.092  37.592  1.00  0.00     0.173 A 
ATOM     60  C   UNL A   1      40.318  34.669  36.610  1.00  0.00     0.173 A 
ATOM     61  F   UNL A   1      38.114  31.936  37.561  1.00  0.00    -0.203 F 
ATOM     62  C   UNL A   1      38.601  33.952  38.670  1.00  0.00     0.198 A 
ATOM     63  C   UNL A   1      40.151  35.510  37.708  1.00  0.00     0.198 A 
ATOM     64  F   UNL A   1      41.146  35.052  35.627  1.00  0.00    -0.203 F 
ATOM     65  F   UNL A   1      37.739  33.621  39.643  1.00  0.00    -0.200 F 
ATOM     66  C   UNL A   1      39.284  35.157  38.731  1.00  0.00     0.200 A 
ATOM     67  F   UNL A   1      40.823  36.668  37.772  1.00  0.00    -0.200 F 
ATOM     68  F   UNL A   1      39.101  35.981  39.771  1.00  0.00    -0.200 F 
ENDBRANCH  44  58
BRANCH  45  69
ATOM     69  C   UNL A   1      40.790  27.805  28.364  1.00  0.00     0.064 A 
ATOM     70  C   UNL A   1      40.165  26.555  28.250  1.00  0.00     0.173 A 
ATOM     71  C   UNL A   1      41.596  28.230  27.298  1.00  0.00     0.173 A 
ATOM     72  F   UNL A   1      39.400  26.096  29.251  1.00  0.00    -0.203 F 
ATOM     73  C   UNL A   1      40.357  25.754  27.127  1.00  0.00     0.198 A 
ATOM     74  C   UNL A   1      41.763  27.441  26.162  1.00  0.00     0.198 A 
ATOM     75  F   UNL A   1      42.213  29.420  27.355  1.00  0.00    -0.203 F 
ATOM     76  F   UNL A   1      39.786  24.543  27.065  1.00  0.00    -0.200 F 
ATOM     77  C   UNL A   1      41.151  26.200  26.080  1.00  0.00     0.200 A 
ATOM     78  F   UNL A   1      42.518  27.883  25.147  1.00  0.00    -0.200 F 
ATOM     79  F   UNL A   1      41.331  25.431  24.999  1.00  0.00    -0.200 F 
ENDBRANCH  45  69
BRANCH  57  80
ATOM     80  C   UNL A   1      43.965  28.006  34.566  1.00  0.00     0.064 A 
ATOM     81  C   UNL A   1      45.309  28.402  34.492  1.00  0.00     0.173 A 
ATOM     82  C   UNL A   1      43.669  26.820  35.258  1.00  0.00     0.173 A 
ATOM     83  F   UNL A   1      45.648  29.519  33.831  1.00  0.00    -0.203 F 
ATOM     84  C   UNL A   1      46.316  27.626  35.059  1.00  0.00     0.198 A 
ATOM     85  C   UNL A   1      44.676  26.065  35.853  1.00  0.00     0.198 A 
ATOM     86  F   UNL A   1      42.399  26.399  35.365  1.00  0.00    -0.203 F 
ATOM     87  F   UNL A   1      47.598  27.995  34.926  1.00  0.00    -0.200 F 
ATOM     88  C   UNL A   1      45.999  26.463  35.745  1.00  0.00     0.200 A 
ATOM     89  F   UNL A   1      44.363  24.951  36.530  1.00  0.00    -0.200 F 
ATOM     90  F   UNL A   1      46.969  25.721  36.296  1.00  0.00    -0.200 F 
ENDBRANCH  57  80
ENDBRANCH  31  32
ENDBRANCH  23  26
ENDBRANCH  21  22
ENDBRANCH  20  21
ENDBRANCH   1  20
TORSDOF 14
ENDMDL
MODEL 2
REMARK VINA RESULT:     -11.2      0.825      7.525
REMARK SMILES C[C@H]([NH3+])C(=O)N1CCC[C@H]1C(=O)NCCCCNC(=O)c1ccc(-c2c3nc(c(-c4c(F)c(F)c(F)c(F)c4F)c4ccc([nH]4)c(-c4c(F)c(F)c(F)c(F)c4F)c4nc(c(-c5c(F)c(F)c(F)c(F)c5F)c5ccc2[nH]5)C=C4)C=C3)cc1
REMARK SMILES IDX 15 1 14 2 13 3 11 4 12 5 10 7 6 8 7 9 8 10 9 11 4 12 5 13
REMARK SMILES IDX 2 14 1 15 3 16 16 20 17 21 18 22 19 23 20 25 21 26 22 27
REMARK SMILES IDX 83 28 23 29 82 30 24 31 25 32 26 33 76 34 27 35 81 36 75 37
REMARK SMILES IDX 77 38 28 39 80 40 74 41 73 42 29 44 61 45 41 46 60 47 42 48
REMARK SMILES IDX 45 49 59 50 78 51 43 52 44 53 58 55 79 56 46 57 30 58 31 59
REMARK SMILES IDX 39 60 32 61 33 62 37 63 40 64 34 65 35 66 38 67 36 68 62 69
REMARK SMILES IDX 63 70 71 71 64 72 65 73 69 74 72 75 66 76 67 77 70 78 68 79
REMARK SMILES IDX 47 80 48 81 56 82 49 83 50 84 54 85 57 86 51 87 52 88 55 89
REMARK SMILES IDX 53 90
REMARK H PARENT 13 6 3 17 3 18 3 19 18 24 77 43 45 54
REMARK Flexibility Score: inf
ROOT
ATOM      1  C   UNL A   1      31.650  30.823  26.071  1.00  0.00     0.023 C 
ENDROOT
BRANCH   1   2
ATOM      2  C   UNL A   1      31.803  29.705  27.102  1.00  0.00     0.116 C 
BRANCH   2   3
ATOM      3  N   UNL A   1      32.896  28.815  26.753  1.00  0.00    -0.354 N 
ATOM      4  C   UNL A   1      32.857  27.665  26.006  1.00  0.00     0.242 C 
ATOM      5  O   UNL A   1      33.856  26.946  25.983  1.00  0.00    -0.273 OA
ATOM      6  H   UNL A   1      33.782  29.071  27.099  1.00  0.00     0.163 HD
BRANCH   4   7
ATOM      7  C   UNL A   1      31.530  27.299  25.312  1.00  0.00     0.174 C 
ATOM      8  N   UNL A   1      31.638  27.031  23.878  1.00  0.00    -0.326 N 
ATOM      9  C   UNL A   1      31.413  25.625  23.608  1.00  0.00     0.120 C 
ATOM     10  C   UNL A   1      30.477  25.200  24.721  1.00  0.00     0.024 C 
ATOM     11  C   UNL A   1      30.956  26.010  25.915  1.00  0.00     0.037 C 
BRANCH   8  12
ATOM     12  C   UNL A   1      31.790  28.097  23.018  1.00  0.00     0.281 C 
ATOM     13  O   UNL A   1      32.899  28.341  22.525  1.00  0.00    -0.268 OA
BRANCH  12  14
ATOM     14  C   UNL A   1      30.656  29.124  22.825  1.00  0.00     0.268 C 
ATOM     15  C   UNL A   1      29.318  28.389  22.855  1.00  0.00     0.086 C 
BRANCH  14  16
ATOM     16  N   UNL A   1      30.795  29.999  21.653  1.00  0.00    -0.348 N 
ATOM     17  H   UNL A   1      31.501  30.711  21.843  1.00  0.00     0.345 HD
ATOM     18  H   UNL A   1      29.902  30.451  21.458  1.00  0.00     0.345 HD
ATOM     19  H   UNL A   1      31.080  29.444  20.846  1.00  0.00     0.345 HD
ENDBRANCH  14  16
ENDBRANCH  12  14
ENDBRANCH   8  12
ENDBRANCH   4   7
ENDBRANCH   2   3
ENDBRANCH   1   2
BRANCH   1  20
ATOM     20  C   UNL A   1      31.409  32.208  26.676  1.00  0.00     0.023 C 
BRANCH  20  21
ATOM     21  C   UNL A   1      32.661  32.910  27.189  1.00  0.00     0.116 C 
BRANCH  21  22
ATOM     22  N   UNL A   1      32.402  34.271  27.632  1.00  0.00    -0.352 N 
ATOM     23  C   UNL A   1      32.995  34.977  28.648  1.00  0.00     0.251 C 
ATOM     24  H   UNL A   1      31.703  34.753  27.134  1.00  0.00     0.163 HD
ATOM     25  O   UNL A   1      32.544  36.073  28.979  1.00  0.00    -0.269 OA
BRANCH  23  26
ATOM     26  C   UNL A   1      34.155  34.410  29.368  1.00  0.00     0.039 A 
ATOM     27  C   UNL A   1      33.932  33.711  30.557  1.00  0.00     0.014 A 
ATOM     28  C   UNL A   1      35.455  34.566  28.881  1.00  0.00     0.014 A 
ATOM     29  C   UNL A   1      35.007  33.125  31.229  1.00  0.00     0.010 A 
ATOM     30  C   UNL A   1      36.514  33.914  29.506  1.00  0.00     0.010 A 
ATOM     31  C   UNL A   1      36.303  33.196  30.693  1.00  0.00    -0.014 A 
BRANCH  31  32
ATOM     32  C   UNL A   1      37.451  32.546  31.376  1.00  0.00     0.031 A 
ATOM     33  C   UNL A   1      38.186  31.414  30.710  1.00  0.00     0.074 A 
ATOM     34  C   UNL A   1      37.806  32.942  32.614  1.00  0.00     0.049 A 
ATOM     35  N   UNL A   1      39.188  30.700  31.156  1.00  0.00    -0.248 NA
ATOM     36  C   UNL A   1      37.714  31.015  29.375  1.00  0.00     0.031 C 
ATOM     37  C   UNL A   1      37.143  33.994  33.385  1.00  0.00     0.029 A 
ATOM     38  N   UNL A   1      38.808  32.503  33.442  1.00  0.00    -0.354 N 
ATOM     39  C   UNL A   1      39.456  29.764  30.165  1.00  0.00     0.074 A 
ATOM     40  C   UNL A   1      38.471  29.959  29.124  1.00  0.00     0.031 C 
ATOM     41  C   UNL A   1      37.775  34.141  34.561  1.00  0.00     0.029 A 
ATOM     42  C   UNL A   1      38.861  33.169  34.643  1.00  0.00     0.049 A 
ATOM     43  H   UNL A   1      39.429  31.779  33.199  1.00  0.00     0.167 HD
ATOM     44  C   UNL A   1      40.450  28.845  30.114  1.00  0.00     0.037 A 
ATOM     45  C   UNL A   1      39.692  33.009  35.690  1.00  0.00     0.037 A 
ATOM     46  C   UNL A   1      41.439  28.665  31.144  1.00  0.00     0.049 A 
ATOM     47  C   UNL A   1      40.780  31.971  35.616  1.00  0.00     0.074 A 
ATOM     48  C   UNL A   1      42.517  27.798  31.165  1.00  0.00     0.029 A 
ATOM     49  N   UNL A   1      41.466  29.364  32.344  1.00  0.00    -0.354 N 
ATOM     50  N   UNL A   1      41.069  31.141  34.642  1.00  0.00    -0.248 NA
ATOM     51  C   UNL A   1      41.662  31.855  36.784  1.00  0.00     0.031 C 
ATOM     52  C   UNL A   1      43.164  27.933  32.398  1.00  0.00     0.029 A 
ATOM     53  C   UNL A   1      42.528  28.930  33.121  1.00  0.00     0.049 A 
ATOM     54  H   UNL A   1      40.824  30.065  32.602  1.00  0.00     0.167 HD
ATOM     55  C   UNL A   1      42.185  30.431  35.065  1.00  0.00     0.074 A 
ATOM     56  C   UNL A   1      42.528  30.938  36.378  1.00  0.00     0.031 C 
ATOM     57  C   UNL A   1      42.864  29.449  34.423  1.00  0.00     0.037 A 
BRANCH  44  58
ATOM     58  C   UNL A   1      40.514  27.963  28.899  1.00  0.00     0.064 A 
ATOM     59  C   UNL A   1      39.799  26.756  28.825  1.00  0.00     0.173 A 
ATOM     60  C   UNL A   1      41.282  28.336  27.786  1.00  0.00     0.173 A 
ATOM     61  F   UNL A   1      39.057  26.345  29.864  1.00  0.00    -0.203 F 
ATOM     62  C   UNL A   1      39.883  25.940  27.700  1.00  0.00     0.198 A 
ATOM     63  C   UNL A   1      41.335  27.535  26.648  1.00  0.00     0.198 A 
ATOM     64  F   UNL A   1      41.980  29.482  27.799  1.00  0.00    -0.203 F 
ATOM     65  F   UNL A   1      39.241  24.763  27.678  1.00  0.00    -0.200 F 
ATOM     66  C   UNL A   1      40.646  26.333  26.610  1.00  0.00     0.200 A 
ATOM     67  F   UNL A   1      42.060  27.923  25.590  1.00  0.00    -0.200 F 
ATOM     68  F   UNL A   1      40.722  25.549  25.526  1.00  0.00    -0.200 F 
ENDBRANCH  44  58
BRANCH  45  69
ATOM     69  C   UNL A   1      39.551  33.880  36.888  1.00  0.00     0.064 A 
ATOM     70  C   UNL A   1      38.795  33.465  37.995  1.00  0.00     0.173 A 
ATOM     71  C   UNL A   1      40.160  35.141  36.952  1.00  0.00     0.173 A 
ATOM     72  F   UNL A   1      38.177  32.276  37.974  1.00  0.00    -0.203 F 
ATOM     73  C   UNL A   1      38.637  34.288  39.107  1.00  0.00     0.198 A 
ATOM     74  C   UNL A   1      40.027  35.950  38.079  1.00  0.00     0.198 A 
ATOM     75  F   UNL A   1      40.898  35.583  35.923  1.00  0.00    -0.203 F 
ATOM     76  F   UNL A   1      37.870  33.886  40.130  1.00  0.00    -0.200 F 
ATOM     77  C   UNL A   1      39.258  35.527  39.152  1.00  0.00     0.200 A 
ATOM     78  F   UNL A   1      40.642  37.139  38.123  1.00  0.00    -0.200 F 
ATOM     79  F   UNL A   1      39.109  36.315  40.225  1.00  0.00    -0.200 F 
ENDBRANCH  45  69
BRANCH  57  80
ATOM     80  C   UNL A   1      44.078  28.889  35.107  1.00  0.00     0.064 A 
ATOM     81  C   UNL A   1      45.358  29.429  34.908  1.00  0.00     0.173 A 
ATOM     82  C   UNL A   1      43.953  27.816  36.005  1.00  0.00     0.173 A 
ATOM     83  F   UNL A   1      45.535  30.446  34.051  1.00  0.00    -0.203 F 
ATOM     84  C   UNL A   1      46.469  28.895  35.555  1.00  0.00     0.198 A 
ATOM     85  C   UNL A   1      45.062  27.307  36.676  1.00  0.00     0.198 A 
ATOM     86  F   UNL A   1      42.752  27.266  36.238  1.00  0.00    -0.203 F 
ATOM     87  F   UNL A   1      47.689  29.391  35.305  1.00  0.00    -0.200 F 
ATOM     88  C   UNL A   1      46.319  27.841  36.443  1.00  0.00     0.200 A 
ATOM     89  F   UNL A   1      44.911  26.300  37.546  1.00  0.00    -0.200 F 
ATOM     90  F   UNL A   1      47.389  27.334  37.071  1.00  0.00    -0.200 F 
ENDBRANCH  57  80
ENDBRANCH  31  32
ENDBRANCH  23  26
ENDBRANCH  21  22
ENDBRANCH  20  21
ENDBRANCH   1  20
TORSDOF 14
ENDMDL
MODEL 3
REMARK VINA RESULT:     -11.1      1.107      7.829
REMARK SMILES C[C@H]([NH3+])C(=O)N1CCC[C@H]1C(=O)NCCCCNC(=O)c1ccc(-c2c3nc(c(-c4c(F)c(F)c(F)c(F)c4F)c4ccc([nH]4)c(-c4c(F)c(F)c(F)c(F)c4F)c4nc(c(-c5c(F)c(F)c(F)c(F)c5F)c5ccc2[nH]5)C=C4)C=C3)cc1
REMARK SMILES IDX 15 1 14 2 13 3 11 4 12 5 10 7 6 8 7 9 8 10 9 11 4 12 5 13
REMARK SMILES IDX 2 14 1 15 3 16 16 20 17 21 18 22 19 23 20 25 21 26 22 27
REMARK SMILES IDX 83 28 23 29 82 30 24 31 25 32 26 33 76 34 27 35 81 36 75 37
REMARK SMILES IDX 77 38 28 39 80 40 74 41 73 42 29 44 61 45 41 46 60 47 42 48
REMARK SMILES IDX 45 49 59 50 78 51 43 52 44 53 58 55 79 56 46 57 30 58 31 59
REMARK SMILES IDX 39 60 32 61 33 62 37 63 40 64 34 65 35 66 38 67 36 68 62 69
REMARK SMILES IDX 63 70 71 71 64 72 65 73 69 74 72 75 66 76 67 77 70 78 68 79
REMARK SMILES IDX 47 80 48 81 56 82 49 83 50 84 54 85 57 86 51 87 52 88 55 89
REMARK SMILES IDX 53 90
REMARK H PARENT 13 6 3 17 3 18 3 19 18 24 77 43 45 54
REMARK Flexibility Score: inf
ROOT
ATOM      1  C   UNL A   1      31.970  30.488  26.948  1.00  0.00     0.023 C 
ENDROOT
BRANCH   1   2
ATOM      2  C   UNL A   1      31.531  29.724  25.698  1.00  0.00     0.116 C 
BRANCH   2   3
ATOM      3  N   UNL A   1      32.536  29.803  24.654  1.00  0.00    -0.354 N 
ATOM      4  C   UNL A   1      32.918  28.836  23.759  1.00  0.00     0.242 C 
ATOM      5  O   UNL A   1      33.924  29.031  23.077  1.00  0.00    -0.273 OA
ATOM      6  H   UNL A   1      33.008  30.665  24.579  1.00  0.00     0.163 HD
BRANCH   4   7
ATOM      7  C   UNL A   1      32.111  27.523  23.728  1.00  0.00     0.174 C 
ATOM      8  N   UNL A   1      31.059  27.470  22.713  1.00  0.00    -0.326 N 
ATOM      9  C   UNL A   1      31.404  26.521  21.675  1.00  0.00     0.120 C 
ATOM     10  C   UNL A   1      32.259  25.502  22.401  1.00  0.00     0.024 C 
ATOM     11  C   UNL A   1      33.035  26.342  23.404  1.00  0.00     0.037 C 
BRANCH   8  12
ATOM     12  C   UNL A   1      29.896  28.176  22.933  1.00  0.00     0.281 C 
ATOM     13  O   UNL A   1      28.901  27.601  23.394  1.00  0.00    -0.268 OA
BRANCH  12  14
ATOM     14  C   UNL A   1      29.736  29.619  22.412  1.00  0.00     0.268 C 
ATOM     15  C   UNL A   1      28.314  29.797  21.889  1.00  0.00     0.086 C 
BRANCH  14  16
ATOM     16  N   UNL A   1      30.754  30.052  21.444  1.00  0.00    -0.348 N 
ATOM     17  H   UNL A   1      30.322  30.171  20.528  1.00  0.00     0.345 HD
ATOM     18  H   UNL A   1      31.489  29.347  21.386  1.00  0.00     0.345 HD
ATOM     19  H   UNL A   1      31.156  30.939  21.748  1.00  0.00     0.345 HD
ENDBRANCH  14  16
ENDBRANCH  12  14
ENDBRANCH   8  12
ENDBRANCH   4   7
ENDBRANCH   2   3
ENDBRANCH   1   2
BRANCH   1  20
ATOM     20  C   UNL A   1      31.657  31.985  26.913  1.00  0.00     0.023 C 
BRANCH  20  21
ATOM     21  C   UNL A   1      32.869  32.897  27.067  1.00  0.00     0.116 C 
BRANCH  21  22
ATOM     22  N   UNL A   1      32.522  34.213  27.579  1.00  0.00    -0.352 N 
ATOM     23  C   UNL A   1      33.032  34.881  28.665  1.00  0.00     0.251 C 
ATOM     24  H   UNL A   1      31.823  34.692  27.078  1.00  0.00     0.163 HD
ATOM     25  O   UNL A   1      32.512  35.931  29.039  1.00  0.00    -0.269 OA
BRANCH  23  26
ATOM     26  C   UNL A   1      34.185  34.324  29.404  1.00  0.00     0.039 A 
ATOM     27  C   UNL A   1      33.945  33.570  30.555  1.00  0.00     0.014 A 
ATOM     28  C   UNL A   1      35.495  34.545  28.971  1.00  0.00     0.014 A 
ATOM     29  C   UNL A   1      35.015  32.994  31.242  1.00  0.00     0.010 A 
ATOM     30  C   UNL A   1      36.554  33.903  29.608  1.00  0.00     0.010 A 
ATOM     31  C   UNL A   1      36.327  33.131  30.757  1.00  0.00    -0.014 A 
BRANCH  31  32
ATOM     32  C   UNL A   1      37.472  32.493  31.456  1.00  0.00     0.031 A 
ATOM     33  C   UNL A   1      38.212  31.353  30.811  1.00  0.00     0.074 A 
ATOM     34  C   UNL A   1      37.820  32.908  32.689  1.00  0.00     0.049 A 
ATOM     35  N   UNL A   1      39.213  30.647  31.273  1.00  0.00    -0.248 NA
ATOM     36  C   UNL A   1      37.747  30.932  29.480  1.00  0.00     0.031 C 
ATOM     37  C   UNL A   1      37.152  33.971  33.441  1.00  0.00     0.029 A 
ATOM     38  N   UNL A   1      38.819  32.483  33.529  1.00  0.00    -0.354 N 
ATOM     39  C   UNL A   1      39.487  29.696  30.297  1.00  0.00     0.074 A 
ATOM     40  C   UNL A   1      38.507  29.874  29.248  1.00  0.00     0.031 C 
ATOM     41  C   UNL A   1      37.778  34.136  34.618  1.00  0.00     0.029 A 
ATOM     42  C   UNL A   1      38.865  33.167  34.720  1.00  0.00     0.049 A 
ATOM     43  H   UNL A   1      39.442  31.757  33.300  1.00  0.00     0.167 HD
ATOM     44  C   UNL A   1      40.482  28.778  30.264  1.00  0.00     0.037 A 
ATOM     45  C   UNL A   1      39.690  33.025  35.774  1.00  0.00     0.037 A 
ATOM     46  C   UNL A   1      41.466  28.615  31.303  1.00  0.00     0.049 A 
ATOM     47  C   UNL A   1      40.780  31.987  35.720  1.00  0.00     0.074 A 
ATOM     48  C   UNL A   1      42.546  27.750  31.342  1.00  0.00     0.029 A 
ATOM     49  N   UNL A   1      41.486  29.332  32.491  1.00  0.00    -0.354 N 
ATOM     50  N   UNL A   1      41.075  31.143  34.761  1.00  0.00    -0.248 NA
ATOM     51  C   UNL A   1      41.657  31.890  36.895  1.00  0.00     0.031 C 
ATOM     52  C   UNL A   1      43.186  27.905  32.576  1.00  0.00     0.029 A 
ATOM     53  C   UNL A   1      42.545  28.911  33.280  1.00  0.00     0.049 A 
ATOM     54  H   UNL A   1      40.843  30.036  32.736  1.00  0.00     0.167 HD
ATOM     55  C   UNL A   1      42.190  30.442  35.200  1.00  0.00     0.074 A 
ATOM     56  C   UNL A   1      42.526  30.968  36.506  1.00  0.00     0.031 C 
ATOM     57  C   UNL A   1      42.874  29.451  34.576  1.00  0.00     0.037 A 
BRANCH  44  58
ATOM     58  C   UNL A   1      40.554  27.878  29.064  1.00  0.00     0.064 A 
ATOM     59  C   UNL A   1      41.405  28.156  27.983  1.00  0.00     0.173 A 
ATOM     60  C   UNL A   1      39.778  26.711  29.000  1.00  0.00     0.173 A 
ATOM     61  F   UNL A   1      42.162  29.264  27.985  1.00  0.00    -0.203 F 
ATOM     62  C   UNL A   1      41.447  27.322  26.868  1.00  0.00     0.198 A 
ATOM     63  C   UNL A   1      39.849  25.860  27.900  1.00  0.00     0.198 A 
ATOM     64  F   UNL A   1      38.951  26.391  30.008  1.00  0.00    -0.203 F 
ATOM     65  F   UNL A   1      42.222  27.642  25.822  1.00  0.00    -0.200 F 
ATOM     66  C   UNL A   1      40.674  26.171  26.830  1.00  0.00     0.200 A 
ATOM     67  F   UNL A   1      39.113  24.740  27.871  1.00  0.00    -0.200 F 
ATOM     68  F   UNL A   1      40.719  25.367  25.759  1.00  0.00    -0.200 F 
ENDBRANCH  44  58
BRANCH  45  69
ATOM     69  C   UNL A   1      39.542  33.913  36.958  1.00  0.00     0.064 A 
ATOM     70  C   UNL A   1      40.147  35.177  36.990  1.00  0.00     0.173 A 
ATOM     71  C   UNL A   1      38.800  33.517  38.080  1.00  0.00     0.173 A 
ATOM     72  F   UNL A   1      40.883  35.593  35.949  1.00  0.00    -0.203 F 
ATOM     73  C   UNL A   1      40.035  36.001  38.108  1.00  0.00     0.198 A 
ATOM     74  C   UNL A   1      38.663  34.355  39.185  1.00  0.00     0.198 A 
ATOM     75  F   UNL A   1      38.197  32.319  38.099  1.00  0.00    -0.203 F 
ATOM     76  F   UNL A   1      40.664  37.185  38.130  1.00  0.00    -0.200 F 
ATOM     77  C   UNL A   1      39.287  35.593  39.202  1.00  0.00     0.200 A 
ATOM     78  F   UNL A   1      37.927  33.962  40.233  1.00  0.00    -0.200 F 
ATOM     79  F   UNL A   1      39.176  36.388  40.274  1.00  0.00    -0.200 F 
ENDBRANCH  45  69
BRANCH  57  80
ATOM     80  C   UNL A   1      44.086  28.903  35.275  1.00  0.00     0.064 A 
ATOM     81  C   UNL A   1      44.004  27.815  36.158  1.00  0.00     0.173 A 
ATOM     82  C   UNL A   1      45.354  29.453  35.031  1.00  0.00     0.173 A 
ATOM     83  F   UNL A   1      42.815  27.260  36.437  1.00  0.00    -0.203 F 
ATOM     84  C   UNL A   1      45.140  27.322  36.794  1.00  0.00     0.198 A 
ATOM     85  C   UNL A   1      46.492  28.935  35.642  1.00  0.00     0.198 A 
ATOM     86  F   UNL A   1      45.490  30.490  34.190  1.00  0.00    -0.203 F 
ATOM     87  F   UNL A   1      45.029  26.319  37.676  1.00  0.00    -0.200 F 
ATOM     88  C   UNL A   1      46.383  27.877  36.530  1.00  0.00     0.200 A 
ATOM     89  F   UNL A   1      47.694  29.463  35.372  1.00  0.00    -0.200 F 
ATOM     90  F   UNL A   1      47.477  27.396  37.137  1.00  0.00    -0.200 F 
ENDBRANCH  57  80
ENDBRANCH  31  32
ENDBRANCH  23  26
ENDBRANCH  21  22
ENDBRANCH  20  21
ENDBRANCH   1  20
TORSDOF 14
ENDMDL
