MODEL 1
REMARK VINA RESULT:     -14.6      0.000      0.000
REMARK SMILES Cc1ccccc1CNC(=O)N1CCC(CC(=O)NCCCCNC(=O)c2ccc(-c3c4nc(c(-c5c(F)c(F)c(F)c(F)c5F)c5ccc([nH]5)c(-c5c(F)c(F)c(F)c(F)c5F)c5nc(c(-c6c(F)c(F)c(F)c(F)c6F)c6ccc3[nH]6)C=C5)C=C4)cc2)CC1
REMARK SMILES IDX 21 1 20 2 19 3 17 4 18 5 16 7 15 8 9 9 10 10 11 12 12 13
REMARK SMILES IDX 13 14 91 15 14 16 90 17 8 18 7 19 1 20 2 21 3 22 4 23 6 24
REMARK SMILES IDX 5 25 22 26 23 27 24 28 25 29 26 31 27 32 28 33 89 34 29 35
REMARK SMILES IDX 88 36 30 37 31 38 32 39 82 40 33 41 87 42 81 43 83 44 34 45
REMARK SMILES IDX 86 46 80 47 79 48 35 50 67 51 47 52 66 53 48 54 51 55 65 56
REMARK SMILES IDX 84 57 49 58 50 59 64 61 85 62 52 63 36 64 37 65 45 66 38 67
REMARK SMILES IDX 39 68 43 69 46 70 40 71 41 72 44 73 42 74 68 75 69 76 77 77
REMARK SMILES IDX 70 78 71 79 75 80 78 81 72 82 73 83 76 84 74 85 53 86 54 87
REMARK SMILES IDX 62 88 55 89 56 90 60 91 63 92 57 93 58 94 61 95 59 96
REMARK H PARENT 19 6 9 11 24 30 83 49 51 60
REMARK Flexibility Score: inf
ROOT
ATOM      1  C   UNL A   1      36.512  20.387  24.983  1.00  0.00     0.023 C 
ENDROOT
BRANCH   1   2
ATOM      2  C   UNL A   1      35.372  21.073  25.768  1.00  0.00     0.116 C 
BRANCH   2   3
ATOM      3  N   UNL A   1      34.114  20.330  25.804  1.00  0.00    -0.356 N 
ATOM      4  C   UNL A   1      33.064  20.273  24.929  1.00  0.00     0.220 C 
ATOM      5  O   UNL A   1      32.150  19.482  25.179  1.00  0.00    -0.275 OA
ATOM      6  H   UNL A   1      34.002  19.768  26.604  1.00  0.00     0.163 HD
BRANCH   4   7
ATOM      7  C   UNL A   1      32.983  21.182  23.709  1.00  0.00     0.103 C 
BRANCH   7   8
ATOM      8  C   UNL A   1      32.978  22.684  24.073  1.00  0.00     0.002 C 
ATOM      9  N   UNL A   1      31.684  26.990  21.670  1.00  0.00    -0.334 N 
ATOM     10  C   UNL A   1      32.464  25.882  21.743  1.00  0.00     0.317 C 
ATOM     11  H   UNL A   1      31.295  27.199  20.790  1.00  0.00     0.165 HD
ATOM     12  O   UNL A   1      32.999  25.446  20.726  1.00  0.00    -0.249 OA
ATOM     13  N   UNL A   1      32.706  25.381  22.997  1.00  0.00    -0.325 N 
ATOM     14  C   UNL A   1      34.028  24.902  23.305  1.00  0.00     0.121 C 
ATOM     15  C   UNL A   1      31.643  24.863  23.851  1.00  0.00     0.121 C 
ATOM     16  C   UNL A   1      34.052  23.395  23.260  1.00  0.00     0.026 C 
ATOM     17  C   UNL A   1      31.601  23.326  23.810  1.00  0.00     0.026 C 
BRANCH   9  18
ATOM     18  C   UNL A   1      31.364  27.895  22.754  1.00  0.00     0.153 C 
BRANCH  18  19
ATOM     19  C   UNL A   1      30.038  28.606  22.566  1.00  0.00    -0.026 A 
ATOM     20  C   UNL A   1      28.717  26.822  23.876  1.00  0.00     0.044 C 
ATOM     21  C   UNL A   1      28.836  28.118  23.121  1.00  0.00    -0.046 A 
ATOM     22  C   UNL A   1      27.655  28.872  22.974  1.00  0.00     0.004 A 
ATOM     23  C   UNL A   1      27.653  30.097  22.313  1.00  0.00     0.000 A 
ATOM     24  C   UNL A   1      30.016  29.858  21.914  1.00  0.00     0.006 A 
ATOM     25  C   UNL A   1      28.837  30.594  21.784  1.00  0.00     0.000 A 
ENDBRANCH  18  19
ENDBRANCH   9  18
ENDBRANCH   7   8
ENDBRANCH   4   7
ENDBRANCH   2   3
ENDBRANCH   1   2
BRANCH   1  26
ATOM     26  C   UNL A   1      37.700  21.271  24.620  1.00  0.00     0.023 C 
BRANCH  26  27
ATOM     27  C   UNL A   1      38.101  22.152  25.783  1.00  0.00     0.116 C 
BRANCH  27  28
ATOM     28  N   UNL A   1      39.504  22.055  26.179  1.00  0.00    -0.352 N 
ATOM     29  C   UNL A   1      40.390  23.058  26.558  1.00  0.00     0.251 C 
ATOM     30  H   UNL A   1      39.878  21.145  26.177  1.00  0.00     0.163 HD
ATOM     31  O   UNL A   1      41.563  22.797  26.774  1.00  0.00    -0.269 OA
BRANCH  29  32
ATOM     32  C   UNL A   1      39.867  24.419  26.844  1.00  0.00     0.039 A 
ATOM     33  C   UNL A   1      40.403  25.506  26.142  1.00  0.00     0.014 A 
ATOM     34  C   UNL A   1      39.098  24.639  27.976  1.00  0.00     0.014 A 
ATOM     35  C   UNL A   1      40.412  26.764  26.741  1.00  0.00     0.010 A 
ATOM     36  C   UNL A   1      39.290  25.815  28.657  1.00  0.00     0.010 A 
ATOM     37  C   UNL A   1      39.982  26.873  28.059  1.00  0.00    -0.014 A 
BRANCH  37  38
ATOM     38  C   UNL A   1      40.227  28.015  28.931  1.00  0.00     0.031 A 
ATOM     39  C   UNL A   1      39.240  29.119  28.958  1.00  0.00     0.074 A 
ATOM     40  C   UNL A   1      41.229  27.963  29.838  1.00  0.00     0.049 A 
ATOM     41  N   UNL A   1      39.428  30.260  29.525  1.00  0.00    -0.248 NA
ATOM     42  C   UNL A   1      37.940  29.028  28.301  1.00  0.00     0.031 C 
ATOM     43  C   UNL A   1      41.391  28.796  31.029  1.00  0.00     0.029 A 
ATOM     44  N   UNL A   1      42.434  27.242  29.755  1.00  0.00    -0.354 N 
ATOM     45  C   UNL A   1      38.227  30.936  29.544  1.00  0.00     0.074 A 
ATOM     46  C   UNL A   1      37.341  30.137  28.737  1.00  0.00     0.031 C 
ATOM     47  C   UNL A   1      42.681  28.786  31.396  1.00  0.00     0.029 A 
ATOM     48  C   UNL A   1      43.408  28.075  30.360  1.00  0.00     0.049 A 
ATOM     49  H   UNL A   1      42.571  26.351  29.361  1.00  0.00     0.167 HD
ATOM     50  C   UNL A   1      38.115  32.041  30.337  1.00  0.00     0.037 A 
ATOM     51  C   UNL A   1      44.437  28.606  29.637  1.00  0.00     0.037 A 
ATOM     52  C   UNL A   1      39.420  32.409  30.886  1.00  0.00     0.049 A 
ATOM     53  C   UNL A   1      44.464  30.116  29.635  1.00  0.00     0.074 A 
ATOM     54  C   UNL A   1      40.029  32.188  32.111  1.00  0.00     0.029 A 
ATOM     55  N   UNL A   1      40.427  32.817  30.014  1.00  0.00    -0.354 N 
ATOM     56  N   UNL A   1      43.428  30.866  29.893  1.00  0.00    -0.248 NA
ATOM     57  C   UNL A   1      45.656  30.899  29.320  1.00  0.00     0.031 C 
ATOM     58  C   UNL A   1      41.420  32.419  31.956  1.00  0.00     0.029 A 
ATOM     59  C   UNL A   1      41.654  32.799  30.646  1.00  0.00     0.049 A 
ATOM     60  H   UNL A   1      40.283  33.082  29.076  1.00  0.00     0.167 HD
ATOM     61  C   UNL A   1      43.776  32.186  29.765  1.00  0.00     0.074 A 
ATOM     62  C   UNL A   1      45.185  32.154  29.424  1.00  0.00     0.031 C 
ATOM     63  C   UNL A   1      42.866  33.191  29.941  1.00  0.00     0.037 A 
BRANCH  50  64
ATOM     64  C   UNL A   1      36.805  32.638  30.821  1.00  0.00     0.064 A 
ATOM     65  C   UNL A   1      36.050  33.484  29.977  1.00  0.00     0.173 A 
ATOM     66  C   UNL A   1      36.266  32.486  32.112  1.00  0.00     0.173 A 
ATOM     67  F   UNL A   1      36.369  33.655  28.688  1.00  0.00    -0.203 F 
ATOM     68  C   UNL A   1      34.931  34.196  30.423  1.00  0.00     0.198 A 
ATOM     69  C   UNL A   1      35.179  33.235  32.576  1.00  0.00     0.198 A 
ATOM     70  F   UNL A   1      36.719  31.559  32.960  1.00  0.00    -0.203 F 
ATOM     71  F   UNL A   1      34.265  34.989  29.572  1.00  0.00    -0.200 F 
ATOM     72  C   UNL A   1      34.516  34.099  31.732  1.00  0.00     0.200 A 
ATOM     73  F   UNL A   1      34.776  33.100  33.848  1.00  0.00    -0.200 F 
ATOM     74  F   UNL A   1      33.468  34.808  32.173  1.00  0.00    -0.200 F 
ENDBRANCH  50  64
BRANCH  51  75
ATOM     75  C   UNL A   1      44.852  27.738  28.503  1.00  0.00     0.064 A 
ATOM     76  C   UNL A   1      45.636  26.603  28.792  1.00  0.00     0.173 A 
ATOM     77  C   UNL A   1      44.174  27.763  27.279  1.00  0.00     0.173 A 
ATOM     78  F   UNL A   1      46.309  26.535  29.952  1.00  0.00    -0.203 F 
ATOM     79  C   UNL A   1      45.627  25.486  27.960  1.00  0.00     0.198 A 
ATOM     80  C   UNL A   1      44.184  26.646  26.438  1.00  0.00     0.198 A 
ATOM     81  F   UNL A   1      43.398  28.806  26.953  1.00  0.00    -0.203 F 
ATOM     82  F   UNL A   1      46.280  24.375  28.327  1.00  0.00    -0.200 F 
ATOM     83  C   UNL A   1      44.873  25.497  26.800  1.00  0.00     0.200 A 
ATOM     84  F   UNL A   1      43.431  26.643  25.328  1.00  0.00    -0.200 F 
ATOM     85  F   UNL A   1      44.771  24.388  26.053  1.00  0.00    -0.200 F 
ENDBRANCH  51  75
BRANCH  63  86
ATOM     86  C   UNL A   1      43.048  34.645  29.559  1.00  0.00     0.064 A 
ATOM     87  C   UNL A   1      43.258  35.684  30.483  1.00  0.00     0.173 A 
ATOM     88  C   UNL A   1      43.168  35.018  28.196  1.00  0.00     0.173 A 
ATOM     89  F   UNL A   1      43.303  35.451  31.800  1.00  0.00    -0.203 F 
ATOM     90  C   UNL A   1      43.498  37.001  30.077  1.00  0.00     0.198 A 
ATOM     91  C   UNL A   1      43.471  36.321  27.797  1.00  0.00     0.198 A 
ATOM     92  F   UNL A   1      43.027  34.126  27.206  1.00  0.00    -0.203 F 
ATOM     93  F   UNL A   1      43.645  37.960  31.001  1.00  0.00    -0.200 F 
ATOM     94  C   UNL A   1      43.617  37.316  28.737  1.00  0.00     0.200 A 
ATOM     95  F   UNL A   1      43.643  36.595  26.497  1.00  0.00    -0.200 F 
ATOM     96  F   UNL A   1      43.898  38.570  28.357  1.00  0.00    -0.200 F 
ENDBRANCH  63  86
ENDBRANCH  37  38
ENDBRANCH  29  32
ENDBRANCH  27  28
ENDBRANCH  26  27
ENDBRANCH   1  26
TORSDOF 14
ENDMDL
MODEL 2
REMARK VINA RESULT:     -14.4      3.516     10.034
REMARK SMILES Cc1ccccc1CNC(=O)N1CCC(CC(=O)NCCCCNC(=O)c2ccc(-c3c4nc(c(-c5c(F)c(F)c(F)c(F)c5F)c5ccc([nH]5)c(-c5c(F)c(F)c(F)c(F)c5F)c5nc(c(-c6c(F)c(F)c(F)c(F)c6F)c6ccc3[nH]6)C=C5)C=C4)cc2)CC1
REMARK SMILES IDX 21 1 20 2 19 3 17 4 18 5 16 7 15 8 9 9 10 10 11 12 12 13
REMARK SMILES IDX 13 14 91 15 14 16 90 17 8 18 7 19 1 20 2 21 3 22 4 23 6 24
REMARK SMILES IDX 5 25 22 26 23 27 24 28 25 29 26 31 27 32 28 33 89 34 29 35
REMARK SMILES IDX 88 36 30 37 31 38 32 39 82 40 33 41 87 42 81 43 83 44 34 45
REMARK SMILES IDX 86 46 80 47 79 48 35 50 67 51 47 52 66 53 48 54 51 55 65 56
REMARK SMILES IDX 84 57 49 58 50 59 64 61 85 62 52 63 36 64 37 65 45 66 38 67
REMARK SMILES IDX 39 68 43 69 46 70 40 71 41 72 44 73 42 74 68 75 69 76 77 77
REMARK SMILES IDX 70 78 71 79 75 80 78 81 72 82 73 83 76 84 74 85 53 86 54 87
REMARK SMILES IDX 62 88 55 89 56 90 60 91 63 92 57 93 58 94 61 95 59 96
REMARK H PARENT 19 6 9 11 24 30 83 49 51 60
REMARK Flexibility Score: inf
ROOT
ATOM      1  C   UNL A   1      32.068  29.986  25.641  1.00  0.00     0.023 C 
ENDROOT
BRANCH   1   2
ATOM      2  C   UNL A   1      30.722  30.343  24.970  1.00  0.00     0.116 C 
BRANCH   2   3
ATOM      3  N   UNL A   1      30.582  29.886  23.589  1.00  0.00    -0.356 N 
ATOM      4  C   UNL A   1      30.093  28.724  23.059  1.00  0.00     0.220 C 
ATOM      5  O   UNL A   1      30.018  28.640  21.831  1.00  0.00    -0.275 OA
ATOM      6  H   UNL A   1      30.898  30.533  22.918  1.00  0.00     0.163 HD
BRANCH   4   7
ATOM      7  C   UNL A   1      29.697  27.543  23.937  1.00  0.00     0.103 C 
BRANCH   7   8
ATOM      8  C   UNL A   1      30.879  26.596  24.247  1.00  0.00     0.002 C 
ATOM      9  N   UNL A   1      31.342  21.863  26.082  1.00  0.00    -0.334 N 
ATOM     10  C   UNL A   1      30.938  23.147  26.252  1.00  0.00     0.317 C 
ATOM     11  H   UNL A   1      30.705  21.160  26.349  1.00  0.00     0.165 HD
ATOM     12  O   UNL A   1      30.060  23.405  27.072  1.00  0.00    -0.249 OA
ATOM     13  N   UNL A   1      31.636  24.107  25.565  1.00  0.00    -0.325 N 
ATOM     14  C   UNL A   1      31.937  25.349  26.230  1.00  0.00     0.121 C 
ATOM     15  C   UNL A   1      31.670  24.160  24.108  1.00  0.00     0.121 C 
ATOM     16  C   UNL A   1      30.996  26.427  25.756  1.00  0.00     0.026 C 
ATOM     17  C   UNL A   1      30.695  25.222  23.571  1.00  0.00     0.026 C 
BRANCH   9  18
ATOM     18  C   UNL A   1      32.613  21.419  25.548  1.00  0.00     0.153 C 
BRANCH  18  19
ATOM     19  C   UNL A   1      32.548  20.042  24.919  1.00  0.00    -0.026 A 
ATOM     20  C   UNL A   1      32.143  20.971  22.549  1.00  0.00     0.044 C 
ATOM     21  C   UNL A   1      32.369  19.854  23.531  1.00  0.00    -0.046 A 
ATOM     22  C   UNL A   1      32.398  18.548  23.005  1.00  0.00     0.004 A 
ATOM     23  C   UNL A   1      32.622  17.441  23.820  1.00  0.00     0.000 A 
ATOM     24  C   UNL A   1      32.789  18.906  25.724  1.00  0.00     0.006 A 
ATOM     25  C   UNL A   1      32.821  17.620  25.182  1.00  0.00     0.000 A 
ENDBRANCH  18  19
ENDBRANCH   9  18
ENDBRANCH   7   8
ENDBRANCH   4   7
ENDBRANCH   2   3
ENDBRANCH   1   2
BRANCH   1  26
ATOM     26  C   UNL A   1      32.415  30.771  26.902  1.00  0.00     0.023 C 
BRANCH  26  27
ATOM     27  C   UNL A   1      33.768  30.363  27.442  1.00  0.00     0.116 C 
BRANCH  27  28
ATOM     28  N   UNL A   1      34.438  31.372  28.261  1.00  0.00    -0.352 N 
ATOM     29  C   UNL A   1      35.573  31.258  29.056  1.00  0.00     0.251 C 
ATOM     30  H   UNL A   1      34.024  32.264  28.247  1.00  0.00     0.163 HD
ATOM     31  O   UNL A   1      35.942  32.196  29.744  1.00  0.00    -0.269 OA
BRANCH  29  32
ATOM     32  C   UNL A   1      36.418  30.041  28.945  1.00  0.00     0.039 A 
ATOM     33  C   UNL A   1      36.644  29.274  30.095  1.00  0.00     0.014 A 
ATOM     34  C   UNL A   1      37.200  29.843  27.818  1.00  0.00     0.014 A 
ATOM     35  C   UNL A   1      37.824  28.539  30.201  1.00  0.00     0.010 A 
ATOM     36  C   UNL A   1      38.448  29.300  27.996  1.00  0.00     0.010 A 
ATOM     37  C   UNL A   1      38.782  28.678  29.203  1.00  0.00    -0.014 A 
BRANCH  37  38
ATOM     38  C   UNL A   1      40.174  28.258  29.310  1.00  0.00     0.031 A 
ATOM     39  C   UNL A   1      40.555  26.914  28.818  1.00  0.00     0.074 A 
ATOM     40  C   UNL A   1      41.120  29.156  29.665  1.00  0.00     0.049 A 
ATOM     41  N   UNL A   1      41.693  26.349  29.029  1.00  0.00    -0.248 NA
ATOM     42  C   UNL A   1      39.643  26.069  28.054  1.00  0.00     0.031 C 
ATOM     43  C   UNL A   1      42.563  29.053  29.455  1.00  0.00     0.029 A 
ATOM     44  N   UNL A   1      40.970  30.295  30.477  1.00  0.00    -0.354 N 
ATOM     45  C   UNL A   1      41.768  25.221  28.239  1.00  0.00     0.074 A 
ATOM     46  C   UNL A   1      40.449  25.076  27.677  1.00  0.00     0.031 C 
ATOM     47  C   UNL A   1      43.189  29.860  30.325  1.00  0.00     0.029 A 
ATOM     48  C   UNL A   1      42.174  30.383  31.220  1.00  0.00     0.049 A 
ATOM     49  H   UNL A   1      40.196  30.901  30.520  1.00  0.00     0.167 HD
ATOM     50  C   UNL A   1      42.981  24.617  28.082  1.00  0.00     0.037 A 
ATOM     51  C   UNL A   1      42.185  30.223  32.576  1.00  0.00     0.037 A 
ATOM     52  C   UNL A   1      43.966  25.210  28.987  1.00  0.00     0.049 A 
ATOM     53  C   UNL A   1      43.044  29.074  33.047  1.00  0.00     0.074 A 
ATOM     54  C   UNL A   1      44.961  26.160  28.813  1.00  0.00     0.029 A 
ATOM     55  N   UNL A   1      43.786  25.076  30.361  1.00  0.00    -0.354 N 
ATOM     56  N   UNL A   1      43.392  28.066  32.295  1.00  0.00    -0.248 NA
ATOM     57  C   UNL A   1      43.560  28.959  34.408  1.00  0.00     0.031 C 
ATOM     58  C   UNL A   1      45.343  26.634  30.094  1.00  0.00     0.029 A 
ATOM     59  C   UNL A   1      44.598  25.959  31.046  1.00  0.00     0.049 A 
ATOM     60  H   UNL A   1      43.166  24.441  30.786  1.00  0.00     0.167 HD
ATOM     61  C   UNL A   1      44.132  27.178  33.033  1.00  0.00     0.074 A 
ATOM     62  C   UNL A   1      44.225  27.793  34.344  1.00  0.00     0.031 C 
ATOM     63  C   UNL A   1      44.593  26.007  32.501  1.00  0.00     0.037 A 
BRANCH  50  64
ATOM     64  C   UNL A   1      43.346  23.673  26.950  1.00  0.00     0.064 A 
ATOM     65  C   UNL A   1      42.963  22.313  27.001  1.00  0.00     0.173 A 
ATOM     66  C   UNL A   1      44.125  24.008  25.826  1.00  0.00     0.173 A 
ATOM     67  F   UNL A   1      42.137  21.852  27.950  1.00  0.00    -0.203 F 
ATOM     68  C   UNL A   1      43.413  21.364  26.077  1.00  0.00     0.198 A 
ATOM     69  C   UNL A   1      44.618  23.054  24.931  1.00  0.00     0.198 A 
ATOM     70  F   UNL A   1      44.385  25.277  25.503  1.00  0.00    -0.203 F 
ATOM     71  F   UNL A   1      43.018  20.088  26.189  1.00  0.00    -0.200 F 
ATOM     72  C   UNL A   1      44.270  21.727  25.062  1.00  0.00     0.200 A 
ATOM     73  F   UNL A   1      45.428  23.438  23.933  1.00  0.00    -0.200 F 
ATOM     74  F   UNL A   1      44.735  20.814  24.198  1.00  0.00    -0.200 F 
ENDBRANCH  50  64
BRANCH  51  75
ATOM     75  C   UNL A   1      40.920  30.670  33.219  1.00  0.00     0.064 A 
ATOM     76  C   UNL A   1      40.707  32.055  33.366  1.00  0.00     0.173 A 
ATOM     77  C   UNL A   1      39.803  29.831  33.291  1.00  0.00     0.173 A 
ATOM     78  F   UNL A   1      41.749  32.900  33.309  1.00  0.00    -0.203 F 
ATOM     79  C   UNL A   1      39.422  32.587  33.438  1.00  0.00     0.198 A 
ATOM     80  C   UNL A   1      38.515  30.368  33.383  1.00  0.00     0.198 A 
ATOM     81  F   UNL A   1      39.937  28.506  33.141  1.00  0.00    -0.203 F 
ATOM     82  F   UNL A   1      39.248  33.915  33.448  1.00  0.00    -0.200 F 
ATOM     83  C   UNL A   1      38.325  31.742  33.413  1.00  0.00     0.200 A 
ATOM     84  F   UNL A   1      37.450  29.555  33.329  1.00  0.00    -0.200 F 
ATOM     85  F   UNL A   1      37.085  32.252  33.369  1.00  0.00    -0.200 F 
ENDBRANCH  51  75
BRANCH  63  86
ATOM     86  C   UNL A   1      45.166  24.835  33.269  1.00  0.00     0.064 A 
ATOM     87  C   UNL A   1      44.454  23.658  33.561  1.00  0.00     0.173 A 
ATOM     88  C   UNL A   1      46.542  24.806  33.612  1.00  0.00     0.173 A 
ATOM     89  F   UNL A   1      43.182  23.496  33.176  1.00  0.00    -0.203 F 
ATOM     90  C   UNL A   1      45.051  22.570  34.207  1.00  0.00     0.198 A 
ATOM     91  C   UNL A   1      47.148  23.694  34.198  1.00  0.00     0.198 A 
ATOM     92  F   UNL A   1      47.352  25.844  33.362  1.00  0.00    -0.203 F 
ATOM     93  F   UNL A   1      44.312  21.491  34.503  1.00  0.00    -0.200 F 
ATOM     94  C   UNL A   1      46.398  22.583  34.513  1.00  0.00     0.200 A 
ATOM     95  F   UNL A   1      48.467  23.702  34.432  1.00  0.00    -0.200 F 
ATOM     96  F   UNL A   1      46.974  21.518  35.086  1.00  0.00    -0.200 F 
ENDBRANCH  63  86
ENDBRANCH  37  38
ENDBRANCH  29  32
ENDBRANCH  27  28
ENDBRANCH  26  27
ENDBRANCH   1  26
TORSDOF 14
ENDMDL
MODEL 3
REMARK VINA RESULT:     -13.9      3.489      9.820
REMARK SMILES Cc1ccccc1CNC(=O)N1CCC(CC(=O)NCCCCNC(=O)c2ccc(-c3c4nc(c(-c5c(F)c(F)c(F)c(F)c5F)c5ccc([nH]5)c(-c5c(F)c(F)c(F)c(F)c5F)c5nc(c(-c6c(F)c(F)c(F)c(F)c6F)c6ccc3[nH]6)C=C5)C=C4)cc2)CC1
REMARK SMILES IDX 21 1 20 2 19 3 17 4 18 5 16 7 15 8 9 9 10 10 11 12 12 13
REMARK SMILES IDX 13 14 91 15 14 16 90 17 8 18 7 19 1 20 2 21 3 22 4 23 6 24
REMARK SMILES IDX 5 25 22 26 23 27 24 28 25 29 26 31 27 32 28 33 89 34 29 35
REMARK SMILES IDX 88 36 30 37 31 38 32 39 82 40 33 41 87 42 81 43 83 44 34 45
REMARK SMILES IDX 86 46 80 47 79 48 35 50 67 51 47 52 66 53 48 54 51 55 65 56
REMARK SMILES IDX 84 57 49 58 50 59 64 61 85 62 52 63 36 64 37 65 45 66 38 67
REMARK SMILES IDX 39 68 43 69 46 70 40 71 41 72 44 73 42 74 68 75 69 76 77 77
REMARK SMILES IDX 70 78 71 79 75 80 78 81 72 82 73 83 76 84 74 85 53 86 54 87
REMARK SMILES IDX 62 88 55 89 56 90 60 91 63 92 57 93 58 94 61 95 59 96
REMARK H PARENT 19 6 9 11 24 30 83 49 51 60
REMARK Flexibility Score: inf
ROOT
ATOM      1  C   UNL A   1      31.418  30.439  25.785  1.00  0.00     0.023 C 
ENDROOT
BRANCH   1   2
ATOM      2  C   UNL A   1      32.216  29.722  24.673  1.00  0.00     0.116 C 
BRANCH   2   3
ATOM      3  N   UNL A   1      31.481  29.504  23.429  1.00  0.00    -0.356 N 
ATOM      4  C   UNL A   1      30.486  28.626  23.100  1.00  0.00     0.220 C 
ATOM      5  O   UNL A   1      29.983  28.721  21.978  1.00  0.00    -0.275 OA
ATOM      6  H   UNL A   1      31.752  30.100  22.693  1.00  0.00     0.163 HD
BRANCH   4   7
ATOM      7  C   UNL A   1      30.035  27.527  24.055  1.00  0.00     0.103 C 
BRANCH   7   8
ATOM      8  C   UNL A   1      31.165  26.534  24.413  1.00  0.00     0.002 C 
ATOM      9  N   UNL A   1      31.366  21.741  26.135  1.00  0.00    -0.334 N 
ATOM     10  C   UNL A   1      30.991  23.032  26.315  1.00  0.00     0.317 C 
ATOM     11  H   UNL A   1      30.692  21.052  26.339  1.00  0.00     0.165 HD
ATOM     12  O   UNL A   1      30.069  23.296  27.085  1.00  0.00    -0.249 OA
ATOM     13  N   UNL A   1      31.760  23.988  25.704  1.00  0.00    -0.325 N 
ATOM     14  C   UNL A   1      32.054  25.201  26.422  1.00  0.00     0.121 C 
ATOM     15  C   UNL A   1      31.890  24.080  24.254  1.00  0.00     0.121 C 
ATOM     16  C   UNL A   1      31.179  26.321  25.920  1.00  0.00     0.026 C 
ATOM     17  C   UNL A   1      30.985  25.186  23.686  1.00  0.00     0.026 C 
BRANCH   9  18
ATOM     18  C   UNL A   1      32.656  21.272  25.671  1.00  0.00     0.153 C 
BRANCH  18  19
ATOM     19  C   UNL A   1      32.583  19.939  24.952  1.00  0.00    -0.026 A 
ATOM     20  C   UNL A   1      32.174  21.024  22.650  1.00  0.00     0.044 C 
ATOM     21  C   UNL A   1      32.398  19.844  23.556  1.00  0.00    -0.046 A 
ATOM     22  C   UNL A   1      32.420  18.576  22.944  1.00  0.00     0.004 A 
ATOM     23  C   UNL A   1      32.642  17.416  23.684  1.00  0.00     0.000 A 
ATOM     24  C   UNL A   1      32.822  18.752  25.679  1.00  0.00     0.006 A 
ATOM     25  C   UNL A   1      32.847  17.504  25.054  1.00  0.00     0.000 A 
ENDBRANCH  18  19
ENDBRANCH   9  18
ENDBRANCH   7   8
ENDBRANCH   4   7
ENDBRANCH   2   3
ENDBRANCH   1   2
BRANCH   1  26
ATOM     26  C   UNL A   1      32.109  30.549  27.140  1.00  0.00     0.023 C 
BRANCH  26  27
ATOM     27  C   UNL A   1      33.604  30.721  26.977  1.00  0.00     0.116 C 
BRANCH  27  28
ATOM     28  N   UNL A   1      34.213  31.713  27.861  1.00  0.00    -0.352 N 
ATOM     29  C   UNL A   1      35.285  31.582  28.737  1.00  0.00     0.251 C 
ATOM     30  H   UNL A   1      33.803  32.607  27.832  1.00  0.00     0.163 HD
ATOM     31  O   UNL A   1      35.604  32.507  29.466  1.00  0.00    -0.269 OA
BRANCH  29  32
ATOM     32  C   UNL A   1      36.133  30.363  28.668  1.00  0.00     0.039 A 
ATOM     33  C   UNL A   1      36.414  29.674  29.854  1.00  0.00     0.014 A 
ATOM     34  C   UNL A   1      36.866  30.096  27.523  1.00  0.00     0.014 A 
ATOM     35  C   UNL A   1      37.602  28.953  29.956  1.00  0.00     0.010 A 
ATOM     36  C   UNL A   1      38.125  29.571  27.681  1.00  0.00     0.010 A 
ATOM     37  C   UNL A   1      38.516  29.031  28.910  1.00  0.00    -0.014 A 
BRANCH  37  38
ATOM     38  C   UNL A   1      39.914  28.623  28.983  1.00  0.00     0.031 A 
ATOM     39  C   UNL A   1      40.271  27.227  28.641  1.00  0.00     0.074 A 
ATOM     40  C   UNL A   1      40.874  29.557  29.164  1.00  0.00     0.049 A 
ATOM     41  N   UNL A   1      41.423  26.691  28.851  1.00  0.00    -0.248 NA
ATOM     42  C   UNL A   1      39.318  26.295  28.047  1.00  0.00     0.031 C 
ATOM     43  C   UNL A   1      42.303  29.426  28.879  1.00  0.00     0.029 A 
ATOM     44  N   UNL A   1      40.769  30.789  29.833  1.00  0.00    -0.354 N 
ATOM     45  C   UNL A   1      41.456  25.474  28.205  1.00  0.00     0.074 A 
ATOM     46  C   UNL A   1      40.106  25.261  27.748  1.00  0.00     0.031 C 
ATOM     47  C   UNL A   1      42.977  30.334  29.601  1.00  0.00     0.029 A 
ATOM     48  C   UNL A   1      42.015  30.968  30.484  1.00  0.00     0.049 A 
ATOM     49  H   UNL A   1      39.995  31.398  29.848  1.00  0.00     0.167 HD
ATOM     50  C   UNL A   1      42.660  24.851  28.051  1.00  0.00     0.037 A 
ATOM     51  C   UNL A   1      42.111  30.979  31.846  1.00  0.00     0.037 A 
ATOM     52  C   UNL A   1      43.696  25.552  28.811  1.00  0.00     0.049 A 
ATOM     53  C   UNL A   1      43.003  29.896  32.404  1.00  0.00     0.074 A 
ATOM     54  C   UNL A   1      44.672  26.469  28.458  1.00  0.00     0.029 A 
ATOM     55  N   UNL A   1      43.602  25.591  30.200  1.00  0.00    -0.354 N 
ATOM     56  N   UNL A   1      43.310  28.801  31.764  1.00  0.00    -0.248 NA
ATOM     57  C   UNL A   1      43.602  29.952  33.734  1.00  0.00     0.031 C 
ATOM     58  C   UNL A   1      45.130  27.100  29.644  1.00  0.00     0.029 A 
ATOM     59  C   UNL A   1      44.448  26.551  30.717  1.00  0.00     0.049 A 
ATOM     60  H   UNL A   1      43.012  25.015  30.738  1.00  0.00     0.167 HD
ATOM     61  C   UNL A   1      44.099  28.011  32.561  1.00  0.00     0.074 A 
ATOM     62  C   UNL A   1      44.268  28.785  33.776  1.00  0.00     0.031 C 
ATOM     63  C   UNL A   1      44.533  26.781  32.152  1.00  0.00     0.037 A 
BRANCH  50  64
ATOM     64  C   UNL A   1      42.960  23.772  27.025  1.00  0.00     0.064 A 
ATOM     65  C   UNL A   1      42.636  22.422  27.292  1.00  0.00     0.173 A 
ATOM     66  C   UNL A   1      43.623  23.972  25.800  1.00  0.00     0.173 A 
ATOM     67  F   UNL A   1      41.916  22.073  28.367  1.00  0.00    -0.203 F 
ATOM     68  C   UNL A   1      43.040  21.368  26.466  1.00  0.00     0.198 A 
ATOM     69  C   UNL A   1      44.072  22.917  24.997  1.00  0.00     0.198 A 
ATOM     70  F   UNL A   1      43.804  25.191  25.287  1.00  0.00    -0.203 F 
ATOM     71  F   UNL A   1      42.706  20.109  26.783  1.00  0.00    -0.200 F 
ATOM     72  C   UNL A   1      43.789  21.612  25.336  1.00  0.00     0.200 A 
ATOM     73  F   UNL A   1      44.775  23.183  23.886  1.00  0.00    -0.200 F 
ATOM     74  F   UNL A   1      44.210  20.603  24.562  1.00  0.00    -0.200 F 
ENDBRANCH  50  64
BRANCH  51  75
ATOM     75  C   UNL A   1      40.885  31.506  32.505  1.00  0.00     0.064 A 
ATOM     76  C   UNL A   1      39.926  30.577  32.955  1.00  0.00     0.173 A 
ATOM     77  C   UNL A   1      40.848  32.792  33.052  1.00  0.00     0.173 A 
ATOM     78  F   UNL A   1      39.919  29.330  32.457  1.00  0.00    -0.203 F 
ATOM     79  C   UNL A   1      39.063  30.879  34.006  1.00  0.00     0.198 A 
ATOM     80  C   UNL A   1      39.966  33.098  34.093  1.00  0.00     0.198 A 
ATOM     81  F   UNL A   1      41.744  33.716  32.679  1.00  0.00    -0.203 F 
ATOM     82  F   UNL A   1      38.251  29.932  34.496  1.00  0.00    -0.200 F 
ATOM     83  C   UNL A   1      39.107  32.130  34.596  1.00  0.00     0.200 A 
ATOM     84  F   UNL A   1      40.027  34.299  34.687  1.00  0.00    -0.200 F 
ATOM     85  F   UNL A   1      38.359  32.390  35.678  1.00  0.00    -0.200 F 
ENDBRANCH  51  75
BRANCH  63  86
ATOM     86  C   UNL A   1      45.158  25.714  33.025  1.00  0.00     0.064 A 
ATOM     87  C   UNL A   1      46.539  25.463  33.099  1.00  0.00     0.173 A 
ATOM     88  C   UNL A   1      44.365  24.992  33.953  1.00  0.00     0.173 A 
ATOM     89  F   UNL A   1      47.418  26.165  32.374  1.00  0.00    -0.203 F 
ATOM     90  C   UNL A   1      47.076  24.516  33.978  1.00  0.00     0.198 A 
ATOM     91  C   UNL A   1      44.912  24.096  34.873  1.00  0.00     0.198 A 
ATOM     92  F   UNL A   1      43.037  25.154  34.021  1.00  0.00    -0.203 F 
ATOM     93  F   UNL A   1      48.396  24.284  33.973  1.00  0.00    -0.200 F 
ATOM     94  C   UNL A   1      46.266  23.844  34.872  1.00  0.00     0.200 A 
ATOM     95  F   UNL A   1      44.118  23.499  35.772  1.00  0.00    -0.200 F 
ATOM     96  F   UNL A   1      46.793  22.976  35.746  1.00  0.00    -0.200 F 
ENDBRANCH  63  86
ENDBRANCH  37  38
ENDBRANCH  29  32
ENDBRANCH  27  28
ENDBRANCH  26  27
ENDBRANCH   1  26
TORSDOF 14
ENDMDL
