MODEL 1
REMARK VINA RESULT:     -11.6      0.000      0.000
REMARK SMILES CC(=O)[C@@H]1CCCC[N@H+]1CC(C)(C)C(=O)NCCCCNC(=O)c1ccc(-c2c3nc(c(-c4c(F)c(F)c(F)c(F)c4F)c4ccc([nH]4)c(-c4c(F)c(F)c(F)c(F)c4F)c4nc(c(-c5c(F)c(F)c(F)c(F)c5F)c5ccc2[nH]5)C=C4)C=C3)cc1
REMARK SMILES IDX 18 1 17 2 16 3 14 4 15 5 11 7 12 8 13 9 10 10 9 11 4 12 5 13
REMARK SMILES IDX 6 14 8 15 7 17 2 18 1 19 3 20 19 21 20 22 21 23 22 24 23 26
REMARK SMILES IDX 24 27 25 28 86 29 26 30 85 31 27 32 28 33 29 34 79 35 30 36
REMARK SMILES IDX 84 37 78 38 80 39 31 40 83 41 77 42 76 43 32 45 64 46 44 47
REMARK SMILES IDX 63 48 45 49 48 50 62 51 81 52 46 53 47 54 61 56 82 57 49 58
REMARK SMILES IDX 33 59 34 60 42 61 35 62 36 63 40 64 43 65 37 66 38 67 41 68
REMARK SMILES IDX 39 69 65 70 66 71 74 72 67 73 68 74 72 75 75 76 69 77 70 78
REMARK SMILES IDX 73 79 71 80 50 81 51 82 59 83 52 84 53 85 57 86 60 87 54 88
REMARK SMILES IDX 55 89 58 90 56 91
REMARK H PARENT 16 6 9 16 21 25 80 44 48 55
REMARK Flexibility Score: inf
ROOT
ATOM      1  C   UNL A   1      31.523  31.211  25.850  1.00  0.00     0.023 C 
ENDROOT
BRANCH   1   2
ATOM      2  C   UNL A   1      32.632  30.186  26.073  1.00  0.00     0.116 C 
BRANCH   2   3
ATOM      3  N   UNL A   1      32.252  29.215  27.080  1.00  0.00    -0.355 N 
ATOM      4  C   UNL A   1      31.695  27.979  26.989  1.00  0.00     0.231 C 
ATOM      5  O   UNL A   1      31.167  27.577  28.031  1.00  0.00    -0.274 OA
ATOM      6  H   UNL A   1      32.431  29.506  28.004  1.00  0.00     0.163 HD
BRANCH   4   7
ATOM      7  C   UNL A   1      31.630  27.174  25.676  1.00  0.00     0.092 C 
ATOM      8  C   UNL A   1      30.984  27.934  24.512  1.00  0.00     0.027 C 
ATOM      9  C   UNL A   1      30.780  25.920  25.996  1.00  0.00     0.027 C 
BRANCH   7  10
ATOM     10  C   UNL A   1      33.066  26.652  25.254  1.00  0.00     0.279 C 
BRANCH  10  11
ATOM     11  N   UNL A   1      33.389  25.262  24.833  1.00  0.00    -0.325 N 
ATOM     12  C   UNL A   1      34.061  25.079  23.529  1.00  0.00     0.251 C 
ATOM     13  C   UNL A   1      34.285  23.593  23.182  1.00  0.00     0.074 C 
ATOM     14  C   UNL A   1      34.985  22.843  24.303  1.00  0.00     0.012 C 
ATOM     15  C   UNL A   1      34.035  24.502  25.912  1.00  0.00     0.262 C 
ATOM     16  H   UNL A   1      32.469  24.864  24.650  1.00  0.00     0.348 HD
ATOM     17  C   UNL A   1      34.197  23.019  25.589  1.00  0.00     0.062 C 
BRANCH  12  18
ATOM     18  C   UNL A   1      33.256  25.706  22.379  1.00  0.00     0.186 C 
ATOM     19  C   UNL A   1      31.833  25.256  22.158  1.00  0.00     0.094 C 
ATOM     20  O   UNL A   1      33.776  26.509  21.596  1.00  0.00    -0.293 OA
ENDBRANCH  12  18
ENDBRANCH  10  11
ENDBRANCH   7  10
ENDBRANCH   4   7
ENDBRANCH   2   3
ENDBRANCH   1   2
BRANCH   1  21
ATOM     21  C   UNL A   1      31.382  32.257  26.953  1.00  0.00     0.023 C 
BRANCH  21  22
ATOM     22  C   UNL A   1      32.667  32.993  27.311  1.00  0.00     0.116 C 
BRANCH  22  23
ATOM     23  N   UNL A   1      32.443  34.386  27.672  1.00  0.00    -0.352 N 
ATOM     24  C   UNL A   1      33.049  35.123  28.662  1.00  0.00     0.251 C 
ATOM     25  H   UNL A   1      31.769  34.863  27.135  1.00  0.00     0.163 HD
ATOM     26  O   UNL A   1      32.673  36.256  28.927  1.00  0.00    -0.269 OA
BRANCH  24  27
ATOM     27  C   UNL A   1      34.146  34.503  29.428  1.00  0.00     0.039 A 
ATOM     28  C   UNL A   1      33.839  33.742  30.559  1.00  0.00     0.014 A 
ATOM     29  C   UNL A   1      35.463  34.619  28.978  1.00  0.00     0.014 A 
ATOM     30  C   UNL A   1      34.853  33.028  31.199  1.00  0.00     0.010 A 
ATOM     31  C   UNL A   1      36.456  33.853  29.574  1.00  0.00     0.010 A 
ATOM     32  C   UNL A   1      36.159  33.048  30.687  1.00  0.00    -0.014 A 
BRANCH  32  33
ATOM     33  C   UNL A   1      37.253  32.253  31.296  1.00  0.00     0.031 A 
ATOM     34  C   UNL A   1      37.750  32.617  32.664  1.00  0.00     0.074 A 
ATOM     35  C   UNL A   1      37.861  31.285  30.584  1.00  0.00     0.049 A 
ATOM     36  N   UNL A   1      38.804  32.185  33.308  1.00  0.00    -0.248 NA
ATOM     37  C   UNL A   1      36.975  33.636  33.392  1.00  0.00     0.031 C 
ATOM     38  C   UNL A   1      37.489  30.862  29.233  1.00  0.00     0.029 A 
ATOM     39  N   UNL A   1      38.940  30.494  30.894  1.00  0.00    -0.354 N 
ATOM     40  C   UNL A   1      38.837  32.902  34.496  1.00  0.00     0.074 A 
ATOM     41  C   UNL A   1      37.722  33.824  34.469  1.00  0.00     0.031 C 
ATOM     42  C   UNL A   1      38.319  29.884  28.834  1.00  0.00     0.029 A 
ATOM     43  C   UNL A   1      39.306  29.641  29.882  1.00  0.00     0.049 A 
ATOM     44  H   UNL A   1      39.407  30.536  31.760  1.00  0.00     0.167 HD
ATOM     45  C   UNL A   1      39.709  32.786  35.525  1.00  0.00     0.037 A 
ATOM     46  C   UNL A   1      40.333  28.773  29.807  1.00  0.00     0.037 A 
ATOM     47  C   UNL A   1      40.789  31.838  35.563  1.00  0.00     0.049 A 
ATOM     48  C   UNL A   1      41.279  28.652  30.971  1.00  0.00     0.074 A 
ATOM     49  C   UNL A   1      41.701  31.608  36.578  1.00  0.00     0.029 A 
ATOM     50  N   UNL A   1      41.094  30.952  34.540  1.00  0.00    -0.354 N 
ATOM     51  N   UNL A   1      41.281  29.309  32.106  1.00  0.00    -0.248 NA
ATOM     52  C   UNL A   1      42.364  27.668  30.846  1.00  0.00     0.031 C 
ATOM     53  C   UNL A   1      42.575  30.600  36.157  1.00  0.00     0.029 A 
ATOM     54  C   UNL A   1      42.183  30.175  34.898  1.00  0.00     0.049 A 
ATOM     55  H   UNL A   1      40.608  30.886  33.686  1.00  0.00     0.167 HD
ATOM     56  C   UNL A   1      42.338  28.793  32.843  1.00  0.00     0.074 A 
ATOM     57  C   UNL A   1      42.955  27.768  32.028  1.00  0.00     0.031 C 
ATOM     58  C   UNL A   1      42.760  29.138  34.083  1.00  0.00     0.037 A 
BRANCH  45  59
ATOM     59  C   UNL A   1      39.525  33.708  36.693  1.00  0.00     0.064 A 
ATOM     60  C   UNL A   1      38.763  33.334  37.810  1.00  0.00     0.173 A 
ATOM     61  C   UNL A   1      40.136  34.970  36.707  1.00  0.00     0.173 A 
ATOM     62  F   UNL A   1      38.145  32.144  37.838  1.00  0.00    -0.203 F 
ATOM     63  C   UNL A   1      38.595  34.202  38.885  1.00  0.00     0.198 A 
ATOM     64  C   UNL A   1      39.990  35.824  37.797  1.00  0.00     0.198 A 
ATOM     65  F   UNL A   1      40.878  35.375  35.666  1.00  0.00    -0.203 F 
ATOM     66  F   UNL A   1      37.819  33.843  39.918  1.00  0.00    -0.200 F 
ATOM     67  C   UNL A   1      39.214  35.442  38.882  1.00  0.00     0.200 A 
ATOM     68  F   UNL A   1      40.597  37.019  37.797  1.00  0.00    -0.200 F 
ATOM     69  F   UNL A   1      39.054  36.275  39.920  1.00  0.00    -0.200 F 
ENDBRANCH  45  59
BRANCH  46  70
ATOM     70  C   UNL A   1      40.509  27.931  28.595  1.00  0.00     0.064 A 
ATOM     71  C   UNL A   1      41.285  28.382  27.518  1.00  0.00     0.173 A 
ATOM     72  C   UNL A   1      39.905  26.671  28.483  1.00  0.00     0.173 A 
ATOM     73  F   UNL A   1      41.865  29.590  27.571  1.00  0.00    -0.203 F 
ATOM     74  C   UNL A   1      41.433  27.613  26.365  1.00  0.00     0.198 A 
ATOM     75  C   UNL A   1      40.075  25.892  27.340  1.00  0.00     0.198 A 
ATOM     76  F   UNL A   1      39.157  26.192  29.487  1.00  0.00    -0.203 F 
ATOM     77  F   UNL A   1      42.144  28.087  25.334  1.00  0.00    -0.200 F 
ATOM     78  C   UNL A   1      40.832  26.367  26.279  1.00  0.00     0.200 A 
ATOM     79  F   UNL A   1      39.501  24.683  27.264  1.00  0.00    -0.200 F 
ATOM     80  F   UNL A   1      40.975  25.627  25.171  1.00  0.00    -0.200 F 
ENDBRANCH  46  70
BRANCH  58  81
ATOM     81  C   UNL A   1      43.903  28.362  34.665  1.00  0.00     0.064 A 
ATOM     82  C   UNL A   1      43.699  27.172  35.377  1.00  0.00     0.173 A 
ATOM     83  C   UNL A   1      45.223  28.787  34.452  1.00  0.00     0.173 A 
ATOM     84  F   UNL A   1      42.453  26.735  35.617  1.00  0.00    -0.203 F 
ATOM     85  C   UNL A   1      44.777  26.441  35.867  1.00  0.00     0.198 A 
ATOM     86  C   UNL A   1      46.299  28.041  34.922  1.00  0.00     0.198 A 
ATOM     87  F   UNL A   1      45.468  29.917  33.772  1.00  0.00    -0.203 F 
ATOM     88  F   UNL A   1      44.560  25.322  36.573  1.00  0.00    -0.200 F 
ATOM     89  C   UNL A   1      46.075  26.870  35.632  1.00  0.00     0.200 A 
ATOM     90  F   UNL A   1      47.552  28.451  34.684  1.00  0.00    -0.200 F 
ATOM     91  F   UNL A   1      47.111  26.158  36.094  1.00  0.00    -0.200 F 
ENDBRANCH  58  81
ENDBRANCH  32  33
ENDBRANCH  24  27
ENDBRANCH  22  23
ENDBRANCH  21  22
ENDBRANCH   1  21
TORSDOF 14
ENDMDL
MODEL 2
REMARK VINA RESULT:     -11.6      1.991      7.960
REMARK SMILES CC(=O)[C@@H]1CCCC[N@H+]1CC(C)(C)C(=O)NCCCCNC(=O)c1ccc(-c2c3nc(c(-c4c(F)c(F)c(F)c(F)c4F)c4ccc([nH]4)c(-c4c(F)c(F)c(F)c(F)c4F)c4nc(c(-c5c(F)c(F)c(F)c(F)c5F)c5ccc2[nH]5)C=C4)C=C3)cc1
REMARK SMILES IDX 18 1 17 2 16 3 14 4 15 5 11 7 12 8 13 9 10 10 9 11 4 12 5 13
REMARK SMILES IDX 6 14 8 15 7 17 2 18 1 19 3 20 19 21 20 22 21 23 22 24 23 26
REMARK SMILES IDX 24 27 25 28 86 29 26 30 85 31 27 32 28 33 29 34 79 35 30 36
REMARK SMILES IDX 84 37 78 38 80 39 31 40 83 41 77 42 76 43 32 45 64 46 44 47
REMARK SMILES IDX 63 48 45 49 48 50 62 51 81 52 46 53 47 54 61 56 82 57 49 58
REMARK SMILES IDX 33 59 34 60 42 61 35 62 36 63 40 64 43 65 37 66 38 67 41 68
REMARK SMILES IDX 39 69 65 70 66 71 74 72 67 73 68 74 72 75 75 76 69 77 70 78
REMARK SMILES IDX 73 79 71 80 50 81 51 82 59 83 52 84 53 85 57 86 60 87 54 88
REMARK SMILES IDX 55 89 58 90 56 91
REMARK H PARENT 16 6 9 16 21 25 80 44 48 55
REMARK Flexibility Score: inf
ROOT
ATOM      1  C   UNL A   1      31.393  27.700  25.991  1.00  0.00     0.023 C 
ENDROOT
BRANCH   1   2
ATOM      2  C   UNL A   1      30.662  26.498  25.399  1.00  0.00     0.116 C 
BRANCH   2   3
ATOM      3  N   UNL A   1      30.433  25.479  26.404  1.00  0.00    -0.355 N 
ATOM      4  C   UNL A   1      30.620  24.133  26.396  1.00  0.00     0.231 C 
ATOM      5  O   UNL A   1      29.991  23.523  27.266  1.00  0.00    -0.274 OA
ATOM      6  H   UNL A   1      30.076  25.827  27.253  1.00  0.00     0.163 HD
BRANCH   4   7
ATOM      7  C   UNL A   1      31.464  23.401  25.333  1.00  0.00     0.092 C 
ATOM      8  C   UNL A   1      30.951  23.581  23.899  1.00  0.00     0.027 C 
ATOM      9  C   UNL A   1      31.403  21.901  25.709  1.00  0.00     0.027 C 
BRANCH   7  10
ATOM     10  C   UNL A   1      32.988  23.829  25.421  1.00  0.00     0.279 C 
BRANCH  10  11
ATOM     11  N   UNL A   1      34.126  23.100  24.797  1.00  0.00    -0.325 N 
ATOM     12  C   UNL A   1      34.940  23.824  23.799  1.00  0.00     0.251 C 
ATOM     13  C   UNL A   1      36.045  22.942  23.184  1.00  0.00     0.074 C 
ATOM     14  C   UNL A   1      36.899  22.270  24.246  1.00  0.00     0.012 C 
ATOM     15  C   UNL A   1      34.947  22.409  25.801  1.00  0.00     0.262 C 
ATOM     16  H   UNL A   1      33.656  22.405  24.218  1.00  0.00     0.348 HD
ATOM     17  C   UNL A   1      35.999  21.488  25.188  1.00  0.00     0.062 C 
BRANCH  12  18
ATOM     18  C   UNL A   1      34.081  24.361  22.642  1.00  0.00     0.186 C 
ATOM     19  C   UNL A   1      33.657  25.809  22.663  1.00  0.00     0.094 C 
ATOM     20  O   UNL A   1      33.676  23.615  21.745  1.00  0.00    -0.293 OA
ENDBRANCH  12  18
ENDBRANCH  10  11
ENDBRANCH   7  10
ENDBRANCH   4   7
ENDBRANCH   2   3
ENDBRANCH   1   2
BRANCH   1  21
ATOM     21  C   UNL A   1      32.917  27.622  25.927  1.00  0.00     0.023 C 
BRANCH  21  22
ATOM     22  C   UNL A   1      33.606  28.885  25.426  1.00  0.00     0.116 C 
BRANCH  22  23
ATOM     23  N   UNL A   1      32.986  30.106  25.923  1.00  0.00    -0.352 N 
ATOM     24  C   UNL A   1      33.427  30.949  26.916  1.00  0.00     0.251 C 
ATOM     25  H   UNL A   1      32.139  30.361  25.490  1.00  0.00     0.163 HD
ATOM     26  O   UNL A   1      32.738  31.880  27.307  1.00  0.00    -0.269 OA
BRANCH  24  27
ATOM     27  C   UNL A   1      34.743  30.687  27.527  1.00  0.00     0.039 A 
ATOM     28  C   UNL A   1      35.652  31.739  27.661  1.00  0.00     0.014 A 
ATOM     29  C   UNL A   1      35.039  29.417  28.028  1.00  0.00     0.014 A 
ATOM     30  C   UNL A   1      36.835  31.536  28.374  1.00  0.00     0.010 A 
ATOM     31  C   UNL A   1      36.182  29.237  28.795  1.00  0.00     0.010 A 
ATOM     32  C   UNL A   1      37.088  30.295  28.978  1.00  0.00    -0.014 A 
BRANCH  32  33
ATOM     33  C   UNL A   1      38.299  30.055  29.798  1.00  0.00     0.031 A 
ATOM     34  C   UNL A   1      39.364  29.133  29.281  1.00  0.00     0.074 A 
ATOM     35  C   UNL A   1      38.390  30.577  31.036  1.00  0.00     0.049 A 
ATOM     36  N   UNL A   1      40.407  28.640  29.898  1.00  0.00    -0.248 NA
ATOM     37  C   UNL A   1      39.213  28.673  27.891  1.00  0.00     0.031 C 
ATOM     38  C   UNL A   1      37.405  31.461  31.661  1.00  0.00     0.029 A 
ATOM     39  N   UNL A   1      39.353  30.418  32.002  1.00  0.00    -0.354 N 
ATOM     40  C   UNL A   1      41.014  27.788  28.984  1.00  0.00     0.074 A 
ATOM     41  C   UNL A   1      40.203  27.801  27.787  1.00  0.00     0.031 C 
ATOM     42  C   UNL A   1      37.818  31.773  32.900  1.00  0.00     0.029 A 
ATOM     43  C   UNL A   1      39.073  31.080  33.173  1.00  0.00     0.049 A 
ATOM     44  H   UNL A   1      40.167  29.881  31.868  1.00  0.00     0.167 HD
ATOM     45  C   UNL A   1      42.156  27.075  29.128  1.00  0.00     0.037 A 
ATOM     46  C   UNL A   1      39.748  31.107  34.338  1.00  0.00     0.037 A 
ATOM     47  C   UNL A   1      42.980  27.101  30.307  1.00  0.00     0.049 A 
ATOM     48  C   UNL A   1      41.024  30.319  34.466  1.00  0.00     0.074 A 
ATOM     49  C   UNL A   1      44.179  26.453  30.536  1.00  0.00     0.029 A 
ATOM     50  N   UNL A   1      42.689  27.827  31.452  1.00  0.00    -0.354 N 
ATOM     51  N   UNL A   1      41.609  29.544  33.584  1.00  0.00    -0.248 NA
ATOM     52  C   UNL A   1      41.735  30.409  35.749  1.00  0.00     0.031 C 
ATOM     53  C   UNL A   1      44.603  26.766  31.832  1.00  0.00     0.029 A 
ATOM     54  C   UNL A   1      43.688  27.641  32.394  1.00  0.00     0.049 A 
ATOM     55  H   UNL A   1      41.893  28.393  31.577  1.00  0.00     0.167 HD
ATOM     56  C   UNL A   1      42.771  29.088  34.190  1.00  0.00     0.074 A 
ATOM     57  C   UNL A   1      42.810  29.672  35.514  1.00  0.00     0.031 C 
ATOM     58  C   UNL A   1      43.721  28.258  33.694  1.00  0.00     0.037 A 
BRANCH  45  59
ATOM     59  C   UNL A   1      42.579  26.211  27.979  1.00  0.00     0.064 A 
ATOM     60  C   UNL A   1      42.087  24.906  27.821  1.00  0.00     0.173 A 
ATOM     61  C   UNL A   1      43.469  26.699  27.011  1.00  0.00     0.173 A 
ATOM     62  F   UNL A   1      41.247  24.387  28.728  1.00  0.00    -0.203 F 
ATOM     63  C   UNL A   1      42.494  24.113  26.752  1.00  0.00     0.198 A 
ATOM     64  C   UNL A   1      43.851  25.913  25.927  1.00  0.00     0.198 A 
ATOM     65  F   UNL A   1      43.966  27.941  27.113  1.00  0.00    -0.203 F 
ATOM     66  F   UNL A   1      42.051  22.851  26.651  1.00  0.00    -0.200 F 
ATOM     67  C   UNL A   1      43.369  24.618  25.803  1.00  0.00     0.200 A 
ATOM     68  F   UNL A   1      44.688  26.406  25.005  1.00  0.00    -0.200 F 
ATOM     69  F   UNL A   1      43.756  23.854  24.772  1.00  0.00    -0.200 F 
ENDBRANCH  45  59
BRANCH  46  70
ATOM     70  C   UNL A   1      39.246  31.928  35.470  1.00  0.00     0.064 A 
ATOM     71  C   UNL A   1      38.413  31.365  36.447  1.00  0.00     0.173 A 
ATOM     72  C   UNL A   1      39.579  33.284  35.597  1.00  0.00     0.173 A 
ATOM     73  F   UNL A   1      38.051  30.077  36.355  1.00  0.00    -0.203 F 
ATOM     74  C   UNL A   1      37.913  32.133  37.497  1.00  0.00     0.198 A 
ATOM     75  C   UNL A   1      39.099  34.044  36.662  1.00  0.00     0.198 A 
ATOM     76  F   UNL A   1      40.376  33.869  34.692  1.00  0.00    -0.203 F 
ATOM     77  F   UNL A   1      37.084  31.580  38.392  1.00  0.00    -0.200 F 
ATOM     78  C   UNL A   1      38.261  33.471  37.606  1.00  0.00     0.200 A 
ATOM     79  F   UNL A   1      39.445  35.335  36.771  1.00  0.00    -0.200 F 
ATOM     80  F   UNL A   1      37.781  34.209  38.616  1.00  0.00    -0.200 F 
ENDBRANCH  46  70
BRANCH  58  81
ATOM     81  C   UNL A   1      44.915  27.981  34.556  1.00  0.00     0.064 A 
ATOM     82  C   UNL A   1      46.038  28.820  34.552  1.00  0.00     0.173 A 
ATOM     83  C   UNL A   1      44.906  26.894  35.444  1.00  0.00     0.173 A 
ATOM     84  F   UNL A   1      46.098  29.863  33.710  1.00  0.00    -0.203 F 
ATOM     85  C   UNL A   1      47.117  28.572  35.396  1.00  0.00     0.198 A 
ATOM     86  C   UNL A   1      45.974  26.663  36.303  1.00  0.00     0.198 A 
ATOM     87  F   UNL A   1      43.850  26.066  35.487  1.00  0.00    -0.203 F 
ATOM     88  F   UNL A   1      48.195  29.367  35.353  1.00  0.00    -0.200 F 
ATOM     89  C   UNL A   1      47.080  27.500  36.276  1.00  0.00     0.200 A 
ATOM     90  F   UNL A   1      45.933  25.635  37.161  1.00  0.00    -0.200 F 
ATOM     91  F   UNL A   1      48.115  27.271  37.097  1.00  0.00    -0.200 F 
ENDBRANCH  58  81
ENDBRANCH  32  33
ENDBRANCH  24  27
ENDBRANCH  22  23
ENDBRANCH  21  22
ENDBRANCH   1  21
TORSDOF 14
ENDMDL
MODEL 3
REMARK VINA RESULT:     -11.5      1.119      7.723
REMARK SMILES CC(=O)[C@@H]1CCCC[N@H+]1CC(C)(C)C(=O)NCCCCNC(=O)c1ccc(-c2c3nc(c(-c4c(F)c(F)c(F)c(F)c4F)c4ccc([nH]4)c(-c4c(F)c(F)c(F)c(F)c4F)c4nc(c(-c5c(F)c(F)c(F)c(F)c5F)c5ccc2[nH]5)C=C4)C=C3)cc1
REMARK SMILES IDX 18 1 17 2 16 3 14 4 15 5 11 7 12 8 13 9 10 10 9 11 4 12 5 13
REMARK SMILES IDX 6 14 8 15 7 17 2 18 1 19 3 20 19 21 20 22 21 23 22 24 23 26
REMARK SMILES IDX 24 27 25 28 86 29 26 30 85 31 27 32 28 33 29 34 79 35 30 36
REMARK SMILES IDX 84 37 78 38 80 39 31 40 83 41 77 42 76 43 32 45 64 46 44 47
REMARK SMILES IDX 63 48 45 49 48 50 62 51 81 52 46 53 47 54 61 56 82 57 49 58
REMARK SMILES IDX 33 59 34 60 42 61 35 62 36 63 40 64 43 65 37 66 38 67 41 68
REMARK SMILES IDX 39 69 65 70 66 71 74 72 67 73 68 74 72 75 75 76 69 77 70 78
REMARK SMILES IDX 73 79 71 80 50 81 51 82 59 83 52 84 53 85 57 86 60 87 54 88
REMARK SMILES IDX 55 89 58 90 56 91
REMARK H PARENT 16 6 9 16 21 25 80 44 48 55
REMARK Flexibility Score: inf
ROOT
ATOM      1  C   UNL A   1      31.969  30.280  26.886  1.00  0.00     0.023 C 
ENDROOT
BRANCH   1   2
ATOM      2  C   UNL A   1      33.062  29.691  25.998  1.00  0.00     0.116 C 
BRANCH   2   3
ATOM      3  N   UNL A   1      32.507  29.162  24.769  1.00  0.00    -0.355 N 
ATOM      4  C   UNL A   1      32.206  27.896  24.376  1.00  0.00     0.231 C 
ATOM      5  O   UNL A   1      32.096  27.751  23.154  1.00  0.00    -0.274 OA
ATOM      6  H   UNL A   1      32.311  29.848  24.090  1.00  0.00     0.163 HD
BRANCH   4   7
ATOM      7  C   UNL A   1      32.105  26.707  25.353  1.00  0.00     0.092 C 
ATOM      8  C   UNL A   1      31.444  27.058  26.691  1.00  0.00     0.027 C 
ATOM      9  C   UNL A   1      33.562  26.253  25.610  1.00  0.00     0.027 C 
BRANCH   7  10
ATOM     10  C   UNL A   1      31.359  25.480  24.684  1.00  0.00     0.279 C 
BRANCH  10  11
ATOM     11  N   UNL A   1      31.964  24.147  24.412  1.00  0.00    -0.325 N 
ATOM     12  C   UNL A   1      31.397  22.979  25.119  1.00  0.00     0.251 C 
ATOM     13  C   UNL A   1      32.149  21.672  24.798  1.00  0.00     0.074 C 
ATOM     14  C   UNL A   1      32.275  21.435  23.302  1.00  0.00     0.012 C 
ATOM     15  C   UNL A   1      32.131  23.908  22.971  1.00  0.00     0.262 C 
ATOM     16  H   UNL A   1      32.883  24.226  24.845  1.00  0.00     0.348 HD
ATOM     17  C   UNL A   1      32.931  22.646  22.660  1.00  0.00     0.062 C 
BRANCH  12  18
ATOM     18  C   UNL A   1      31.424  23.166  26.645  1.00  0.00     0.186 C 
ATOM     19  C   UNL A   1      32.729  22.972  27.376  1.00  0.00     0.094 C 
ATOM     20  O   UNL A   1      30.391  23.397  27.280  1.00  0.00    -0.293 OA
ENDBRANCH  12  18
ENDBRANCH  10  11
ENDBRANCH   7  10
ENDBRANCH   4   7
ENDBRANCH   2   3
ENDBRANCH   1   2
BRANCH   1  21
ATOM     21  C   UNL A   1      31.785  31.791  26.764  1.00  0.00     0.023 C 
BRANCH  21  22
ATOM     22  C   UNL A   1      32.895  32.628  27.388  1.00  0.00     0.116 C 
BRANCH  22  23
ATOM     23  N   UNL A   1      32.495  34.004  27.643  1.00  0.00    -0.352 N 
ATOM     24  C   UNL A   1      33.007  34.890  28.562  1.00  0.00     0.251 C 
ATOM     25  H   UNL A   1      31.760  34.347  27.083  1.00  0.00     0.163 HD
ATOM     26  O   UNL A   1      32.489  35.983  28.743  1.00  0.00    -0.269 OA
BRANCH  24  27
ATOM     27  C   UNL A   1      34.180  34.480  29.355  1.00  0.00     0.039 A 
ATOM     28  C   UNL A   1      33.982  33.806  30.562  1.00  0.00     0.014 A 
ATOM     29  C   UNL A   1      35.468  34.701  28.861  1.00  0.00     0.014 A 
ATOM     30  C   UNL A   1      35.083  33.280  31.241  1.00  0.00     0.010 A 
ATOM     31  C   UNL A   1      36.553  34.118  29.501  1.00  0.00     0.010 A 
ATOM     32  C   UNL A   1      36.370  33.399  30.694  1.00  0.00    -0.014 A 
BRANCH  32  33
ATOM     33  C   UNL A   1      37.558  32.800  31.348  1.00  0.00     0.031 A 
ATOM     34  C   UNL A   1      38.270  31.662  30.677  1.00  0.00     0.074 A 
ATOM     35  C   UNL A   1      37.926  33.205  32.579  1.00  0.00     0.049 A 
ATOM     36  N   UNL A   1      39.206  30.876  31.145  1.00  0.00    -0.248 NA
ATOM     37  C   UNL A   1      37.844  31.343  29.305  1.00  0.00     0.031 C 
ATOM     38  C   UNL A   1      37.291  34.278  33.346  1.00  0.00     0.029 A 
ATOM     39  N   UNL A   1      38.914  32.741  33.412  1.00  0.00    -0.354 N 
ATOM     40  C   UNL A   1      39.453  29.952  30.139  1.00  0.00     0.074 A 
ATOM     41  C   UNL A   1      38.545  30.248  29.054  1.00  0.00     0.031 C 
ATOM     42  C   UNL A   1      37.911  34.396  34.532  1.00  0.00     0.029 A 
ATOM     43  C   UNL A   1      38.956  33.381  34.626  1.00  0.00     0.049 A 
ATOM     44  H   UNL A   1      39.533  32.017  33.162  1.00  0.00     0.167 HD
ATOM     45  C   UNL A   1      40.371  28.956  30.119  1.00  0.00     0.037 A 
ATOM     46  C   UNL A   1      39.743  33.161  35.697  1.00  0.00     0.037 A 
ATOM     47  C   UNL A   1      41.300  28.694  31.185  1.00  0.00     0.049 A 
ATOM     48  C   UNL A   1      40.766  32.059  35.642  1.00  0.00     0.074 A 
ATOM     49  C   UNL A   1      42.300  27.741  31.244  1.00  0.00     0.029 A 
ATOM     50  N   UNL A   1      41.348  29.401  32.377  1.00  0.00    -0.354 N 
ATOM     51  N   UNL A   1      41.017  31.212  34.674  1.00  0.00    -0.248 NA
ATOM     52  C   UNL A   1      41.616  31.882  36.829  1.00  0.00     0.031 C 
ATOM     53  C   UNL A   1      42.936  27.853  32.484  1.00  0.00     0.029 A 
ATOM     54  C   UNL A   1      42.359  28.903  33.181  1.00  0.00     0.049 A 
ATOM     55  H   UNL A   1      40.751  30.148  32.616  1.00  0.00     0.167 HD
ATOM     56  C   UNL A   1      42.076  30.430  35.116  1.00  0.00     0.074 A 
ATOM     57  C   UNL A   1      42.420  30.903  36.440  1.00  0.00     0.031 C 
ATOM     58  C   UNL A   1      42.705  29.411  34.482  1.00  0.00     0.037 A 
BRANCH  45  59
ATOM     59  C   UNL A   1      40.413  28.081  28.903  1.00  0.00     0.064 A 
ATOM     60  C   UNL A   1      41.176  28.426  27.776  1.00  0.00     0.173 A 
ATOM     61  C   UNL A   1      39.703  26.872  28.869  1.00  0.00     0.173 A 
ATOM     62  F   UNL A   1      41.861  29.579  27.752  1.00  0.00    -0.203 F 
ATOM     63  C   UNL A   1      41.202  27.608  26.651  1.00  0.00     0.198 A 
ATOM     64  C   UNL A   1      39.754  26.042  27.753  1.00  0.00     0.198 A 
ATOM     65  F   UNL A   1      38.960  26.494  29.920  1.00  0.00    -0.203 F 
ATOM     66  F   UNL A   1      41.896  27.984  25.567  1.00  0.00    -0.200 F 
ATOM     67  C   UNL A   1      40.497  26.414  26.642  1.00  0.00     0.200 A 
ATOM     68  F   UNL A   1      39.081  24.883  27.750  1.00  0.00    -0.200 F 
ATOM     69  F   UNL A   1      40.526  25.625  25.559  1.00  0.00    -0.200 F 
ENDBRANCH  45  59
BRANCH  46  70
ATOM     70  C   UNL A   1      39.612  34.016  36.905  1.00  0.00     0.064 A 
ATOM     71  C   UNL A   1      40.293  35.237  36.994  1.00  0.00     0.173 A 
ATOM     72  C   UNL A   1      38.815  33.632  37.993  1.00  0.00     0.173 A 
ATOM     73  F   UNL A   1      41.084  35.636  35.987  1.00  0.00    -0.203 F 
ATOM     74  C   UNL A   1      40.201  36.034  38.134  1.00  0.00     0.198 A 
ATOM     75  C   UNL A   1      38.703  34.441  39.122  1.00  0.00     0.198 A 
ATOM     76  F   UNL A   1      38.139  32.475  37.956  1.00  0.00    -0.203 F 
ATOM     77  F   UNL A   1      40.898  37.175  38.210  1.00  0.00    -0.200 F 
ATOM     78  C   UNL A   1      39.401  35.637  39.195  1.00  0.00     0.200 A 
ATOM     79  F   UNL A   1      37.920  34.060  40.142  1.00  0.00    -0.200 F 
ATOM     80  F   UNL A   1      39.311  36.402  40.291  1.00  0.00    -0.200 F 
ENDBRANCH  46  70
BRANCH  58  81
ATOM     81  C   UNL A   1      43.871  28.779  35.180  1.00  0.00     0.064 A 
ATOM     82  C   UNL A   1      45.180  29.248  35.002  1.00  0.00     0.173 A 
ATOM     83  C   UNL A   1      43.664  27.728  36.087  1.00  0.00     0.173 A 
ATOM     84  F   UNL A   1      45.428  30.241  34.134  1.00  0.00    -0.203 F 
ATOM     85  C   UNL A   1      46.242  28.678  35.696  1.00  0.00     0.198 A 
ATOM     86  C   UNL A   1      44.724  27.177  36.798  1.00  0.00     0.198 A 
ATOM     87  F   UNL A   1      42.428  27.249  36.295  1.00  0.00    -0.203 F 
ATOM     88  F   UNL A   1      47.491  29.119  35.488  1.00  0.00    -0.200 F 
ATOM     89  C   UNL A   1      46.013  27.650  36.600  1.00  0.00     0.200 A 
ATOM     90  F   UNL A   1      44.500  26.193  37.679  1.00  0.00    -0.200 F 
ATOM     91  F   UNL A   1      47.037  27.111  37.277  1.00  0.00    -0.200 F 
ENDBRANCH  58  81
ENDBRANCH  32  33
ENDBRANCH  24  27
ENDBRANCH  22  23
ENDBRANCH  21  22
ENDBRANCH   1  21
TORSDOF 14
ENDMDL
