MODEL 1
REMARK VINA RESULT:     -13.9      0.000      0.000
REMARK SMILES Cc1ccc(S(=O)(=O)n2cc(C(=O)C(=O)N[C@@H](Cc3c[nH]c4ccccc34)C(=O)NCCCCNC(=O)c3ccc(-c4c5nc(c(-c6c(F)c(F)c(F)c(F)c6F)c6ccc([nH]6)c(-c6c(F)c(F)c(F)c(F)c6F)c6nc(c(-c7c(F)c(F)c(F)c(F)c7F)c7ccc4[nH]7)C=C6)C=C5)cc3)c3ccccc32)cc1
REMARK SMILES IDX 31 1 30 2 28 3 29 4 17 6 16 7 14 8 15 9 12 11 13 12 11 13
REMARK SMILES IDX 9 14 10 15 106 16 101 17 105 18 102 19 104 20 103 21 6 22
REMARK SMILES IDX 7 23 8 24 5 25 1 26 2 27 3 28 108 29 4 30 107 31 18 32 19 33
REMARK SMILES IDX 20 34 27 35 21 36 22 37 26 38 23 40 25 41 24 42 32 43 33 44
REMARK SMILES IDX 34 45 35 46 36 47 37 49 38 50 39 51 100 52 40 53 99 54 41 55
REMARK SMILES IDX 42 56 43 57 93 58 44 59 98 60 92 61 94 62 45 63 97 64 91 65
REMARK SMILES IDX 90 66 46 68 78 69 58 70 77 71 59 72 62 73 76 74 95 75 60 76
REMARK SMILES IDX 61 77 75 79 96 80 63 81 47 82 48 83 56 84 49 85 50 86 54 87
REMARK SMILES IDX 57 88 51 89 52 90 55 91 53 92 79 93 80 94 88 95 81 96 82 97
REMARK SMILES IDX 86 98 89 99 83 100 84 101 87 102 85 103 64 104 65 105 73 106
REMARK SMILES IDX 66 107 67 108 71 109 74 110 68 111 69 112 72 113 70 114
REMARK H PARENT 30 5 16 10 21 39 35 48 94 67 62 78
REMARK Flexibility Score: inf
ROOT
ATOM      1  C   UNL A   1      39.542  22.233  26.296  1.00  0.00     0.116 C 
ENDROOT
BRANCH   1   2
ATOM      2  N   UNL A   1      39.058  20.907  25.986  1.00  0.00    -0.354 N 
ATOM      3  C   UNL A   1      37.912  20.566  25.311  1.00  0.00     0.242 C 
ATOM      4  O   UNL A   1      37.964  19.532  24.633  1.00  0.00    -0.273 OA
ATOM      5  H   UNL A   1      39.617  20.159  26.296  1.00  0.00     0.163 HD
BRANCH   3   6
ATOM      6  C   UNL A   1      36.645  21.473  25.249  1.00  0.00     0.176 C 
BRANCH   6   7
ATOM      7  N   UNL A   1      36.398  22.129  23.944  1.00  0.00    -0.337 N 
ATOM      8  C   UNL A   1      35.761  23.320  23.627  1.00  0.00     0.293 C 
ATOM      9  O   UNL A   1      35.566  23.625  22.455  1.00  0.00    -0.265 OA
ATOM     10  H   UNL A   1      36.744  21.633  23.168  1.00  0.00     0.164 HD
BRANCH   8  11
ATOM     11  C   UNL A   1      35.325  24.289  24.731  1.00  0.00     0.252 C 
ATOM     12  O   UNL A   1      36.156  24.487  25.617  1.00  0.00    -0.283 OA
BRANCH  11  13
ATOM     13  C   UNL A   1      33.964  24.859  24.806  1.00  0.00     0.054 A 
ATOM     14  N   UNL A   1      32.051  26.072  24.620  1.00  0.00    -0.240 N 
ATOM     15  C   UNL A   1      33.403  26.026  24.263  1.00  0.00     0.117 A 
ATOM     16  C   UNL A   1      31.733  24.829  25.196  1.00  0.00     0.065 A 
ATOM     17  C   UNL A   1      32.940  24.290  25.625  1.00  0.00     0.012 A 
ATOM     18  C   UNL A   1      30.498  24.302  25.628  1.00  0.00     0.028 A 
ATOM     19  C   UNL A   1      32.920  23.339  26.668  1.00  0.00     0.011 A 
ATOM     20  C   UNL A   1      30.505  23.421  26.707  1.00  0.00     0.002 A 
ATOM     21  C   UNL A   1      31.702  22.978  27.251  1.00  0.00     0.001 A 
BRANCH  14  22
ATOM     22  S   UNL A   1      31.236  27.377  25.459  1.00  0.00     0.268 S 
ATOM     23  O   UNL A   1      30.711  26.724  26.647  1.00  0.00    -0.201 OA
ATOM     24  O   UNL A   1      30.342  27.891  24.426  1.00  0.00    -0.201 OA
BRANCH  22  25
ATOM     25  C   UNL A   1      31.948  28.875  26.039  1.00  0.00     0.088 A 
ATOM     26  C   UNL A   1      34.170  31.896  28.195  1.00  0.00     0.044 C 
ATOM     27  C   UNL A   1      33.406  30.881  27.392  1.00  0.00    -0.051 A 
ATOM     28  C   UNL A   1      33.826  29.561  27.472  1.00  0.00     0.005 A 
ATOM     29  C   UNL A   1      32.264  31.188  26.617  1.00  0.00     0.005 A 
ATOM     30  C   UNL A   1      33.115  28.587  26.796  1.00  0.00     0.022 A 
ATOM     31  C   UNL A   1      31.521  30.186  25.935  1.00  0.00     0.022 A 
ENDBRANCH  22  25
ENDBRANCH  14  22
ENDBRANCH  11  13
ENDBRANCH   8  11
ENDBRANCH   6   7
BRANCH   6  32
ATOM     32  C   UNL A   1      35.381  20.786  25.871  1.00  0.00     0.072 C 
BRANCH  32  33
ATOM     33  C   UNL A   1      34.376  20.168  24.928  1.00  0.00    -0.020 A 
ATOM     34  C   UNL A   1      33.269  20.798  24.379  1.00  0.00     0.087 A 
ATOM     35  C   UNL A   1      34.325  18.804  24.469  1.00  0.00     0.003 A 
ATOM     36  N   UNL A   1      32.528  19.859  23.710  1.00  0.00    -0.361 N 
ATOM     37  C   UNL A   1      33.061  18.611  23.911  1.00  0.00     0.046 A 
ATOM     38  C   UNL A   1      35.162  17.681  24.622  1.00  0.00     0.010 A 
ATOM     39  H   UNL A   1      31.731  20.052  23.167  1.00  0.00     0.166 HD
ATOM     40  C   UNL A   1      32.529  17.342  23.657  1.00  0.00     0.026 A 
ATOM     41  C   UNL A   1      34.644  16.403  24.386  1.00  0.00     0.001 A 
ATOM     42  C   UNL A   1      33.335  16.238  23.944  1.00  0.00     0.002 A 
ENDBRANCH  32  33
ENDBRANCH   6  32
ENDBRANCH   3   6
ENDBRANCH   1   2
BRANCH   1  43
ATOM     43  C   UNL A   1      40.815  22.326  27.127  1.00  0.00     0.023 C 
BRANCH  43  44
ATOM     44  C   UNL A   1      42.009  21.522  26.626  1.00  0.00     0.023 C 
BRANCH  44  45
ATOM     45  C   UNL A   1      42.744  22.106  25.425  1.00  0.00     0.116 C 
BRANCH  45  46
ATOM     46  N   UNL A   1      43.913  21.374  24.965  1.00  0.00    -0.352 N 
ATOM     47  C   UNL A   1      45.259  21.724  24.997  1.00  0.00     0.251 C 
ATOM     48  H   UNL A   1      43.722  20.493  24.569  1.00  0.00     0.163 HD
ATOM     49  O   UNL A   1      46.071  21.006  24.447  1.00  0.00    -0.269 OA
BRANCH  47  50
ATOM     50  C   UNL A   1      45.738  22.879  25.816  1.00  0.00     0.039 A 
ATOM     51  C   UNL A   1      45.657  22.771  27.216  1.00  0.00     0.014 A 
ATOM     52  C   UNL A   1      46.084  24.102  25.256  1.00  0.00     0.014 A 
ATOM     53  C   UNL A   1      45.652  23.923  28.003  1.00  0.00     0.010 A 
ATOM     54  C   UNL A   1      45.963  25.250  26.008  1.00  0.00     0.010 A 
ATOM     55  C   UNL A   1      45.671  25.159  27.368  1.00  0.00    -0.014 A 
BRANCH  55  56
ATOM     56  C   UNL A   1      45.240  26.406  27.982  1.00  0.00     0.031 A 
ATOM     57  C   UNL A   1      43.864  26.900  27.803  1.00  0.00     0.074 A 
ATOM     58  C   UNL A   1      46.062  26.949  28.907  1.00  0.00     0.049 A 
ATOM     59  N   UNL A   1      43.471  28.070  28.170  1.00  0.00    -0.248 NA
ATOM     60  C   UNL A   1      42.822  26.131  27.128  1.00  0.00     0.031 C 
ATOM     61  C   UNL A   1      45.733  27.896  29.970  1.00  0.00     0.029 A 
ATOM     62  N   UNL A   1      47.464  26.824  28.979  1.00  0.00    -0.354 N 
ATOM     63  C   UNL A   1      42.101  28.099  28.065  1.00  0.00     0.074 A 
ATOM     64  C   UNL A   1      41.768  26.940  27.279  1.00  0.00     0.031 C 
ATOM     65  C   UNL A   1      46.867  28.480  30.396  1.00  0.00     0.029 A 
ATOM     66  C   UNL A   1      47.919  28.063  29.485  1.00  0.00     0.049 A 
ATOM     67  H   UNL A   1      48.007  26.042  28.731  1.00  0.00     0.167 HD
ATOM     68  C   UNL A   1      41.418  29.035  28.782  1.00  0.00     0.037 A 
ATOM     69  C   UNL A   1      48.620  28.928  28.690  1.00  0.00     0.037 A 
ATOM     70  C   UNL A   1      42.339  30.041  29.316  1.00  0.00     0.049 A 
ATOM     71  C   UNL A   1      47.950  30.269  28.485  1.00  0.00     0.074 A 
ATOM     72  C   UNL A   1      42.844  30.295  30.578  1.00  0.00     0.029 A 
ATOM     73  N   UNL A   1      43.093  30.803  28.426  1.00  0.00    -0.354 N 
ATOM     74  N   UNL A   1      46.677  30.480  28.667  1.00  0.00    -0.248 NA
ATOM     75  C   UNL A   1      48.655  31.460  28.020  1.00  0.00     0.031 C 
ATOM     76  C   UNL A   1      43.985  31.130  30.426  1.00  0.00     0.029 A 
ATOM     77  C   UNL A   1      44.137  31.425  29.081  1.00  0.00     0.049 A 
ATOM     78  H   UNL A   1      42.908  30.886  27.463  1.00  0.00     0.167 HD
ATOM     79  C   UNL A   1      46.375  31.770  28.322  1.00  0.00     0.074 A 
ATOM     80  C   UNL A   1      47.651  32.351  27.947  1.00  0.00     0.031 C 
ATOM     81  C   UNL A   1      45.094  32.241  28.346  1.00  0.00     0.037 A 
BRANCH  68  82
ATOM     82  C   UNL A   1      39.955  28.964  29.186  1.00  0.00     0.064 A 
ATOM     83  C   UNL A   1      38.950  29.328  28.259  1.00  0.00     0.173 A 
ATOM     84  C   UNL A   1      39.471  28.680  30.482  1.00  0.00     0.173 A 
ATOM     85  F   UNL A   1      39.253  29.625  26.988  1.00  0.00    -0.203 F 
ATOM     86  C   UNL A   1      37.596  29.421  28.607  1.00  0.00     0.198 A 
ATOM     87  C   UNL A   1      38.112  28.725  30.815  1.00  0.00     0.198 A 
ATOM     88  F   UNL A   1      40.280  28.402  31.506  1.00  0.00    -0.203 F 
ATOM     89  F   UNL A   1      36.701  29.831  27.697  1.00  0.00    -0.200 F 
ATOM     90  C   UNL A   1      37.176  29.112  29.883  1.00  0.00     0.200 A 
ATOM     91  F   UNL A   1      37.729  28.419  32.063  1.00  0.00    -0.200 F 
ATOM     92  F   UNL A   1      35.883  29.200  30.220  1.00  0.00    -0.200 F 
ENDBRANCH  68  82
BRANCH  69  93
ATOM     93  C   UNL A   1      49.454  28.249  27.664  1.00  0.00     0.064 A 
ATOM     94  C   UNL A   1      50.722  27.765  28.036  1.00  0.00     0.173 A 
ATOM     95  C   UNL A   1      48.895  27.754  26.479  1.00  0.00     0.173 A 
ATOM     96  F   UNL A   1      51.289  28.187  29.177  1.00  0.00    -0.203 F 
ATOM     97  C   UNL A   1      51.356  26.760  27.308  1.00  0.00     0.198 A 
ATOM     98  C   UNL A   1      49.533  26.744  25.755  1.00  0.00     0.198 A 
ATOM     99  F   UNL A   1      47.677  28.152  26.087  1.00  0.00    -0.203 F 
ATOM    100  F   UNL A   1      52.521  26.257  27.738  1.00  0.00    -0.200 F 
ATOM    101  C   UNL A   1      50.746  26.227  26.186  1.00  0.00     0.200 A 
ATOM    102  F   UNL A   1      48.924  26.201  24.690  1.00  0.00    -0.200 F 
ATOM    103  F   UNL A   1      51.300  25.185  25.550  1.00  0.00    -0.200 F 
ENDBRANCH  69  93
BRANCH  81 104
ATOM    104  C   UNL A   1      44.629  33.538  27.728  1.00  0.00     0.064 A 
ATOM    105  C   UNL A   1      44.025  33.631  26.463  1.00  0.00     0.173 A 
ATOM    106  C   UNL A   1      44.638  34.732  28.488  1.00  0.00     0.173 A 
ATOM    107  F   UNL A   1      43.846  32.548  25.694  1.00  0.00    -0.203 F 
ATOM    108  C   UNL A   1      43.525  34.838  25.969  1.00  0.00     0.198 A 
ATOM    109  C   UNL A   1      44.084  35.921  28.017  1.00  0.00     0.198 A 
ATOM    110  F   UNL A   1      45.161  34.770  29.723  1.00  0.00    -0.203 F 
ATOM    111  F   UNL A   1      42.994  34.882  24.739  1.00  0.00    -0.200 F 
ATOM    112  C   UNL A   1      43.542  35.979  26.749  1.00  0.00     0.200 A 
ATOM    113  F   UNL A   1      44.058  37.003  28.807  1.00  0.00    -0.200 F 
ATOM    114  F   UNL A   1      43.016  37.122  26.292  1.00  0.00    -0.200 F 
ENDBRANCH  81 104
ENDBRANCH  55  56
ENDBRANCH  47  50
ENDBRANCH  45  46
ENDBRANCH  44  45
ENDBRANCH  43  44
ENDBRANCH   1  43
TORSDOF 18
ENDMDL
MODEL 2
REMARK VINA RESULT:     -13.1      1.483      2.134
REMARK SMILES Cc1ccc(S(=O)(=O)n2cc(C(=O)C(=O)N[C@@H](Cc3c[nH]c4ccccc34)C(=O)NCCCCNC(=O)c3ccc(-c4c5nc(c(-c6c(F)c(F)c(F)c(F)c6F)c6ccc([nH]6)c(-c6c(F)c(F)c(F)c(F)c6F)c6nc(c(-c7c(F)c(F)c(F)c(F)c7F)c7ccc4[nH]7)C=C6)C=C5)cc3)c3ccccc32)cc1
REMARK SMILES IDX 31 1 30 2 28 3 29 4 17 6 16 7 14 8 15 9 12 11 13 12 11 13
REMARK SMILES IDX 9 14 10 15 106 16 101 17 105 18 102 19 104 20 103 21 6 22
REMARK SMILES IDX 7 23 8 24 5 25 1 26 2 27 3 28 108 29 4 30 107 31 18 32 19 33
REMARK SMILES IDX 20 34 27 35 21 36 22 37 26 38 23 40 25 41 24 42 32 43 33 44
REMARK SMILES IDX 34 45 35 46 36 47 37 49 38 50 39 51 100 52 40 53 99 54 41 55
REMARK SMILES IDX 42 56 43 57 93 58 44 59 98 60 92 61 94 62 45 63 97 64 91 65
REMARK SMILES IDX 90 66 46 68 78 69 58 70 77 71 59 72 62 73 76 74 95 75 60 76
REMARK SMILES IDX 61 77 75 79 96 80 63 81 47 82 48 83 56 84 49 85 50 86 54 87
REMARK SMILES IDX 57 88 51 89 52 90 55 91 53 92 79 93 80 94 88 95 81 96 82 97
REMARK SMILES IDX 86 98 89 99 83 100 84 101 87 102 85 103 64 104 65 105 73 106
REMARK SMILES IDX 66 107 67 108 71 109 74 110 68 111 69 112 72 113 70 114
REMARK H PARENT 30 5 16 10 21 39 35 48 94 67 62 78
REMARK Flexibility Score: inf
ROOT
ATOM      1  C   UNL A   1      39.112  22.980  26.453  1.00  0.00     0.116 C 
ENDROOT
BRANCH   1   2
ATOM      2  N   UNL A   1      38.808  21.580  26.261  1.00  0.00    -0.354 N 
ATOM      3  C   UNL A   1      37.775  21.034  25.540  1.00  0.00     0.242 C 
ATOM      4  O   UNL A   1      38.004  19.949  24.992  1.00  0.00    -0.273 OA
ATOM      5  H   UNL A   1      39.415  20.942  26.700  1.00  0.00     0.163 HD
BRANCH   3   6
ATOM      6  C   UNL A   1      36.427  21.771  25.272  1.00  0.00     0.176 C 
BRANCH   6   7
ATOM      7  N   UNL A   1      36.217  22.222  23.876  1.00  0.00    -0.337 N 
ATOM      8  C   UNL A   1      35.474  23.273  23.359  1.00  0.00     0.293 C 
ATOM      9  O   UNL A   1      35.346  23.402  22.146  1.00  0.00    -0.265 OA
ATOM     10  H   UNL A   1      36.686  21.682  23.200  1.00  0.00     0.164 HD
BRANCH   8  11
ATOM     11  C   UNL A   1      34.833  24.308  24.289  1.00  0.00     0.252 C 
ATOM     12  O   UNL A   1      35.594  24.822  25.109  1.00  0.00    -0.283 OA
BRANCH  11  13
ATOM     13  C   UNL A   1      33.383  24.592  24.295  1.00  0.00     0.054 A 
ATOM     14  N   UNL A   1      31.251  25.269  23.894  1.00  0.00    -0.240 N 
ATOM     15  C   UNL A   1      32.575  25.369  23.451  1.00  0.00     0.117 A 
ATOM     16  C   UNL A   1      31.218  24.261  24.875  1.00  0.00     0.065 A 
ATOM     17  C   UNL A   1      32.522  24.148  25.346  1.00  0.00     0.012 A 
ATOM     18  C   UNL A   1      30.134  23.683  25.567  1.00  0.00     0.028 A 
ATOM     19  C   UNL A   1      32.726  23.627  26.642  1.00  0.00     0.011 A 
ATOM     20  C   UNL A   1      30.352  23.243  26.871  1.00  0.00     0.002 A 
ATOM     21  C   UNL A   1      31.625  23.255  27.419  1.00  0.00     0.001 A 
BRANCH  14  22
ATOM     22  S   UNL A   1      30.191  26.596  24.327  1.00  0.00     0.268 S 
ATOM     23  O   UNL A   1      30.761  27.076  25.575  1.00  0.00    -0.201 OA
ATOM     24  O   UNL A   1      28.879  25.959  24.294  1.00  0.00    -0.201 OA
BRANCH  22  25
ATOM     25  C   UNL A   1      29.866  28.045  23.387  1.00  0.00     0.088 A 
ATOM     26  C   UNL A   1      28.066  31.182  21.016  1.00  0.00     0.044 C 
ATOM     27  C   UNL A   1      28.729  30.136  21.867  1.00  0.00    -0.051 A 
ATOM     28  C   UNL A   1      27.905  29.318  22.624  1.00  0.00     0.005 A 
ATOM     29  C   UNL A   1      30.124  29.911  21.892  1.00  0.00     0.005 A 
ATOM     30  C   UNL A   1      28.470  28.305  23.377  1.00  0.00     0.022 A 
ATOM     31  C   UNL A   1      30.707  28.859  22.649  1.00  0.00     0.022 A 
ENDBRANCH  22  25
ENDBRANCH  14  22
ENDBRANCH  11  13
ENDBRANCH   8  11
ENDBRANCH   6   7
BRANCH   6  32
ATOM     32  C   UNL A   1      35.198  21.025  25.896  1.00  0.00     0.072 C 
BRANCH  32  33
ATOM     33  C   UNL A   1      34.239  20.333  24.956  1.00  0.00    -0.020 A 
ATOM     34  C   UNL A   1      33.083  20.876  24.416  1.00  0.00     0.087 A 
ATOM     35  C   UNL A   1      34.293  18.971  24.492  1.00  0.00     0.003 A 
ATOM     36  N   UNL A   1      32.414  19.884  23.748  1.00  0.00    -0.361 N 
ATOM     37  C   UNL A   1      33.045  18.681  23.941  1.00  0.00     0.046 A 
ATOM     38  C   UNL A   1      35.218  17.918  24.635  1.00  0.00     0.010 A 
ATOM     39  H   UNL A   1      31.601  20.015  23.210  1.00  0.00     0.166 HD
ATOM     40  C   UNL A   1      32.614  17.375  23.684  1.00  0.00     0.026 A 
ATOM     41  C   UNL A   1      34.801  16.603  24.396  1.00  0.00     0.001 A 
ATOM     42  C   UNL A   1      33.507  16.337  23.961  1.00  0.00     0.002 A 
ENDBRANCH  32  33
ENDBRANCH   6  32
ENDBRANCH   3   6
ENDBRANCH   1   2
BRANCH   1  43
ATOM     43  C   UNL A   1      40.363  23.311  27.255  1.00  0.00     0.023 C 
BRANCH  43  44
ATOM     44  C   UNL A   1      41.599  22.469  26.957  1.00  0.00     0.023 C 
BRANCH  44  45
ATOM     45  C   UNL A   1      42.281  22.746  25.622  1.00  0.00     0.116 C 
BRANCH  45  46
ATOM     46  N   UNL A   1      43.380  21.865  25.265  1.00  0.00    -0.352 N 
ATOM     47  C   UNL A   1      44.755  22.065  25.351  1.00  0.00     0.251 C 
ATOM     48  H   UNL A   1      43.111  20.988  24.906  1.00  0.00     0.163 HD
ATOM     49  O   UNL A   1      45.506  21.232  24.884  1.00  0.00    -0.269 OA
BRANCH  47  50
ATOM     50  C   UNL A   1      45.321  23.207  26.133  1.00  0.00     0.039 A 
ATOM     51  C   UNL A   1      45.334  23.100  27.535  1.00  0.00     0.014 A 
ATOM     52  C   UNL A   1      45.660  24.420  25.548  1.00  0.00     0.014 A 
ATOM     53  C   UNL A   1      45.415  24.252  28.319  1.00  0.00     0.010 A 
ATOM     54  C   UNL A   1      45.623  25.571  26.305  1.00  0.00     0.010 A 
ATOM     55  C   UNL A   1      45.424  25.487  27.682  1.00  0.00    -0.014 A 
BRANCH  55  56
ATOM     56  C   UNL A   1      45.071  26.745  28.323  1.00  0.00     0.031 A 
ATOM     57  C   UNL A   1      43.672  27.201  28.372  1.00  0.00     0.074 A 
ATOM     58  C   UNL A   1      46.026  27.339  29.072  1.00  0.00     0.049 A 
ATOM     59  N   UNL A   1      43.315  28.374  28.765  1.00  0.00    -0.248 NA
ATOM     60  C   UNL A   1      42.551  26.385  27.914  1.00  0.00     0.031 C 
ATOM     61  C   UNL A   1      45.860  28.316  30.146  1.00  0.00     0.029 A 
ATOM     62  N   UNL A   1      47.421  27.248  28.902  1.00  0.00    -0.354 N 
ATOM     63  C   UNL A   1      41.947  28.369  28.901  1.00  0.00     0.074 A 
ATOM     64  C   UNL A   1      41.516  27.174  28.221  1.00  0.00     0.031 C 
ATOM     65  C   UNL A   1      47.033  28.940  30.350  1.00  0.00     0.029 A 
ATOM     66  C   UNL A   1      47.922  28.515  29.282  1.00  0.00     0.049 A 
ATOM     67  H   UNL A   1      47.936  26.470  28.588  1.00  0.00     0.167 HD
ATOM     68  C   UNL A   1      41.373  29.314  29.697  1.00  0.00     0.037 A 
ATOM     69  C   UNL A   1      48.450  29.367  28.350  1.00  0.00     0.037 A 
ATOM     70  C   UNL A   1      42.344  30.359  30.029  1.00  0.00     0.049 A 
ATOM     71  C   UNL A   1      47.716  30.683  28.223  1.00  0.00     0.074 A 
ATOM     72  C   UNL A   1      43.054  30.669  31.175  1.00  0.00     0.029 A 
ATOM     73  N   UNL A   1      42.910  31.105  28.998  1.00  0.00    -0.354 N 
ATOM     74  N   UNL A   1      46.488  30.873  28.619  1.00  0.00    -0.248 NA
ATOM     75  C   UNL A   1      48.295  31.873  27.606  1.00  0.00     0.031 C 
ATOM     76  C   UNL A   1      44.127  31.524  30.800  1.00  0.00     0.029 A 
ATOM     77  C   UNL A   1      44.034  31.774  29.441  1.00  0.00     0.049 A 
ATOM     78  H   UNL A   1      42.558  31.149  28.080  1.00  0.00     0.167 HD
ATOM     79  C   UNL A   1      46.095  32.142  28.291  1.00  0.00     0.074 A 
ATOM     80  C   UNL A   1      47.269  32.738  27.682  1.00  0.00     0.031 C 
ATOM     81  C   UNL A   1      44.824  32.585  28.524  1.00  0.00     0.037 A 
BRANCH  68  82
ATOM     82  C   UNL A   1      40.005  29.225  30.352  1.00  0.00     0.064 A 
ATOM     83  C   UNL A   1      39.048  30.241  30.125  1.00  0.00     0.173 A 
ATOM     84  C   UNL A   1      39.609  28.258  31.302  1.00  0.00     0.173 A 
ATOM     85  F   UNL A   1      39.279  31.228  29.248  1.00  0.00    -0.203 F 
ATOM     86  C   UNL A   1      37.824  30.295  30.805  1.00  0.00     0.198 A 
ATOM     87  C   UNL A   1      38.365  28.285  31.943  1.00  0.00     0.198 A 
ATOM     88  F   UNL A   1      40.415  27.274  31.705  1.00  0.00    -0.203 F 
ATOM     89  F   UNL A   1      36.986  31.319  30.588  1.00  0.00    -0.200 F 
ATOM     90  C   UNL A   1      37.480  29.312  31.708  1.00  0.00     0.200 A 
ATOM     91  F   UNL A   1      38.053  27.318  32.818  1.00  0.00    -0.200 F 
ATOM     92  F   UNL A   1      36.311  29.360  32.361  1.00  0.00    -0.200 F 
ENDBRANCH  68  82
BRANCH  69  93
ATOM     93  C   UNL A   1      49.112  28.670  27.216  1.00  0.00     0.064 A 
ATOM     94  C   UNL A   1      50.420  28.184  27.393  1.00  0.00     0.173 A 
ATOM     95  C   UNL A   1      48.373  28.164  26.139  1.00  0.00     0.173 A 
ATOM     96  F   UNL A   1      51.159  28.618  28.425  1.00  0.00    -0.203 F 
ATOM     97  C   UNL A   1      50.930  27.168  26.587  1.00  0.00     0.198 A 
ATOM     98  C   UNL A   1      48.888  27.142  25.338  1.00  0.00     0.198 A 
ATOM     99  F   UNL A   1      47.110  28.563  25.936  1.00  0.00    -0.203 F 
ATOM    100  F   UNL A   1      52.146  26.663  26.838  1.00  0.00    -0.200 F 
ATOM    101  C   UNL A   1      50.151  26.623  25.582  1.00  0.00     0.200 A 
ATOM    102  F   UNL A   1      48.118  26.588  24.388  1.00  0.00    -0.200 F 
ATOM    103  F   UNL A   1      50.596  25.571  24.881  1.00  0.00    -0.200 F 
ENDBRANCH  69  93
BRANCH  81 104
ATOM    104  C   UNL A   1      44.222  33.847  27.957  1.00  0.00     0.064 A 
ATOM    105  C   UNL A   1      44.204  35.079  28.633  1.00  0.00     0.173 A 
ATOM    106  C   UNL A   1      43.778  33.883  26.613  1.00  0.00     0.173 A 
ATOM    107  F   UNL A   1      44.708  35.204  29.868  1.00  0.00    -0.203 F 
ATOM    108  C   UNL A   1      43.720  36.245  28.033  1.00  0.00     0.198 A 
ATOM    109  C   UNL A   1      43.354  35.060  25.998  1.00  0.00     0.198 A 
ATOM    110  F   UNL A   1      43.773  32.780  25.850  1.00  0.00    -0.203 F 
ATOM    111  F   UNL A   1      43.687  37.387  28.735  1.00  0.00    -0.200 F 
ATOM    112  C   UNL A   1      43.308  36.239  26.714  1.00  0.00     0.200 A 
ATOM    113  F   UNL A   1      43.011  35.048  24.703  1.00  0.00    -0.200 F 
ATOM    114  F   UNL A   1      42.893  37.368  26.127  1.00  0.00    -0.200 F 
ENDBRANCH  81 104
ENDBRANCH  55  56
ENDBRANCH  47  50
ENDBRANCH  45  46
ENDBRANCH  44  45
ENDBRANCH  43  44
ENDBRANCH   1  43
TORSDOF 18
ENDMDL
MODEL 3
REMARK VINA RESULT:     -12.9      1.105      2.172
REMARK SMILES Cc1ccc(S(=O)(=O)n2cc(C(=O)C(=O)N[C@@H](Cc3c[nH]c4ccccc34)C(=O)NCCCCNC(=O)c3ccc(-c4c5nc(c(-c6c(F)c(F)c(F)c(F)c6F)c6ccc([nH]6)c(-c6c(F)c(F)c(F)c(F)c6F)c6nc(c(-c7c(F)c(F)c(F)c(F)c7F)c7ccc4[nH]7)C=C6)C=C5)cc3)c3ccccc32)cc1
REMARK SMILES IDX 31 1 30 2 28 3 29 4 17 6 16 7 14 8 15 9 12 11 13 12 11 13
REMARK SMILES IDX 9 14 10 15 106 16 101 17 105 18 102 19 104 20 103 21 6 22
REMARK SMILES IDX 7 23 8 24 5 25 1 26 2 27 3 28 108 29 4 30 107 31 18 32 19 33
REMARK SMILES IDX 20 34 27 35 21 36 22 37 26 38 23 40 25 41 24 42 32 43 33 44
REMARK SMILES IDX 34 45 35 46 36 47 37 49 38 50 39 51 100 52 40 53 99 54 41 55
REMARK SMILES IDX 42 56 43 57 93 58 44 59 98 60 92 61 94 62 45 63 97 64 91 65
REMARK SMILES IDX 90 66 46 68 78 69 58 70 77 71 59 72 62 73 76 74 95 75 60 76
REMARK SMILES IDX 61 77 75 79 96 80 63 81 47 82 48 83 56 84 49 85 50 86 54 87
REMARK SMILES IDX 57 88 51 89 52 90 55 91 53 92 79 93 80 94 88 95 81 96 82 97
REMARK SMILES IDX 86 98 89 99 83 100 84 101 87 102 85 103 64 104 65 105 73 106
REMARK SMILES IDX 66 107 67 108 71 109 74 110 68 111 69 112 72 113 70 114
REMARK H PARENT 30 5 16 10 21 39 35 48 94 67 62 78
REMARK Flexibility Score: inf
ROOT
ATOM      1  C   UNL A   1      39.456  21.847  26.146  1.00  0.00     0.116 C 
ENDROOT
BRANCH   1   2
ATOM      2  N   UNL A   1      38.874  20.605  25.692  1.00  0.00    -0.354 N 
ATOM      3  C   UNL A   1      37.685  20.424  25.030  1.00  0.00     0.242 C 
ATOM      4  O   UNL A   1      37.645  19.485  24.225  1.00  0.00    -0.273 OA
ATOM      5  H   UNL A   1      39.392  19.790  25.882  1.00  0.00     0.163 HD
BRANCH   3   6
ATOM      6  C   UNL A   1      36.480  21.408  25.137  1.00  0.00     0.176 C 
BRANCH   6   7
ATOM      7  N   UNL A   1      36.160  22.157  23.900  1.00  0.00    -0.337 N 
ATOM      8  C   UNL A   1      35.608  23.415  23.711  1.00  0.00     0.293 C 
ATOM      9  O   UNL A   1      35.321  23.802  22.583  1.00  0.00    -0.265 OA
ATOM     10  H   UNL A   1      36.377  21.678  23.067  1.00  0.00     0.164 HD
BRANCH   8  11
ATOM     11  C   UNL A   1      35.381  24.354  24.900  1.00  0.00     0.252 C 
ATOM     12  O   UNL A   1      36.226  24.286  25.794  1.00  0.00    -0.283 OA
BRANCH  11  13
ATOM     13  C   UNL A   1      34.176  25.198  25.038  1.00  0.00     0.054 A 
ATOM     14  N   UNL A   1      32.596  26.831  25.029  1.00  0.00    -0.240 N 
ATOM     15  C   UNL A   1      33.930  26.543  24.722  1.00  0.00     0.117 A 
ATOM     16  C   UNL A   1      31.967  25.609  25.329  1.00  0.00     0.065 A 
ATOM     17  C   UNL A   1      32.988  24.736  25.686  1.00  0.00     0.012 A 
ATOM     18  C   UNL A   1      30.616  25.310  25.599  1.00  0.00     0.028 A 
ATOM     19  C   UNL A   1      32.675  23.636  26.513  1.00  0.00     0.011 A 
ATOM     20  C   UNL A   1      30.341  24.263  26.476  1.00  0.00     0.002 A 
ATOM     21  C   UNL A   1      31.363  23.461  26.964  1.00  0.00     0.001 A 
BRANCH  14  22
ATOM     22  S   UNL A   1      32.019  28.107  26.084  1.00  0.00     0.268 S 
ATOM     23  O   UNL A   1      31.558  27.379  27.255  1.00  0.00    -0.201 OA
ATOM     24  O   UNL A   1      31.080  28.814  25.220  1.00  0.00    -0.201 OA
BRANCH  22  25
ATOM     25  C   UNL A   1      32.945  29.457  26.722  1.00  0.00     0.088 A 
ATOM     26  C   UNL A   1      35.841  31.982  28.707  1.00  0.00     0.044 C 
ATOM     27  C   UNL A   1      34.829  31.150  27.972  1.00  0.00    -0.051 A 
ATOM     28  C   UNL A   1      35.184  29.845  27.662  1.00  0.00     0.005 A 
ATOM     29  C   UNL A   1      33.533  31.603  27.635  1.00  0.00     0.005 A 
ATOM     30  C   UNL A   1      34.260  29.027  27.038  1.00  0.00     0.022 A 
ATOM     31  C   UNL A   1      32.576  30.759  27.010  1.00  0.00     0.022 A 
ENDBRANCH  22  25
ENDBRANCH  14  22
ENDBRANCH  11  13
ENDBRANCH   8  11
ENDBRANCH   6   7
BRANCH   6  32
ATOM     32  C   UNL A   1      35.235  20.762  25.836  1.00  0.00     0.072 C 
BRANCH  32  33
ATOM     33  C   UNL A   1      34.195  20.104  24.959  1.00  0.00    -0.020 A 
ATOM     34  C   UNL A   1      33.025  20.686  24.496  1.00  0.00     0.087 A 
ATOM     35  C   UNL A   1      34.175  18.742  24.492  1.00  0.00     0.003 A 
ATOM     36  N   UNL A   1      32.282  19.717  23.871  1.00  0.00    -0.361 N 
ATOM     37  C   UNL A   1      32.885  18.494  24.022  1.00  0.00     0.046 A 
ATOM     38  C   UNL A   1      35.071  17.659  24.575  1.00  0.00     0.010 A 
ATOM     39  H   UNL A   1      31.441  19.877  23.387  1.00  0.00     0.166 HD
ATOM     40  C   UNL A   1      32.396  17.204  23.793  1.00  0.00     0.026 A 
ATOM     41  C   UNL A   1      34.598  16.360  24.363  1.00  0.00     0.001 A 
ATOM     42  C   UNL A   1      33.270  16.136  24.012  1.00  0.00     0.002 A 
ENDBRANCH  32  33
ENDBRANCH   6  32
ENDBRANCH   3   6
ENDBRANCH   1   2
BRANCH   1  43
ATOM     43  C   UNL A   1      40.378  21.776  27.356  1.00  0.00     0.023 C 
BRANCH  43  44
ATOM     44  C   UNL A   1      41.867  21.626  27.063  1.00  0.00     0.023 C 
BRANCH  44  45
ATOM     45  C   UNL A   1      42.328  22.137  25.703  1.00  0.00     0.116 C 
BRANCH  45  46
ATOM     46  N   UNL A   1      43.320  21.328  25.013  1.00  0.00    -0.352 N 
ATOM     47  C   UNL A   1      44.655  21.598  24.725  1.00  0.00     0.251 C 
ATOM     48  H   UNL A   1      42.997  20.452  24.701  1.00  0.00     0.163 HD
ATOM     49  O   UNL A   1      45.279  20.822  24.029  1.00  0.00    -0.269 OA
BRANCH  47  50
ATOM     50  C   UNL A   1      45.369  22.739  25.375  1.00  0.00     0.039 A 
ATOM     51  C   UNL A   1      45.740  22.601  26.724  1.00  0.00     0.014 A 
ATOM     52  C   UNL A   1      45.516  23.977  24.761  1.00  0.00     0.014 A 
ATOM     53  C   UNL A   1      45.985  23.736  27.497  1.00  0.00     0.010 A 
ATOM     54  C   UNL A   1      45.641  25.108  25.538  1.00  0.00     0.010 A 
ATOM     55  C   UNL A   1      45.799  24.985  26.918  1.00  0.00    -0.014 A 
BRANCH  55  56
ATOM     56  C   UNL A   1      45.586  26.215  27.666  1.00  0.00     0.031 A 
ATOM     57  C   UNL A   1      44.227  26.731  27.899  1.00  0.00     0.074 A 
ATOM     58  C   UNL A   1      46.647  26.716  28.336  1.00  0.00     0.049 A 
ATOM     59  N   UNL A   1      43.978  27.892  28.397  1.00  0.00    -0.248 NA
ATOM     60  C   UNL A   1      43.020  25.998  27.524  1.00  0.00     0.031 C 
ATOM     61  C   UNL A   1      46.653  27.629  29.476  1.00  0.00     0.029 A 
ATOM     62  N   UNL A   1      48.009  26.571  28.004  1.00  0.00    -0.354 N 
ATOM     63  C   UNL A   1      42.635  27.941  28.685  1.00  0.00     0.074 A 
ATOM     64  C   UNL A   1      42.069  26.814  27.991  1.00  0.00     0.031 C 
ATOM     65  C   UNL A   1      47.873  28.184  29.581  1.00  0.00     0.029 A 
ATOM     66  C   UNL A   1      48.615  27.787  28.397  1.00  0.00     0.049 A 
ATOM     67  H   UNL A   1      48.444  25.792  27.589  1.00  0.00     0.167 HD
ATOM     68  C   UNL A   1      42.203  28.860  29.594  1.00  0.00     0.037 A 
ATOM     69  C   UNL A   1      49.081  28.671  27.463  1.00  0.00     0.037 A 
ATOM     70  C   UNL A   1      43.258  29.836  29.875  1.00  0.00     0.049 A 
ATOM     71  C   UNL A   1      48.409  30.025  27.496  1.00  0.00     0.074 A 
ATOM     72  C   UNL A   1      44.105  30.040  30.949  1.00  0.00     0.029 A 
ATOM     73  N   UNL A   1      43.746  30.619  28.831  1.00  0.00    -0.354 N 
ATOM     74  N   UNL A   1      47.244  30.246  28.037  1.00  0.00    -0.248 NA
ATOM     75  C   UNL A   1      48.979  31.224  26.886  1.00  0.00     0.031 C 
ATOM     76  C   UNL A   1      45.174  30.866  30.505  1.00  0.00     0.029 A 
ATOM     77  C   UNL A   1      44.946  31.206  29.182  1.00  0.00     0.049 A 
ATOM     78  H   UNL A   1      43.299  30.737  27.963  1.00  0.00     0.167 HD
ATOM     79  C   UNL A   1      46.885  31.550  27.830  1.00  0.00     0.074 A 
ATOM     80  C   UNL A   1      48.015  32.129  27.127  1.00  0.00     0.031 C 
ATOM     81  C   UNL A   1      45.673  32.036  28.230  1.00  0.00     0.037 A 
BRANCH  68  82
ATOM     82  C   UNL A   1      40.913  28.793  30.393  1.00  0.00     0.064 A 
ATOM     83  C   UNL A   1      40.926  28.277  31.711  1.00  0.00     0.173 A 
ATOM     84  C   UNL A   1      39.623  29.088  29.901  1.00  0.00     0.173 A 
ATOM     85  F   UNL A   1      42.076  27.951  32.317  1.00  0.00    -0.203 F 
ATOM     86  C   UNL A   1      39.756  28.056  32.450  1.00  0.00     0.198 A 
ATOM     87  C   UNL A   1      38.459  28.915  30.658  1.00  0.00     0.198 A 
ATOM     88  F   UNL A   1      39.409  29.504  28.651  1.00  0.00    -0.203 F 
ATOM     89  F   UNL A   1      39.833  27.508  33.670  1.00  0.00    -0.200 F 
ATOM     90  C   UNL A   1      38.523  28.383  31.926  1.00  0.00     0.200 A 
ATOM     91  F   UNL A   1      37.272  29.240  30.127  1.00  0.00    -0.200 F 
ATOM     92  F   UNL A   1      37.402  28.173  32.629  1.00  0.00    -0.200 F 
ENDBRANCH  68  82
BRANCH  69  93
ATOM     93  C   UNL A   1      49.577  28.017  26.222  1.00  0.00     0.064 A 
ATOM     94  C   UNL A   1      48.685  27.846  25.147  1.00  0.00     0.173 A 
ATOM     95  C   UNL A   1      50.946  27.909  25.951  1.00  0.00     0.173 A 
ATOM     96  F   UNL A   1      47.364  27.967  25.350  1.00  0.00    -0.203 F 
ATOM     97  C   UNL A   1      49.147  27.671  23.844  1.00  0.00     0.198 A 
ATOM     98  C   UNL A   1      51.404  27.738  24.642  1.00  0.00     0.198 A 
ATOM     99  F   UNL A   1      51.847  28.093  26.925  1.00  0.00    -0.203 F 
ATOM    100  F   UNL A   1      48.274  27.601  22.830  1.00  0.00    -0.200 F 
ATOM    101  C   UNL A   1      50.507  27.651  23.588  1.00  0.00     0.200 A 
ATOM    102  F   UNL A   1      52.722  27.756  24.389  1.00  0.00    -0.200 F 
ATOM    103  F   UNL A   1      50.953  27.596  22.325  1.00  0.00    -0.200 F 
ENDBRANCH  69  93
BRANCH  81 104
ATOM    104  C   UNL A   1      45.080  33.358  27.809  1.00  0.00     0.064 A 
ATOM    105  C   UNL A   1      45.415  34.590  28.395  1.00  0.00     0.173 A 
ATOM    106  C   UNL A   1      44.253  33.434  26.661  1.00  0.00     0.173 A 
ATOM    107  F   UNL A   1      46.284  34.664  29.412  1.00  0.00    -0.203 F 
ATOM    108  C   UNL A   1      44.913  35.800  27.912  1.00  0.00     0.198 A 
ATOM    109  C   UNL A   1      43.803  34.648  26.144  1.00  0.00     0.198 A 
ATOM    110  F   UNL A   1      43.884  32.332  25.992  1.00  0.00    -0.203 F 
ATOM    111  F   UNL A   1      45.230  36.945  28.532  1.00  0.00    -0.200 F 
ATOM    112  C   UNL A   1      44.119  35.832  26.780  1.00  0.00     0.200 A 
ATOM    113  F   UNL A   1      43.082  34.665  25.016  1.00  0.00    -0.200 F 
ATOM    114  F   UNL A   1      43.680  36.997  26.290  1.00  0.00    -0.200 F 
ENDBRANCH  81 104
ENDBRANCH  55  56
ENDBRANCH  47  50
ENDBRANCH  45  46
ENDBRANCH  44  45
ENDBRANCH  43  44
ENDBRANCH   1  43
TORSDOF 18
ENDMDL
