MODEL 1
REMARK VINA RESULT:     -13.1      0.000      0.000
REMARK SMILES CC[C@@H](C)c1ccccc1NC(=O)[C@@H]1[C@@H](C(=O)NCCCCNC(=O)c2ccc(-c3c4nc(c(-c5c(F)c(F)c(F)c(F)c5F)c5ccc([nH]5)c(-c5c(F)c(F)c(F)c(F)c5F)c5nc(c(-c6c(F)c(F)c(F)c(F)c6F)c6ccc3[nH]6)C=C5)C=C4)cc2)[C@@H]2C=C[C@H]1C2
REMARK SMILES IDX 19 1 18 2 16 3 17 4 15 6 14 7 92 8 89 9 91 10 93 11 90 12
REMARK SMILES IDX 12 13 11 14 13 16 10 17 5 18 6 19 7 20 9 21 8 22 3 23 4 24
REMARK SMILES IDX 2 25 1 26 20 27 21 28 22 29 23 30 24 31 25 33 26 34 27 35
REMARK SMILES IDX 88 36 28 37 87 38 29 39 30 40 31 41 81 42 32 43 86 44 80 45
REMARK SMILES IDX 82 46 33 47 85 48 79 49 78 50 34 52 66 53 46 54 65 55 47 56
REMARK SMILES IDX 50 57 64 58 83 59 48 60 49 61 63 63 84 64 51 65 35 66 36 67
REMARK SMILES IDX 44 68 37 69 38 70 42 71 45 72 39 73 40 74 43 75 41 76 67 77
REMARK SMILES IDX 68 78 76 79 69 80 70 81 74 82 77 83 71 84 72 85 75 86 73 87
REMARK SMILES IDX 52 88 53 89 61 90 54 91 55 92 59 93 62 94 56 95 57 96 60 97
REMARK SMILES IDX 58 98
REMARK H PARENT 18 5 11 15 23 32 82 51 50 62
REMARK Flexibility Score: inf
ROOT
ATOM      1  C   UNL A   1      36.598  23.674  25.979  1.00  0.00     0.116 C 
ENDROOT
BRANCH   1   2
ATOM      2  N   UNL A   1      35.661  22.877  26.743  1.00  0.00    -0.356 N 
ATOM      3  C   UNL A   1      34.321  22.703  26.737  1.00  0.00     0.224 C 
ATOM      4  O   UNL A   1      33.896  21.953  27.628  1.00  0.00    -0.275 OA
ATOM      5  H   UNL A   1      36.107  22.333  27.432  1.00  0.00     0.163 HD
BRANCH   3   6
ATOM      6  C   UNL A   1      33.307  23.364  25.802  1.00  0.00     0.098 C 
ATOM      7  C   UNL A   1      31.840  22.900  25.847  1.00  0.00     0.099 C 
ATOM      8  C   UNL A   1      31.556  22.504  24.365  1.00  0.00     0.025 C 
ATOM      9  C   UNL A   1      33.686  23.188  24.295  1.00  0.00     0.025 C 
ATOM     10  C   UNL A   1      31.586  23.742  23.506  1.00  0.00    -0.027 C 
ATOM     11  C   UNL A   1      32.904  21.942  23.891  1.00  0.00     0.017 C 
ATOM     12  C   UNL A   1      32.867  24.143  23.445  1.00  0.00    -0.027 C 
BRANCH   7  13
ATOM     13  C   UNL A   1      30.654  23.610  26.501  1.00  0.00     0.228 C 
ATOM     14  N   UNL A   1      30.099  24.829  26.339  1.00  0.00    -0.326 N 
ATOM     15  H   UNL A   1      29.473  25.006  27.078  1.00  0.00     0.169 HD
ATOM     16  O   UNL A   1      30.088  22.954  27.403  1.00  0.00    -0.274 OA
BRANCH  14  17
ATOM     17  C   UNL A   1      30.116  25.928  25.466  1.00  0.00     0.044 A 
ATOM     18  C   UNL A   1      31.117  26.933  25.526  1.00  0.00    -0.022 A 
ATOM     19  C   UNL A   1      31.094  27.944  24.518  1.00  0.00     0.006 A 
ATOM     20  C   UNL A   1      30.128  27.997  23.519  1.00  0.00     0.000 A 
ATOM     21  C   UNL A   1      29.097  26.099  24.532  1.00  0.00     0.026 A 
ATOM     22  C   UNL A   1      29.102  27.084  23.547  1.00  0.00     0.002 A 
BRANCH  18  23
ATOM     23  C   UNL A   1      32.223  27.161  26.580  1.00  0.00     0.018 C 
ATOM     24  C   UNL A   1      31.775  28.203  27.624  1.00  0.00     0.013 C 
BRANCH  23  25
ATOM     25  C   UNL A   1      33.670  27.447  26.126  1.00  0.00     0.005 C 
ATOM     26  C   UNL A   1      34.173  28.841  26.490  1.00  0.00     0.004 C 
ENDBRANCH  23  25
ENDBRANCH  18  23
ENDBRANCH  14  17
ENDBRANCH   7  13
ENDBRANCH   3   6
ENDBRANCH   1   2
BRANCH   1  27
ATOM     27  C   UNL A   1      37.301  22.831  24.918  1.00  0.00     0.023 C 
BRANCH  27  28
ATOM     28  C   UNL A   1      37.719  21.451  25.407  1.00  0.00     0.023 C 
BRANCH  28  29
ATOM     29  C   UNL A   1      39.118  21.395  26.006  1.00  0.00     0.116 C 
BRANCH  29  30
ATOM     30  N   UNL A   1      39.723  20.067  25.966  1.00  0.00    -0.352 N 
ATOM     31  C   UNL A   1      41.051  19.738  26.126  1.00  0.00     0.251 C 
ATOM     32  H   UNL A   1      39.108  19.315  25.806  1.00  0.00     0.163 HD
ATOM     33  O   UNL A   1      41.456  18.596  26.003  1.00  0.00    -0.269 OA
BRANCH  31  34
ATOM     34  C   UNL A   1      41.974  20.848  26.411  1.00  0.00     0.039 A 
ATOM     35  C   UNL A   1      42.395  21.656  25.355  1.00  0.00     0.014 A 
ATOM     36  C   UNL A   1      42.213  21.195  27.742  1.00  0.00     0.014 A 
ATOM     37  C   UNL A   1      42.985  22.884  25.643  1.00  0.00     0.010 A 
ATOM     38  C   UNL A   1      42.719  22.454  28.021  1.00  0.00     0.010 A 
ATOM     39  C   UNL A   1      43.095  23.314  26.975  1.00  0.00    -0.014 A 
BRANCH  39  40
ATOM     40  C   UNL A   1      43.593  24.667  27.316  1.00  0.00     0.031 A 
ATOM     41  C   UNL A   1      42.630  25.684  27.854  1.00  0.00     0.074 A 
ATOM     42  C   UNL A   1      44.868  25.004  27.043  1.00  0.00     0.049 A 
ATOM     43  N   UNL A   1      42.812  26.960  28.075  1.00  0.00    -0.248 NA
ATOM     44  C   UNL A   1      41.266  25.211  28.137  1.00  0.00     0.031 C 
ATOM     45  C   UNL A   1      45.877  24.116  26.462  1.00  0.00     0.029 A 
ATOM     46  N   UNL A   1      45.529  26.196  27.201  1.00  0.00    -0.354 N 
ATOM     47  C   UNL A   1      41.580  27.444  28.489  1.00  0.00     0.074 A 
ATOM     48  C   UNL A   1      40.646  26.341  28.436  1.00  0.00     0.031 C 
ATOM     49  C   UNL A   1      47.034  24.787  26.334  1.00  0.00     0.029 A 
ATOM     50  C   UNL A   1      46.838  26.161  26.785  1.00  0.00     0.049 A 
ATOM     51  H   UNL A   1      45.106  27.001  27.578  1.00  0.00     0.167 HD
ATOM     52  C   UNL A   1      41.263  28.692  28.903  1.00  0.00     0.037 A 
ATOM     53  C   UNL A   1      47.768  27.135  26.762  1.00  0.00     0.037 A 
ATOM     54  C   UNL A   1      42.211  29.767  29.006  1.00  0.00     0.049 A 
ATOM     55  C   UNL A   1      47.397  28.509  27.251  1.00  0.00     0.074 A 
ATOM     56  C   UNL A   1      42.017  31.042  29.501  1.00  0.00     0.029 A 
ATOM     57  N   UNL A   1      43.538  29.684  28.611  1.00  0.00    -0.354 N 
ATOM     58  N   UNL A   1      46.246  28.940  27.709  1.00  0.00    -0.248 NA
ATOM     59  C   UNL A   1      48.452  29.531  27.221  1.00  0.00     0.031 C 
ATOM     60  C   UNL A   1      43.221  31.744  29.376  1.00  0.00     0.029 A 
ATOM     61  C   UNL A   1      44.172  30.893  28.834  1.00  0.00     0.049 A 
ATOM     62  H   UNL A   1      43.965  28.883  28.228  1.00  0.00     0.167 HD
ATOM     63  C   UNL A   1      46.442  30.273  28.037  1.00  0.00     0.074 A 
ATOM     64  C   UNL A   1      47.826  30.578  27.741  1.00  0.00     0.031 C 
ATOM     65  C   UNL A   1      45.554  31.168  28.537  1.00  0.00     0.037 A 
BRANCH  52  66
ATOM     66  C   UNL A   1      39.838  28.950  29.287  1.00  0.00     0.064 A 
ATOM     67  C   UNL A   1      38.903  29.432  28.358  1.00  0.00     0.173 A 
ATOM     68  C   UNL A   1      39.397  28.702  30.595  1.00  0.00     0.173 A 
ATOM     69  F   UNL A   1      39.281  29.703  27.100  1.00  0.00    -0.203 F 
ATOM     70  C   UNL A   1      37.588  29.686  28.733  1.00  0.00     0.198 A 
ATOM     71  C   UNL A   1      38.072  28.928  30.959  1.00  0.00     0.198 A 
ATOM     72  F   UNL A   1      40.251  28.240  31.521  1.00  0.00    -0.203 F 
ATOM     73  F   UNL A   1      36.727  30.199  27.842  1.00  0.00    -0.200 F 
ATOM     74  C   UNL A   1      37.171  29.428  30.030  1.00  0.00     0.200 A 
ATOM     75  F   UNL A   1      37.670  28.671  32.211  1.00  0.00    -0.200 F 
ATOM     76  F   UNL A   1      35.903  29.671  30.388  1.00  0.00    -0.200 F 
ENDBRANCH  52  66
BRANCH  53  77
ATOM     77  C   UNL A   1      49.143  26.842  26.282  1.00  0.00     0.064 A 
ATOM     78  C   UNL A   1      50.135  26.408  27.174  1.00  0.00     0.173 A 
ATOM     79  C   UNL A   1      49.496  26.986  24.934  1.00  0.00     0.173 A 
ATOM     80  F   UNL A   1      49.848  26.273  28.477  1.00  0.00    -0.203 F 
ATOM     81  C   UNL A   1      51.432  26.148  26.738  1.00  0.00     0.198 A 
ATOM     82  C   UNL A   1      50.789  26.703  24.495  1.00  0.00     0.198 A 
ATOM     83  F   UNL A   1      48.584  27.393  24.040  1.00  0.00    -0.203 F 
ATOM     84  F   UNL A   1      52.369  25.773  27.618  1.00  0.00    -0.200 F 
ATOM     85  C   UNL A   1      51.757  26.290  25.397  1.00  0.00     0.200 A 
ATOM     86  F   UNL A   1      51.097  26.831  23.196  1.00  0.00    -0.200 F 
ATOM     87  F   UNL A   1      53.004  26.037  24.978  1.00  0.00    -0.200 F 
ENDBRANCH  53  77
BRANCH  65  88
ATOM     88  C   UNL A   1      46.056  32.552  28.814  1.00  0.00     0.064 A 
ATOM     89  C   UNL A   1      46.656  32.878  30.037  1.00  0.00     0.173 A 
ATOM     90  C   UNL A   1      45.991  33.541  27.822  1.00  0.00     0.173 A 
ATOM     91  F   UNL A   1      46.726  31.968  31.020  1.00  0.00    -0.203 F 
ATOM     92  C   UNL A   1      47.168  34.153  30.261  1.00  0.00     0.198 A 
ATOM     93  C   UNL A   1      46.526  34.807  28.041  1.00  0.00     0.198 A 
ATOM     94  F   UNL A   1      45.429  33.273  26.634  1.00  0.00    -0.203 F 
ATOM     95  F   UNL A   1      47.713  34.455  31.448  1.00  0.00    -0.200 F 
ATOM     96  C   UNL A   1      47.111  35.113  29.261  1.00  0.00     0.200 A 
ATOM     97  F   UNL A   1      46.480  35.730  27.070  1.00  0.00    -0.200 F 
ATOM     98  F   UNL A   1      47.617  36.335  29.475  1.00  0.00    -0.200 F 
ENDBRANCH  65  88
ENDBRANCH  39  40
ENDBRANCH  31  34
ENDBRANCH  29  30
ENDBRANCH  28  29
ENDBRANCH  27  28
ENDBRANCH   1  27
TORSDOF 15
ENDMDL
MODEL 2
REMARK VINA RESULT:     -13.1      0.208      1.571
REMARK SMILES CC[C@@H](C)c1ccccc1NC(=O)[C@@H]1[C@@H](C(=O)NCCCCNC(=O)c2ccc(-c3c4nc(c(-c5c(F)c(F)c(F)c(F)c5F)c5ccc([nH]5)c(-c5c(F)c(F)c(F)c(F)c5F)c5nc(c(-c6c(F)c(F)c(F)c(F)c6F)c6ccc3[nH]6)C=C5)C=C4)cc2)[C@@H]2C=C[C@H]1C2
REMARK SMILES IDX 19 1 18 2 16 3 17 4 15 6 14 7 92 8 89 9 91 10 93 11 90 12
REMARK SMILES IDX 12 13 11 14 13 16 10 17 5 18 6 19 7 20 9 21 8 22 3 23 4 24
REMARK SMILES IDX 2 25 1 26 20 27 21 28 22 29 23 30 24 31 25 33 26 34 27 35
REMARK SMILES IDX 88 36 28 37 87 38 29 39 30 40 31 41 81 42 32 43 86 44 80 45
REMARK SMILES IDX 82 46 33 47 85 48 79 49 78 50 34 52 66 53 46 54 65 55 47 56
REMARK SMILES IDX 50 57 64 58 83 59 48 60 49 61 63 63 84 64 51 65 35 66 36 67
REMARK SMILES IDX 44 68 37 69 38 70 42 71 45 72 39 73 40 74 43 75 41 76 67 77
REMARK SMILES IDX 68 78 76 79 69 80 70 81 74 82 77 83 71 84 72 85 75 86 73 87
REMARK SMILES IDX 52 88 53 89 61 90 54 91 55 92 59 93 62 94 56 95 57 96 60 97
REMARK SMILES IDX 58 98
REMARK H PARENT 18 5 11 15 23 32 82 51 50 62
REMARK Flexibility Score: inf
ROOT
ATOM      1  C   UNL A   1      36.691  23.640  25.748  1.00  0.00     0.116 C 
ENDROOT
BRANCH   1   2
ATOM      2  N   UNL A   1      35.769  22.937  26.618  1.00  0.00    -0.356 N 
ATOM      3  C   UNL A   1      34.426  22.815  26.694  1.00  0.00     0.224 C 
ATOM      4  O   UNL A   1      34.025  22.148  27.659  1.00  0.00    -0.275 OA
ATOM      5  H   UNL A   1      36.233  22.428  27.321  1.00  0.00     0.163 HD
BRANCH   3   6
ATOM      6  C   UNL A   1      33.386  23.445  25.766  1.00  0.00     0.098 C 
ATOM      7  C   UNL A   1      31.926  22.963  25.848  1.00  0.00     0.099 C 
ATOM      8  C   UNL A   1      31.620  22.535  24.380  1.00  0.00     0.025 C 
ATOM      9  C   UNL A   1      33.739  23.245  24.256  1.00  0.00     0.025 C 
ATOM     10  C   UNL A   1      31.617  23.757  23.497  1.00  0.00    -0.027 C 
ATOM     11  C   UNL A   1      32.965  21.981  23.890  1.00  0.00     0.017 C 
ATOM     12  C   UNL A   1      32.892  24.173  23.403  1.00  0.00    -0.027 C 
BRANCH   7  13
ATOM     13  C   UNL A   1      30.744  23.671  26.510  1.00  0.00     0.228 C 
ATOM     14  N   UNL A   1      30.161  24.873  26.326  1.00  0.00    -0.326 N 
ATOM     15  H   UNL A   1      29.551  25.061  27.075  1.00  0.00     0.169 HD
ATOM     16  O   UNL A   1      30.214  23.032  27.447  1.00  0.00    -0.274 OA
BRANCH  14  17
ATOM     17  C   UNL A   1      30.134  25.945  25.419  1.00  0.00     0.044 A 
ATOM     18  C   UNL A   1      31.123  26.963  25.414  1.00  0.00    -0.022 A 
ATOM     19  C   UNL A   1      31.054  27.942  24.377  1.00  0.00     0.006 A 
ATOM     20  C   UNL A   1      30.053  27.953  23.411  1.00  0.00     0.000 A 
ATOM     21  C   UNL A   1      29.081  26.075  24.518  1.00  0.00     0.026 A 
ATOM     22  C   UNL A   1      29.040  27.029  23.503  1.00  0.00     0.002 A 
BRANCH  18  23
ATOM     23  C   UNL A   1      32.262  27.236  26.422  1.00  0.00     0.018 C 
ATOM     24  C   UNL A   1      31.776  28.159  27.557  1.00  0.00     0.013 C 
BRANCH  23  25
ATOM     25  C   UNL A   1      33.645  27.697  25.913  1.00  0.00     0.005 C 
ATOM     26  C   UNL A   1      34.408  28.581  26.896  1.00  0.00     0.004 C 
ENDBRANCH  23  25
ENDBRANCH  18  23
ENDBRANCH  14  17
ENDBRANCH   7  13
ENDBRANCH   3   6
ENDBRANCH   1   2
BRANCH   1  27
ATOM     27  C   UNL A   1      37.377  22.679  24.781  1.00  0.00     0.023 C 
BRANCH  27  28
ATOM     28  C   UNL A   1      37.763  21.347  25.409  1.00  0.00     0.023 C 
BRANCH  28  29
ATOM     29  C   UNL A   1      39.171  21.310  25.987  1.00  0.00     0.116 C 
BRANCH  29  30
ATOM     30  N   UNL A   1      39.783  19.984  25.965  1.00  0.00    -0.352 N 
ATOM     31  C   UNL A   1      41.113  19.663  26.125  1.00  0.00     0.251 C 
ATOM     32  H   UNL A   1      39.171  19.227  25.819  1.00  0.00     0.163 HD
ATOM     33  O   UNL A   1      41.523  18.522  26.018  1.00  0.00    -0.269 OA
BRANCH  31  34
ATOM     34  C   UNL A   1      42.031  20.782  26.390  1.00  0.00     0.039 A 
ATOM     35  C   UNL A   1      42.461  21.564  25.317  1.00  0.00     0.014 A 
ATOM     36  C   UNL A   1      42.258  21.164  27.714  1.00  0.00     0.014 A 
ATOM     37  C   UNL A   1      43.046  22.800  25.579  1.00  0.00     0.010 A 
ATOM     38  C   UNL A   1      42.758  22.431  27.966  1.00  0.00     0.010 A 
ATOM     39  C   UNL A   1      43.143  23.264  26.901  1.00  0.00    -0.014 A 
BRANCH  39  40
ATOM     40  C   UNL A   1      43.636  24.626  27.212  1.00  0.00     0.031 A 
ATOM     41  C   UNL A   1      42.669  25.652  27.725  1.00  0.00     0.074 A 
ATOM     42  C   UNL A   1      44.911  24.961  26.934  1.00  0.00     0.049 A 
ATOM     43  N   UNL A   1      42.846  26.933  27.918  1.00  0.00    -0.248 NA
ATOM     44  C   UNL A   1      41.306  25.180  28.017  1.00  0.00     0.031 C 
ATOM     45  C   UNL A   1      45.923  24.064  26.374  1.00  0.00     0.029 A 
ATOM     46  N   UNL A   1      45.567  26.158  27.065  1.00  0.00    -0.354 N 
ATOM     47  C   UNL A   1      41.611  27.422  28.319  1.00  0.00     0.074 A 
ATOM     48  C   UNL A   1      40.681  26.315  28.290  1.00  0.00     0.031 C 
ATOM     49  C   UNL A   1      47.078  24.736  26.232  1.00  0.00     0.029 A 
ATOM     50  C   UNL A   1      46.876  26.119  26.651  1.00  0.00     0.049 A 
ATOM     51  H   UNL A   1      45.140  26.971  27.423  1.00  0.00     0.167 HD
ATOM     52  C   UNL A   1      41.290  28.677  28.704  1.00  0.00     0.037 A 
ATOM     53  C   UNL A   1      47.803  27.096  26.608  1.00  0.00     0.037 A 
ATOM     54  C   UNL A   1      42.234  29.758  28.785  1.00  0.00     0.049 A 
ATOM     55  C   UNL A   1      47.427  28.479  27.065  1.00  0.00     0.074 A 
ATOM     56  C   UNL A   1      42.035  31.044  29.250  1.00  0.00     0.029 A 
ATOM     57  N   UNL A   1      43.562  29.671  28.393  1.00  0.00    -0.354 N 
ATOM     58  N   UNL A   1      46.274  28.916  27.511  1.00  0.00    -0.248 NA
ATOM     59  C   UNL A   1      48.478  29.504  27.013  1.00  0.00     0.031 C 
ATOM     60  C   UNL A   1      43.237  31.747  29.110  1.00  0.00     0.029 A 
ATOM     61  C   UNL A   1      44.191  30.887  28.589  1.00  0.00     0.049 A 
ATOM     62  H   UNL A   1      43.992  28.863  28.029  1.00  0.00     0.167 HD
ATOM     63  C   UNL A   1      46.464  30.257  27.810  1.00  0.00     0.074 A 
ATOM     64  C   UNL A   1      47.848  30.560  27.508  1.00  0.00     0.031 C 
ATOM     65  C   UNL A   1      45.573  31.160  28.288  1.00  0.00     0.037 A 
BRANCH  52  66
ATOM     66  C   UNL A   1      39.864  28.939  29.081  1.00  0.00     0.064 A 
ATOM     67  C   UNL A   1      39.392  28.698  30.381  1.00  0.00     0.173 A 
ATOM     68  C   UNL A   1      38.960  29.448  28.138  1.00  0.00     0.173 A 
ATOM     69  F   UNL A   1      40.214  28.194  31.314  1.00  0.00    -0.203 F 
ATOM     70  C   UNL A   1      38.061  28.927  30.713  1.00  0.00     0.198 A 
ATOM     71  C   UNL A   1      37.635  29.705  28.482  1.00  0.00     0.198 A 
ATOM     72  F   UNL A   1      39.360  29.697  26.882  1.00  0.00    -0.203 F 
ATOM     73  F   UNL A   1      37.620  28.638  31.946  1.00  0.00    -0.200 F 
ATOM     74  C   UNL A   1      37.185  29.437  29.766  1.00  0.00     0.200 A 
ATOM     75  F   UNL A   1      36.792  30.205  27.568  1.00  0.00    -0.200 F 
ATOM     76  F   UNL A   1      35.903  29.660  30.088  1.00  0.00    -0.200 F 
ENDBRANCH  52  66
BRANCH  53  77
ATOM     77  C   UNL A   1      49.180  26.796  26.137  1.00  0.00     0.064 A 
ATOM     78  C   UNL A   1      49.538  27.005  24.797  1.00  0.00     0.173 A 
ATOM     79  C   UNL A   1      50.161  26.299  27.005  1.00  0.00     0.173 A 
ATOM     80  F   UNL A   1      48.628  27.462  23.925  1.00  0.00    -0.203 F 
ATOM     81  C   UNL A   1      50.821  26.710  24.340  1.00  0.00     0.198 A 
ATOM     82  C   UNL A   1      51.451  26.026  26.552  1.00  0.00     0.198 A 
ATOM     83  F   UNL A   1      49.870  26.087  28.296  1.00  0.00    -0.203 F 
ATOM     84  F   UNL A   1      51.125  26.882  23.047  1.00  0.00    -0.200 F 
ATOM     85  C   UNL A   1      51.779  26.226  25.219  1.00  0.00     0.200 A 
ATOM     86  F   UNL A   1      52.377  25.569  27.406  1.00  0.00    -0.200 F 
ATOM     87  F   UNL A   1      53.013  25.945  24.780  1.00  0.00    -0.200 F 
ENDBRANCH  53  77
BRANCH  65  88
ATOM     88  C   UNL A   1      46.069  32.552  28.534  1.00  0.00     0.064 A 
ATOM     89  C   UNL A   1      46.657  32.911  29.754  1.00  0.00     0.173 A 
ATOM     90  C   UNL A   1      46.013  33.515  27.516  1.00  0.00     0.173 A 
ATOM     91  F   UNL A   1      46.717  32.026  30.761  1.00  0.00    -0.203 F 
ATOM     92  C   UNL A   1      47.164  34.192  29.951  1.00  0.00     0.198 A 
ATOM     93  C   UNL A   1      46.544  34.787  27.709  1.00  0.00     0.198 A 
ATOM     94  F   UNL A   1      45.464  33.215  26.330  1.00  0.00    -0.203 F 
ATOM     95  F   UNL A   1      47.696  34.525  31.135  1.00  0.00    -0.200 F 
ATOM     96  C   UNL A   1      47.115  35.125  28.925  1.00  0.00     0.200 A 
ATOM     97  F   UNL A   1      46.506  35.684  26.714  1.00  0.00    -0.200 F 
ATOM     98  F   UNL A   1      47.617  36.353  29.113  1.00  0.00    -0.200 F 
ENDBRANCH  65  88
ENDBRANCH  39  40
ENDBRANCH  31  34
ENDBRANCH  29  30
ENDBRANCH  28  29
ENDBRANCH  27  28
ENDBRANCH   1  27
TORSDOF 15
ENDMDL
MODEL 3
REMARK VINA RESULT:     -13.0      5.569     10.706
REMARK SMILES CC[C@@H](C)c1ccccc1NC(=O)[C@@H]1[C@@H](C(=O)NCCCCNC(=O)c2ccc(-c3c4nc(c(-c5c(F)c(F)c(F)c(F)c5F)c5ccc([nH]5)c(-c5c(F)c(F)c(F)c(F)c5F)c5nc(c(-c6c(F)c(F)c(F)c(F)c6F)c6ccc3[nH]6)C=C5)C=C4)cc2)[C@@H]2C=C[C@H]1C2
REMARK SMILES IDX 19 1 18 2 16 3 17 4 15 6 14 7 92 8 89 9 91 10 93 11 90 12
REMARK SMILES IDX 12 13 11 14 13 16 10 17 5 18 6 19 7 20 9 21 8 22 3 23 4 24
REMARK SMILES IDX 2 25 1 26 20 27 21 28 22 29 23 30 24 31 25 33 26 34 27 35
REMARK SMILES IDX 88 36 28 37 87 38 29 39 30 40 31 41 81 42 32 43 86 44 80 45
REMARK SMILES IDX 82 46 33 47 85 48 79 49 78 50 34 52 66 53 46 54 65 55 47 56
REMARK SMILES IDX 50 57 64 58 83 59 48 60 49 61 63 63 84 64 51 65 35 66 36 67
REMARK SMILES IDX 44 68 37 69 38 70 42 71 45 72 39 73 40 74 43 75 41 76 67 77
REMARK SMILES IDX 68 78 76 79 69 80 70 81 74 82 77 83 71 84 72 85 75 86 73 87
REMARK SMILES IDX 52 88 53 89 61 90 54 91 55 92 59 93 62 94 56 95 57 96 60 97
REMARK SMILES IDX 58 98
REMARK H PARENT 18 5 11 15 23 32 82 51 50 62
REMARK Flexibility Score: inf
ROOT
ATOM      1  C   UNL A   1      34.106  28.632  26.498  1.00  0.00     0.116 C 
ENDROOT
BRANCH   1   2
ATOM      2  N   UNL A   1      34.038  28.890  25.074  1.00  0.00    -0.356 N 
ATOM      3  C   UNL A   1      33.617  28.197  23.994  1.00  0.00     0.224 C 
ATOM      4  O   UNL A   1      33.796  28.775  22.911  1.00  0.00    -0.275 OA
ATOM      5  H   UNL A   1      34.380  29.782  24.839  1.00  0.00     0.163 HD
BRANCH   3   6
ATOM      6  C   UNL A   1      33.012  26.793  23.974  1.00  0.00     0.098 C 
ATOM      7  C   UNL A   1      32.291  26.311  22.701  1.00  0.00     0.099 C 
ATOM      8  C   UNL A   1      30.882  25.906  23.232  1.00  0.00     0.025 C 
ATOM      9  C   UNL A   1      31.930  26.596  25.086  1.00  0.00     0.025 C 
ATOM     10  C   UNL A   1      31.016  24.702  24.129  1.00  0.00    -0.027 C 
ATOM     11  C   UNL A   1      30.629  26.921  24.356  1.00  0.00     0.017 C 
ATOM     12  C   UNL A   1      31.626  25.118  25.252  1.00  0.00    -0.027 C 
BRANCH   7  13
ATOM     13  C   UNL A   1      32.816  25.344  21.639  1.00  0.00     0.228 C 
ATOM     14  N   UNL A   1      33.229  24.061  21.676  1.00  0.00    -0.326 N 
ATOM     15  H   UNL A   1      33.685  23.837  20.833  1.00  0.00     0.169 HD
ATOM     16  O   UNL A   1      32.927  25.839  20.495  1.00  0.00    -0.274 OA
BRANCH  14  17
ATOM     17  C   UNL A   1      33.224  22.937  22.518  1.00  0.00     0.044 A 
ATOM     18  C   UNL A   1      34.157  22.773  23.576  1.00  0.00    -0.022 A 
ATOM     19  C   UNL A   1      33.986  21.644  24.434  1.00  0.00     0.006 A 
ATOM     20  C   UNL A   1      32.980  20.701  24.254  1.00  0.00     0.000 A 
ATOM     21  C   UNL A   1      32.321  21.900  22.298  1.00  0.00     0.026 A 
ATOM     22  C   UNL A   1      32.161  20.814  23.156  1.00  0.00     0.002 A 
BRANCH  18  23
ATOM     23  C   UNL A   1      35.411  23.607  23.923  1.00  0.00     0.018 C 
ATOM     24  C   UNL A   1      36.674  22.971  23.309  1.00  0.00     0.013 C 
BRANCH  23  25
ATOM     25  C   UNL A   1      35.677  24.022  25.386  1.00  0.00     0.005 C 
ATOM     26  C   UNL A   1      37.073  23.664  25.890  1.00  0.00     0.004 C 
ENDBRANCH  23  25
ENDBRANCH  18  23
ENDBRANCH  14  17
ENDBRANCH   7  13
ENDBRANCH   3   6
ENDBRANCH   1   2
BRANCH   1  27
ATOM     27  C   UNL A   1      32.976  29.340  27.241  1.00  0.00     0.023 C 
BRANCH  27  28
ATOM     28  C   UNL A   1      32.743  30.773  26.785  1.00  0.00     0.023 C 
BRANCH  28  29
ATOM     29  C   UNL A   1      33.484  31.820  27.606  1.00  0.00     0.116 C 
BRANCH  29  30
ATOM     30  N   UNL A   1      32.844  33.133  27.602  1.00  0.00    -0.352 N 
ATOM     31  C   UNL A   1      33.140  34.220  28.395  1.00  0.00     0.251 C 
ATOM     32  H   UNL A   1      32.114  33.257  26.954  1.00  0.00     0.163 HD
ATOM     33  O   UNL A   1      32.490  35.249  28.354  1.00  0.00    -0.269 OA
BRANCH  31  34
ATOM     34  C   UNL A   1      34.260  34.062  29.336  1.00  0.00     0.039 A 
ATOM     35  C   UNL A   1      34.032  33.402  30.543  1.00  0.00     0.014 A 
ATOM     36  C   UNL A   1      35.550  34.369  28.899  1.00  0.00     0.014 A 
ATOM     37  C   UNL A   1      35.126  32.956  31.281  1.00  0.00     0.010 A 
ATOM     38  C   UNL A   1      36.630  33.846  29.591  1.00  0.00     0.010 A 
ATOM     39  C   UNL A   1      36.426  33.124  30.779  1.00  0.00    -0.014 A 
BRANCH  39  40
ATOM     40  C   UNL A   1      37.605  32.548  31.467  1.00  0.00     0.031 A 
ATOM     41  C   UNL A   1      38.322  31.390  30.839  1.00  0.00     0.074 A 
ATOM     42  C   UNL A   1      37.955  32.992  32.690  1.00  0.00     0.049 A 
ATOM     43  N   UNL A   1      39.274  30.640  31.331  1.00  0.00    -0.248 NA
ATOM     44  C   UNL A   1      37.876  30.994  29.493  1.00  0.00     0.031 C 
ATOM     45  C   UNL A   1      37.291  34.070  33.426  1.00  0.00     0.029 A 
ATOM     46  N   UNL A   1      38.948  32.574  33.540  1.00  0.00    -0.354 N 
ATOM     47  C   UNL A   1      39.513  29.667  30.371  1.00  0.00     0.074 A 
ATOM     48  C   UNL A   1      38.573  29.887  29.294  1.00  0.00     0.031 C 
ATOM     49  C   UNL A   1      37.910  34.244  34.606  1.00  0.00     0.029 A 
ATOM     50  C   UNL A   1      38.985  33.265  34.727  1.00  0.00     0.049 A 
ATOM     51  H   UNL A   1      39.576  31.848  33.320  1.00  0.00     0.167 HD
ATOM     52  C   UNL A   1      40.453  28.695  30.376  1.00  0.00     0.037 A 
ATOM     53  C   UNL A   1      39.792  33.113  35.795  1.00  0.00     0.037 A 
ATOM     54  C   UNL A   1      41.420  28.520  31.424  1.00  0.00     0.049 A 
ATOM     55  C   UNL A   1      40.846  32.040  35.765  1.00  0.00     0.074 A 
ATOM     56  C   UNL A   1      42.473  27.628  31.485  1.00  0.00     0.029 A 
ATOM     57  N   UNL A   1      41.451  29.264  32.595  1.00  0.00    -0.354 N 
ATOM     58  N   UNL A   1      41.113  31.170  34.821  1.00  0.00    -0.248 NA
ATOM     59  C   UNL A   1      41.711  31.926  36.947  1.00  0.00     0.031 C 
ATOM     60  C   UNL A   1      43.125  27.809  32.711  1.00  0.00     0.029 A 
ATOM     61  C   UNL A   1      42.496  28.838  33.395  1.00  0.00     0.049 A 
ATOM     62  H   UNL A   1      40.822  29.987  32.823  1.00  0.00     0.167 HD
ATOM     63  C   UNL A   1      42.183  30.420  35.285  1.00  0.00     0.074 A 
ATOM     64  C   UNL A   1      42.529  30.946  36.590  1.00  0.00     0.031 C 
ATOM     65  C   UNL A   1      42.823  29.385  34.687  1.00  0.00     0.037 A 
BRANCH  52  66
ATOM     66  C   UNL A   1      40.486  27.761  29.205  1.00  0.00     0.064 A 
ATOM     67  C   UNL A   1      41.305  28.009  28.091  1.00  0.00     0.173 A 
ATOM     68  C   UNL A   1      39.701  26.600  29.198  1.00  0.00     0.173 A 
ATOM     69  F   UNL A   1      42.060  29.116  28.043  1.00  0.00    -0.203 F 
ATOM     70  C   UNL A   1      41.311  27.144  27.002  1.00  0.00     0.198 A 
ATOM     71  C   UNL A   1      39.733  25.720  28.119  1.00  0.00     0.198 A 
ATOM     72  F   UNL A   1      38.902  26.317  30.238  1.00  0.00    -0.203 F 
ATOM     73  F   UNL A   1      42.060  27.429  25.927  1.00  0.00    -0.200 F 
ATOM     74  C   UNL A   1      40.531  25.997  27.019  1.00  0.00     0.200 A 
ATOM     75  F   UNL A   1      38.985  24.609  28.140  1.00  0.00    -0.200 F 
ATOM     76  F   UNL A   1      40.541  25.163  25.970  1.00  0.00    -0.200 F 
ENDBRANCH  52  66
BRANCH  53  77
ATOM     77  C   UNL A   1      39.652  34.013  36.969  1.00  0.00     0.064 A 
ATOM     78  C   UNL A   1      40.307  35.252  37.003  1.00  0.00     0.173 A 
ATOM     79  C   UNL A   1      38.868  33.658  38.075  1.00  0.00     0.173 A 
ATOM     80  F   UNL A   1      41.084  35.626  35.975  1.00  0.00    -0.203 F 
ATOM     81  C   UNL A   1      40.197  36.095  38.107  1.00  0.00     0.198 A 
ATOM     82  C   UNL A   1      38.740  34.513  39.169  1.00  0.00     0.198 A 
ATOM     83  F   UNL A   1      38.218  32.486  38.090  1.00  0.00    -0.203 F 
ATOM     84  F   UNL A   1      40.864  37.256  38.129  1.00  0.00    -0.200 F 
ATOM     85  C   UNL A   1      39.409  35.728  39.187  1.00  0.00     0.200 A 
ATOM     86  F   UNL A   1      37.969  34.159  40.207  1.00  0.00    -0.200 F 
ATOM     87  F   UNL A   1      39.301  36.539  40.247  1.00  0.00    -0.200 F 
ENDBRANCH  53  77
BRANCH  65  88
ATOM     88  C   UNL A   1      43.971  28.768  35.425  1.00  0.00     0.064 A 
ATOM     89  C   UNL A   1      45.280  29.242  35.265  1.00  0.00     0.173 A 
ATOM     90  C   UNL A   1      43.748  27.735  36.348  1.00  0.00     0.173 A 
ATOM     91  F   UNL A   1      45.542  30.216  34.381  1.00  0.00    -0.203 F 
ATOM     92  C   UNL A   1      46.330  28.696  35.998  1.00  0.00     0.198 A 
ATOM     93  C   UNL A   1      44.797  27.210  37.097  1.00  0.00     0.198 A 
ATOM     94  F   UNL A   1      42.512  27.253  36.539  1.00  0.00    -0.203 F 
ATOM     95  F   UNL A   1      47.579  29.143  35.809  1.00  0.00    -0.200 F 
ATOM     96  C   UNL A   1      46.086  27.688  36.920  1.00  0.00     0.200 A 
ATOM     97  F   UNL A   1      44.559  26.244  37.995  1.00  0.00    -0.200 F 
ATOM     98  F   UNL A   1      47.097  27.175  37.634  1.00  0.00    -0.200 F 
ENDBRANCH  65  88
ENDBRANCH  39  40
ENDBRANCH  31  34
ENDBRANCH  29  30
ENDBRANCH  28  29
ENDBRANCH  27  28
ENDBRANCH   1  27
TORSDOF 15
ENDMDL
