MODEL 1
REMARK VINA RESULT:     -13.1      0.000      0.000
REMARK SMILES Cc1nc(NC(=O)[C@@H]2CCC[C@@H](C(=O)NCCCCNC(=O)c3ccc(-c4c5nc(c(-c6c(F)c(F)c(F)c(F)c6F)c6ccc([nH]6)c(-c6c(F)c(F)c(F)c(F)c6F)c6nc(c(-c7c(F)c(F)c(F)c(F)c7F)c7ccc4[nH]7)C=C6)C=C5)cc3)C2)ccc1Br
REMARK SMILES IDX 17 1 16 2 15 3 13 4 14 5 12 7 8 8 9 9 86 10 10 11 11 12 6 13
REMARK SMILES IDX 5 14 7 16 4 17 1 18 2 19 3 20 89 21 88 22 90 23 87 24 18 25
REMARK SMILES IDX 19 26 20 27 21 28 22 30 23 31 24 32 85 33 25 34 84 35 26 36
REMARK SMILES IDX 27 37 28 38 78 39 29 40 83 41 77 42 79 43 30 44 82 45 76 46
REMARK SMILES IDX 75 47 31 49 63 50 43 51 62 52 44 53 47 54 61 55 80 56 45 57
REMARK SMILES IDX 46 58 60 60 81 61 48 62 32 63 33 64 41 65 34 66 35 67 39 68
REMARK SMILES IDX 42 69 36 70 37 71 40 72 38 73 64 74 65 75 73 76 66 77 67 78
REMARK SMILES IDX 71 79 74 80 68 81 69 82 72 83 70 84 49 85 50 86 58 87 51 88
REMARK SMILES IDX 52 89 56 90 59 91 53 92 54 93 57 94 55 95
REMARK H PARENT 15 6 5 15 20 29 79 48 47 59
REMARK Flexibility Score: inf
ROOT
ATOM      1  C   UNL A   1      37.416  21.446  24.621  1.00  0.00     0.023 C 
ENDROOT
BRANCH   1   2
ATOM      2  C   UNL A   1      37.425  22.520  25.699  1.00  0.00     0.116 C 
BRANCH   2   3
ATOM      3  N   UNL A   1      36.304  23.433  25.589  1.00  0.00    -0.356 N 
ATOM      4  C   UNL A   1      35.060  23.479  26.128  1.00  0.00     0.223 C 
ATOM      5  O   UNL A   1      34.437  24.523  25.897  1.00  0.00    -0.275 OA
ATOM      6  H   UNL A   1      36.487  24.191  24.989  1.00  0.00     0.163 HD
BRANCH   4   7
ATOM      7  C   UNL A   1      34.381  22.327  26.904  1.00  0.00     0.079 C 
ATOM      8  C   UNL A   1      32.006  22.905  26.387  1.00  0.00     0.079 C 
ATOM      9  C   UNL A   1      31.794  21.604  25.604  1.00  0.00     0.013 C 
ATOM     10  C   UNL A   1      32.997  22.560  27.514  1.00  0.00     0.027 C 
ATOM     11  C   UNL A   1      33.119  21.176  24.966  1.00  0.00     0.002 C 
ATOM     12  C   UNL A   1      34.266  21.077  25.988  1.00  0.00     0.013 C 
BRANCH   8  13
ATOM     13  C   UNL A   1      30.734  23.581  26.871  1.00  0.00     0.228 C 
ATOM     14  N   UNL A   1      30.469  24.888  26.594  1.00  0.00    -0.310 N 
ATOM     15  H   UNL A   1      29.604  25.181  26.962  1.00  0.00     0.171 HD
ATOM     16  O   UNL A   1      29.918  22.961  27.561  1.00  0.00    -0.274 OA
BRANCH  14  17
ATOM     17  C   UNL A   1      31.130  25.909  25.912  1.00  0.00     0.132 A 
ATOM     18  C   UNL A   1      31.399  26.502  22.299  1.00  0.00     0.068 C 
ATOM     19  C   UNL A   1      31.644  26.678  23.767  1.00  0.00     0.054 A 
ATOM     20  N   UNL A   1      30.918  25.863  24.582  1.00  0.00    -0.235 NA
ATOM     21  C   UNL A   1      32.590  27.569  24.266  1.00  0.00     0.039 A 
ATOM     22  C   UNL A   1      32.719  27.683  25.644  1.00  0.00     0.021 A 
ATOM     23  Br  UNL A   1      33.719  28.614  23.166  1.00  0.00    -0.049 Br
ATOM     24  C   UNL A   1      31.960  26.862  26.477  1.00  0.00     0.048 A 
ENDBRANCH  14  17
ENDBRANCH   8  13
ENDBRANCH   4   7
ENDBRANCH   2   3
ENDBRANCH   1   2
BRANCH   1  25
ATOM     25  C   UNL A   1      38.139  20.161  25.016  1.00  0.00     0.023 C 
BRANCH  25  26
ATOM     26  C   UNL A   1      39.348  20.353  25.924  1.00  0.00     0.116 C 
BRANCH  26  27
ATOM     27  N   UNL A   1      40.244  19.203  25.952  1.00  0.00    -0.352 N 
ATOM     28  C   UNL A   1      41.606  19.201  26.128  1.00  0.00     0.251 C 
ATOM     29  H   UNL A   1      39.822  18.321  25.828  1.00  0.00     0.163 HD
ATOM     30  O   UNL A   1      42.265  18.172  26.065  1.00  0.00    -0.269 OA
BRANCH  28  31
ATOM     31  C   UNL A   1      42.262  20.496  26.362  1.00  0.00     0.039 A 
ATOM     32  C   UNL A   1      42.687  21.242  25.261  1.00  0.00     0.014 A 
ATOM     33  C   UNL A   1      42.327  21.009  27.660  1.00  0.00     0.014 A 
ATOM     34  C   UNL A   1      43.132  22.546  25.460  1.00  0.00     0.010 A 
ATOM     35  C   UNL A   1      42.719  22.327  27.849  1.00  0.00     0.010 A 
ATOM     36  C   UNL A   1      43.125  23.102  26.750  1.00  0.00    -0.014 A 
BRANCH  36  37
ATOM     37  C   UNL A   1      43.591  24.488  26.975  1.00  0.00     0.031 A 
ATOM     38  C   UNL A   1      42.618  25.509  27.483  1.00  0.00     0.074 A 
ATOM     39  C   UNL A   1      44.861  24.826  26.693  1.00  0.00     0.049 A 
ATOM     40  N   UNL A   1      42.809  26.778  27.732  1.00  0.00    -0.248 NA
ATOM     41  C   UNL A   1      41.242  25.045  27.726  1.00  0.00     0.031 C 
ATOM     42  C   UNL A   1      45.882  23.921  26.160  1.00  0.00     0.029 A 
ATOM     43  N   UNL A   1      45.512  26.028  26.814  1.00  0.00    -0.354 N 
ATOM     44  C   UNL A   1      41.581  27.260  28.162  1.00  0.00     0.074 A 
ATOM     45  C   UNL A   1      40.637  26.168  28.080  1.00  0.00     0.031 C 
ATOM     46  C   UNL A   1      47.036  24.595  26.024  1.00  0.00     0.029 A 
ATOM     47  C   UNL A   1      46.832  25.981  26.438  1.00  0.00     0.049 A 
ATOM     48  H   UNL A   1      45.073  26.847  27.139  1.00  0.00     0.167 HD
ATOM     49  C   UNL A   1      41.279  28.495  28.620  1.00  0.00     0.037 A 
ATOM     50  C   UNL A   1      47.767  26.950  26.437  1.00  0.00     0.037 A 
ATOM     51  C   UNL A   1      42.227  29.568  28.726  1.00  0.00     0.049 A 
ATOM     52  C   UNL A   1      47.393  28.328  26.912  1.00  0.00     0.074 A 
ATOM     53  C   UNL A   1      42.038  30.837  29.241  1.00  0.00     0.029 A 
ATOM     54  N   UNL A   1      43.547  29.492  28.309  1.00  0.00    -0.354 N 
ATOM     55  N   UNL A   1      46.247  28.757  27.383  1.00  0.00    -0.248 NA
ATOM     56  C   UNL A   1      48.441  29.357  26.855  1.00  0.00     0.031 C 
ATOM     57  C   UNL A   1      43.238  31.543  29.103  1.00  0.00     0.029 A 
ATOM     58  C   UNL A   1      44.180  30.703  28.529  1.00  0.00     0.049 A 
ATOM     59  H   UNL A   1      43.970  28.695  27.915  1.00  0.00     0.167 HD
ATOM     60  C   UNL A   1      46.437  30.097  27.691  1.00  0.00     0.074 A 
ATOM     61  C   UNL A   1      47.814  30.408  27.367  1.00  0.00     0.031 C 
ATOM     62  C   UNL A   1      45.551  30.989  28.196  1.00  0.00     0.037 A 
BRANCH  49  63
ATOM     63  C   UNL A   1      39.869  28.737  29.064  1.00  0.00     0.064 A 
ATOM     64  C   UNL A   1      39.479  28.514  30.394  1.00  0.00     0.173 A 
ATOM     65  C   UNL A   1      38.908  29.214  28.163  1.00  0.00     0.173 A 
ATOM     66  F   UNL A   1      40.361  28.040  31.286  1.00  0.00    -0.203 F 
ATOM     67  C   UNL A   1      38.168  28.741  30.800  1.00  0.00     0.198 A 
ATOM     68  C   UNL A   1      37.603  29.462  28.580  1.00  0.00     0.198 A 
ATOM     69  F   UNL A   1      39.233  29.440  26.882  1.00  0.00    -0.203 F 
ATOM     70  F   UNL A   1      37.806  28.482  32.064  1.00  0.00    -0.200 F 
ATOM     71  C   UNL A   1      37.232  29.221  29.895  1.00  0.00     0.200 A 
ATOM     72  F   UNL A   1      36.699  29.930  27.707  1.00  0.00    -0.200 F 
ATOM     73  F   UNL A   1      35.971  29.442  30.289  1.00  0.00    -0.200 F 
ENDBRANCH  49  63
BRANCH  50  74
ATOM     74  C   UNL A   1      49.153  26.643  26.005  1.00  0.00     0.064 A 
ATOM     75  C   UNL A   1      49.573  26.928  24.699  1.00  0.00     0.173 A 
ATOM     76  C   UNL A   1      50.084  26.069  26.882  1.00  0.00     0.173 A 
ATOM     77  F   UNL A   1      48.711  27.459  23.820  1.00  0.00    -0.203 F 
ATOM     78  C   UNL A   1      50.871  26.641  24.283  1.00  0.00     0.198 A 
ATOM     79  C   UNL A   1      51.387  25.798  26.470  1.00  0.00     0.198 A 
ATOM     80  F   UNL A   1      49.729  25.779  28.143  1.00  0.00    -0.203 F 
ATOM     81  F   UNL A   1      51.239  26.895  23.019  1.00  0.00    -0.200 F 
ATOM     82  C   UNL A   1      51.778  26.080  25.170  1.00  0.00     0.200 A 
ATOM     83  F   UNL A   1      52.264  25.265  27.332  1.00  0.00    -0.200 F 
ATOM     84  F   UNL A   1      53.028  25.807  24.769  1.00  0.00    -0.200 F 
ENDBRANCH  50  74
BRANCH  62  85
ATOM     85  C   UNL A   1      46.031  32.388  28.426  1.00  0.00     0.064 A 
ATOM     86  C   UNL A   1      45.875  33.377  27.445  1.00  0.00     0.173 A 
ATOM     87  C   UNL A   1      46.562  32.765  29.668  1.00  0.00     0.173 A 
ATOM     88  F   UNL A   1      45.385  33.058  26.238  1.00  0.00    -0.203 F 
ATOM     89  C   UNL A   1      46.233  34.697  27.701  1.00  0.00     0.198 A 
ATOM     90  C   UNL A   1      46.897  34.090  29.928  1.00  0.00     0.198 A 
ATOM     91  F   UNL A   1      46.722  31.853  30.639  1.00  0.00    -0.203 F 
ATOM     92  F   UNL A   1      46.091  35.625  26.745  1.00  0.00    -0.200 F 
ATOM     93  C   UNL A   1      46.733  35.054  28.945  1.00  0.00     0.200 A 
ATOM     94  F   UNL A   1      47.368  34.436  31.135  1.00  0.00    -0.200 F 
ATOM     95  F   UNL A   1      47.056  36.331  29.197  1.00  0.00    -0.200 F 
ENDBRANCH  62  85
ENDBRANCH  36  37
ENDBRANCH  28  31
ENDBRANCH  26  27
ENDBRANCH  25  26
ENDBRANCH   1  25
TORSDOF 13
ENDMDL
MODEL 2
REMARK VINA RESULT:     -13.0      0.618      7.383
REMARK SMILES Cc1nc(NC(=O)[C@@H]2CCC[C@@H](C(=O)NCCCCNC(=O)c3ccc(-c4c5nc(c(-c6c(F)c(F)c(F)c(F)c6F)c6ccc([nH]6)c(-c6c(F)c(F)c(F)c(F)c6F)c6nc(c(-c7c(F)c(F)c(F)c(F)c7F)c7ccc4[nH]7)C=C6)C=C5)cc3)C2)ccc1Br
REMARK SMILES IDX 17 1 16 2 15 3 13 4 14 5 12 7 8 8 9 9 86 10 10 11 11 12 6 13
REMARK SMILES IDX 5 14 7 16 4 17 1 18 2 19 3 20 89 21 88 22 90 23 87 24 18 25
REMARK SMILES IDX 19 26 20 27 21 28 22 30 23 31 24 32 85 33 25 34 84 35 26 36
REMARK SMILES IDX 27 37 28 38 78 39 29 40 83 41 77 42 79 43 30 44 82 45 76 46
REMARK SMILES IDX 75 47 31 49 63 50 43 51 62 52 44 53 47 54 61 55 80 56 45 57
REMARK SMILES IDX 46 58 60 60 81 61 48 62 32 63 33 64 41 65 34 66 35 67 39 68
REMARK SMILES IDX 42 69 36 70 37 71 40 72 38 73 64 74 65 75 73 76 66 77 67 78
REMARK SMILES IDX 71 79 74 80 68 81 69 82 72 83 70 84 49 85 50 86 58 87 51 88
REMARK SMILES IDX 52 89 56 90 59 91 53 92 54 93 57 94 55 95
REMARK H PARENT 15 6 5 15 20 29 79 48 47 59
REMARK Flexibility Score: inf
ROOT
ATOM      1  C   UNL A   1      37.397  21.389  24.621  1.00  0.00     0.023 C 
ENDROOT
BRANCH   1   2
ATOM      2  C   UNL A   1      37.258  22.388  25.761  1.00  0.00     0.116 C 
BRANCH   2   3
ATOM      3  N   UNL A   1      36.162  23.315  25.563  1.00  0.00    -0.356 N 
ATOM      4  C   UNL A   1      34.890  23.395  26.026  1.00  0.00     0.223 C 
ATOM      5  O   UNL A   1      34.300  24.443  25.733  1.00  0.00    -0.275 OA
ATOM      6  H   UNL A   1      36.394  24.055  24.957  1.00  0.00     0.163 HD
BRANCH   4   7
ATOM      7  C   UNL A   1      34.146  22.273  26.787  1.00  0.00     0.079 C 
ATOM      8  C   UNL A   1      31.808  23.000  26.290  1.00  0.00     0.079 C 
ATOM      9  C   UNL A   1      31.515  21.728  25.488  1.00  0.00     0.013 C 
ATOM     10  C   UNL A   1      32.780  22.579  27.407  1.00  0.00     0.027 C 
ATOM     11  C   UNL A   1      32.810  21.231  24.836  1.00  0.00     0.002 C 
ATOM     12  C   UNL A   1      33.952  21.048  25.851  1.00  0.00     0.013 C 
BRANCH   8  13
ATOM     13  C   UNL A   1      30.580  23.744  26.791  1.00  0.00     0.228 C 
ATOM     14  N   UNL A   1      30.374  25.059  26.502  1.00  0.00    -0.310 N 
ATOM     15  H   UNL A   1      29.532  25.398  26.883  1.00  0.00     0.171 HD
ATOM     16  O   UNL A   1      29.749  23.173  27.504  1.00  0.00    -0.274 OA
BRANCH  14  17
ATOM     17  C   UNL A   1      31.070  26.038  25.795  1.00  0.00     0.132 A 
ATOM     18  C   UNL A   1      31.412  26.490  22.167  1.00  0.00     0.068 C 
ATOM     19  C   UNL A   1      31.637  26.715  23.632  1.00  0.00     0.054 A 
ATOM     20  N   UNL A   1      30.879  25.947  24.464  1.00  0.00    -0.235 NA
ATOM     21  C   UNL A   1      32.595  27.602  24.114  1.00  0.00     0.039 A 
ATOM     22  C   UNL A   1      32.704  27.764  25.488  1.00  0.00     0.021 A 
ATOM     23  Br  UNL A   1      33.766  28.579  22.995  1.00  0.00    -0.049 Br
ATOM     24  C   UNL A   1      31.913  26.992  26.338  1.00  0.00     0.048 A 
ENDBRANCH  14  17
ENDBRANCH   8  13
ENDBRANCH   4   7
ENDBRANCH   2   3
ENDBRANCH   1   2
BRANCH   1  25
ATOM     25  C   UNL A   1      38.129  20.106  25.003  1.00  0.00     0.023 C 
BRANCH  25  26
ATOM     26  C   UNL A   1      39.254  20.280  26.016  1.00  0.00     0.116 C 
BRANCH  26  27
ATOM     27  N   UNL A   1      40.249  19.215  25.970  1.00  0.00    -0.352 N 
ATOM     28  C   UNL A   1      41.608  19.327  26.131  1.00  0.00     0.251 C 
ATOM     29  H   UNL A   1      39.906  18.307  25.803  1.00  0.00     0.163 HD
ATOM     30  O   UNL A   1      42.356  18.366  26.004  1.00  0.00    -0.269 OA
BRANCH  28  31
ATOM     31  C   UNL A   1      42.149  20.660  26.429  1.00  0.00     0.039 A 
ATOM     32  C   UNL A   1      42.356  21.553  25.376  1.00  0.00     0.014 A 
ATOM     33  C   UNL A   1      42.321  21.051  27.760  1.00  0.00     0.014 A 
ATOM     34  C   UNL A   1      42.684  22.874  25.663  1.00  0.00     0.010 A 
ATOM     35  C   UNL A   1      42.593  22.382  28.045  1.00  0.00     0.010 A 
ATOM     36  C   UNL A   1      42.778  23.300  26.999  1.00  0.00    -0.014 A 
BRANCH  36  37
ATOM     37  C   UNL A   1      43.120  24.703  27.319  1.00  0.00     0.031 A 
ATOM     38  C   UNL A   1      44.518  25.186  27.073  1.00  0.00     0.074 A 
ATOM     39  C   UNL A   1      42.194  25.518  27.855  1.00  0.00     0.049 A 
ATOM     40  N   UNL A   1      45.035  26.365  27.297  1.00  0.00    -0.248 NA
ATOM     41  C   UNL A   1      45.466  24.205  26.518  1.00  0.00     0.031 C 
ATOM     42  C   UNL A   1      40.814  25.141  28.170  1.00  0.00     0.029 A 
ATOM     43  N   UNL A   1      42.275  26.834  28.233  1.00  0.00    -0.354 N 
ATOM     44  C   UNL A   1      46.363  26.267  26.909  1.00  0.00     0.074 A 
ATOM     45  C   UNL A   1      46.592  24.901  26.496  1.00  0.00     0.031 C 
ATOM     46  C   UNL A   1      40.173  26.211  28.669  1.00  0.00     0.029 A 
ATOM     47  C   UNL A   1      41.099  27.338  28.730  1.00  0.00     0.049 A 
ATOM     48  H   UNL A   1      43.100  27.366  28.154  1.00  0.00     0.167 HD
ATOM     49  C   UNL A   1      47.298  27.244  26.865  1.00  0.00     0.037 A 
ATOM     50  C   UNL A   1      40.808  28.574  29.178  1.00  0.00     0.037 A 
ATOM     51  C   UNL A   1      47.058  28.606  27.249  1.00  0.00     0.049 A 
ATOM     52  C   UNL A   1      41.879  29.632  29.158  1.00  0.00     0.074 A 
ATOM     53  C   UNL A   1      47.918  29.685  27.179  1.00  0.00     0.029 A 
ATOM     54  N   UNL A   1      45.864  29.073  27.776  1.00  0.00    -0.354 N 
ATOM     55  N   UNL A   1      43.113  29.549  28.724  1.00  0.00    -0.248 NA
ATOM     56  C   UNL A   1      41.518  30.953  29.692  1.00  0.00     0.031 C 
ATOM     57  C   UNL A   1      47.255  30.802  27.697  1.00  0.00     0.029 A 
ATOM     58  C   UNL A   1      45.972  30.423  28.062  1.00  0.00     0.049 A 
ATOM     59  H   UNL A   1      45.058  28.525  27.925  1.00  0.00     0.167 HD
ATOM     60  C   UNL A   1      43.672  30.804  28.916  1.00  0.00     0.074 A 
ATOM     61  C   UNL A   1      42.638  31.637  29.496  1.00  0.00     0.031 C 
ATOM     62  C   UNL A   1      44.929  31.228  28.640  1.00  0.00     0.037 A 
BRANCH  49  63
ATOM     63  C   UNL A   1      48.657  26.869  26.359  1.00  0.00     0.064 A 
ATOM     64  C   UNL A   1      49.646  26.382  27.227  1.00  0.00     0.173 A 
ATOM     65  C   UNL A   1      48.967  26.976  24.996  1.00  0.00     0.173 A 
ATOM     66  F   UNL A   1      49.400  26.281  28.541  1.00  0.00    -0.203 F 
ATOM     67  C   UNL A   1      50.906  26.035  26.750  1.00  0.00     0.198 A 
ATOM     68  C   UNL A   1      50.222  26.606  24.520  1.00  0.00     0.198 A 
ATOM     69  F   UNL A   1      48.055  27.438  24.128  1.00  0.00    -0.203 F 
ATOM     70  F   UNL A   1      51.849  25.613  27.603  1.00  0.00    -0.200 F 
ATOM     71  C   UNL A   1      51.192  26.141  25.398  1.00  0.00     0.200 A 
ATOM     72  F   UNL A   1      50.497  26.703  23.211  1.00  0.00    -0.200 F 
ATOM     73  F   UNL A   1      52.405  25.803  24.940  1.00  0.00    -0.200 F 
ENDBRANCH  49  63
BRANCH  50  74
ATOM     74  C   UNL A   1      39.436  28.890  29.648  1.00  0.00     0.064 A 
ATOM     75  C   UNL A   1      39.066  28.657  30.979  1.00  0.00     0.173 A 
ATOM     76  C   UNL A   1      38.472  29.431  28.786  1.00  0.00     0.173 A 
ATOM     77  F   UNL A   1      39.950  28.122  31.834  1.00  0.00    -0.203 F 
ATOM     78  C   UNL A   1      37.780  28.946  31.429  1.00  0.00     0.198 A 
ATOM     79  C   UNL A   1      37.191  29.737  29.241  1.00  0.00     0.198 A 
ATOM     80  F   UNL A   1      38.778  29.672  27.502  1.00  0.00    -0.203 F 
ATOM     81  F   UNL A   1      37.443  28.687  32.701  1.00  0.00    -0.200 F 
ATOM     82  C   UNL A   1      36.845  29.490  30.561  1.00  0.00     0.200 A 
ATOM     83  F   UNL A   1      36.293  30.270  28.403  1.00  0.00    -0.200 F 
ATOM     84  F   UNL A   1      35.608  29.771  30.996  1.00  0.00    -0.200 F 
ENDBRANCH  50  74
BRANCH  62  85
ATOM     85  C   UNL A   1      45.266  32.651  28.962  1.00  0.00     0.064 A 
ATOM     86  C   UNL A   1      45.901  32.990  30.164  1.00  0.00     0.173 A 
ATOM     87  C   UNL A   1      45.041  33.668  28.022  1.00  0.00     0.173 A 
ATOM     88  F   UNL A   1      46.124  32.052  31.097  1.00  0.00    -0.203 F 
ATOM     89  C   UNL A   1      46.301  34.299  30.415  1.00  0.00     0.198 A 
ATOM     90  C   UNL A   1      45.461  34.971  28.267  1.00  0.00     0.198 A 
ATOM     91  F   UNL A   1      44.442  33.388  26.855  1.00  0.00    -0.203 F 
ATOM     92  F   UNL A   1      46.892  34.606  31.577  1.00  0.00    -0.200 F 
ATOM     93  C   UNL A   1      46.091  35.285  29.462  1.00  0.00     0.200 A 
ATOM     94  F   UNL A   1      45.270  35.921  27.340  1.00  0.00    -0.200 F 
ATOM     95  F   UNL A   1      46.497  36.542  29.697  1.00  0.00    -0.200 F 
ENDBRANCH  62  85
ENDBRANCH  36  37
ENDBRANCH  28  31
ENDBRANCH  26  27
ENDBRANCH  25  26
ENDBRANCH   1  25
TORSDOF 13
ENDMDL
MODEL 3
REMARK VINA RESULT:     -12.9      5.715     11.198
REMARK SMILES Cc1nc(NC(=O)[C@@H]2CCC[C@@H](C(=O)NCCCCNC(=O)c3ccc(-c4c5nc(c(-c6c(F)c(F)c(F)c(F)c6F)c6ccc([nH]6)c(-c6c(F)c(F)c(F)c(F)c6F)c6nc(c(-c7c(F)c(F)c(F)c(F)c7F)c7ccc4[nH]7)C=C6)C=C5)cc3)C2)ccc1Br
REMARK SMILES IDX 17 1 16 2 15 3 13 4 14 5 12 7 8 8 9 9 86 10 10 11 11 12 6 13
REMARK SMILES IDX 5 14 7 16 4 17 1 18 2 19 3 20 89 21 88 22 90 23 87 24 18 25
REMARK SMILES IDX 19 26 20 27 21 28 22 30 23 31 24 32 85 33 25 34 84 35 26 36
REMARK SMILES IDX 27 37 28 38 78 39 29 40 83 41 77 42 79 43 30 44 82 45 76 46
REMARK SMILES IDX 75 47 31 49 63 50 43 51 62 52 44 53 47 54 61 55 80 56 45 57
REMARK SMILES IDX 46 58 60 60 81 61 48 62 32 63 33 64 41 65 34 66 35 67 39 68
REMARK SMILES IDX 42 69 36 70 37 71 40 72 38 73 64 74 65 75 73 76 66 77 67 78
REMARK SMILES IDX 71 79 74 80 68 81 69 82 72 83 70 84 49 85 50 86 58 87 51 88
REMARK SMILES IDX 52 89 56 90 59 91 53 92 54 93 57 94 55 95
REMARK H PARENT 15 6 5 15 20 29 79 48 47 59
REMARK Flexibility Score: inf
ROOT
ATOM      1  C   UNL A   1      32.048  30.368  26.883  1.00  0.00     0.023 C 
ENDROOT
BRANCH   1   2
ATOM      2  C   UNL A   1      33.486  29.985  26.566  1.00  0.00     0.116 C 
BRANCH   2   3
ATOM      3  N   UNL A   1      33.622  28.598  26.166  1.00  0.00    -0.356 N 
ATOM      4  C   UNL A   1      33.597  27.945  24.977  1.00  0.00     0.223 C 
ATOM      5  O   UNL A   1      33.904  26.748  25.041  1.00  0.00    -0.275 OA
ATOM      6  H   UNL A   1      33.764  27.994  26.930  1.00  0.00     0.163 HD
BRANCH   4   7
ATOM      7  C   UNL A   1      33.150  28.561  23.631  1.00  0.00     0.079 C 
ATOM      8  C   UNL A   1      32.495  26.445  22.476  1.00  0.00     0.079 C 
ATOM      9  C   UNL A   1      31.026  26.872  22.390  1.00  0.00     0.013 C 
ATOM     10  C   UNL A   1      33.318  27.740  22.350  1.00  0.00     0.027 C 
ATOM     11  C   UNL A   1      30.690  27.773  23.583  1.00  0.00     0.002 C 
ATOM     12  C   UNL A   1      31.652  28.967  23.715  1.00  0.00     0.013 C 
BRANCH   8  13
ATOM     13  C   UNL A   1      32.908  25.356  21.499  1.00  0.00     0.228 C 
ATOM     14  N   UNL A   1      33.327  24.133  21.927  1.00  0.00    -0.310 N 
ATOM     15  H   UNL A   1      33.548  23.531  21.181  1.00  0.00     0.171 HD
ATOM     16  O   UNL A   1      32.903  25.571  20.282  1.00  0.00    -0.274 OA
BRANCH  14  17
ATOM     17  C   UNL A   1      33.515  23.530  23.170  1.00  0.00     0.132 A 
ATOM     18  C   UNL A   1      31.028  22.585  25.701  1.00  0.00     0.068 C 
ATOM     19  C   UNL A   1      32.372  22.814  25.078  1.00  0.00     0.054 A 
ATOM     20  N   UNL A   1      32.351  23.234  23.782  1.00  0.00    -0.235 NA
ATOM     21  C   UNL A   1      33.560  22.668  25.788  1.00  0.00     0.039 A 
ATOM     22  C   UNL A   1      34.755  22.871  25.112  1.00  0.00     0.021 A 
ATOM     23  Br  UNL A   1      33.628  22.227  27.626  1.00  0.00    -0.049 Br
ATOM     24  C   UNL A   1      34.733  23.281  23.779  1.00  0.00     0.048 A 
ENDBRANCH  14  17
ENDBRANCH   8  13
ENDBRANCH   4   7
ENDBRANCH   2   3
ENDBRANCH   1   2
BRANCH   1  25
ATOM     25  C   UNL A   1      31.779  31.869  26.838  1.00  0.00     0.023 C 
BRANCH  25  26
ATOM     26  C   UNL A   1      32.914  32.745  27.356  1.00  0.00     0.116 C 
BRANCH  26  27
ATOM     27  N   UNL A   1      32.510  34.120  27.628  1.00  0.00    -0.352 N 
ATOM     28  C   UNL A   1      33.028  34.978  28.567  1.00  0.00     0.251 C 
ATOM     29  H   UNL A   1      31.778  34.475  27.074  1.00  0.00     0.163 HD
ATOM     30  O   UNL A   1      32.562  36.094  28.751  1.00  0.00    -0.269 OA
BRANCH  28  31
ATOM     31  C   UNL A   1      34.154  34.496  29.380  1.00  0.00     0.039 A 
ATOM     32  C   UNL A   1      33.883  33.862  30.594  1.00  0.00     0.014 A 
ATOM     33  C   UNL A   1      35.452  34.563  28.866  1.00  0.00     0.014 A 
ATOM     34  C   UNL A   1      34.922  33.235  31.277  1.00  0.00     0.010 A 
ATOM     35  C   UNL A   1      36.475  33.890  29.520  1.00  0.00     0.010 A 
ATOM     36  C   UNL A   1      36.216  33.224  30.729  1.00  0.00    -0.014 A 
BRANCH  36  37
ATOM     37  C   UNL A   1      37.328  32.557  31.441  1.00  0.00     0.031 A 
ATOM     38  C   UNL A   1      38.024  31.403  30.785  1.00  0.00     0.074 A 
ATOM     39  C   UNL A   1      37.681  32.965  32.673  1.00  0.00     0.049 A 
ATOM     40  N   UNL A   1      39.006  30.668  31.234  1.00  0.00    -0.248 NA
ATOM     41  C   UNL A   1      37.537  31.012  29.451  1.00  0.00     0.031 C 
ATOM     42  C   UNL A   1      37.048  34.053  33.420  1.00  0.00     0.029 A 
ATOM     43  N   UNL A   1      38.661  32.508  33.516  1.00  0.00    -0.354 N 
ATOM     44  C   UNL A   1      39.254  29.732  30.241  1.00  0.00     0.074 A 
ATOM     45  C   UNL A   1      38.282  29.949  29.193  1.00  0.00     0.031 C 
ATOM     46  C   UNL A   1      37.673  34.195  34.600  1.00  0.00     0.029 A 
ATOM     47  C   UNL A   1      38.733  33.196  34.702  1.00  0.00     0.049 A 
ATOM     48  H   UNL A   1      39.256  31.756  33.292  1.00  0.00     0.167 HD
ATOM     49  C   UNL A   1      40.233  28.800  30.192  1.00  0.00     0.037 A 
ATOM     50  C   UNL A   1      39.568  33.037  35.747  1.00  0.00     0.037 A 
ATOM     51  C   UNL A   1      41.214  28.608  31.222  1.00  0.00     0.049 A 
ATOM     52  C   UNL A   1      40.622  31.963  35.684  1.00  0.00     0.074 A 
ATOM     53  C   UNL A   1      42.287  27.738  31.239  1.00  0.00     0.029 A 
ATOM     54  N   UNL A   1      41.238  29.304  32.422  1.00  0.00    -0.354 N 
ATOM     55  N   UNL A   1      40.894  31.129  34.711  1.00  0.00    -0.248 NA
ATOM     56  C   UNL A   1      41.482  31.808  36.866  1.00  0.00     0.031 C 
ATOM     57  C   UNL A   1      42.942  27.882  32.467  1.00  0.00     0.029 A 
ATOM     58  C   UNL A   1      42.293  28.863  33.200  1.00  0.00     0.049 A 
ATOM     59  H   UNL A   1      40.598  30.007  32.680  1.00  0.00     0.167 HD
ATOM     60  C   UNL A   1      41.962  30.361  35.152  1.00  0.00     0.074 A 
ATOM     61  C   UNL A   1      42.299  30.837  36.478  1.00  0.00     0.031 C 
ATOM     62  C   UNL A   1      42.606  29.352  34.518  1.00  0.00     0.037 A 
BRANCH  49  63
ATOM     63  C   UNL A   1      40.299  27.939  28.969  1.00  0.00     0.064 A 
ATOM     64  C   UNL A   1      39.608  26.719  28.902  1.00  0.00     0.173 A 
ATOM     65  C   UNL A   1      41.038  28.342  27.849  1.00  0.00     0.173 A 
ATOM     66  F   UNL A   1      38.903  26.285  29.956  1.00  0.00    -0.203 F 
ATOM     67  C   UNL A   1      39.673  25.924  27.762  1.00  0.00     0.198 A 
ATOM     68  C   UNL A   1      41.082  27.554  26.702  1.00  0.00     0.198 A 
ATOM     69  F   UNL A   1      41.717  29.499  27.865  1.00  0.00    -0.203 F 
ATOM     70  F   UNL A   1      39.039  24.743  27.735  1.00  0.00    -0.200 F 
ATOM     71  C   UNL A   1      40.403  26.344  26.661  1.00  0.00     0.200 A 
ATOM     72  F   UNL A   1      41.783  27.963  25.635  1.00  0.00    -0.200 F 
ATOM     73  F   UNL A   1      40.461  25.578  25.563  1.00  0.00    -0.200 F 
ENDBRANCH  49  63
BRANCH  50  74
ATOM     74  C   UNL A   1      39.466  33.936  36.922  1.00  0.00     0.064 A 
ATOM     75  C   UNL A   1      40.111  35.181  36.927  1.00  0.00     0.173 A 
ATOM     76  C   UNL A   1      38.724  33.579  38.056  1.00  0.00     0.173 A 
ATOM     77  F   UNL A   1      40.849  35.555  35.872  1.00  0.00    -0.203 F 
ATOM     78  C   UNL A   1      40.025  36.031  38.028  1.00  0.00     0.198 A 
ATOM     79  C   UNL A   1      38.623  34.438  39.149  1.00  0.00     0.198 A 
ATOM     80  F   UNL A   1      38.088  32.399  38.099  1.00  0.00    -0.203 F 
ATOM     81  F   UNL A   1      40.676  37.203  38.019  1.00  0.00    -0.200 F 
ATOM     82  C   UNL A   1      39.277  35.661  39.136  1.00  0.00     0.200 A 
ATOM     83  F   UNL A   1      37.893  34.082  40.215  1.00  0.00    -0.200 F 
ATOM     84  F   UNL A   1      39.192  36.481  40.193  1.00  0.00    -0.200 F 
ENDBRANCH  50  74
BRANCH  62  85
ATOM     85  C   UNL A   1      43.734  28.685  35.242  1.00  0.00     0.064 A 
ATOM     86  C   UNL A   1      43.515  27.551  36.035  1.00  0.00     0.173 A 
ATOM     87  C   UNL A   1      45.054  29.125  35.064  1.00  0.00     0.173 A 
ATOM     88  F   UNL A   1      42.267  27.105  36.244  1.00  0.00    -0.203 F 
ATOM     89  C   UNL A   1      44.580  26.878  36.626  1.00  0.00     0.198 A 
ATOM     90  C   UNL A   1      46.118  28.436  35.638  1.00  0.00     0.198 A 
ATOM     91  F   UNL A   1      45.312  30.202  34.307  1.00  0.00    -0.203 F 
ATOM     92  F   UNL A   1      44.348  25.805  37.395  1.00  0.00    -0.200 F 
ATOM     93  C   UNL A   1      45.880  27.314  36.418  1.00  0.00     0.200 A 
ATOM     94  F   UNL A   1      47.375  28.850  35.425  1.00  0.00    -0.200 F 
ATOM     95  F   UNL A   1      46.906  26.651  36.970  1.00  0.00    -0.200 F 
ENDBRANCH  62  85
ENDBRANCH  36  37
ENDBRANCH  28  31
ENDBRANCH  26  27
ENDBRANCH  25  26
ENDBRANCH   1  25
TORSDOF 13
ENDMDL
