MODEL 1
REMARK VINA RESULT:     -12.4      0.000      0.000
REMARK SMILES CC[NH2+][C@@H](CC(=O)Nc1ccc(C)c(C)c1)C(=O)NCCCCNC(=O)c1ccc(-c2c3nc(c(-c4c(F)c(F)c(F)c(F)c4F)c4ccc([nH]4)c(-c4c(F)c(F)c(F)c(F)c4F)c4nc(c(-c5c(F)c(F)c(F)c(F)c5F)c5ccc2[nH]5)C=C4)C=C3)cc1
REMARK SMILES IDX 21 1 20 2 19 3 17 4 18 5 4 7 3 8 2 11 1 12 5 13 6 14 7 15
REMARK SMILES IDX 8 16 9 18 10 19 16 20 11 21 14 22 12 23 15 24 13 25 22 26
REMARK SMILES IDX 23 27 24 28 25 29 26 31 27 32 28 33 89 34 29 35 88 36 30 37
REMARK SMILES IDX 31 38 32 39 82 40 33 41 87 42 81 43 83 44 34 45 86 46 80 47
REMARK SMILES IDX 79 48 35 50 67 51 47 52 66 53 48 54 51 55 65 56 84 57 49 58
REMARK SMILES IDX 50 59 64 61 85 62 52 63 36 64 37 65 45 66 38 67 39 68 43 69
REMARK SMILES IDX 46 70 40 71 41 72 44 73 42 74 68 75 69 76 77 77 70 78 71 79
REMARK SMILES IDX 75 80 78 81 72 82 73 83 76 84 74 85 53 86 54 87 62 88 55 89
REMARK SMILES IDX 56 90 60 91 63 92 57 93 58 94 61 95 59 96
REMARK H PARENT 19 6 3 9 3 10 8 17 24 30 83 49 51 60
REMARK Flexibility Score: inf
ROOT
ATOM      1  C   UNL A   1      32.235  30.318  26.684  1.00  0.00     0.023 C 
ENDROOT
BRANCH   1   2
ATOM      2  C   UNL A   1      31.893  29.707  25.330  1.00  0.00     0.116 C 
BRANCH   2   3
ATOM      3  N   UNL A   1      33.025  29.557  24.455  1.00  0.00    -0.351 N 
ATOM      4  C   UNL A   1      33.243  28.741  23.388  1.00  0.00     0.278 C 
ATOM      5  O   UNL A   1      34.302  28.956  22.782  1.00  0.00    -0.268 OA
ATOM      6  H   UNL A   1      33.780  30.153  24.665  1.00  0.00     0.163 HD
BRANCH   4   7
ATOM      7  C   UNL A   1      32.315  27.561  22.939  1.00  0.00     0.281 C 
BRANCH   7   8
ATOM      8  N   UNL A   1      31.258  28.052  22.047  1.00  0.00    -0.336 N 
ATOM      9  H   UNL A   1      31.605  28.899  21.598  1.00  0.00     0.346 HD
ATOM     10  H   UNL A   1      31.066  27.271  21.419  1.00  0.00     0.346 HD
BRANCH   8  11
ATOM     11  C   UNL A   1      29.973  28.370  22.640  1.00  0.00     0.257 C 
ATOM     12  C   UNL A   1      29.479  27.238  23.533  1.00  0.00     0.071 C 
ENDBRANCH   8  11
ENDBRANCH   7   8
BRANCH   7  13
ATOM     13  C   UNL A   1      32.899  26.156  22.777  1.00  0.00     0.175 C 
BRANCH  13  14
ATOM     14  C   UNL A   1      32.951  25.183  21.601  1.00  0.00     0.230 C 
ATOM     15  O   UNL A   1      32.860  25.691  20.467  1.00  0.00    -0.274 OA
ATOM     16  N   UNL A   1      33.222  23.861  21.580  1.00  0.00    -0.326 N 
ATOM     17  H   UNL A   1      33.538  23.577  20.691  1.00  0.00     0.169 HD
BRANCH  16  18
ATOM     18  C   UNL A   1      33.180  22.781  22.466  1.00  0.00     0.041 A 
ATOM     19  C   UNL A   1      32.274  21.738  22.415  1.00  0.00     0.026 A 
ATOM     20  C   UNL A   1      34.205  22.708  23.413  1.00  0.00     0.029 A 
ATOM     21  C   UNL A   1      32.252  20.757  23.413  1.00  0.00     0.006 A 
ATOM     22  C   UNL A   1      34.206  21.734  24.429  1.00  0.00    -0.046 A 
ATOM     23  C   UNL A   1      33.172  20.786  24.467  1.00  0.00    -0.048 A 
ATOM     24  C   UNL A   1      35.344  21.747  25.412  1.00  0.00     0.044 C 
ATOM     25  C   UNL A   1      32.998  19.831  25.614  1.00  0.00     0.044 C 
ENDBRANCH  16  18
ENDBRANCH  13  14
ENDBRANCH   7  13
ENDBRANCH   4   7
ENDBRANCH   2   3
ENDBRANCH   1   2
BRANCH   1  26
ATOM     26  C   UNL A   1      31.831  31.776  26.840  1.00  0.00     0.023 C 
BRANCH  26  27
ATOM     27  C   UNL A   1      32.901  32.693  27.424  1.00  0.00     0.116 C 
BRANCH  27  28
ATOM     28  N   UNL A   1      32.453  34.053  27.691  1.00  0.00    -0.352 N 
ATOM     29  C   UNL A   1      32.971  34.976  28.576  1.00  0.00     0.251 C 
ATOM     30  H   UNL A   1      31.676  34.355  27.167  1.00  0.00     0.163 HD
ATOM     31  O   UNL A   1      32.434  36.061  28.733  1.00  0.00    -0.269 OA
BRANCH  29  32
ATOM     32  C   UNL A   1      34.156  34.609  29.385  1.00  0.00     0.039 A 
ATOM     33  C   UNL A   1      33.963  34.154  30.691  1.00  0.00     0.014 A 
ATOM     34  C   UNL A   1      35.436  34.631  28.829  1.00  0.00     0.014 A 
ATOM     35  C   UNL A   1      35.041  33.619  31.398  1.00  0.00     0.010 A 
ATOM     36  C   UNL A   1      36.486  34.009  29.496  1.00  0.00     0.010 A 
ATOM     37  C   UNL A   1      36.297  33.484  30.783  1.00  0.00    -0.014 A 
BRANCH  37  38
ATOM     38  C   UNL A   1      37.412  32.773  31.461  1.00  0.00     0.031 A 
ATOM     39  C   UNL A   1      38.087  31.605  30.795  1.00  0.00     0.074 A 
ATOM     40  C   UNL A   1      37.773  33.137  32.708  1.00  0.00     0.049 A 
ATOM     41  N   UNL A   1      39.039  30.831  31.249  1.00  0.00    -0.248 NA
ATOM     42  C   UNL A   1      37.605  31.237  29.454  1.00  0.00     0.031 C 
ATOM     43  C   UNL A   1      37.149  34.204  33.496  1.00  0.00     0.029 A 
ATOM     44  N   UNL A   1      38.751  32.646  33.538  1.00  0.00    -0.354 N 
ATOM     45  C   UNL A   1      39.261  29.885  30.258  1.00  0.00     0.074 A 
ATOM     46  C   UNL A   1      38.303  30.140  29.205  1.00  0.00     0.031 C 
ATOM     47  C   UNL A   1      37.777  34.306  34.678  1.00  0.00     0.029 A 
ATOM     48  C   UNL A   1      38.826  33.294  34.748  1.00  0.00     0.049 A 
ATOM     49  H   UNL A   1      39.342  31.899  33.291  1.00  0.00     0.167 HD
ATOM     50  C   UNL A   1      40.202  28.911  30.213  1.00  0.00     0.037 A 
ATOM     51  C   UNL A   1      39.648  33.094  35.796  1.00  0.00     0.037 A 
ATOM     52  C   UNL A   1      41.175  28.675  31.246  1.00  0.00     0.049 A 
ATOM     53  C   UNL A   1      40.697  32.019  35.709  1.00  0.00     0.074 A 
ATOM     54  C   UNL A   1      42.203  27.748  31.268  1.00  0.00     0.029 A 
ATOM     55  N   UNL A   1      41.243  29.377  32.440  1.00  0.00    -0.354 N 
ATOM     56  N   UNL A   1      40.946  31.181  34.732  1.00  0.00    -0.248 NA
ATOM     57  C   UNL A   1      41.589  31.870  36.868  1.00  0.00     0.031 C 
ATOM     58  C   UNL A   1      42.872  27.867  32.490  1.00  0.00     0.029 A 
ATOM     59  C   UNL A   1      42.289  28.896  33.211  1.00  0.00     0.049 A 
ATOM     60  H   UNL A   1      40.639  30.109  32.701  1.00  0.00     0.167 HD
ATOM     61  C   UNL A   1      42.032  30.423  35.146  1.00  0.00     0.074 A 
ATOM     62  C   UNL A   1      42.413  30.919  36.453  1.00  0.00     0.031 C 
ATOM     63  C   UNL A   1      42.656  29.405  34.507  1.00  0.00     0.037 A 
BRANCH  50  64
ATOM     64  C   UNL A   1      40.240  28.040  28.992  1.00  0.00     0.064 A 
ATOM     65  C   UNL A   1      40.992  28.399  27.863  1.00  0.00     0.173 A 
ATOM     66  C   UNL A   1      39.562  26.812  28.966  1.00  0.00     0.173 A 
ATOM     67  F   UNL A   1      41.647  29.569  27.832  1.00  0.00    -0.203 F 
ATOM     68  C   UNL A   1      41.046  27.571  26.745  1.00  0.00     0.198 A 
ATOM     69  C   UNL A   1      39.642  25.974  27.857  1.00  0.00     0.198 A 
ATOM     70  F   UNL A   1      38.832  26.420  30.020  1.00  0.00    -0.203 F 
ATOM     71  F   UNL A   1      41.738  27.955  25.663  1.00  0.00    -0.200 F 
ATOM     72  C   UNL A   1      40.379  26.356  26.746  1.00  0.00     0.200 A 
ATOM     73  F   UNL A   1      39.007  24.794  27.863  1.00  0.00    -0.200 F 
ATOM     74  F   UNL A   1      40.443  25.555  25.674  1.00  0.00    -0.200 F 
ENDBRANCH  50  64
BRANCH  51  75
ATOM     75  C   UNL A   1      39.537  33.946  37.010  1.00  0.00     0.064 A 
ATOM     76  C   UNL A   1      38.784  33.526  38.117  1.00  0.00     0.173 A 
ATOM     77  C   UNL A   1      40.151  35.205  37.078  1.00  0.00     0.173 A 
ATOM     78  F   UNL A   1      38.161  32.340  38.091  1.00  0.00    -0.203 F 
ATOM     79  C   UNL A   1      38.626  34.346  39.233  1.00  0.00     0.198 A 
ATOM     80  C   UNL A   1      40.015  36.012  38.206  1.00  0.00     0.198 A 
ATOM     81  F   UNL A   1      40.885  35.651  36.048  1.00  0.00    -0.203 F 
ATOM     82  F   UNL A   1      37.855  33.944  40.252  1.00  0.00    -0.200 F 
ATOM     83  C   UNL A   1      39.244  35.586  39.277  1.00  0.00     0.200 A 
ATOM     84  F   UNL A   1      40.625  37.203  38.252  1.00  0.00    -0.200 F 
ATOM     85  F   UNL A   1      39.088  36.377  40.348  1.00  0.00    -0.200 F 
ENDBRANCH  51  75
BRANCH  63  86
ATOM     86  C   UNL A   1      43.831  28.780  35.201  1.00  0.00     0.064 A 
ATOM     87  C   UNL A   1      43.678  27.676  36.053  1.00  0.00     0.173 A 
ATOM     88  C   UNL A   1      45.126  29.278  34.996  1.00  0.00     0.173 A 
ATOM     89  F   UNL A   1      42.458  27.172  36.292  1.00  0.00    -0.203 F 
ATOM     90  C   UNL A   1      44.775  27.116  36.701  1.00  0.00     0.198 A 
ATOM     91  C   UNL A   1      46.224  28.697  35.622  1.00  0.00     0.198 A 
ATOM     92  F   UNL A   1      45.327  30.328  34.185  1.00  0.00    -0.203 F 
ATOM     93  F   UNL A   1      44.599  26.097  37.553  1.00  0.00    -0.200 F 
ATOM     94  C   UNL A   1      46.047  27.622  36.481  1.00  0.00     0.200 A 
ATOM     95  F   UNL A   1      47.454  29.178  35.399  1.00  0.00    -0.200 F 
ATOM     96  F   UNL A   1      47.103  27.081  37.105  1.00  0.00    -0.200 F 
ENDBRANCH  63  86
ENDBRANCH  37  38
ENDBRANCH  29  32
ENDBRANCH  27  28
ENDBRANCH  26  27
ENDBRANCH   1  26
TORSDOF 16
ENDMDL
MODEL 2
REMARK VINA RESULT:     -12.4      0.856      7.584
REMARK SMILES CC[NH2+][C@@H](CC(=O)Nc1ccc(C)c(C)c1)C(=O)NCCCCNC(=O)c1ccc(-c2c3nc(c(-c4c(F)c(F)c(F)c(F)c4F)c4ccc([nH]4)c(-c4c(F)c(F)c(F)c(F)c4F)c4nc(c(-c5c(F)c(F)c(F)c(F)c5F)c5ccc2[nH]5)C=C4)C=C3)cc1
REMARK SMILES IDX 21 1 20 2 19 3 17 4 18 5 4 7 3 8 2 11 1 12 5 13 6 14 7 15
REMARK SMILES IDX 8 16 9 18 10 19 16 20 11 21 14 22 12 23 15 24 13 25 22 26
REMARK SMILES IDX 23 27 24 28 25 29 26 31 27 32 28 33 89 34 29 35 88 36 30 37
REMARK SMILES IDX 31 38 32 39 82 40 33 41 87 42 81 43 83 44 34 45 86 46 80 47
REMARK SMILES IDX 79 48 35 50 67 51 47 52 66 53 48 54 51 55 65 56 84 57 49 58
REMARK SMILES IDX 50 59 64 61 85 62 52 63 36 64 37 65 45 66 38 67 39 68 43 69
REMARK SMILES IDX 46 70 40 71 41 72 44 73 42 74 68 75 69 76 77 77 70 78 71 79
REMARK SMILES IDX 75 80 78 81 72 82 73 83 76 84 74 85 53 86 54 87 62 88 55 89
REMARK SMILES IDX 56 90 60 91 63 92 57 93 58 94 61 95 59 96
REMARK H PARENT 19 6 3 9 3 10 8 17 24 30 83 49 51 60
REMARK Flexibility Score: inf
ROOT
ATOM      1  C   UNL A   1      32.234  30.451  26.923  1.00  0.00     0.023 C 
ENDROOT
BRANCH   1   2
ATOM      2  C   UNL A   1      31.711  29.713  25.697  1.00  0.00     0.116 C 
BRANCH   2   3
ATOM      3  N   UNL A   1      32.717  29.450  24.702  1.00  0.00    -0.351 N 
ATOM      4  C   UNL A   1      32.623  29.095  23.391  1.00  0.00     0.278 C 
ATOM      5  O   UNL A   1      33.704  29.060  22.788  1.00  0.00    -0.268 OA
ATOM      6  H   UNL A   1      33.641  29.544  25.027  1.00  0.00     0.163 HD
BRANCH   4   7
ATOM      7  C   UNL A   1      31.305  28.685  22.651  1.00  0.00     0.281 C 
BRANCH   7   8
ATOM      8  N   UNL A   1      30.861  29.763  21.760  1.00  0.00    -0.336 N 
ATOM      9  H   UNL A   1      31.439  30.580  21.957  1.00  0.00     0.346 HD
ATOM     10  H   UNL A   1      30.955  29.376  20.819  1.00  0.00     0.346 HD
BRANCH   8  11
ATOM     11  C   UNL A   1      29.474  30.179  21.848  1.00  0.00     0.257 C 
ATOM     12  C   UNL A   1      29.117  30.621  23.262  1.00  0.00     0.071 C 
ENDBRANCH   8  11
ENDBRANCH   7   8
BRANCH   7  13
ATOM     13  C   UNL A   1      31.056  27.216  22.303  1.00  0.00     0.175 C 
BRANCH  13  14
ATOM     14  C   UNL A   1      31.862  26.185  21.514  1.00  0.00     0.230 C 
ATOM     15  O   UNL A   1      31.601  26.101  20.298  1.00  0.00    -0.274 OA
ATOM     16  N   UNL A   1      32.920  25.437  21.892  1.00  0.00    -0.326 N 
ATOM     17  H   UNL A   1      33.446  25.147  21.113  1.00  0.00     0.169 HD
BRANCH  16  18
ATOM     18  C   UNL A   1      33.477  24.957  23.081  1.00  0.00     0.041 A 
ATOM     19  C   UNL A   1      33.876  25.737  24.151  1.00  0.00     0.026 A 
ATOM     20  C   UNL A   1      33.534  23.569  23.229  1.00  0.00     0.029 A 
ATOM     21  C   UNL A   1      34.519  25.166  25.255  1.00  0.00     0.006 A 
ATOM     22  C   UNL A   1      34.176  22.968  24.329  1.00  0.00    -0.046 A 
ATOM     23  C   UNL A   1      34.738  23.785  25.321  1.00  0.00    -0.048 A 
ATOM     24  C   UNL A   1      34.200  21.466  24.391  1.00  0.00     0.044 C 
ATOM     25  C   UNL A   1      35.593  23.234  26.427  1.00  0.00     0.044 C 
ENDBRANCH  16  18
ENDBRANCH  13  14
ENDBRANCH   7  13
ENDBRANCH   4   7
ENDBRANCH   2   3
ENDBRANCH   1   2
BRANCH   1  26
ATOM     26  C   UNL A   1      31.839  31.918  26.996  1.00  0.00     0.023 C 
BRANCH  26  27
ATOM     27  C   UNL A   1      32.962  32.880  27.369  1.00  0.00     0.116 C 
BRANCH  27  28
ATOM     28  N   UNL A   1      32.518  34.219  27.733  1.00  0.00    -0.352 N 
ATOM     29  C   UNL A   1      33.035  35.074  28.684  1.00  0.00     0.251 C 
ATOM     30  H   UNL A   1      31.743  34.560  27.230  1.00  0.00     0.163 HD
ATOM     31  O   UNL A   1      32.501  36.147  28.917  1.00  0.00    -0.269 OA
BRANCH  29  32
ATOM     32  C   UNL A   1      34.217  34.646  29.467  1.00  0.00     0.039 A 
ATOM     33  C   UNL A   1      34.016  34.023  30.700  1.00  0.00     0.014 A 
ATOM     34  C   UNL A   1      35.506  34.781  28.948  1.00  0.00     0.014 A 
ATOM     35  C   UNL A   1      35.099  33.437  31.359  1.00  0.00     0.010 A 
ATOM     36  C   UNL A   1      36.564  34.114  29.555  1.00  0.00     0.010 A 
ATOM     37  C   UNL A   1      36.370  33.424  30.761  1.00  0.00    -0.014 A 
BRANCH  37  38
ATOM     38  C   UNL A   1      37.497  32.669  31.369  1.00  0.00     0.031 A 
ATOM     39  C   UNL A   1      38.011  33.037  32.734  1.00  0.00     0.074 A 
ATOM     40  C   UNL A   1      38.104  31.695  30.662  1.00  0.00     0.049 A 
ATOM     41  N   UNL A   1      39.013  32.530  33.405  1.00  0.00    -0.248 NA
ATOM     42  C   UNL A   1      37.327  34.143  33.425  1.00  0.00     0.031 C 
ATOM     43  C   UNL A   1      37.753  31.292  29.297  1.00  0.00     0.029 A 
ATOM     44  N   UNL A   1      39.151  30.868  30.989  1.00  0.00    -0.354 N 
ATOM     45  C   UNL A   1      39.085  33.258  34.585  1.00  0.00     0.074 A 
ATOM     46  C   UNL A   1      38.068  34.283  34.513  1.00  0.00     0.031 C 
ATOM     47  C   UNL A   1      38.547  30.278  28.918  1.00  0.00     0.029 A 
ATOM     48  C   UNL A   1      39.484  29.978  29.995  1.00  0.00     0.049 A 
ATOM     49  H   UNL A   1      39.619  30.909  31.853  1.00  0.00     0.167 HD
ATOM     50  C   UNL A   1      39.903  33.069  35.648  1.00  0.00     0.037 A 
ATOM     51  C   UNL A   1      40.439  29.029  29.958  1.00  0.00     0.037 A 
ATOM     52  C   UNL A   1      40.896  32.030  35.733  1.00  0.00     0.049 A 
ATOM     53  C   UNL A   1      41.318  28.828  31.162  1.00  0.00     0.074 A 
ATOM     54  C   UNL A   1      41.735  31.724  36.789  1.00  0.00     0.029 A 
ATOM     55  N   UNL A   1      41.177  31.125  34.721  1.00  0.00    -0.354 N 
ATOM     56  N   UNL A   1      41.323  29.475  32.302  1.00  0.00    -0.248 NA
ATOM     57  C   UNL A   1      42.319  27.754  31.078  1.00  0.00     0.031 C 
ATOM     58  C   UNL A   1      42.549  30.654  36.404  1.00  0.00     0.029 A 
ATOM     59  C   UNL A   1      42.187  30.266  35.124  1.00  0.00     0.049 A 
ATOM     60  H   UNL A   1      40.728  31.096  33.846  1.00  0.00     0.167 HD
ATOM     61  C   UNL A   1      42.307  28.875  33.077  1.00  0.00     0.074 A 
ATOM     62  C   UNL A   1      42.859  27.794  32.287  1.00  0.00     0.031 C 
ATOM     63  C   UNL A   1      42.721  29.193  34.327  1.00  0.00     0.037 A 
BRANCH  50  64
ATOM     64  C   UNL A   1      39.742  33.992  36.819  1.00  0.00     0.064 A 
ATOM     65  C   UNL A   1      38.922  33.654  37.907  1.00  0.00     0.173 A 
ATOM     66  C   UNL A   1      40.451  35.201  36.881  1.00  0.00     0.173 A 
ATOM     67  F   UNL A   1      38.213  32.516  37.890  1.00  0.00    -0.203 F 
ATOM     68  C   UNL A   1      38.801  34.503  39.004  1.00  0.00     0.198 A 
ATOM     69  C   UNL A   1      40.350  36.033  37.994  1.00  0.00     0.198 A 
ATOM     70  F   UNL A   1      41.251  35.569  35.870  1.00  0.00    -0.203 F 
ATOM     71  F   UNL A   1      37.981  34.178  40.012  1.00  0.00    -0.200 F 
ATOM     72  C   UNL A   1      39.521  35.687  39.050  1.00  0.00     0.200 A 
ATOM     73  F   UNL A   1      41.055  37.172  38.043  1.00  0.00    -0.200 F 
ATOM     74  F   UNL A   1      39.414  36.496  40.113  1.00  0.00    -0.200 F 
ENDBRANCH  50  64
BRANCH  51  75
ATOM     75  C   UNL A   1      40.599  28.174  28.752  1.00  0.00     0.064 A 
ATOM     76  C   UNL A   1      41.411  28.581  27.683  1.00  0.00     0.173 A 
ATOM     77  C   UNL A   1      39.923  26.952  28.629  1.00  0.00     0.173 A 
ATOM     78  F   UNL A   1      42.061  29.752  27.746  1.00  0.00    -0.203 F 
ATOM     79  C   UNL A   1      41.517  27.813  26.525  1.00  0.00     0.198 A 
ATOM     80  C   UNL A   1      40.053  26.171  27.481  1.00  0.00     0.198 A 
ATOM     81  F   UNL A   1      39.138  26.514  29.623  1.00  0.00    -0.203 F 
ATOM     82  F   UNL A   1      42.254  28.254  25.497  1.00  0.00    -0.200 F 
ATOM     83  C   UNL A   1      40.840  26.608  26.427  1.00  0.00     0.200 A 
ATOM     84  F   UNL A   1      39.409  25.000  27.396  1.00  0.00    -0.200 F 
ATOM     85  F   UNL A   1      40.938  25.871  25.312  1.00  0.00    -0.200 F 
ENDBRANCH  51  75
BRANCH  63  86
ATOM     86  C   UNL A   1      43.803  28.342  34.925  1.00  0.00     0.064 A 
ATOM     87  C   UNL A   1      45.158  28.682  34.797  1.00  0.00     0.173 A 
ATOM     88  C   UNL A   1      43.480  27.187  35.651  1.00  0.00     0.173 A 
ATOM     89  F   UNL A   1      45.518  29.770  34.099  1.00  0.00    -0.203 F 
ATOM     90  C   UNL A   1      46.152  27.876  35.345  1.00  0.00     0.198 A 
ATOM     91  C   UNL A   1      44.475  26.400  36.224  1.00  0.00     0.198 A 
ATOM     92  F   UNL A   1      42.199  26.822  35.809  1.00  0.00    -0.203 F 
ATOM     93  F   UNL A   1      47.442  28.190  35.163  1.00  0.00    -0.200 F 
ATOM     94  C   UNL A   1      45.810  26.740  36.063  1.00  0.00     0.200 A 
ATOM     95  F   UNL A   1      44.143  25.309  36.928  1.00  0.00    -0.200 F 
ATOM     96  F   UNL A   1      46.768  25.965  36.591  1.00  0.00    -0.200 F 
ENDBRANCH  63  86
ENDBRANCH  37  38
ENDBRANCH  29  32
ENDBRANCH  27  28
ENDBRANCH  26  27
ENDBRANCH   1  26
TORSDOF 16
ENDMDL
MODEL 3
REMARK VINA RESULT:     -12.3      5.650     10.141
REMARK SMILES CC[NH2+][C@@H](CC(=O)Nc1ccc(C)c(C)c1)C(=O)NCCCCNC(=O)c1ccc(-c2c3nc(c(-c4c(F)c(F)c(F)c(F)c4F)c4ccc([nH]4)c(-c4c(F)c(F)c(F)c(F)c4F)c4nc(c(-c5c(F)c(F)c(F)c(F)c5F)c5ccc2[nH]5)C=C4)C=C3)cc1
REMARK SMILES IDX 21 1 20 2 19 3 17 4 18 5 4 7 3 8 2 11 1 12 5 13 6 14 7 15
REMARK SMILES IDX 8 16 9 18 10 19 16 20 11 21 14 22 12 23 15 24 13 25 22 26
REMARK SMILES IDX 23 27 24 28 25 29 26 31 27 32 28 33 89 34 29 35 88 36 30 37
REMARK SMILES IDX 31 38 32 39 82 40 33 41 87 42 81 43 83 44 34 45 86 46 80 47
REMARK SMILES IDX 79 48 35 50 67 51 47 52 66 53 48 54 51 55 65 56 84 57 49 58
REMARK SMILES IDX 50 59 64 61 85 62 52 63 36 64 37 65 45 66 38 67 39 68 43 69
REMARK SMILES IDX 46 70 40 71 41 72 44 73 42 74 68 75 69 76 77 77 70 78 71 79
REMARK SMILES IDX 75 80 78 81 72 82 73 83 76 84 74 85 53 86 54 87 62 88 55 89
REMARK SMILES IDX 56 90 60 91 63 92 57 93 58 94 61 95 59 96
REMARK H PARENT 19 6 3 9 3 10 8 17 24 30 83 49 51 60
REMARK Flexibility Score: inf
ROOT
ATOM      1  C   UNL A   1      36.975  21.338  24.822  1.00  0.00     0.023 C 
ENDROOT
BRANCH   1   2
ATOM      2  C   UNL A   1      35.859  21.446  25.855  1.00  0.00     0.116 C 
BRANCH   2   3
ATOM      3  N   UNL A   1      34.782  20.514  25.649  1.00  0.00    -0.351 N 
ATOM      4  C   UNL A   1      33.470  20.701  25.335  1.00  0.00     0.278 C 
ATOM      5  O   UNL A   1      32.839  19.658  25.118  1.00  0.00    -0.268 OA
ATOM      6  H   UNL A   1      35.039  19.570  25.753  1.00  0.00     0.163 HD
BRANCH   4   7
ATOM      7  C   UNL A   1      32.731  22.082  25.299  1.00  0.00     0.281 C 
BRANCH   7   8
ATOM      8  N   UNL A   1      33.072  22.813  24.072  1.00  0.00    -0.336 N 
ATOM      9  H   UNL A   1      33.533  23.679  24.352  1.00  0.00     0.346 HD
ATOM     10  H   UNL A   1      33.648  22.164  23.535  1.00  0.00     0.346 HD
BRANCH   8  11
ATOM     11  C   UNL A   1      31.987  23.168  23.178  1.00  0.00     0.257 C 
ATOM     12  C   UNL A   1      32.255  24.496  22.480  1.00  0.00     0.071 C 
ENDBRANCH   8  11
ENDBRANCH   7   8
BRANCH   7  13
ATOM     13  C   UNL A   1      31.352  22.221  25.946  1.00  0.00     0.175 C 
BRANCH  13  14
ATOM     14  C   UNL A   1      30.705  23.323  26.785  1.00  0.00     0.230 C 
ATOM     15  O   UNL A   1      29.862  22.948  27.623  1.00  0.00    -0.274 OA
ATOM     16  N   UNL A   1      31.000  24.637  26.866  1.00  0.00    -0.326 N 
ATOM     17  H   UNL A   1      30.686  25.020  27.717  1.00  0.00     0.169 HD
BRANCH  16  18
ATOM     18  C   UNL A   1      31.626  25.609  26.080  1.00  0.00     0.041 A 
ATOM     19  C   UNL A   1      32.992  25.772  25.946  1.00  0.00     0.026 A 
ATOM     20  C   UNL A   1      30.793  26.406  25.291  1.00  0.00     0.029 A 
ATOM     21  C   UNL A   1      33.518  26.843  25.215  1.00  0.00     0.006 A 
ATOM     22  C   UNL A   1      31.296  27.490  24.547  1.00  0.00    -0.046 A 
ATOM     23  C   UNL A   1      32.674  27.753  24.568  1.00  0.00    -0.048 A 
ATOM     24  C   UNL A   1      30.318  28.301  23.742  1.00  0.00     0.044 C 
ATOM     25  C   UNL A   1      33.267  28.989  23.953  1.00  0.00     0.044 C 
ENDBRANCH  16  18
ENDBRANCH  13  14
ENDBRANCH   7  13
ENDBRANCH   4   7
ENDBRANCH   2   3
ENDBRANCH   1   2
BRANCH   1  26
ATOM     26  C   UNL A   1      37.893  20.140  25.005  1.00  0.00     0.023 C 
BRANCH  26  27
ATOM     27  C   UNL A   1      39.192  20.420  25.756  1.00  0.00     0.116 C 
BRANCH  27  28
ATOM     28  N   UNL A   1      40.101  19.285  25.840  1.00  0.00    -0.352 N 
ATOM     29  C   UNL A   1      41.450  19.276  26.128  1.00  0.00     0.251 C 
ATOM     30  H   UNL A   1      39.696  18.404  25.668  1.00  0.00     0.163 HD
ATOM     31  O   UNL A   1      42.090  18.238  26.091  1.00  0.00    -0.269 OA
BRANCH  29  32
ATOM     32  C   UNL A   1      42.130  20.559  26.422  1.00  0.00     0.039 A 
ATOM     33  C   UNL A   1      42.521  21.371  25.357  1.00  0.00     0.014 A 
ATOM     34  C   UNL A   1      42.299  20.993  27.738  1.00  0.00     0.014 A 
ATOM     35  C   UNL A   1      42.980  22.665  25.612  1.00  0.00     0.010 A 
ATOM     36  C   UNL A   1      42.662  22.312  27.985  1.00  0.00     0.010 A 
ATOM     37  C   UNL A   1      42.995  23.167  26.924  1.00  0.00    -0.014 A 
BRANCH  37  38
ATOM     38  C   UNL A   1      43.327  24.589  27.199  1.00  0.00     0.031 A 
ATOM     39  C   UNL A   1      44.711  25.114  26.929  1.00  0.00     0.074 A 
ATOM     40  C   UNL A   1      42.400  25.394  27.757  1.00  0.00     0.049 A 
ATOM     41  N   UNL A   1      45.202  26.306  27.151  1.00  0.00    -0.248 NA
ATOM     42  C   UNL A   1      45.682  24.163  26.363  1.00  0.00     0.031 C 
ATOM     43  C   UNL A   1      41.044  24.989  28.139  1.00  0.00     0.029 A 
ATOM     44  N   UNL A   1      42.458  26.720  28.108  1.00  0.00    -0.354 N 
ATOM     45  C   UNL A   1      46.534  26.245  26.763  1.00  0.00     0.074 A 
ATOM     46  C   UNL A   1      46.793  24.883  26.352  1.00  0.00     0.031 C 
ATOM     47  C   UNL A   1      40.392  26.050  28.640  1.00  0.00     0.029 A 
ATOM     48  C   UNL A   1      41.288  27.201  28.647  1.00  0.00     0.049 A 
ATOM     49  H   UNL A   1      43.261  27.275  27.986  1.00  0.00     0.167 HD
ATOM     50  C   UNL A   1      47.450  27.241  26.722  1.00  0.00     0.037 A 
ATOM     51  C   UNL A   1      40.975  28.431  29.097  1.00  0.00     0.037 A 
ATOM     52  C   UNL A   1      47.185  28.603  27.103  1.00  0.00     0.049 A 
ATOM     53  C   UNL A   1      42.006  29.524  29.018  1.00  0.00     0.074 A 
ATOM     54  C   UNL A   1      48.032  29.696  27.045  1.00  0.00     0.029 A 
ATOM     55  N   UNL A   1      45.977  29.059  27.608  1.00  0.00    -0.354 N 
ATOM     56  N   UNL A   1      43.240  29.469  28.577  1.00  0.00    -0.248 NA
ATOM     57  C   UNL A   1      41.597  30.855  29.490  1.00  0.00     0.031 C 
ATOM     58  C   UNL A   1      47.347  30.808  27.547  1.00  0.00     0.029 A 
ATOM     59  C   UNL A   1      46.060  30.416  27.878  1.00  0.00     0.049 A 
ATOM     60  H   UNL A   1      45.178  28.502  27.755  1.00  0.00     0.167 HD
ATOM     61  C   UNL A   1      43.745  30.756  28.697  1.00  0.00     0.074 A 
ATOM     62  C   UNL A   1      42.676  31.577  29.227  1.00  0.00     0.031 C 
ATOM     63  C   UNL A   1      44.984  31.218  28.400  1.00  0.00     0.037 A 
BRANCH  50  64
ATOM     64  C   UNL A   1      48.823  26.901  26.223  1.00  0.00     0.064 A 
ATOM     65  C   UNL A   1      49.799  26.367  27.078  1.00  0.00     0.173 A 
ATOM     66  C   UNL A   1      49.153  27.061  24.869  1.00  0.00     0.173 A 
ATOM     67  F   UNL A   1      49.538  26.207  28.384  1.00  0.00    -0.203 F 
ATOM     68  C   UNL A   1      51.061  26.025  26.600  1.00  0.00     0.198 A 
ATOM     69  C   UNL A   1      50.406  26.690  24.389  1.00  0.00     0.198 A 
ATOM     70  F   UNL A   1      48.255  27.563  24.009  1.00  0.00    -0.203 F 
ATOM     71  F   UNL A   1      51.990  25.555  27.444  1.00  0.00    -0.200 F 
ATOM     72  C   UNL A   1      51.361  26.179  25.255  1.00  0.00     0.200 A 
ATOM     73  F   UNL A   1      50.692  26.828  23.087  1.00  0.00    -0.200 F 
ATOM     74  F   UNL A   1      52.572  25.838  24.795  1.00  0.00    -0.200 F 
ENDBRANCH  50  64
BRANCH  51  75
ATOM     75  C   UNL A   1      39.617  28.710  29.635  1.00  0.00     0.064 A 
ATOM     76  C   UNL A   1      38.607  29.226  28.810  1.00  0.00     0.173 A 
ATOM     77  C   UNL A   1      39.310  28.497  30.987  1.00  0.00     0.173 A 
ATOM     78  F   UNL A   1      38.859  29.466  27.515  1.00  0.00    -0.203 F 
ATOM     79  C   UNL A   1      37.352  29.547  29.322  1.00  0.00     0.198 A 
ATOM     80  C   UNL A   1      38.045  28.792  31.492  1.00  0.00     0.198 A 
ATOM     81  F   UNL A   1      40.238  28.002  31.817  1.00  0.00    -0.203 F 
ATOM     82  F   UNL A   1      36.424  30.092  28.524  1.00  0.00    -0.200 F 
ATOM     83  C   UNL A   1      37.071  29.327  30.661  1.00  0.00     0.200 A 
ATOM     84  F   UNL A   1      37.772  28.564  32.783  1.00  0.00    -0.200 F 
ATOM     85  F   UNL A   1      35.865  29.639  31.156  1.00  0.00    -0.200 F 
ENDBRANCH  51  75
BRANCH  63  86
ATOM     86  C   UNL A   1      45.238  32.681  28.616  1.00  0.00     0.064 A 
ATOM     87  C   UNL A   1      45.790  33.161  29.814  1.00  0.00     0.173 A 
ATOM     88  C   UNL A   1      44.945  33.610  27.608  1.00  0.00     0.173 A 
ATOM     89  F   UNL A   1      46.073  32.313  30.814  1.00  0.00    -0.203 F 
ATOM     90  C   UNL A   1      46.007  34.522  30.006  1.00  0.00     0.198 A 
ATOM     91  C   UNL A   1      45.191  34.968  27.792  1.00  0.00     0.198 A 
ATOM     92  F   UNL A   1      44.423  33.202  26.442  1.00  0.00    -0.203 F 
ATOM     93  F   UNL A   1      46.482  34.964  31.178  1.00  0.00    -0.200 F 
ATOM     94  C   UNL A   1      45.713  35.424  28.994  1.00  0.00     0.200 A 
ATOM     95  F   UNL A   1      44.919  35.837  26.809  1.00  0.00    -0.200 F 
ATOM     96  F   UNL A   1      45.923  36.734  29.180  1.00  0.00    -0.200 F 
ENDBRANCH  63  86
ENDBRANCH  37  38
ENDBRANCH  29  32
ENDBRANCH  27  28
ENDBRANCH  26  27
ENDBRANCH   1  26
TORSDOF 16
ENDMDL
