MODEL 1
REMARK VINA RESULT:     -11.8      0.000      0.000
REMARK SMILES CC[C@H](C(=O)NCCCCNC(=O)c1ccc(-c2c3nc(c(-c4c(F)c(F)c(F)c(F)c4F)c4ccc([nH]4)c(-c4c(F)c(F)c(F)c(F)c4F)c4nc(c(-c5c(F)c(F)c(F)c(F)c5F)c5ccc2[nH]5)C=C4)C=C3)cc1)N(C)c1cc(C)ccc1[N+](=O)[O-]
REMARK SMILES IDX 8 1 7 2 6 3 4 4 5 5 3 7 2 8 1 9 77 10 78 11 79 12 80 13
REMARK SMILES IDX 85 14 81 15 84 16 82 17 83 18 86 19 87 20 88 21 9 22 10 23
REMARK SMILES IDX 11 24 12 25 13 27 14 28 15 29 76 30 16 31 75 32 17 33 18 34
REMARK SMILES IDX 19 35 69 36 20 37 74 38 68 39 70 40 21 41 73 42 67 43 66 44
REMARK SMILES IDX 22 46 54 47 34 48 53 49 35 50 38 51 52 52 71 53 36 54 37 55
REMARK SMILES IDX 51 57 72 58 39 59 23 60 24 61 32 62 25 63 26 64 30 65 33 66
REMARK SMILES IDX 27 67 28 68 31 69 29 70 55 71 56 72 64 73 57 74 58 75 62 76
REMARK SMILES IDX 65 77 59 78 60 79 63 80 61 81 40 82 41 83 49 84 42 85 43 86
REMARK SMILES IDX 47 87 50 88 44 89 45 90 48 91 46 92
REMARK H PARENT 6 6 11 26 70 45 38 56
REMARK Flexibility Score: inf
ROOT
ATOM      1  C   UNL A   1      31.698  30.727  26.063  1.00  0.00     0.023 C 
ENDROOT
BRANCH   1   2
ATOM      2  C   UNL A   1      32.961  29.972  26.474  1.00  0.00     0.116 C 
BRANCH   2   3
ATOM      3  N   UNL A   1      33.625  29.441  25.306  1.00  0.00    -0.354 N 
ATOM      4  C   UNL A   1      33.465  28.291  24.603  1.00  0.00     0.242 C 
ATOM      5  O   UNL A   1      34.285  28.096  23.697  1.00  0.00    -0.273 OA
ATOM      6  H   UNL A   1      34.331  30.028  24.951  1.00  0.00     0.163 HD
BRANCH   4   7
ATOM      7  C   UNL A   1      32.314  27.289  24.831  1.00  0.00     0.171 C 
BRANCH   7   8
ATOM      8  C   UNL A   1      30.883  27.663  24.420  1.00  0.00     0.032 C 
ATOM      9  C   UNL A   1      30.819  28.647  23.254  1.00  0.00     0.006 C 
ENDBRANCH   7   8
BRANCH   7  10
ATOM     10  N   UNL A   1      32.665  25.883  24.447  1.00  0.00    -0.357 N 
ATOM     11  C   UNL A   1      32.513  25.555  23.027  1.00  0.00     0.144 C 
BRANCH  10  12
ATOM     12  C   UNL A   1      33.391  24.975  25.213  1.00  0.00     0.116 A 
ATOM     13  C   UNL A   1      34.785  24.858  25.000  1.00  0.00     0.036 A 
ATOM     14  C   UNL A   1      32.857  24.045  26.129  1.00  0.00     0.292 A 
ATOM     15  C   UNL A   1      35.589  23.893  25.645  1.00  0.00    -0.049 A 
ATOM     16  C   UNL A   1      33.662  23.145  26.862  1.00  0.00     0.088 A 
ATOM     17  C   UNL A   1      37.019  23.701  25.223  1.00  0.00     0.044 C 
ATOM     18  C   UNL A   1      35.025  23.070  26.615  1.00  0.00     0.010 A 
BRANCH  14  19
ATOM     19  N   UNL A   1      31.429  23.774  26.217  1.00  0.00     0.064 N 
ATOM     20  O   UNL A   1      30.852  24.153  27.251  1.00  0.00    -0.258 OA
ATOM     21  O   UNL A   1      30.918  23.083  25.326  1.00  0.00    -0.258 OA
ENDBRANCH  14  19
ENDBRANCH  10  12
ENDBRANCH   7  10
ENDBRANCH   4   7
ENDBRANCH   2   3
ENDBRANCH   1   2
BRANCH   1  22
ATOM     22  C   UNL A   1      31.436  31.976  26.901  1.00  0.00     0.023 C 
BRANCH  22  23
ATOM     23  C   UNL A   1      32.691  32.762  27.263  1.00  0.00     0.116 C 
BRANCH  23  24
ATOM     24  N   UNL A   1      32.414  34.158  27.562  1.00  0.00    -0.352 N 
ATOM     25  C   UNL A   1      32.972  34.961  28.533  1.00  0.00     0.251 C 
ATOM     26  H   UNL A   1      31.734  34.587  26.993  1.00  0.00     0.163 HD
ATOM     27  O   UNL A   1      32.526  36.072  28.757  1.00  0.00    -0.269 OA
BRANCH  25  28
ATOM     28  C   UNL A   1      34.108  34.435  29.314  1.00  0.00     0.039 A 
ATOM     29  C   UNL A   1      33.850  33.790  30.523  1.00  0.00     0.014 A 
ATOM     30  C   UNL A   1      35.411  34.541  28.824  1.00  0.00     0.014 A 
ATOM     31  C   UNL A   1      34.905  33.196  31.218  1.00  0.00     0.010 A 
ATOM     32  C   UNL A   1      36.443  33.874  29.469  1.00  0.00     0.010 A 
ATOM     33  C   UNL A   1      36.202  33.205  30.678  1.00  0.00    -0.014 A 
BRANCH  33  34
ATOM     34  C   UNL A   1      37.321  32.527  31.374  1.00  0.00     0.031 A 
ATOM     35  C   UNL A   1      38.037  31.384  30.710  1.00  0.00     0.074 A 
ATOM     36  C   UNL A   1      37.656  32.907  32.622  1.00  0.00     0.049 A 
ATOM     37  N   UNL A   1      39.025  30.652  31.159  1.00  0.00    -0.248 NA
ATOM     38  C   UNL A   1      37.558  30.989  29.375  1.00  0.00     0.031 C 
ATOM     39  C   UNL A   1      36.989  33.957  33.394  1.00  0.00     0.029 A 
ATOM     40  N   UNL A   1      38.641  32.454  33.461  1.00  0.00    -0.354 N 
ATOM     41  C   UNL A   1      39.272  29.709  30.171  1.00  0.00     0.074 A 
ATOM     42  C   UNL A   1      38.291  29.915  29.130  1.00  0.00     0.031 C 
ATOM     43  C   UNL A   1      37.606  34.091  34.579  1.00  0.00     0.029 A 
ATOM     44  C   UNL A   1      38.690  33.119  34.660  1.00  0.00     0.049 A 
ATOM     45  H   UNL A   1      39.254  31.721  33.225  1.00  0.00     0.167 HD
ATOM     46  C   UNL A   1      40.252  28.774  30.123  1.00  0.00     0.037 A 
ATOM     47  C   UNL A   1      39.524  32.963  35.706  1.00  0.00     0.037 A 
ATOM     48  C   UNL A   1      41.239  28.591  31.153  1.00  0.00     0.049 A 
ATOM     49  C   UNL A   1      40.616  31.931  35.619  1.00  0.00     0.074 A 
ATOM     50  C   UNL A   1      42.308  27.713  31.179  1.00  0.00     0.029 A 
ATOM     51  N   UNL A   1      41.276  29.301  32.344  1.00  0.00    -0.354 N 
ATOM     52  N   UNL A   1      40.894  31.098  34.645  1.00  0.00    -0.248 NA
ATOM     53  C   UNL A   1      41.520  31.829  36.772  1.00  0.00     0.031 C 
ATOM     54  C   UNL A   1      42.967  27.862  32.404  1.00  0.00     0.029 A 
ATOM     55  C   UNL A   1      42.340  28.871  33.120  1.00  0.00     0.049 A 
ATOM     56  H   UNL A   1      40.639  30.007  32.601  1.00  0.00     0.167 HD
ATOM     57  C   UNL A   1      42.018  30.394  35.054  1.00  0.00     0.074 A 
ATOM     58  C   UNL A   1      42.383  30.913  36.356  1.00  0.00     0.031 C 
ATOM     59  C   UNL A   1      42.688  29.404  34.412  1.00  0.00     0.037 A 
BRANCH  46  60
ATOM     60  C   UNL A   1      40.303  27.889  28.910  1.00  0.00     0.064 A 
ATOM     61  C   UNL A   1      39.608  26.669  28.861  1.00  0.00     0.173 A 
ATOM     62  C   UNL A   1      41.038  28.269  27.779  1.00  0.00     0.173 A 
ATOM     63  F   UNL A   1      38.902  26.251  29.922  1.00  0.00    -0.203 F 
ATOM     64  C   UNL A   1      39.676  25.849  27.737  1.00  0.00     0.198 A 
ATOM     65  C   UNL A   1      41.077  27.462  26.644  1.00  0.00     0.198 A 
ATOM     66  F   UNL A   1      41.718  29.426  27.770  1.00  0.00    -0.203 F 
ATOM     67  F   UNL A   1      39.052  24.663  27.737  1.00  0.00    -0.200 F 
ATOM     68  C   UNL A   1      40.404  26.250  26.628  1.00  0.00     0.200 A 
ATOM     69  F   UNL A   1      41.770  27.856  25.567  1.00  0.00    -0.200 F 
ATOM     70  F   UNL A   1      40.466  25.462  25.546  1.00  0.00    -0.200 F 
ENDBRANCH  46  60
BRANCH  47  71
ATOM     71  C   UNL A   1      39.391  33.836  36.901  1.00  0.00     0.064 A 
ATOM     72  C   UNL A   1      39.999  35.099  36.940  1.00  0.00     0.173 A 
ATOM     73  C   UNL A   1      38.661  33.428  38.027  1.00  0.00     0.173 A 
ATOM     74  F   UNL A   1      40.723  35.525  35.895  1.00  0.00    -0.203 F 
ATOM     75  C   UNL A   1      39.902  35.911  38.068  1.00  0.00     0.198 A 
ATOM     76  C   UNL A   1      38.541  34.253  39.143  1.00  0.00     0.198 A 
ATOM     77  F   UNL A   1      38.055  32.232  38.038  1.00  0.00    -0.203 F 
ATOM     78  F   UNL A   1      40.533  37.092  38.097  1.00  0.00    -0.200 F 
ATOM     79  C   UNL A   1      39.169  35.489  39.167  1.00  0.00     0.200 A 
ATOM     80  F   UNL A   1      37.818  33.849  40.197  1.00  0.00    -0.200 F 
ATOM     81  F   UNL A   1      39.073  36.272  40.251  1.00  0.00    -0.200 F 
ENDBRANCH  47  71
BRANCH  59  82
ATOM     82  C   UNL A   1      43.905  28.851  35.096  1.00  0.00     0.064 A 
ATOM     83  C   UNL A   1      45.181  29.395  34.888  1.00  0.00     0.173 A 
ATOM     84  C   UNL A   1      43.788  27.772  35.985  1.00  0.00     0.173 A 
ATOM     85  F   UNL A   1      45.347  30.419  34.036  1.00  0.00    -0.203 F 
ATOM     86  C   UNL A   1      46.300  28.854  35.515  1.00  0.00     0.198 A 
ATOM     87  C   UNL A   1      44.904  27.256  36.637  1.00  0.00     0.198 A 
ATOM     88  F   UNL A   1      42.589  27.220  36.227  1.00  0.00    -0.203 F 
ATOM     89  F   UNL A   1      47.517  29.351  35.253  1.00  0.00    -0.200 F 
ATOM     90  C   UNL A   1      46.160  27.790  36.392  1.00  0.00     0.200 A 
ATOM     91  F   UNL A   1      44.766  26.236  37.496  1.00  0.00    -0.200 F 
ATOM     92  F   UNL A   1      47.238  27.271  36.995  1.00  0.00    -0.200 F 
ENDBRANCH  59  82
ENDBRANCH  33  34
ENDBRANCH  25  28
ENDBRANCH  23  24
ENDBRANCH  22  23
ENDBRANCH   1  22
TORSDOF 15
ENDMDL
MODEL 2
REMARK VINA RESULT:     -11.8      1.209      7.607
REMARK SMILES CC[C@H](C(=O)NCCCCNC(=O)c1ccc(-c2c3nc(c(-c4c(F)c(F)c(F)c(F)c4F)c4ccc([nH]4)c(-c4c(F)c(F)c(F)c(F)c4F)c4nc(c(-c5c(F)c(F)c(F)c(F)c5F)c5ccc2[nH]5)C=C4)C=C3)cc1)N(C)c1cc(C)ccc1[N+](=O)[O-]
REMARK SMILES IDX 8 1 7 2 6 3 4 4 5 5 3 7 2 8 1 9 77 10 78 11 79 12 80 13
REMARK SMILES IDX 85 14 81 15 84 16 82 17 83 18 86 19 87 20 88 21 9 22 10 23
REMARK SMILES IDX 11 24 12 25 13 27 14 28 15 29 76 30 16 31 75 32 17 33 18 34
REMARK SMILES IDX 19 35 69 36 20 37 74 38 68 39 70 40 21 41 73 42 67 43 66 44
REMARK SMILES IDX 22 46 54 47 34 48 53 49 35 50 38 51 52 52 71 53 36 54 37 55
REMARK SMILES IDX 51 57 72 58 39 59 23 60 24 61 32 62 25 63 26 64 30 65 33 66
REMARK SMILES IDX 27 67 28 68 31 69 29 70 55 71 56 72 64 73 57 74 58 75 62 76
REMARK SMILES IDX 65 77 59 78 60 79 63 80 61 81 40 82 41 83 49 84 42 85 43 86
REMARK SMILES IDX 47 87 50 88 44 89 45 90 48 91 46 92
REMARK H PARENT 6 6 11 26 70 45 38 56
REMARK Flexibility Score: inf
ROOT
ATOM      1  C   UNL A   1      31.128  31.469  25.721  1.00  0.00     0.023 C 
ENDROOT
BRANCH   1   2
ATOM      2  C   UNL A   1      31.372  29.967  25.592  1.00  0.00     0.116 C 
BRANCH   2   3
ATOM      3  N   UNL A   1      32.207  29.696  24.445  1.00  0.00    -0.354 N 
ATOM      4  C   UNL A   1      33.288  28.896  24.265  1.00  0.00     0.242 C 
ATOM      5  O   UNL A   1      33.841  28.977  23.162  1.00  0.00    -0.273 OA
ATOM      6  H   UNL A   1      31.940  30.189  23.635  1.00  0.00     0.163 HD
BRANCH   4   7
ATOM      7  C   UNL A   1      33.800  27.883  25.312  1.00  0.00     0.171 C 
BRANCH   7   8
ATOM      8  C   UNL A   1      33.875  28.285  26.791  1.00  0.00     0.032 C 
ATOM      9  C   UNL A   1      34.823  29.451  27.060  1.00  0.00     0.006 C 
ENDBRANCH   7   8
BRANCH   7  10
ATOM     10  N   UNL A   1      33.240  26.504  25.127  1.00  0.00    -0.357 N 
ATOM     11  C   UNL A   1      31.778  26.402  25.156  1.00  0.00     0.144 C 
BRANCH  10  12
ATOM     12  C   UNL A   1      33.923  25.396  24.636  1.00  0.00     0.116 A 
ATOM     13  C   UNL A   1      34.925  24.796  25.437  1.00  0.00     0.036 A 
ATOM     14  C   UNL A   1      33.808  24.853  23.339  1.00  0.00     0.292 A 
ATOM     15  C   UNL A   1      35.748  23.741  24.988  1.00  0.00    -0.049 A 
ATOM     16  C   UNL A   1      34.548  23.729  22.910  1.00  0.00     0.088 A 
ATOM     17  C   UNL A   1      36.915  23.290  25.821  1.00  0.00     0.044 C 
ATOM     18  C   UNL A   1      35.518  23.179  23.736  1.00  0.00     0.010 A 
BRANCH  14  19
ATOM     19  N   UNL A   1      33.102  25.544  22.269  1.00  0.00     0.064 N 
ATOM     20  O   UNL A   1      31.912  25.230  22.092  1.00  0.00    -0.258 OA
ATOM     21  O   UNL A   1      33.759  26.295  21.537  1.00  0.00    -0.258 OA
ENDBRANCH  14  19
ENDBRANCH  10  12
ENDBRANCH   7  10
ENDBRANCH   4   7
ENDBRANCH   2   3
ENDBRANCH   1   2
BRANCH   1  22
ATOM     22  C   UNL A   1      31.441  32.020  27.111  1.00  0.00     0.023 C 
BRANCH  22  23
ATOM     23  C   UNL A   1      32.693  32.886  27.174  1.00  0.00     0.116 C 
BRANCH  23  24
ATOM     24  N   UNL A   1      32.414  34.248  27.597  1.00  0.00    -0.352 N 
ATOM     25  C   UNL A   1      33.000  34.976  28.610  1.00  0.00     0.251 C 
ATOM     26  H   UNL A   1      31.708  34.714  27.092  1.00  0.00     0.163 HD
ATOM     27  O   UNL A   1      32.551  36.059  28.942  1.00  0.00    -0.269 OA
BRANCH  25  28
ATOM     28  C   UNL A   1      34.170  34.403  29.303  1.00  0.00     0.039 A 
ATOM     29  C   UNL A   1      33.959  33.592  30.418  1.00  0.00     0.014 A 
ATOM     30  C   UNL A   1      35.459  34.632  28.819  1.00  0.00     0.014 A 
ATOM     31  C   UNL A   1      35.050  32.959  31.016  1.00  0.00     0.010 A 
ATOM     32  C   UNL A   1      36.530  33.932  29.359  1.00  0.00     0.010 A 
ATOM     33  C   UNL A   1      36.337  33.098  30.469  1.00  0.00    -0.014 A 
BRANCH  33  34
ATOM     34  C   UNL A   1      37.495  32.384  31.057  1.00  0.00     0.031 A 
ATOM     35  C   UNL A   1      37.987  32.752  32.429  1.00  0.00     0.074 A 
ATOM     36  C   UNL A   1      38.133  31.444  30.335  1.00  0.00     0.049 A 
ATOM     37  N   UNL A   1      38.992  32.261  33.108  1.00  0.00    -0.248 NA
ATOM     38  C   UNL A   1      37.274  33.841  33.118  1.00  0.00     0.031 C 
ATOM     39  C   UNL A   1      37.790  31.050  28.967  1.00  0.00     0.029 A 
ATOM     40  N   UNL A   1      39.205  30.648  30.650  1.00  0.00    -0.354 N 
ATOM     41  C   UNL A   1      39.037  32.988  34.290  1.00  0.00     0.074 A 
ATOM     42  C   UNL A   1      38.004  33.996  34.210  1.00  0.00     0.031 C 
ATOM     43  C   UNL A   1      38.611  30.064  28.574  1.00  0.00     0.029 A 
ATOM     44  C   UNL A   1      39.555  29.777  29.649  1.00  0.00     0.049 A 
ATOM     45  H   UNL A   1      39.677  30.697  31.512  1.00  0.00     0.167 HD
ATOM     46  C   UNL A   1      39.846  32.807  35.362  1.00  0.00     0.037 A 
ATOM     47  C   UNL A   1      40.528  28.847  29.609  1.00  0.00     0.037 A 
ATOM     48  C   UNL A   1      40.855  31.786  35.444  1.00  0.00     0.049 A 
ATOM     49  C   UNL A   1      41.401  28.653  30.819  1.00  0.00     0.074 A 
ATOM     50  C   UNL A   1      41.692  31.480  36.503  1.00  0.00     0.029 A 
ATOM     51  N   UNL A   1      41.167  30.902  34.420  1.00  0.00    -0.354 N 
ATOM     52  N   UNL A   1      41.382  29.291  31.965  1.00  0.00    -0.248 NA
ATOM     53  C   UNL A   1      42.421  27.600  30.735  1.00  0.00     0.031 C 
ATOM     54  C   UNL A   1      42.538  30.438  36.105  1.00  0.00     0.029 A 
ATOM     55  C   UNL A   1      42.193  30.060  34.816  1.00  0.00     0.049 A 
ATOM     56  H   UNL A   1      40.723  30.877  33.541  1.00  0.00     0.167 HD
ATOM     57  C   UNL A   1      42.365  28.699  32.747  1.00  0.00     0.074 A 
ATOM     58  C   UNL A   1      42.946  27.638  31.951  1.00  0.00     0.031 C 
ATOM     59  C   UNL A   1      42.754  29.006  34.010  1.00  0.00     0.037 A 
BRANCH  46  60
ATOM     60  C   UNL A   1      39.662  33.733  36.530  1.00  0.00     0.064 A 
ATOM     61  C   UNL A   1      40.293  34.986  36.583  1.00  0.00     0.173 A 
ATOM     62  C   UNL A   1      38.831  33.373  37.602  1.00  0.00     0.173 A 
ATOM     63  F   UNL A   1      41.110  35.372  35.592  1.00  0.00    -0.203 F 
ATOM     64  C   UNL A   1      40.127  35.828  37.680  1.00  0.00     0.198 A 
ATOM     65  C   UNL A   1      38.641  34.232  38.682  1.00  0.00     0.198 A 
ATOM     66  F   UNL A   1      38.200  32.189  37.602  1.00  0.00    -0.203 F 
ATOM     67  F   UNL A   1      40.787  36.994  37.733  1.00  0.00    -0.200 F 
ATOM     68  C   UNL A   1      39.296  35.454  38.724  1.00  0.00     0.200 A 
ATOM     69  F   UNL A   1      37.827  33.875  39.684  1.00  0.00    -0.200 F 
ATOM     70  F   UNL A   1      39.134  36.267  39.777  1.00  0.00    -0.200 F 
ENDBRANCH  46  60
BRANCH  47  71
ATOM     71  C   UNL A   1      40.695  27.996  28.402  1.00  0.00     0.064 A 
ATOM     72  C   UNL A   1      41.480  28.424  27.323  1.00  0.00     0.173 A 
ATOM     73  C   UNL A   1      40.072  26.744  28.299  1.00  0.00     0.173 A 
ATOM     74  F   UNL A   1      42.082  29.623  27.368  1.00  0.00    -0.203 F 
ATOM     75  C   UNL A   1      41.618  27.645  26.177  1.00  0.00     0.198 A 
ATOM     76  C   UNL A   1      40.233  25.952  27.164  1.00  0.00     0.198 A 
ATOM     77  F   UNL A   1      39.315  26.284  29.306  1.00  0.00    -0.203 F 
ATOM     78  F   UNL A   1      42.336  28.100  25.141  1.00  0.00    -0.200 F 
ATOM     79  C   UNL A   1      40.998  26.407  26.100  1.00  0.00     0.200 A 
ATOM     80  F   UNL A   1      39.646  24.749  27.099  1.00  0.00    -0.200 F 
ATOM     81  F   UNL A   1      41.133  25.655  24.998  1.00  0.00    -0.200 F 
ENDBRANCH  47  71
BRANCH  59  82
ATOM     82  C   UNL A   1      43.834  28.157  34.616  1.00  0.00     0.064 A 
ATOM     83  C   UNL A   1      43.546  26.936  35.245  1.00  0.00     0.173 A 
ATOM     84  C   UNL A   1      45.175  28.562  34.550  1.00  0.00     0.173 A 
ATOM     85  F   UNL A   1      42.278  26.511  35.346  1.00  0.00    -0.203 F 
ATOM     86  C   UNL A   1      44.559  26.172  35.820  1.00  0.00     0.198 A 
ATOM     87  C   UNL A   1      46.188  27.780  35.095  1.00  0.00     0.198 A 
ATOM     88  F   UNL A   1      45.505  29.717  33.950  1.00  0.00    -0.203 F 
ATOM     89  F   UNL A   1      44.253  25.041  36.469  1.00  0.00    -0.200 F 
ATOM     90  C   UNL A   1      45.878  26.592  35.740  1.00  0.00     0.200 A 
ATOM     91  F   UNL A   1      47.465  28.178  35.004  1.00  0.00    -0.200 F 
ATOM     92  F   UNL A   1      46.851  25.855  36.293  1.00  0.00    -0.200 F 
ENDBRANCH  59  82
ENDBRANCH  33  34
ENDBRANCH  25  28
ENDBRANCH  23  24
ENDBRANCH  22  23
ENDBRANCH   1  22
TORSDOF 15
ENDMDL
MODEL 3
REMARK VINA RESULT:     -11.7      0.929      7.513
REMARK SMILES CC[C@H](C(=O)NCCCCNC(=O)c1ccc(-c2c3nc(c(-c4c(F)c(F)c(F)c(F)c4F)c4ccc([nH]4)c(-c4c(F)c(F)c(F)c(F)c4F)c4nc(c(-c5c(F)c(F)c(F)c(F)c5F)c5ccc2[nH]5)C=C4)C=C3)cc1)N(C)c1cc(C)ccc1[N+](=O)[O-]
REMARK SMILES IDX 8 1 7 2 6 3 4 4 5 5 3 7 2 8 1 9 77 10 78 11 79 12 80 13
REMARK SMILES IDX 85 14 81 15 84 16 82 17 83 18 86 19 87 20 88 21 9 22 10 23
REMARK SMILES IDX 11 24 12 25 13 27 14 28 15 29 76 30 16 31 75 32 17 33 18 34
REMARK SMILES IDX 19 35 69 36 20 37 74 38 68 39 70 40 21 41 73 42 67 43 66 44
REMARK SMILES IDX 22 46 54 47 34 48 53 49 35 50 38 51 52 52 71 53 36 54 37 55
REMARK SMILES IDX 51 57 72 58 39 59 23 60 24 61 32 62 25 63 26 64 30 65 33 66
REMARK SMILES IDX 27 67 28 68 31 69 29 70 55 71 56 72 64 73 57 74 58 75 62 76
REMARK SMILES IDX 65 77 59 78 60 79 63 80 61 81 40 82 41 83 49 84 42 85 43 86
REMARK SMILES IDX 47 87 50 88 44 89 45 90 48 91 46 92
REMARK H PARENT 6 6 11 26 70 45 38 56
REMARK Flexibility Score: inf
ROOT
ATOM      1  C   UNL A   1      31.652  30.816  26.072  1.00  0.00     0.023 C 
ENDROOT
BRANCH   1   2
ATOM      2  C   UNL A   1      32.500  29.836  26.879  1.00  0.00     0.116 C 
BRANCH   2   3
ATOM      3  N   UNL A   1      31.762  28.616  27.113  1.00  0.00    -0.354 N 
ATOM      4  C   UNL A   1      31.607  27.483  26.382  1.00  0.00     0.242 C 
ATOM      5  O   UNL A   1      30.807  26.655  26.835  1.00  0.00    -0.273 OA
ATOM      6  H   UNL A   1      31.276  28.605  27.970  1.00  0.00     0.163 HD
BRANCH   4   7
ATOM      7  C   UNL A   1      32.401  27.166  25.097  1.00  0.00     0.171 C 
BRANCH   7   8
ATOM      8  C   UNL A   1      33.723  27.894  24.817  1.00  0.00     0.032 C 
ATOM      9  C   UNL A   1      33.788  28.534  23.433  1.00  0.00     0.006 C 
ENDBRANCH   7   8
BRANCH   7  10
ATOM     10  N   UNL A   1      32.487  25.699  24.799  1.00  0.00    -0.357 N 
ATOM     11  C   UNL A   1      31.962  25.283  23.495  1.00  0.00     0.144 C 
BRANCH  10  12
ATOM     12  C   UNL A   1      33.267  24.764  25.473  1.00  0.00     0.116 A 
ATOM     13  C   UNL A   1      34.664  24.744  25.246  1.00  0.00     0.036 A 
ATOM     14  C   UNL A   1      32.793  23.724  26.299  1.00  0.00     0.292 A 
ATOM     15  C   UNL A   1      35.525  23.768  25.793  1.00  0.00    -0.049 A 
ATOM     16  C   UNL A   1      33.651  22.804  26.941  1.00  0.00     0.088 A 
ATOM     17  C   UNL A   1      36.959  23.695  25.351  1.00  0.00     0.044 C 
ATOM     18  C   UNL A   1      35.014  22.828  26.684  1.00  0.00     0.010 A 
BRANCH  14  19
ATOM     19  N   UNL A   1      31.382  23.368  26.365  1.00  0.00     0.064 N 
ATOM     20  O   UNL A   1      30.796  23.607  27.436  1.00  0.00    -0.258 OA
ATOM     21  O   UNL A   1      30.900  22.746  25.410  1.00  0.00    -0.258 OA
ENDBRANCH  14  19
ENDBRANCH  10  12
ENDBRANCH   7  10
ENDBRANCH   4   7
ENDBRANCH   2   3
ENDBRANCH   1   2
BRANCH   1  22
ATOM     22  C   UNL A   1      31.383  32.131  26.800  1.00  0.00     0.023 C 
BRANCH  22  23
ATOM     23  C   UNL A   1      32.639  32.856  27.269  1.00  0.00     0.116 C 
BRANCH  23  24
ATOM     24  N   UNL A   1      32.381  34.231  27.665  1.00  0.00    -0.352 N 
ATOM     25  C   UNL A   1      32.990  34.974  28.652  1.00  0.00     0.251 C 
ATOM     26  H   UNL A   1      31.672  34.692  27.160  1.00  0.00     0.163 HD
ATOM     27  O   UNL A   1      32.558  36.069  28.967  1.00  0.00    -0.269 OA
BRANCH  25  28
ATOM     28  C   UNL A   1      34.164  34.403  29.340  1.00  0.00     0.039 A 
ATOM     29  C   UNL A   1      33.961  33.603  30.465  1.00  0.00     0.014 A 
ATOM     30  C   UNL A   1      35.449  34.624  28.842  1.00  0.00     0.014 A 
ATOM     31  C   UNL A   1      35.055  32.972  31.059  1.00  0.00     0.010 A 
ATOM     32  C   UNL A   1      36.523  33.926  29.380  1.00  0.00     0.010 A 
ATOM     33  C   UNL A   1      36.337  33.102  30.499  1.00  0.00    -0.014 A 
BRANCH  33  34
ATOM     34  C   UNL A   1      37.498  32.390  31.084  1.00  0.00     0.031 A 
ATOM     35  C   UNL A   1      37.994  32.760  32.454  1.00  0.00     0.074 A 
ATOM     36  C   UNL A   1      38.134  31.450  30.360  1.00  0.00     0.049 A 
ATOM     37  N   UNL A   1      39.002  32.270  33.130  1.00  0.00    -0.248 NA
ATOM     38  C   UNL A   1      37.282  33.848  33.145  1.00  0.00     0.031 C 
ATOM     39  C   UNL A   1      37.788  31.055  28.993  1.00  0.00     0.029 A 
ATOM     40  N   UNL A   1      39.208  30.656  30.672  1.00  0.00    -0.354 N 
ATOM     41  C   UNL A   1      39.050  32.997  34.311  1.00  0.00     0.074 A 
ATOM     42  C   UNL A   1      38.016  34.004  34.234  1.00  0.00     0.031 C 
ATOM     43  C   UNL A   1      38.608  30.069  28.598  1.00  0.00     0.029 A 
ATOM     44  C   UNL A   1      39.557  29.784  29.670  1.00  0.00     0.049 A 
ATOM     45  H   UNL A   1      39.683  30.706  31.532  1.00  0.00     0.167 HD
ATOM     46  C   UNL A   1      39.864  32.818  35.380  1.00  0.00     0.037 A 
ATOM     47  C   UNL A   1      40.530  28.855  29.627  1.00  0.00     0.037 A 
ATOM     48  C   UNL A   1      40.874  31.798  35.459  1.00  0.00     0.049 A 
ATOM     49  C   UNL A   1      41.408  28.664  30.835  1.00  0.00     0.074 A 
ATOM     50  C   UNL A   1      41.715  31.493  36.515  1.00  0.00     0.029 A 
ATOM     51  N   UNL A   1      41.183  30.914  34.435  1.00  0.00    -0.354 N 
ATOM     52  N   UNL A   1      41.392  29.301  31.980  1.00  0.00    -0.248 NA
ATOM     53  C   UNL A   1      42.428  27.611  30.747  1.00  0.00     0.031 C 
ATOM     54  C   UNL A   1      42.560  30.453  36.115  1.00  0.00     0.029 A 
ATOM     55  C   UNL A   1      42.212  30.073  34.828  1.00  0.00     0.049 A 
ATOM     56  H   UNL A   1      40.737  30.887  33.558  1.00  0.00     0.167 HD
ATOM     57  C   UNL A   1      42.378  28.712  32.759  1.00  0.00     0.074 A 
ATOM     58  C   UNL A   1      42.958  27.650  31.961  1.00  0.00     0.031 C 
ATOM     59  C   UNL A   1      42.771  29.020  34.020  1.00  0.00     0.037 A 
BRANCH  46  60
ATOM     60  C   UNL A   1      39.682  33.744  36.549  1.00  0.00     0.064 A 
ATOM     61  C   UNL A   1      40.316  34.997  36.601  1.00  0.00     0.173 A 
ATOM     62  C   UNL A   1      38.853  33.386  37.621  1.00  0.00     0.173 A 
ATOM     63  F   UNL A   1      41.132  35.381  35.608  1.00  0.00    -0.203 F 
ATOM     64  C   UNL A   1      40.153  35.839  37.697  1.00  0.00     0.198 A 
ATOM     65  C   UNL A   1      38.665  34.245  38.701  1.00  0.00     0.198 A 
ATOM     66  F   UNL A   1      38.220  32.203  37.622  1.00  0.00    -0.203 F 
ATOM     67  F   UNL A   1      40.814  37.003  37.750  1.00  0.00    -0.200 F 
ATOM     68  C   UNL A   1      39.322  35.466  38.743  1.00  0.00     0.200 A 
ATOM     69  F   UNL A   1      37.852  33.890  39.705  1.00  0.00    -0.200 F 
ATOM     70  F   UNL A   1      39.163  36.279  39.796  1.00  0.00    -0.200 F 
ENDBRANCH  46  60
BRANCH  47  71
ATOM     71  C   UNL A   1      40.694  28.004  28.420  1.00  0.00     0.064 A 
ATOM     72  C   UNL A   1      40.062  26.756  28.330  1.00  0.00     0.173 A 
ATOM     73  C   UNL A   1      41.485  28.414  27.338  1.00  0.00     0.173 A 
ATOM     74  F   UNL A   1      39.309  26.312  29.348  1.00  0.00    -0.203 F 
ATOM     75  C   UNL A   1      40.233  25.940  27.214  1.00  0.00     0.198 A 
ATOM     76  C   UNL A   1      41.633  27.610  26.210  1.00  0.00     0.198 A 
ATOM     77  F   UNL A   1      42.106  29.602  27.371  1.00  0.00    -0.203 F 
ATOM     78  F   UNL A   1      39.656  24.731  27.176  1.00  0.00    -0.200 F 
ATOM     79  C   UNL A   1      41.015  26.369  26.153  1.00  0.00     0.200 A 
ATOM     80  F   UNL A   1      42.376  28.035  25.179  1.00  0.00    -0.200 F 
ATOM     81  F   UNL A   1      41.178  25.585  25.078  1.00  0.00    -0.200 F 
ENDBRANCH  47  71
BRANCH  59  82
ATOM     82  C   UNL A   1      43.854  28.172  34.623  1.00  0.00     0.064 A 
ATOM     83  C   UNL A   1      45.208  28.530  34.533  1.00  0.00     0.173 A 
ATOM     84  C   UNL A   1      43.530  26.996  35.316  1.00  0.00     0.173 A 
ATOM     85  F   UNL A   1      45.571  29.638  33.869  1.00  0.00    -0.203 F 
ATOM     86  C   UNL A   1      46.199  27.719  35.080  1.00  0.00     0.198 A 
ATOM     87  C   UNL A   1      44.520  26.207  35.892  1.00  0.00     0.198 A 
ATOM     88  F   UNL A   1      42.249  26.614  35.439  1.00  0.00    -0.203 F 
ATOM     89  F   UNL A   1      47.489  28.049  34.928  1.00  0.00    -0.200 F 
ATOM     90  C   UNL A   1      45.854  26.563  35.763  1.00  0.00     0.200 A 
ATOM     91  F   UNL A   1      44.186  25.097  36.564  1.00  0.00    -0.200 F 
ATOM     92  F   UNL A   1      46.810  25.785  36.290  1.00  0.00    -0.200 F 
ENDBRANCH  59  82
ENDBRANCH  33  34
ENDBRANCH  25  28
ENDBRANCH  23  24
ENDBRANCH  22  23
ENDBRANCH   1  22
TORSDOF 15
ENDMDL
