MODEL 1
REMARK VINA RESULT:     -12.7      0.000      0.000
REMARK SMILES Cc1c(C(=O)NCCCCNC(=O)c2ccc(-c3c4nc(c(-c5c(F)c(F)c(F)c(F)c5F)c5ccc([nH]5)c(-c5c(F)c(F)c(F)c(F)c5F)c5nc(c(-c6c(F)c(F)c(F)c(F)c6F)c6ccc3[nH]6)C=C5)C=C4)cc2)nnn1-c1ccc(Cl)cc1[N+](=O)[O-]
REMARK SMILES IDX 8 1 7 2 6 3 4 4 5 5 3 7 1 8 2 9 79 10 77 11 78 12 80 13
REMARK SMILES IDX 81 14 86 15 82 16 85 17 83 18 84 19 87 20 88 21 89 22 9 23
REMARK SMILES IDX 10 24 11 25 12 26 13 28 14 29 15 30 76 31 16 32 75 33 17 34
REMARK SMILES IDX 18 35 19 36 69 37 20 38 74 39 68 40 70 41 21 42 73 43 67 44
REMARK SMILES IDX 66 45 22 47 54 48 34 49 53 50 35 51 38 52 52 53 71 54 36 55
REMARK SMILES IDX 37 56 51 58 72 59 39 60 23 61 24 62 32 63 25 64 26 65 30 66
REMARK SMILES IDX 33 67 27 68 28 69 31 70 29 71 55 72 56 73 64 74 57 75 58 76
REMARK SMILES IDX 62 77 65 78 59 79 60 80 63 81 61 82 40 83 41 84 49 85 42 86
REMARK SMILES IDX 43 87 47 88 50 89 44 90 45 91 48 92 46 93
REMARK H PARENT 6 6 11 27 70 46 38 57
REMARK Flexibility Score: inf
ROOT
ATOM      1  C   UNL A   1      36.237  21.558  24.791  1.00  0.00     0.023 C 
ENDROOT
BRANCH   1   2
ATOM      2  C   UNL A   1      34.758  21.200  25.003  1.00  0.00     0.116 C 
BRANCH   2   3
ATOM      3  N   UNL A   1      34.402  21.252  26.399  1.00  0.00    -0.351 N 
ATOM      4  C   UNL A   1      33.677  22.132  27.162  1.00  0.00     0.273 C 
ATOM      5  O   UNL A   1      33.614  21.815  28.355  1.00  0.00    -0.267 OA
ATOM      6  H   UNL A   1      34.755  20.492  26.916  1.00  0.00     0.163 HD
BRANCH   4   7
ATOM      7  C   UNL A   1      32.974  23.326  26.669  1.00  0.00     0.173 A 
ATOM      8  C   UNL A   1      34.458  25.101  25.305  1.00  0.00     0.069 C 
ATOM      9  C   UNL A   1      33.266  24.438  25.879  1.00  0.00     0.075 A 
ATOM     10  N   UNL A   1      32.028  25.053  25.723  1.00  0.00    -0.210 N 
ATOM     11  N   UNL A   1      31.676  23.505  27.145  1.00  0.00    -0.124 NA
ATOM     12  N   UNL A   1      31.172  24.621  26.654  1.00  0.00    -0.061 NA
BRANCH  10  13
ATOM     13  C   UNL A   1      31.745  26.179  24.927  1.00  0.00     0.144 A 
ATOM     14  C   UNL A   1      31.376  25.950  23.594  1.00  0.00     0.037 A 
ATOM     15  C   UNL A   1      31.658  27.472  25.473  1.00  0.00     0.296 A 
ATOM     16  C   UNL A   1      30.862  27.003  22.834  1.00  0.00     0.023 A 
ATOM     17  C   UNL A   1      31.159  28.529  24.698  1.00  0.00     0.108 A 
ATOM     18  C   UNL A   1      30.749  28.279  23.389  1.00  0.00     0.048 A 
ATOM     19  Cl  UNL A   1      30.080  29.558  22.454  1.00  0.00    -0.084 Cl
BRANCH  15  20
ATOM     20  N   UNL A   1      32.103  27.781  26.838  1.00  0.00     0.065 N 
ATOM     21  O   UNL A   1      33.314  27.976  27.008  1.00  0.00    -0.258 OA
ATOM     22  O   UNL A   1      31.251  27.842  27.731  1.00  0.00    -0.258 OA
ENDBRANCH  15  20
ENDBRANCH  10  13
ENDBRANCH   4   7
ENDBRANCH   2   3
ENDBRANCH   1   2
BRANCH   1  23
ATOM     23  C   UNL A   1      37.244  20.406  24.813  1.00  0.00     0.023 C 
BRANCH  23  24
ATOM     24  C   UNL A   1      38.599  20.760  25.413  1.00  0.00     0.116 C 
BRANCH  24  25
ATOM     25  N   UNL A   1      39.472  19.597  25.648  1.00  0.00    -0.352 N 
ATOM     26  C   UNL A   1      40.843  19.575  25.891  1.00  0.00     0.251 C 
ATOM     27  H   UNL A   1      39.025  18.719  25.632  1.00  0.00     0.163 HD
ATOM     28  O   UNL A   1      41.518  18.582  25.694  1.00  0.00    -0.269 OA
BRANCH  26  29
ATOM     29  C   UNL A   1      41.446  20.794  26.453  1.00  0.00     0.039 A 
ATOM     30  C   UNL A   1      42.179  21.728  25.716  1.00  0.00     0.014 A 
ATOM     31  C   UNL A   1      41.131  21.022  27.781  1.00  0.00     0.014 A 
ATOM     32  C   UNL A   1      42.537  22.922  26.345  1.00  0.00     0.010 A 
ATOM     33  C   UNL A   1      41.156  22.299  28.234  1.00  0.00     0.010 A 
ATOM     34  C   UNL A   1      42.008  23.192  27.616  1.00  0.00    -0.014 A 
BRANCH  34  35
ATOM     35  C   UNL A   1      42.237  24.417  28.359  1.00  0.00     0.031 A 
ATOM     36  C   UNL A   1      41.169  25.421  28.181  1.00  0.00     0.074 A 
ATOM     37  C   UNL A   1      43.179  24.493  29.331  1.00  0.00     0.049 A 
ATOM     38  N   UNL A   1      41.226  26.503  27.483  1.00  0.00    -0.248 NA
ATOM     39  C   UNL A   1      39.819  25.107  28.680  1.00  0.00     0.031 C 
ATOM     40  C   UNL A   1      44.053  23.418  29.842  1.00  0.00     0.029 A 
ATOM     41  N   UNL A   1      43.500  25.534  30.149  1.00  0.00    -0.354 N 
ATOM     42  C   UNL A   1      40.002  27.135  27.677  1.00  0.00     0.074 A 
ATOM     43  C   UNL A   1      39.113  26.135  28.201  1.00  0.00     0.031 C 
ATOM     44  C   UNL A   1      44.623  23.795  31.007  1.00  0.00     0.029 A 
ATOM     45  C   UNL A   1      44.321  25.195  31.222  1.00  0.00     0.049 A 
ATOM     46  H   UNL A   1      43.178  26.452  29.994  1.00  0.00     0.167 HD
ATOM     47  C   UNL A   1      39.940  28.495  27.716  1.00  0.00     0.037 A 
ATOM     48  C   UNL A   1      44.738  26.019  32.212  1.00  0.00     0.037 A 
ATOM     49  C   UNL A   1      41.199  29.060  27.290  1.00  0.00     0.049 A 
ATOM     50  C   UNL A   1      44.617  27.402  31.696  1.00  0.00     0.074 A 
ATOM     51  C   UNL A   1      41.863  29.234  26.097  1.00  0.00     0.029 A 
ATOM     52  N   UNL A   1      42.129  29.131  28.295  1.00  0.00    -0.354 N 
ATOM     53  N   UNL A   1      45.325  27.854  30.697  1.00  0.00    -0.248 NA
ATOM     54  C   UNL A   1      43.423  28.175  32.015  1.00  0.00     0.031 C 
ATOM     55  C   UNL A   1      43.256  29.230  26.417  1.00  0.00     0.029 A 
ATOM     56  C   UNL A   1      43.404  29.114  27.798  1.00  0.00     0.049 A 
ATOM     57  H   UNL A   1      41.908  29.187  29.252  1.00  0.00     0.167 HD
ATOM     58  C   UNL A   1      44.459  28.683  30.009  1.00  0.00     0.074 A 
ATOM     59  C   UNL A   1      43.382  28.977  30.947  1.00  0.00     0.031 C 
ATOM     60  C   UNL A   1      44.526  28.782  28.649  1.00  0.00     0.037 A 
BRANCH  47  61
ATOM     61  C   UNL A   1      39.004  29.305  28.587  1.00  0.00     0.064 A 
ATOM     62  C   UNL A   1      39.089  29.163  29.988  1.00  0.00     0.173 A 
ATOM     63  C   UNL A   1      37.844  29.953  28.115  1.00  0.00     0.173 A 
ATOM     64  F   UNL A   1      40.138  28.541  30.548  1.00  0.00    -0.203 F 
ATOM     65  C   UNL A   1      38.060  29.581  30.840  1.00  0.00     0.198 A 
ATOM     66  C   UNL A   1      36.843  30.414  28.970  1.00  0.00     0.198 A 
ATOM     67  F   UNL A   1      37.566  30.064  26.811  1.00  0.00    -0.203 F 
ATOM     68  F   UNL A   1      38.134  29.320  32.152  1.00  0.00    -0.200 F 
ATOM     69  C   UNL A   1      36.936  30.202  30.328  1.00  0.00     0.200 A 
ATOM     70  F   UNL A   1      35.749  30.992  28.452  1.00  0.00    -0.200 F 
ATOM     71  F   UNL A   1      35.924  30.552  31.133  1.00  0.00    -0.200 F 
ENDBRANCH  47  61
BRANCH  48  72
ATOM     72  C   UNL A   1      44.939  25.713  33.647  1.00  0.00     0.064 A 
ATOM     73  C   UNL A   1      43.857  25.517  34.520  1.00  0.00     0.173 A 
ATOM     74  C   UNL A   1      46.205  25.311  34.116  1.00  0.00     0.173 A 
ATOM     75  F   UNL A   1      42.614  25.834  34.131  1.00  0.00    -0.203 F 
ATOM     76  C   UNL A   1      44.028  24.925  35.777  1.00  0.00     0.198 A 
ATOM     77  C   UNL A   1      46.373  24.718  35.369  1.00  0.00     0.198 A 
ATOM     78  F   UNL A   1      47.283  25.394  33.321  1.00  0.00    -0.203 F 
ATOM     79  F   UNL A   1      42.963  24.696  36.559  1.00  0.00    -0.200 F 
ATOM     80  C   UNL A   1      45.284  24.513  36.194  1.00  0.00     0.200 A 
ATOM     81  F   UNL A   1      47.586  24.280  35.739  1.00  0.00    -0.200 F 
ATOM     82  F   UNL A   1      45.436  23.878  37.365  1.00  0.00    -0.200 F 
ENDBRANCH  48  72
BRANCH  60  83
ATOM     83  C   UNL A   1      45.812  28.379  27.993  1.00  0.00     0.064 A 
ATOM     84  C   UNL A   1      46.067  27.116  27.436  1.00  0.00     0.173 A 
ATOM     85  C   UNL A   1      46.805  29.357  27.856  1.00  0.00     0.173 A 
ATOM     86  F   UNL A   1      45.140  26.153  27.458  1.00  0.00    -0.203 F 
ATOM     87  C   UNL A   1      47.280  26.837  26.805  1.00  0.00     0.198 A 
ATOM     88  C   UNL A   1      48.000  29.087  27.198  1.00  0.00     0.198 A 
ATOM     89  F   UNL A   1      46.597  30.594  28.333  1.00  0.00    -0.203 F 
ATOM     90  F   UNL A   1      47.507  25.617  26.293  1.00  0.00    -0.200 F 
ATOM     91  C   UNL A   1      48.242  27.825  26.682  1.00  0.00     0.200 A 
ATOM     92  F   UNL A   1      48.908  30.060  27.045  1.00  0.00    -0.200 F 
ATOM     93  F   UNL A   1      49.395  27.568  26.048  1.00  0.00    -0.200 F 
ENDBRANCH  60  83
ENDBRANCH  34  35
ENDBRANCH  26  29
ENDBRANCH  24  25
ENDBRANCH  23  24
ENDBRANCH   1  23
TORSDOF 13
ENDMDL
MODEL 2
REMARK VINA RESULT:     -12.6      3.148      7.783
REMARK SMILES Cc1c(C(=O)NCCCCNC(=O)c2ccc(-c3c4nc(c(-c5c(F)c(F)c(F)c(F)c5F)c5ccc([nH]5)c(-c5c(F)c(F)c(F)c(F)c5F)c5nc(c(-c6c(F)c(F)c(F)c(F)c6F)c6ccc3[nH]6)C=C5)C=C4)cc2)nnn1-c1ccc(Cl)cc1[N+](=O)[O-]
REMARK SMILES IDX 8 1 7 2 6 3 4 4 5 5 3 7 1 8 2 9 79 10 77 11 78 12 80 13
REMARK SMILES IDX 81 14 86 15 82 16 85 17 83 18 84 19 87 20 88 21 89 22 9 23
REMARK SMILES IDX 10 24 11 25 12 26 13 28 14 29 15 30 76 31 16 32 75 33 17 34
REMARK SMILES IDX 18 35 19 36 69 37 20 38 74 39 68 40 70 41 21 42 73 43 67 44
REMARK SMILES IDX 66 45 22 47 54 48 34 49 53 50 35 51 38 52 52 53 71 54 36 55
REMARK SMILES IDX 37 56 51 58 72 59 39 60 23 61 24 62 32 63 25 64 26 65 30 66
REMARK SMILES IDX 33 67 27 68 28 69 31 70 29 71 55 72 56 73 64 74 57 75 58 76
REMARK SMILES IDX 62 77 65 78 59 79 60 80 63 81 61 82 40 83 41 84 49 85 42 86
REMARK SMILES IDX 43 87 47 88 50 89 44 90 45 91 48 92 46 93
REMARK H PARENT 6 6 11 27 70 46 38 57
REMARK Flexibility Score: inf
ROOT
ATOM      1  C   UNL A   1      32.039  29.889  26.287  1.00  0.00     0.023 C 
ENDROOT
BRANCH   1   2
ATOM      2  C   UNL A   1      31.826  28.889  25.140  1.00  0.00     0.116 C 
BRANCH   2   3
ATOM      3  N   UNL A   1      32.694  29.178  24.026  1.00  0.00    -0.351 N 
ATOM      4  C   UNL A   1      33.487  28.408  23.215  1.00  0.00     0.273 C 
ATOM      5  O   UNL A   1      34.099  29.058  22.360  1.00  0.00    -0.267 OA
ATOM      6  H   UNL A   1      32.722  30.135  23.798  1.00  0.00     0.163 HD
BRANCH   4   7
ATOM      7  C   UNL A   1      33.609  26.943  23.266  1.00  0.00     0.173 A 
ATOM      8  C   UNL A   1      34.050  25.869  25.688  1.00  0.00     0.069 C 
ATOM      9  C   UNL A   1      33.747  25.956  24.242  1.00  0.00     0.075 A 
ATOM     10  N   UNL A   1      33.629  24.773  23.520  1.00  0.00    -0.210 N 
ATOM     11  N   UNL A   1      33.695  26.299  22.032  1.00  0.00    -0.124 NA
ATOM     12  N   UNL A   1      33.830  24.999  22.218  1.00  0.00    -0.061 NA
BRANCH  10  13
ATOM     13  C   UNL A   1      33.604  23.467  24.046  1.00  0.00     0.144 A 
ATOM     14  C   UNL A   1      32.352  22.929  24.373  1.00  0.00     0.037 A 
ATOM     15  C   UNL A   1      34.754  22.659  24.082  1.00  0.00     0.296 A 
ATOM     16  C   UNL A   1      32.248  21.569  24.674  1.00  0.00     0.023 A 
ATOM     17  C   UNL A   1      34.644  21.298  24.404  1.00  0.00     0.108 A 
ATOM     18  C   UNL A   1      33.388  20.763  24.680  1.00  0.00     0.048 A 
ATOM     19  Cl  UNL A   1      33.240  19.082  25.016  1.00  0.00    -0.084 Cl
BRANCH  15  20
ATOM     20  N   UNL A   1      36.097  23.191  23.823  1.00  0.00     0.065 N 
ATOM     21  O   UNL A   1      36.674  23.755  24.762  1.00  0.00    -0.258 OA
ATOM     22  O   UNL A   1      36.580  23.035  22.695  1.00  0.00    -0.258 OA
ENDBRANCH  15  20
ENDBRANCH  10  13
ENDBRANCH   4   7
ENDBRANCH   2   3
ENDBRANCH   1   2
BRANCH   1  23
ATOM     23  C   UNL A   1      33.186  29.603  27.259  1.00  0.00     0.023 C 
BRANCH  23  24
ATOM     24  C   UNL A   1      34.291  30.651  27.260  1.00  0.00     0.116 C 
BRANCH  24  25
ATOM     25  N   UNL A   1      34.201  31.614  28.372  1.00  0.00    -0.352 N 
ATOM     26  C   UNL A   1      35.040  31.747  29.475  1.00  0.00     0.251 C 
ATOM     27  H   UNL A   1      33.447  32.246  28.328  1.00  0.00     0.163 HD
ATOM     28  O   UNL A   1      34.678  32.293  30.500  1.00  0.00    -0.269 OA
BRANCH  26  29
ATOM     29  C   UNL A   1      36.418  31.247  29.337  1.00  0.00     0.039 A 
ATOM     30  C   UNL A   1      37.553  32.059  29.272  1.00  0.00     0.014 A 
ATOM     31  C   UNL A   1      36.529  29.869  29.392  1.00  0.00     0.014 A 
ATOM     32  C   UNL A   1      38.803  31.441  29.321  1.00  0.00     0.010 A 
ATOM     33  C   UNL A   1      37.705  29.339  29.809  1.00  0.00     0.010 A 
ATOM     34  C   UNL A   1      38.858  30.066  29.594  1.00  0.00    -0.014 A 
BRANCH  34  35
ATOM     35  C   UNL A   1      40.085  29.304  29.741  1.00  0.00     0.031 A 
ATOM     36  C   UNL A   1      40.494  29.114  31.147  1.00  0.00     0.074 A 
ATOM     37  C   UNL A   1      40.615  28.605  28.708  1.00  0.00     0.049 A 
ATOM     38  N   UNL A   1      41.457  29.708  31.765  1.00  0.00    -0.248 NA
ATOM     39  C   UNL A   1      39.627  28.313  32.029  1.00  0.00     0.031 C 
ATOM     40  C   UNL A   1      40.068  28.431  27.348  1.00  0.00     0.029 A 
ATOM     41  N   UNL A   1      41.722  27.811  28.675  1.00  0.00    -0.354 N 
ATOM     42  C   UNL A   1      41.479  29.151  33.039  1.00  0.00     0.074 A 
ATOM     43  C   UNL A   1      40.208  28.504  33.216  1.00  0.00     0.031 C 
ATOM     44  C   UNL A   1      40.708  27.424  26.714  1.00  0.00     0.029 A 
ATOM     45  C   UNL A   1      41.831  27.019  27.534  1.00  0.00     0.049 A 
ATOM     46  H   UNL A   1      42.389  27.799  29.398  1.00  0.00     0.167 HD
ATOM     47  C   UNL A   1      42.667  28.980  33.684  1.00  0.00     0.037 A 
ATOM     48  C   UNL A   1      42.794  26.102  27.276  1.00  0.00     0.037 A 
ATOM     49  C   UNL A   1      43.719  29.666  32.972  1.00  0.00     0.049 A 
ATOM     50  C   UNL A   1      43.953  26.449  28.130  1.00  0.00     0.074 A 
ATOM     51  C   UNL A   1      44.125  30.970  32.801  1.00  0.00     0.029 A 
ATOM     52  N   UNL A   1      44.241  28.933  31.937  1.00  0.00    -0.354 N 
ATOM     53  N   UNL A   1      44.634  27.555  27.993  1.00  0.00    -0.248 NA
ATOM     54  C   UNL A   1      44.119  25.768  29.408  1.00  0.00     0.031 C 
ATOM     55  C   UNL A   1      44.759  31.022  31.522  1.00  0.00     0.029 A 
ATOM     56  C   UNL A   1      44.779  29.741  30.973  1.00  0.00     0.049 A 
ATOM     57  H   UNL A   1      44.230  27.950  31.895  1.00  0.00     0.167 HD
ATOM     58  C   UNL A   1      44.958  27.922  29.285  1.00  0.00     0.074 A 
ATOM     59  C   UNL A   1      44.773  26.717  30.085  1.00  0.00     0.031 C 
ATOM     60  C   UNL A   1      45.020  29.240  29.638  1.00  0.00     0.037 A 
BRANCH  47  61
ATOM     61  C   UNL A   1      43.005  27.832  34.610  1.00  0.00     0.064 A 
ATOM     62  C   UNL A   1      43.324  28.117  35.954  1.00  0.00     0.173 A 
ATOM     63  C   UNL A   1      43.336  26.532  34.173  1.00  0.00     0.173 A 
ATOM     64  F   UNL A   1      43.077  29.330  36.471  1.00  0.00    -0.203 F 
ATOM     65  C   UNL A   1      43.982  27.192  36.772  1.00  0.00     0.198 A 
ATOM     66  C   UNL A   1      43.945  25.594  35.007  1.00  0.00     0.198 A 
ATOM     67  F   UNL A   1      43.198  26.148  32.899  1.00  0.00    -0.203 F 
ATOM     68  F   UNL A   1      44.368  27.548  38.005  1.00  0.00    -0.200 F 
ATOM     69  C   UNL A   1      44.295  25.933  36.296  1.00  0.00     0.200 A 
ATOM     70  F   UNL A   1      44.263  24.387  34.516  1.00  0.00    -0.200 F 
ATOM     71  F   UNL A   1      44.974  25.064  37.056  1.00  0.00    -0.200 F 
ENDBRANCH  47  61
BRANCH  48  72
ATOM     72  C   UNL A   1      42.669  24.800  26.583  1.00  0.00     0.064 A 
ATOM     73  C   UNL A   1      43.396  24.510  25.417  1.00  0.00     0.173 A 
ATOM     74  C   UNL A   1      42.056  23.709  27.228  1.00  0.00     0.173 A 
ATOM     75  F   UNL A   1      44.045  25.489  24.769  1.00  0.00    -0.203 F 
ATOM     76  C   UNL A   1      43.529  23.200  24.942  1.00  0.00     0.198 A 
ATOM     77  C   UNL A   1      42.191  22.402  26.755  1.00  0.00     0.198 A 
ATOM     78  F   UNL A   1      41.403  23.883  28.386  1.00  0.00    -0.203 F 
ATOM     79  F   UNL A   1      44.283  22.951  23.862  1.00  0.00    -0.200 F 
ATOM     80  C   UNL A   1      42.937  22.146  25.621  1.00  0.00     0.200 A 
ATOM     81  F   UNL A   1      41.654  21.386  27.448  1.00  0.00    -0.200 F 
ATOM     82  F   UNL A   1      43.126  20.883  25.209  1.00  0.00    -0.200 F 
ENDBRANCH  48  72
BRANCH  60  83
ATOM     83  C   UNL A   1      45.212  30.237  28.535  1.00  0.00     0.064 A 
ATOM     84  C   UNL A   1      44.173  30.905  27.868  1.00  0.00     0.173 A 
ATOM     85  C   UNL A   1      46.525  30.587  28.196  1.00  0.00     0.173 A 
ATOM     86  F   UNL A   1      42.893  30.684  28.188  1.00  0.00    -0.203 F 
ATOM     87  C   UNL A   1      44.441  31.853  26.880  1.00  0.00     0.198 A 
ATOM     88  C   UNL A   1      46.791  31.555  27.235  1.00  0.00     0.198 A 
ATOM     89  F   UNL A   1      47.556  30.010  28.832  1.00  0.00    -0.203 F 
ATOM     90  F   UNL A   1      43.431  32.467  26.245  1.00  0.00    -0.200 F 
ATOM     91  C   UNL A   1      45.749  32.180  26.568  1.00  0.00     0.200 A 
ATOM     92  F   UNL A   1      48.058  31.897  26.970  1.00  0.00    -0.200 F 
ATOM     93  F   UNL A   1      46.009  33.113  25.642  1.00  0.00    -0.200 F 
ENDBRANCH  60  83
ENDBRANCH  34  35
ENDBRANCH  26  29
ENDBRANCH  24  25
ENDBRANCH  23  24
ENDBRANCH   1  23
TORSDOF 13
ENDMDL
MODEL 3
REMARK VINA RESULT:     -12.6      2.805      7.451
REMARK SMILES Cc1c(C(=O)NCCCCNC(=O)c2ccc(-c3c4nc(c(-c5c(F)c(F)c(F)c(F)c5F)c5ccc([nH]5)c(-c5c(F)c(F)c(F)c(F)c5F)c5nc(c(-c6c(F)c(F)c(F)c(F)c6F)c6ccc3[nH]6)C=C5)C=C4)cc2)nnn1-c1ccc(Cl)cc1[N+](=O)[O-]
REMARK SMILES IDX 8 1 7 2 6 3 4 4 5 5 3 7 1 8 2 9 79 10 77 11 78 12 80 13
REMARK SMILES IDX 81 14 86 15 82 16 85 17 83 18 84 19 87 20 88 21 89 22 9 23
REMARK SMILES IDX 10 24 11 25 12 26 13 28 14 29 15 30 76 31 16 32 75 33 17 34
REMARK SMILES IDX 18 35 19 36 69 37 20 38 74 39 68 40 70 41 21 42 73 43 67 44
REMARK SMILES IDX 66 45 22 47 54 48 34 49 53 50 35 51 38 52 52 53 71 54 36 55
REMARK SMILES IDX 37 56 51 58 72 59 39 60 23 61 24 62 32 63 25 64 26 65 30 66
REMARK SMILES IDX 33 67 27 68 28 69 31 70 29 71 55 72 56 73 64 74 57 75 58 76
REMARK SMILES IDX 62 77 65 78 59 79 60 80 63 81 61 82 40 83 41 84 49 85 42 86
REMARK SMILES IDX 43 87 47 88 50 89 44 90 45 91 48 92 46 93
REMARK H PARENT 6 6 11 27 70 46 38 57
REMARK Flexibility Score: inf
ROOT
ATOM      1  C   UNL A   1      36.444  22.449  24.392  1.00  0.00     0.023 C 
ENDROOT
BRANCH   1   2
ATOM      2  C   UNL A   1      35.056  21.817  24.580  1.00  0.00     0.116 C 
BRANCH   2   3
ATOM      3  N   UNL A   1      34.728  21.681  25.976  1.00  0.00    -0.351 N 
ATOM      4  C   UNL A   1      33.958  22.409  26.848  1.00  0.00     0.273 C 
ATOM      5  O   UNL A   1      33.945  21.951  27.996  1.00  0.00    -0.267 OA
ATOM      6  H   UNL A   1      35.146  20.894  26.395  1.00  0.00     0.163 HD
BRANCH   4   7
ATOM      7  C   UNL A   1      33.160  23.597  26.509  1.00  0.00     0.173 A 
ATOM      8  C   UNL A   1      34.431  25.535  25.151  1.00  0.00     0.069 C 
ATOM      9  C   UNL A   1      33.328  24.774  25.779  1.00  0.00     0.075 A 
ATOM     10  N   UNL A   1      32.055  25.335  25.781  1.00  0.00    -0.210 N 
ATOM     11  N   UNL A   1      31.905  23.676  27.111  1.00  0.00    -0.124 NA
ATOM     12  N   UNL A   1      31.309  24.797  26.749  1.00  0.00    -0.061 NA
BRANCH  10  13
ATOM     13  C   UNL A   1      31.650  26.498  25.097  1.00  0.00     0.144 A 
ATOM     14  C   UNL A   1      31.060  26.332  23.837  1.00  0.00     0.037 A 
ATOM     15  C   UNL A   1      31.665  27.763  25.711  1.00  0.00     0.296 A 
ATOM     16  C   UNL A   1      30.432  27.419  23.225  1.00  0.00     0.023 A 
ATOM     17  C   UNL A   1      31.050  28.855  25.082  1.00  0.00     0.108 A 
ATOM     18  C   UNL A   1      30.424  28.667  23.851  1.00  0.00     0.048 A 
ATOM     19  Cl  UNL A   1      29.616  29.988  23.104  1.00  0.00    -0.084 Cl
BRANCH  15  20
ATOM     20  N   UNL A   1      32.335  28.007  26.994  1.00  0.00     0.065 N 
ATOM     21  O   UNL A   1      33.512  28.389  26.955  1.00  0.00    -0.258 OA
ATOM     22  O   UNL A   1      31.690  27.832  28.034  1.00  0.00    -0.258 OA
ENDBRANCH  15  20
ENDBRANCH  10  13
ENDBRANCH   4   7
ENDBRANCH   2   3
ENDBRANCH   1   2
BRANCH   1  23
ATOM     23  C   UNL A   1      37.615  21.790  25.125  1.00  0.00     0.023 C 
BRANCH  23  24
ATOM     24  C   UNL A   1      38.303  22.683  26.149  1.00  0.00     0.116 C 
BRANCH  24  25
ATOM     25  N   UNL A   1      39.453  22.049  26.819  1.00  0.00    -0.352 N 
ATOM     26  C   UNL A   1      40.690  22.606  27.134  1.00  0.00     0.251 C 
ATOM     27  H   UNL A   1      39.329  21.108  27.078  1.00  0.00     0.163 HD
ATOM     28  O   UNL A   1      41.676  21.922  27.328  1.00  0.00    -0.269 OA
BRANCH  26  29
ATOM     29  C   UNL A   1      40.750  24.070  27.280  1.00  0.00     0.039 A 
ATOM     30  C   UNL A   1      39.928  24.969  26.595  1.00  0.00     0.014 A 
ATOM     31  C   UNL A   1      41.626  24.507  28.258  1.00  0.00     0.014 A 
ATOM     32  C   UNL A   1      39.978  26.314  26.967  1.00  0.00     0.010 A 
ATOM     33  C   UNL A   1      41.387  25.707  28.840  1.00  0.00     0.010 A 
ATOM     34  C   UNL A   1      40.719  26.665  28.105  1.00  0.00    -0.014 A 
BRANCH  34  35
ATOM     35  C   UNL A   1      40.807  28.009  28.648  1.00  0.00     0.031 A 
ATOM     36  C   UNL A   1      41.915  28.801  28.078  1.00  0.00     0.074 A 
ATOM     37  C   UNL A   1      39.798  28.549  29.373  1.00  0.00     0.049 A 
ATOM     38  N   UNL A   1      43.029  29.106  28.650  1.00  0.00    -0.248 NA
ATOM     39  C   UNL A   1      41.871  29.143  26.645  1.00  0.00     0.031 C 
ATOM     40  C   UNL A   1      38.480  27.961  29.684  1.00  0.00     0.029 A 
ATOM     41  N   UNL A   1      39.692  29.793  29.919  1.00  0.00    -0.354 N 
ATOM     42  C   UNL A   1      43.708  29.906  27.737  1.00  0.00     0.074 A 
ATOM     43  C   UNL A   1      43.076  29.689  26.465  1.00  0.00     0.031 C 
ATOM     44  C   UNL A   1      37.643  28.914  30.151  1.00  0.00     0.029 A 
ATOM     45  C   UNL A   1      38.413  30.122  30.362  1.00  0.00     0.049 A 
ATOM     46  H   UNL A   1      40.457  30.408  29.994  1.00  0.00     0.167 HD
ATOM     47  C   UNL A   1      44.493  30.927  28.183  1.00  0.00     0.037 A 
ATOM     48  C   UNL A   1      38.020  31.308  30.887  1.00  0.00     0.037 A 
ATOM     49  C   UNL A   1      44.665  30.831  29.613  1.00  0.00     0.049 A 
ATOM     50  C   UNL A   1      39.242  31.983  31.379  1.00  0.00     0.074 A 
ATOM     51  C   UNL A   1      45.384  30.044  30.483  1.00  0.00     0.029 A 
ATOM     52  N   UNL A   1      43.633  31.392  30.322  1.00  0.00    -0.354 N 
ATOM     53  N   UNL A   1      39.967  31.518  32.360  1.00  0.00    -0.248 NA
ATOM     54  C   UNL A   1      39.902  32.963  30.525  1.00  0.00     0.031 C 
ATOM     55  C   UNL A   1      44.634  30.012  31.699  1.00  0.00     0.029 A 
ATOM     56  C   UNL A   1      43.511  30.826  31.561  1.00  0.00     0.049 A 
ATOM     57  H   UNL A   1      43.053  32.111  29.980  1.00  0.00     0.167 HD
ATOM     58  C   UNL A   1      41.268  31.809  31.995  1.00  0.00     0.074 A 
ATOM     59  C   UNL A   1      41.157  32.836  30.965  1.00  0.00     0.031 C 
ATOM     60  C   UNL A   1      42.286  30.959  32.319  1.00  0.00     0.037 A 
BRANCH  47  61
ATOM     61  C   UNL A   1      44.680  32.257  27.487  1.00  0.00     0.064 A 
ATOM     62  C   UNL A   1      45.881  32.493  26.786  1.00  0.00     0.173 A 
ATOM     63  C   UNL A   1      43.894  33.402  27.738  1.00  0.00     0.173 A 
ATOM     64  F   UNL A   1      46.720  31.482  26.511  1.00  0.00    -0.203 F 
ATOM     65  C   UNL A   1      46.290  33.782  26.425  1.00  0.00     0.198 A 
ATOM     66  C   UNL A   1      44.279  34.679  27.332  1.00  0.00     0.198 A 
ATOM     67  F   UNL A   1      42.785  33.358  28.486  1.00  0.00    -0.203 F 
ATOM     68  F   UNL A   1      47.492  33.968  25.864  1.00  0.00    -0.200 F 
ATOM     69  C   UNL A   1      45.489  34.874  26.703  1.00  0.00     0.200 A 
ATOM     70  F   UNL A   1      43.499  35.728  27.634  1.00  0.00    -0.200 F 
ATOM     71  F   UNL A   1      45.901  36.115  26.410  1.00  0.00    -0.200 F 
ENDBRANCH  47  61
BRANCH  48  72
ATOM     72  C   UNL A   1      36.727  32.010  30.717  1.00  0.00     0.064 A 
ATOM     73  C   UNL A   1      35.844  32.203  31.791  1.00  0.00     0.173 A 
ATOM     74  C   UNL A   1      36.477  32.766  29.555  1.00  0.00     0.173 A 
ATOM     75  F   UNL A   1      36.040  31.553  32.947  1.00  0.00    -0.203 F 
ATOM     76  C   UNL A   1      34.791  33.123  31.718  1.00  0.00     0.198 A 
ATOM     77  C   UNL A   1      35.429  33.686  29.485  1.00  0.00     0.198 A 
ATOM     78  F   UNL A   1      37.313  32.699  28.508  1.00  0.00    -0.203 F 
ATOM     79  F   UNL A   1      34.006  33.328  32.785  1.00  0.00    -0.200 F 
ATOM     80  C   UNL A   1      34.594  33.873  30.570  1.00  0.00     0.200 A 
ATOM     81  F   UNL A   1      35.279  34.439  28.385  1.00  0.00    -0.200 F 
ATOM     82  F   UNL A   1      33.633  34.808  30.526  1.00  0.00    -0.200 F 
ENDBRANCH  48  72
BRANCH  60  83
ATOM     83  C   UNL A   1      42.051  30.006  33.451  1.00  0.00     0.064 A 
ATOM     84  C   UNL A   1      41.660  28.666  33.303  1.00  0.00     0.173 A 
ATOM     85  C   UNL A   1      42.315  30.461  34.749  1.00  0.00     0.173 A 
ATOM     86  F   UNL A   1      41.463  28.134  32.092  1.00  0.00    -0.203 F 
ATOM     87  C   UNL A   1      41.504  27.832  34.411  1.00  0.00     0.198 A 
ATOM     88  C   UNL A   1      42.192  29.620  35.849  1.00  0.00     0.198 A 
ATOM     89  F   UNL A   1      42.733  31.721  34.944  1.00  0.00    -0.203 F 
ATOM     90  F   UNL A   1      41.114  26.559  34.246  1.00  0.00    -0.200 F 
ATOM     91  C   UNL A   1      41.775  28.310  35.682  1.00  0.00     0.200 A 
ATOM     92  F   UNL A   1      42.498  30.076  37.071  1.00  0.00    -0.200 F 
ATOM     93  F   UNL A   1      41.657  27.502  36.745  1.00  0.00    -0.200 F 
ENDBRANCH  60  83
ENDBRANCH  34  35
ENDBRANCH  26  29
ENDBRANCH  24  25
ENDBRANCH  23  24
ENDBRANCH   1  23
TORSDOF 13
ENDMDL
