MODEL 1
REMARK VINA RESULT:     -10.6      0.000      0.000
REMARK SMILES C[C@@H](CC(=O)NCCCCNC(=O)c1ccc(-c2c3nc(c(-c4c(F)c(F)c(F)c(F)c4F)c4ccc([nH]4)c(-c4c(F)c(F)c(F)c(F)c4F)c4nc(c(-c5c(F)c(F)c(F)c(F)c5F)c5ccc2[nH]5)C=C4)C=C3)cc1)NC(=O)CCCN1C(=O)CN(C)C1=O
REMARK SMILES IDX 4 1 5 2 6 3 3 5 2 6 1 7 77 8 78 9 79 11 80 12 81 13 82 14
REMARK SMILES IDX 83 15 84 16 89 17 85 18 86 19 87 20 90 21 88 22 7 23 8 24
REMARK SMILES IDX 9 25 10 26 11 27 12 28 13 30 14 31 15 32 76 33 16 34 75 35
REMARK SMILES IDX 17 36 18 37 19 38 69 39 20 40 74 41 68 42 70 43 21 44 73 45
REMARK SMILES IDX 67 46 66 47 22 49 54 50 34 51 53 52 35 53 38 54 52 55 71 56
REMARK SMILES IDX 36 57 37 58 51 60 72 61 39 62 23 63 24 64 32 65 25 66 26 67
REMARK SMILES IDX 30 68 33 69 27 70 28 71 31 72 29 73 55 74 56 75 64 76 57 77
REMARK SMILES IDX 58 78 62 79 65 80 59 81 60 82 63 83 61 84 40 85 41 86 49 87
REMARK SMILES IDX 42 88 43 89 47 90 50 91 44 92 45 93 48 94 46 95
REMARK H PARENT 6 4 77 10 11 29 70 48 38 59
REMARK Flexibility Score: inf
ROOT
ATOM      1  C   UNL A   1      35.069  30.871  28.021  1.00  0.00     0.222 C 
ATOM      2  O   UNL A   1      35.248  29.686  28.301  1.00  0.00    -0.275 OA
ATOM      3  N   UNL A   1      36.132  31.721  28.088  1.00  0.00    -0.356 N 
ATOM      4  H   UNL A   1      36.998  31.285  28.257  1.00  0.00     0.163 HD
ENDROOT
BRANCH   1   5
ATOM      5  C   UNL A   1      33.724  31.374  27.564  1.00  0.00     0.124 C 
BRANCH   5   6
ATOM      6  C   UNL A   1      32.822  30.378  26.838  1.00  0.00     0.088 C 
ATOM      7  C   UNL A   1      31.636  30.937  26.077  1.00  0.00     0.031 C 
BRANCH   6   8
ATOM      8  N   UNL A   1      32.354  29.259  27.619  1.00  0.00    -0.353 N 
ATOM      9  C   UNL A   1      32.315  27.966  27.175  1.00  0.00     0.220 C 
ATOM     10  H   UNL A   1      32.041  29.439  28.535  1.00  0.00     0.163 HD
ATOM     11  O   UNL A   1      31.405  27.241  27.584  1.00  0.00    -0.275 OA
BRANCH   9  12
ATOM     12  C   UNL A   1      33.423  27.404  26.279  1.00  0.00     0.102 C 
BRANCH  12  13
ATOM     13  C   UNL A   1      33.154  26.259  25.298  1.00  0.00     0.032 C 
BRANCH  13  14
ATOM     14  C   UNL A   1      32.478  26.444  23.924  1.00  0.00     0.131 C 
BRANCH  14  15
ATOM     15  N   UNL A   1      31.300  27.295  23.727  1.00  0.00    -0.263 N 
ATOM     16  C   UNL A   1      29.976  26.996  23.920  1.00  0.00     0.250 C 
ATOM     17  C   UNL A   1      31.385  28.445  22.973  1.00  0.00     0.326 C 
ATOM     18  O   UNL A   1      29.479  26.052  24.516  1.00  0.00    -0.272 OA
ATOM     19  C   UNL A   1      29.110  27.976  23.165  1.00  0.00     0.221 C 
ATOM     20  N   UNL A   1      30.104  28.895  22.710  1.00  0.00    -0.318 N 
ATOM     21  O   UNL A   1      32.406  28.963  22.547  1.00  0.00    -0.248 OA
ATOM     22  C   UNL A   1      29.757  30.040  21.906  1.00  0.00     0.149 C 
ENDBRANCH  14  15
ENDBRANCH  13  14
ENDBRANCH  12  13
ENDBRANCH   9  12
ENDBRANCH   6   8
ENDBRANCH   5   6
ENDBRANCH   1   5
BRANCH   3  23
ATOM     23  C   UNL A   1      36.197  33.166  27.952  1.00  0.00     0.116 C 
BRANCH  23  24
ATOM     24  C   UNL A   1      35.791  33.871  29.249  1.00  0.00     0.023 C 
BRANCH  24  25
ATOM     25  C   UNL A   1      34.659  34.873  29.097  1.00  0.00     0.023 C 
BRANCH  25  26
ATOM     26  C   UNL A   1      33.358  34.385  29.695  1.00  0.00     0.116 C 
BRANCH  26  27
ATOM     27  N   UNL A   1      32.706  35.418  30.497  1.00  0.00    -0.352 N 
ATOM     28  C   UNL A   1      32.871  35.698  31.831  1.00  0.00     0.251 C 
ATOM     29  H   UNL A   1      32.063  35.989  30.018  1.00  0.00     0.163 HD
ATOM     30  O   UNL A   1      32.117  36.450  32.423  1.00  0.00    -0.269 OA
BRANCH  28  31
ATOM     31  C   UNL A   1      33.980  35.027  32.538  1.00  0.00     0.039 A 
ATOM     32  C   UNL A   1      33.797  33.736  33.032  1.00  0.00     0.014 A 
ATOM     33  C   UNL A   1      35.232  35.645  32.573  1.00  0.00     0.014 A 
ATOM     34  C   UNL A   1      34.907  33.020  33.476  1.00  0.00     0.010 A 
ATOM     35  C   UNL A   1      36.345  34.893  32.910  1.00  0.00     0.010 A 
ATOM     36  C   UNL A   1      36.194  33.573  33.363  1.00  0.00    -0.014 A 
BRANCH  36  37
ATOM     37  C   UNL A   1      37.410  32.796  33.696  1.00  0.00     0.031 A 
ATOM     38  C   UNL A   1      38.153  33.098  34.965  1.00  0.00     0.074 A 
ATOM     39  C   UNL A   1      37.896  31.904  32.810  1.00  0.00     0.049 A 
ATOM     40  N   UNL A   1      39.300  32.631  35.384  1.00  0.00    -0.248 NA
ATOM     41  C   UNL A   1      37.545  34.093  35.865  1.00  0.00     0.031 C 
ATOM     42  C   UNL A   1      37.295  31.580  31.515  1.00  0.00     0.029 A 
ATOM     43  N   UNL A   1      39.020  31.120  32.859  1.00  0.00    -0.354 N 
ATOM     44  C   UNL A   1      39.559  33.290  36.577  1.00  0.00     0.074 A 
ATOM     45  C   UNL A   1      38.484  34.235  36.786  1.00  0.00     0.031 C 
ATOM     46  C   UNL A   1      38.044  30.648  30.903  1.00  0.00     0.029 A 
ATOM     47  C   UNL A   1      39.197  30.339  31.742  1.00  0.00     0.049 A 
ATOM     48  H   UNL A   1      39.642  31.117  33.622  1.00  0.00     0.167 HD
ATOM     49  C   UNL A   1      40.586  33.100  37.437  1.00  0.00     0.037 A 
ATOM     50  C   UNL A   1      40.185  29.481  31.429  1.00  0.00     0.037 A 
ATOM     51  C   UNL A   1      41.626  32.129  37.241  1.00  0.00     0.049 A 
ATOM     52  C   UNL A   1      41.314  29.286  32.405  1.00  0.00     0.074 A 
ATOM     53  C   UNL A   1      42.662  31.790  38.091  1.00  0.00     0.029 A 
ATOM     54  N   UNL A   1      41.760  31.338  36.108  1.00  0.00    -0.354 N 
ATOM     55  N   UNL A   1      41.505  29.853  33.571  1.00  0.00    -0.248 NA
ATOM     56  C   UNL A   1      42.364  28.334  32.020  1.00  0.00     0.031 C 
ATOM     57  C   UNL A   1      43.451  30.826  37.454  1.00  0.00     0.029 A 
ATOM     58  C   UNL A   1      42.880  30.533  36.225  1.00  0.00     0.049 A 
ATOM     59  H   UNL A   1      41.149  31.349  35.336  1.00  0.00     0.167 HD
ATOM     60  C   UNL A   1      42.687  29.318  34.067  1.00  0.00     0.074 A 
ATOM     61  C   UNL A   1      43.156  28.363  33.084  1.00  0.00     0.031 C 
ATOM     62  C   UNL A   1      43.329  29.594  35.228  1.00  0.00     0.037 A 
BRANCH  49  63
ATOM     63  C   UNL A   1      40.622  33.952  38.672  1.00  0.00     0.064 A 
ATOM     64  C   UNL A   1      39.971  33.563  39.853  1.00  0.00     0.173 A 
ATOM     65  C   UNL A   1      41.336  35.159  38.683  1.00  0.00     0.173 A 
ATOM     66  F   UNL A   1      39.260  32.426  39.889  1.00  0.00    -0.203 F 
ATOM     67  C   UNL A   1      40.008  34.366  40.989  1.00  0.00     0.198 A 
ATOM     68  C   UNL A   1      41.397  35.945  39.831  1.00  0.00     0.198 A 
ATOM     69  F   UNL A   1      41.977  35.577  37.581  1.00  0.00    -0.203 F 
ATOM     70  F   UNL A   1      39.334  34.001  42.088  1.00  0.00    -0.200 F 
ATOM     71  C   UNL A   1      40.727  35.552  40.980  1.00  0.00     0.200 A 
ATOM     72  F   UNL A   1      42.101  37.085  39.824  1.00  0.00    -0.200 F 
ATOM     73  F   UNL A   1      40.766  36.321  42.077  1.00  0.00    -0.200 F 
ENDBRANCH  49  63
BRANCH  50  74
ATOM     74  C   UNL A   1      40.144  28.731  30.147  1.00  0.00     0.064 A 
ATOM     75  C   UNL A   1      40.728  29.259  28.988  1.00  0.00     0.173 A 
ATOM     76  C   UNL A   1      39.523  27.477  30.052  1.00  0.00     0.173 A 
ATOM     77  F   UNL A   1      41.316  30.464  29.024  1.00  0.00    -0.203 F 
ATOM     78  C   UNL A   1      40.678  28.570  27.777  1.00  0.00     0.198 A 
ATOM     79  C   UNL A   1      39.496  26.777  28.847  1.00  0.00     0.198 A 
ATOM     80  F   UNL A   1      38.953  26.925  31.133  1.00  0.00    -0.203 F 
ATOM     81  F   UNL A   1      41.207  29.117  26.675  1.00  0.00    -0.200 F 
ATOM     82  C   UNL A   1      40.066  27.327  27.709  1.00  0.00     0.200 A 
ATOM     83  F   UNL A   1      38.917  25.569  28.789  1.00  0.00    -0.200 F 
ATOM     84  F   UNL A   1      40.022  26.662  26.546  1.00  0.00    -0.200 F 
ENDBRANCH  50  74
BRANCH  62  85
ATOM     85  C   UNL A   1      44.602  28.851  35.498  1.00  0.00     0.064 A 
ATOM     86  C   UNL A   1      44.599  27.611  36.154  1.00  0.00     0.173 A 
ATOM     87  C   UNL A   1      45.833  29.358  35.054  1.00  0.00     0.173 A 
ATOM     88  F   UNL A   1      43.448  27.092  36.611  1.00  0.00    -0.203 F 
ATOM     89  C   UNL A   1      45.784  26.916  36.372  1.00  0.00     0.198 A 
ATOM     90  C   UNL A   1      47.012  28.646  35.248  1.00  0.00     0.198 A 
ATOM     91  F   UNL A   1      45.887  30.537  34.415  1.00  0.00    -0.203 F 
ATOM     92  F   UNL A   1      45.763  25.752  37.037  1.00  0.00    -0.200 F 
ATOM     93  C   UNL A   1      46.987  27.429  35.912  1.00  0.00     0.200 A 
ATOM     94  F   UNL A   1      48.172  29.137  34.791  1.00  0.00    -0.200 F 
ATOM     95  F   UNL A   1      48.126  26.752  36.114  1.00  0.00    -0.200 F 
ENDBRANCH  62  85
ENDBRANCH  36  37
ENDBRANCH  28  31
ENDBRANCH  26  27
ENDBRANCH  25  26
ENDBRANCH  24  25
ENDBRANCH  23  24
ENDBRANCH   3  23
TORSDOF 17
ENDMDL
MODEL 2
REMARK VINA RESULT:     -10.5      3.049      8.442
REMARK SMILES C[C@@H](CC(=O)NCCCCNC(=O)c1ccc(-c2c3nc(c(-c4c(F)c(F)c(F)c(F)c4F)c4ccc([nH]4)c(-c4c(F)c(F)c(F)c(F)c4F)c4nc(c(-c5c(F)c(F)c(F)c(F)c5F)c5ccc2[nH]5)C=C4)C=C3)cc1)NC(=O)CCCN1C(=O)CN(C)C1=O
REMARK SMILES IDX 4 1 5 2 6 3 3 5 2 6 1 7 77 8 78 9 79 11 80 12 81 13 82 14
REMARK SMILES IDX 83 15 84 16 89 17 85 18 86 19 87 20 90 21 88 22 7 23 8 24
REMARK SMILES IDX 9 25 10 26 11 27 12 28 13 30 14 31 15 32 76 33 16 34 75 35
REMARK SMILES IDX 17 36 18 37 19 38 69 39 20 40 74 41 68 42 70 43 21 44 73 45
REMARK SMILES IDX 67 46 66 47 22 49 54 50 34 51 53 52 35 53 38 54 52 55 71 56
REMARK SMILES IDX 36 57 37 58 51 60 72 61 39 62 23 63 24 64 32 65 25 66 26 67
REMARK SMILES IDX 30 68 33 69 27 70 28 71 31 72 29 73 55 74 56 75 64 76 57 77
REMARK SMILES IDX 58 78 62 79 65 80 59 81 60 82 63 83 61 84 40 85 41 86 49 87
REMARK SMILES IDX 42 88 43 89 47 90 50 91 44 92 45 93 48 94 46 95
REMARK H PARENT 6 4 77 10 11 29 70 48 38 59
REMARK Flexibility Score: inf
ROOT
ATOM      1  C   UNL A   1      32.088  26.608  26.343  1.00  0.00     0.222 C 
ATOM      2  O   UNL A   1      31.479  25.610  26.728  1.00  0.00    -0.275 OA
ATOM      3  N   UNL A   1      31.453  27.812  26.389  1.00  0.00    -0.356 N 
ATOM      4  H   UNL A   1      30.576  27.799  26.836  1.00  0.00     0.163 HD
ENDROOT
BRANCH   1   5
ATOM      5  C   UNL A   1      33.519  26.522  25.878  1.00  0.00     0.124 C 
BRANCH   5   6
ATOM      6  C   UNL A   1      33.770  25.848  24.531  1.00  0.00     0.088 C 
ATOM      7  C   UNL A   1      33.564  26.683  23.283  1.00  0.00     0.031 C 
BRANCH   6   8
ATOM      8  N   UNL A   1      33.114  24.580  24.322  1.00  0.00    -0.353 N 
ATOM      9  C   UNL A   1      33.637  23.546  23.595  1.00  0.00     0.220 C 
ATOM     10  H   UNL A   1      32.229  24.450  24.733  1.00  0.00     0.163 HD
ATOM     11  O   UNL A   1      32.855  22.826  22.970  1.00  0.00    -0.275 OA
BRANCH   9  12
ATOM     12  C   UNL A   1      35.135  23.229  23.637  1.00  0.00     0.102 C 
BRANCH  12  13
ATOM     13  C   UNL A   1      35.669  21.993  24.368  1.00  0.00     0.032 C 
BRANCH  13  14
ATOM     14  C   UNL A   1      34.826  21.130  25.329  1.00  0.00     0.131 C 
BRANCH  14  15
ATOM     15  N   UNL A   1      34.059  19.963  24.881  1.00  0.00    -0.263 N 
ATOM     16  C   UNL A   1      32.708  19.741  24.944  1.00  0.00     0.250 C 
ATOM     17  C   UNL A   1      34.691  18.763  24.635  1.00  0.00     0.326 C 
ATOM     18  O   UNL A   1      31.807  20.536  25.161  1.00  0.00    -0.272 OA
ATOM     19  C   UNL A   1      32.421  18.264  24.812  1.00  0.00     0.221 C 
ATOM     20  N   UNL A   1      33.729  17.776  24.512  1.00  0.00    -0.318 N 
ATOM     21  O   UNL A   1      35.895  18.570  24.590  1.00  0.00    -0.248 OA
ATOM     22  C   UNL A   1      33.978  16.372  24.304  1.00  0.00     0.149 C 
ENDBRANCH  14  15
ENDBRANCH  13  14
ENDBRANCH  12  13
ENDBRANCH   9  12
ENDBRANCH   6   8
ENDBRANCH   5   6
ENDBRANCH   1   5
BRANCH   3  23
ATOM     23  C   UNL A   1      31.858  29.114  25.886  1.00  0.00     0.116 C 
BRANCH  23  24
ATOM     24  C   UNL A   1      32.436  29.992  27.000  1.00  0.00     0.023 C 
BRANCH  24  25
ATOM     25  C   UNL A   1      32.112  31.470  26.874  1.00  0.00     0.023 C 
BRANCH  25  26
ATOM     26  C   UNL A   1      33.134  32.356  27.552  1.00  0.00     0.116 C 
BRANCH  26  27
ATOM     27  N   UNL A   1      32.682  33.743  27.635  1.00  0.00    -0.352 N 
ATOM     28  C   UNL A   1      33.068  34.718  28.522  1.00  0.00     0.251 C 
ATOM     29  H   UNL A   1      32.012  34.016  26.967  1.00  0.00     0.163 HD
ATOM     30  O   UNL A   1      32.466  35.773  28.612  1.00  0.00    -0.269 OA
BRANCH  28  31
ATOM     31  C   UNL A   1      34.226  34.430  29.391  1.00  0.00     0.039 A 
ATOM     32  C   UNL A   1      34.014  33.901  30.663  1.00  0.00     0.014 A 
ATOM     33  C   UNL A   1      35.515  34.562  28.868  1.00  0.00     0.014 A 
ATOM     34  C   UNL A   1      35.102  33.408  31.379  1.00  0.00     0.010 A 
ATOM     35  C   UNL A   1      36.576  33.971  29.534  1.00  0.00     0.010 A 
ATOM     36  C   UNL A   1      36.380  33.386  30.794  1.00  0.00    -0.014 A 
BRANCH  36  37
ATOM     37  C   UNL A   1      37.536  32.748  31.465  1.00  0.00     0.031 A 
ATOM     38  C   UNL A   1      38.215  31.581  30.810  1.00  0.00     0.074 A 
ATOM     39  C   UNL A   1      37.899  33.152  32.698  1.00  0.00     0.049 A 
ATOM     40  N   UNL A   1      39.156  30.801  31.278  1.00  0.00    -0.248 NA
ATOM     41  C   UNL A   1      37.744  31.212  29.464  1.00  0.00     0.031 C 
ATOM     42  C   UNL A   1      37.265  34.230  33.460  1.00  0.00     0.029 A 
ATOM     43  N   UNL A   1      38.878  32.686  33.537  1.00  0.00    -0.354 N 
ATOM     44  C   UNL A   1      39.368  29.842  30.297  1.00  0.00     0.074 A 
ATOM     45  C   UNL A   1      38.418  30.096  29.237  1.00  0.00     0.031 C 
ATOM     46  C   UNL A   1      37.888  34.359  34.642  1.00  0.00     0.029 A 
ATOM     47  C   UNL A   1      38.934  33.347  34.741  1.00  0.00     0.049 A 
ATOM     48  H   UNL A   1      39.484  31.947  33.300  1.00  0.00     0.167 HD
ATOM     49  C   UNL A   1      40.295  28.858  30.271  1.00  0.00     0.037 A 
ATOM     50  C   UNL A   1      39.734  33.149  35.805  1.00  0.00     0.037 A 
ATOM     51  C   UNL A   1      41.263  28.641  31.311  1.00  0.00     0.049 A 
ATOM     52  C   UNL A   1      40.759  32.049  35.748  1.00  0.00     0.074 A 
ATOM     53  C   UNL A   1      42.304  27.732  31.345  1.00  0.00     0.029 A 
ATOM     54  N   UNL A   1      41.305  29.346  32.506  1.00  0.00    -0.354 N 
ATOM     55  N   UNL A   1      41.008  31.201  34.781  1.00  0.00    -0.248 NA
ATOM     56  C   UNL A   1      41.611  31.877  36.933  1.00  0.00     0.031 C 
ATOM     57  C   UNL A   1      42.949  27.855  32.580  1.00  0.00     0.029 A 
ATOM     58  C   UNL A   1      42.337  28.871  33.297  1.00  0.00     0.049 A 
ATOM     59  H   UNL A   1      40.691  30.075  32.753  1.00  0.00     0.167 HD
ATOM     60  C   UNL A   1      42.054  30.405  35.230  1.00  0.00     0.074 A 
ATOM     61  C   UNL A   1      42.408  30.888  36.549  1.00  0.00     0.031 C 
ATOM     62  C   UNL A   1      42.664  29.366  34.610  1.00  0.00     0.037 A 
BRANCH  49  63
ATOM     63  C   UNL A   1      40.312  27.953  29.074  1.00  0.00     0.064 A 
ATOM     64  C   UNL A   1      41.069  28.260  27.932  1.00  0.00     0.173 A 
ATOM     65  C   UNL A   1      39.583  26.755  29.076  1.00  0.00     0.173 A 
ATOM     66  F   UNL A   1      41.770  29.402  27.872  1.00  0.00    -0.203 F 
ATOM     67  C   UNL A   1      41.070  27.414  26.826  1.00  0.00     0.198 A 
ATOM     68  C   UNL A   1      39.612  25.897  27.980  1.00  0.00     0.198 A 
ATOM     69  F   UNL A   1      38.845  26.415  30.143  1.00  0.00    -0.203 F 
ATOM     70  F   UNL A   1      41.757  27.754  25.726  1.00  0.00    -0.200 F 
ATOM     71  C   UNL A   1      40.349  26.231  26.853  1.00  0.00     0.200 A 
ATOM     72  F   UNL A   1      38.923  24.748  28.012  1.00  0.00    -0.200 F 
ATOM     73  F   UNL A   1      40.357  25.415  25.790  1.00  0.00    -0.200 F 
ENDBRANCH  49  63
BRANCH  50  74
ATOM     74  C   UNL A   1      39.610  34.019  37.004  1.00  0.00     0.064 A 
ATOM     75  C   UNL A   1      40.270  35.254  37.064  1.00  0.00     0.173 A 
ATOM     76  C   UNL A   1      38.834  33.639  38.108  1.00  0.00     0.173 A 
ATOM     77  F   UNL A   1      41.040  35.652  36.040  1.00  0.00    -0.203 F 
ATOM     78  C   UNL A   1      40.174  36.068  38.191  1.00  0.00     0.198 A 
ATOM     79  C   UNL A   1      38.717  34.465  39.224  1.00  0.00     0.198 A 
ATOM     80  F   UNL A   1      38.179  32.469  38.098  1.00  0.00    -0.203 F 
ATOM     81  F   UNL A   1      40.849  37.224  38.240  1.00  0.00    -0.200 F 
ATOM     82  C   UNL A   1      39.393  35.675  39.268  1.00  0.00     0.200 A 
ATOM     83  F   UNL A   1      37.951  34.089  40.257  1.00  0.00    -0.200 F 
ATOM     84  F   UNL A   1      39.297  36.460  40.351  1.00  0.00    -0.200 F 
ENDBRANCH  50  74
BRANCH  62  85
ATOM     85  C   UNL A   1      43.778  28.687  35.350  1.00  0.00     0.064 A 
ATOM     86  C   UNL A   1      45.114  29.075  35.173  1.00  0.00     0.173 A 
ATOM     87  C   UNL A   1      43.503  27.675  36.281  1.00  0.00     0.173 A 
ATOM     88  F   UNL A   1      45.428  30.028  34.281  1.00  0.00    -0.203 F 
ATOM     89  C   UNL A   1      46.136  28.459  35.887  1.00  0.00     0.198 A 
ATOM     90  C   UNL A   1      44.525  27.081  37.015  1.00  0.00     0.198 A 
ATOM     91  F   UNL A   1      42.239  27.275  36.491  1.00  0.00    -0.203 F 
ATOM     92  F   UNL A   1      47.411  28.815  35.673  1.00  0.00    -0.200 F 
ATOM     93  C   UNL A   1      45.841  27.469  36.813  1.00  0.00     0.200 A 
ATOM     94  F   UNL A   1      44.236  26.135  37.920  1.00  0.00    -0.200 F 
ATOM     95  F   UNL A   1      46.826  26.885  37.509  1.00  0.00    -0.200 F 
ENDBRANCH  62  85
ENDBRANCH  36  37
ENDBRANCH  28  31
ENDBRANCH  26  27
ENDBRANCH  25  26
ENDBRANCH  24  25
ENDBRANCH  23  24
ENDBRANCH   3  23
TORSDOF 17
ENDMDL
MODEL 3
REMARK VINA RESULT:     -10.5      2.052      3.891
REMARK SMILES C[C@@H](CC(=O)NCCCCNC(=O)c1ccc(-c2c3nc(c(-c4c(F)c(F)c(F)c(F)c4F)c4ccc([nH]4)c(-c4c(F)c(F)c(F)c(F)c4F)c4nc(c(-c5c(F)c(F)c(F)c(F)c5F)c5ccc2[nH]5)C=C4)C=C3)cc1)NC(=O)CCCN1C(=O)CN(C)C1=O
REMARK SMILES IDX 4 1 5 2 6 3 3 5 2 6 1 7 77 8 78 9 79 11 80 12 81 13 82 14
REMARK SMILES IDX 83 15 84 16 89 17 85 18 86 19 87 20 90 21 88 22 7 23 8 24
REMARK SMILES IDX 9 25 10 26 11 27 12 28 13 30 14 31 15 32 76 33 16 34 75 35
REMARK SMILES IDX 17 36 18 37 19 38 69 39 20 40 74 41 68 42 70 43 21 44 73 45
REMARK SMILES IDX 67 46 66 47 22 49 54 50 34 51 53 52 35 53 38 54 52 55 71 56
REMARK SMILES IDX 36 57 37 58 51 60 72 61 39 62 23 63 24 64 32 65 25 66 26 67
REMARK SMILES IDX 30 68 33 69 27 70 28 71 31 72 29 73 55 74 56 75 64 76 57 77
REMARK SMILES IDX 58 78 62 79 65 80 59 81 60 82 63 83 61 84 40 85 41 86 49 87
REMARK SMILES IDX 42 88 43 89 47 90 50 91 44 92 45 93 48 94 46 95
REMARK H PARENT 6 4 77 10 11 29 70 48 38 59
REMARK Flexibility Score: inf
ROOT
ATOM      1  C   UNL A   1      30.384  29.585  23.462  1.00  0.00     0.222 C 
ATOM      2  O   UNL A   1      29.290  29.947  23.030  1.00  0.00    -0.275 OA
ATOM      3  N   UNL A   1      30.820  30.105  24.643  1.00  0.00    -0.356 N 
ATOM      4  H   UNL A   1      30.160  30.661  25.116  1.00  0.00     0.163 HD
ENDROOT
BRANCH   1   5
ATOM      5  C   UNL A   1      31.209  28.553  22.737  1.00  0.00     0.124 C 
BRANCH   5   6
ATOM      6  C   UNL A   1      30.733  27.104  22.818  1.00  0.00     0.088 C 
ATOM      7  C   UNL A   1      30.095  26.650  24.116  1.00  0.00     0.031 C 
BRANCH   6   8
ATOM      8  N   UNL A   1      31.690  26.098  22.425  1.00  0.00    -0.353 N 
ATOM      9  C   UNL A   1      33.043  26.205  22.594  1.00  0.00     0.220 C 
ATOM     10  H   UNL A   1      31.343  25.277  22.006  1.00  0.00     0.163 HD
ATOM     11  O   UNL A   1      33.775  25.683  21.750  1.00  0.00    -0.275 OA
BRANCH   9  12
ATOM     12  C   UNL A   1      33.632  26.862  23.846  1.00  0.00     0.102 C 
BRANCH  12  13
ATOM     13  C   UNL A   1      33.881  26.059  25.128  1.00  0.00     0.032 C 
BRANCH  13  14
ATOM     14  C   UNL A   1      32.899  25.013  25.692  1.00  0.00     0.131 C 
BRANCH  14  15
ATOM     15  N   UNL A   1      33.058  23.573  25.467  1.00  0.00    -0.263 N 
ATOM     16  C   UNL A   1      34.085  22.747  25.847  1.00  0.00     0.250 C 
ATOM     17  C   UNL A   1      32.305  22.925  24.512  1.00  0.00     0.326 C 
ATOM     18  O   UNL A   1      34.980  22.953  26.652  1.00  0.00    -0.272 OA
ATOM     19  C   UNL A   1      34.064  21.483  25.020  1.00  0.00     0.221 C 
ATOM     20  N   UNL A   1      32.841  21.667  24.306  1.00  0.00    -0.318 N 
ATOM     21  O   UNL A   1      31.356  23.387  23.897  1.00  0.00    -0.248 OA
ATOM     22  C   UNL A   1      32.377  20.696  23.348  1.00  0.00     0.149 C 
ENDBRANCH  14  15
ENDBRANCH  13  14
ENDBRANCH  12  13
ENDBRANCH   9  12
ENDBRANCH   6   8
ENDBRANCH   5   6
ENDBRANCH   1   5
BRANCH   3  23
ATOM     23  C   UNL A   1      32.099  29.975  25.318  1.00  0.00     0.116 C 
BRANCH  23  24
ATOM     24  C   UNL A   1      32.033  30.502  26.754  1.00  0.00     0.023 C 
BRANCH  24  25
ATOM     25  C   UNL A   1      31.745  31.989  26.871  1.00  0.00     0.023 C 
BRANCH  25  26
ATOM     26  C   UNL A   1      32.902  32.768  27.455  1.00  0.00     0.116 C 
BRANCH  26  27
ATOM     27  N   UNL A   1      32.554  34.168  27.687  1.00  0.00    -0.352 N 
ATOM     28  C   UNL A   1      33.022  35.017  28.659  1.00  0.00     0.251 C 
ATOM     29  H   UNL A   1      31.897  34.555  27.063  1.00  0.00     0.163 HD
ATOM     30  O   UNL A   1      32.500  36.098  28.867  1.00  0.00    -0.269 OA
BRANCH  28  31
ATOM     31  C   UNL A   1      34.167  34.561  29.470  1.00  0.00     0.039 A 
ATOM     32  C   UNL A   1      33.937  33.988  30.721  1.00  0.00     0.014 A 
ATOM     33  C   UNL A   1      35.447  34.584  28.910  1.00  0.00     0.014 A 
ATOM     34  C   UNL A   1      34.986  33.343  31.372  1.00  0.00     0.010 A 
ATOM     35  C   UNL A   1      36.457  33.848  29.507  1.00  0.00     0.010 A 
ATOM     36  C   UNL A   1      36.236  33.218  30.742  1.00  0.00    -0.014 A 
BRANCH  36  37
ATOM     37  C   UNL A   1      37.336  32.425  31.338  1.00  0.00     0.031 A 
ATOM     38  C   UNL A   1      37.853  32.789  32.700  1.00  0.00     0.074 A 
ATOM     39  C   UNL A   1      37.930  31.457  30.612  1.00  0.00     0.049 A 
ATOM     40  N   UNL A   1      38.884  32.312  33.347  1.00  0.00    -0.248 NA
ATOM     41  C   UNL A   1      37.141  33.863  33.411  1.00  0.00     0.031 C 
ATOM     42  C   UNL A   1      37.556  31.065  29.252  1.00  0.00     0.029 A 
ATOM     43  N   UNL A   1      38.989  30.640  30.913  1.00  0.00    -0.354 N 
ATOM     44  C   UNL A   1      38.956  33.043  34.525  1.00  0.00     0.074 A 
ATOM     45  C   UNL A   1      37.906  34.036  34.477  1.00  0.00     0.031 C 
ATOM     46  C   UNL A   1      38.357  30.067  28.845  1.00  0.00     0.029 A 
ATOM     47  C   UNL A   1      39.326  29.778  29.897  1.00  0.00     0.049 A 
ATOM     48  H   UNL A   1      39.464  30.668  31.775  1.00  0.00     0.167 HD
ATOM     49  C   UNL A   1      39.802  32.877  35.567  1.00  0.00     0.037 A 
ATOM     50  C   UNL A   1      40.314  28.866  29.822  1.00  0.00     0.037 A 
ATOM     51  C   UNL A   1      40.814  31.860  35.623  1.00  0.00     0.049 A 
ATOM     52  C   UNL A   1      41.239  28.701  30.997  1.00  0.00     0.074 A 
ATOM     53  C   UNL A   1      41.665  31.545  36.666  1.00  0.00     0.029 A 
ATOM     54  N   UNL A   1      41.112  30.988  34.585  1.00  0.00    -0.354 N 
ATOM     55  N   UNL A   1      41.245  29.340  32.141  1.00  0.00    -0.248 NA
ATOM     56  C   UNL A   1      42.296  27.688  30.868  1.00  0.00     0.031 C 
ATOM     57  C   UNL A   1      42.509  30.512  36.244  1.00  0.00     0.029 A 
ATOM     58  C   UNL A   1      42.154  30.155  34.953  1.00  0.00     0.049 A 
ATOM     59  H   UNL A   1      40.650  30.966  33.716  1.00  0.00     0.167 HD
ATOM     60  C   UNL A   1      42.293  28.800  32.875  1.00  0.00     0.074 A 
ATOM     61  C   UNL A   1      42.886  27.763  32.055  1.00  0.00     0.031 C 
ATOM     62  C   UNL A   1      42.729  29.134  34.114  1.00  0.00     0.037 A 
BRANCH  49  63
ATOM     63  C   UNL A   1      39.657  33.812  36.733  1.00  0.00     0.064 A 
ATOM     64  C   UNL A   1      38.876  33.476  37.850  1.00  0.00     0.173 A 
ATOM     65  C   UNL A   1      40.324  35.045  36.744  1.00  0.00     0.173 A 
ATOM     66  F   UNL A   1      38.204  32.316  37.881  1.00  0.00    -0.203 F 
ATOM     67  C   UNL A   1      38.746  34.355  38.922  1.00  0.00     0.198 A 
ATOM     68  C   UNL A   1      40.216  35.908  37.832  1.00  0.00     0.198 A 
ATOM     69  F   UNL A   1      41.084  35.413  35.701  1.00  0.00    -0.203 F 
ATOM     70  F   UNL A   1      37.952  34.037  39.954  1.00  0.00    -0.200 F 
ATOM     71  C   UNL A   1      39.421  35.566  38.916  1.00  0.00     0.200 A 
ATOM     72  F   UNL A   1      40.878  37.073  37.829  1.00  0.00    -0.200 F 
ATOM     73  F   UNL A   1      39.299  36.408  39.951  1.00  0.00    -0.200 F 
ENDBRANCH  49  63
BRANCH  50  74
ATOM     74  C   UNL A   1      40.467  28.031  28.603  1.00  0.00     0.064 A 
ATOM     75  C   UNL A   1      39.839  26.782  28.506  1.00  0.00     0.173 A 
ATOM     76  C   UNL A   1      41.240  28.459  27.513  1.00  0.00     0.173 A 
ATOM     77  F   UNL A   1      39.105  26.320  29.530  1.00  0.00    -0.203 F 
ATOM     78  C   UNL A   1      39.992  25.984  27.374  1.00  0.00     0.198 A 
ATOM     79  C   UNL A   1      41.371  27.672  26.371  1.00  0.00     0.198 A 
ATOM     80  F   UNL A   1      41.858  29.649  27.554  1.00  0.00    -0.203 F 
ATOM     81  F   UNL A   1      39.415  24.776  27.324  1.00  0.00    -0.200 F 
ATOM     82  C   UNL A   1      40.754  26.432  26.305  1.00  0.00     0.200 A 
ATOM     83  F   UNL A   1      42.096  28.115  25.334  1.00  0.00    -0.200 F 
ATOM     84  F   UNL A   1      40.897  25.667  25.214  1.00  0.00    -0.200 F 
ENDBRANCH  50  74
BRANCH  62  85
ATOM     85  C   UNL A   1      43.898  28.367  34.657  1.00  0.00     0.064 A 
ATOM     86  C   UNL A   1      45.211  28.835  34.506  1.00  0.00     0.173 A 
ATOM     87  C   UNL A   1      43.699  27.180  35.377  1.00  0.00     0.173 A 
ATOM     88  F   UNL A   1      45.452  29.958  33.811  1.00  0.00    -0.203 F 
ATOM     89  C   UNL A   1      46.286  28.131  35.041  1.00  0.00     0.198 A 
ATOM     90  C   UNL A   1      44.773  26.494  35.935  1.00  0.00     0.198 A 
ATOM     91  F   UNL A   1      42.460  26.695  35.555  1.00  0.00    -0.203 F 
ATOM     92  F   UNL A   1      47.536  28.574  34.850  1.00  0.00    -0.200 F 
ATOM     93  C   UNL A   1      46.066  26.967  35.762  1.00  0.00     0.200 A 
ATOM     94  F   UNL A   1      44.558  25.377  36.643  1.00  0.00    -0.200 F 
ATOM     95  F   UNL A   1      47.101  26.296  36.285  1.00  0.00    -0.200 F 
ENDBRANCH  62  85
ENDBRANCH  36  37
ENDBRANCH  28  31
ENDBRANCH  26  27
ENDBRANCH  25  26
ENDBRANCH  24  25
ENDBRANCH  23  24
ENDBRANCH   3  23
TORSDOF 17
ENDMDL
