MODEL 1
REMARK VINA RESULT:     -12.8      0.000      0.000
REMARK SMILES O=C(CCC1CC[NH+]([C@H]2CCO[C@@]3(CCSC3)C2)CC1)NCCCCNC(=O)c1ccc(-c2c3nc(c(-c4c(F)c(F)c(F)c(F)c4F)c4ccc([nH]4)c(-c4c(F)c(F)c(F)c(F)c4F)c4nc(c(-c5c(F)c(F)c(F)c(F)c5F)c5ccc2[nH]5)C=C4)C=C3)cc1
REMARK SMILES IDX 23 1 22 2 21 3 1 4 2 5 3 7 4 8 5 9 6 10 20 11 7 12 19 13
REMARK SMILES IDX 8 14 9 16 10 17 18 18 11 19 13 20 12 21 14 22 17 23 15 24
REMARK SMILES IDX 16 25 24 26 25 27 26 28 27 29 28 31 29 32 30 33 91 34 31 35
REMARK SMILES IDX 90 36 32 37 33 38 34 39 84 40 35 41 89 42 83 43 85 44 36 45
REMARK SMILES IDX 88 46 82 47 81 48 37 50 69 51 49 52 68 53 50 54 53 55 67 56
REMARK SMILES IDX 86 57 51 58 52 59 66 61 87 62 54 63 38 64 39 65 47 66 40 67
REMARK SMILES IDX 41 68 45 69 48 70 42 71 43 72 46 73 44 74 70 75 71 76 79 77
REMARK SMILES IDX 72 78 73 79 77 80 80 81 74 82 75 83 78 84 76 85 55 86 56 87
REMARK SMILES IDX 64 88 57 89 58 90 62 91 65 92 59 93 60 94 63 95 61 96
REMARK H PARENT 21 6 8 15 26 30 85 49 53 60
REMARK Flexibility Score: inf
ROOT
ATOM      1  C   UNL A   1      42.797  20.326  25.760  1.00  0.00     0.023 C 
ENDROOT
BRANCH   1   2
ATOM      2  C   UNL A   1      41.493  19.968  26.508  1.00  0.00     0.116 C 
BRANCH   2   3
ATOM      3  N   UNL A   1      40.331  20.685  26.008  1.00  0.00    -0.356 N 
ATOM      4  O   UNL A   1      40.130  22.317  27.612  1.00  0.00    -0.275 OA
ATOM      5  C   UNL A   1      39.731  21.791  26.574  1.00  0.00     0.220 C 
ATOM      6  H   UNL A   1      39.928  20.343  25.177  1.00  0.00     0.163 HD
BRANCH   5   7
ATOM      7  C   UNL A   1      38.491  22.318  25.824  1.00  0.00     0.100 C 
BRANCH   7   8
ATOM      8  C   UNL A   1      37.470  21.314  25.251  1.00  0.00     0.014 C 
BRANCH   8   9
ATOM      9  C   UNL A   1      36.212  21.764  24.444  1.00  0.00     0.000 C 
ATOM     10  C   UNL A   1      35.966  23.267  24.283  1.00  0.00     0.065 C 
ATOM     11  C   UNL A   1      34.930  21.117  24.965  1.00  0.00     0.065 C 
ATOM     12  C   UNL A   1      35.362  23.939  25.514  1.00  0.00     0.262 C 
ATOM     13  C   UNL A   1      34.586  21.702  26.314  1.00  0.00     0.262 C 
ATOM     14  N   UNL A   1      34.377  23.156  26.290  1.00  0.00    -0.332 N 
ATOM     15  H   UNL A   1      34.585  23.413  27.255  1.00  0.00     0.348 HD
BRANCH  14  16
ATOM     16  C   UNL A   1      32.969  23.585  26.091  1.00  0.00     0.189 C 
ATOM     17  C   UNL A   1      31.935  22.954  27.036  1.00  0.00     0.093 C 
ATOM     18  C   UNL A   1      32.744  25.124  26.072  1.00  0.00     0.101 C 
ATOM     19  C   UNL A   1      30.531  23.428  26.692  1.00  0.00     0.167 C 
ATOM     20  C   UNL A   1      31.286  25.519  25.757  1.00  0.00     0.084 C 
ATOM     21  O   UNL A   1      30.429  24.852  26.700  1.00  0.00    -0.374 OA
ATOM     22  C   UNL A   1      31.057  27.044  25.900  1.00  0.00     0.047 C 
ATOM     23  C   UNL A   1      30.885  25.183  24.332  1.00  0.00     0.105 C 
ATOM     24  C   UNL A   1      30.991  27.739  24.535  1.00  0.00     0.072 C 
ATOM     25  S   UNL A   1      31.497  26.524  23.318  1.00  0.00    -0.159 SA
ENDBRANCH  14  16
ENDBRANCH   8   9
ENDBRANCH   7   8
ENDBRANCH   5   7
ENDBRANCH   2   3
ENDBRANCH   1   2
BRANCH   1  26
ATOM     26  C   UNL A   1      43.394  21.737  25.937  1.00  0.00     0.023 C 
BRANCH  26  27
ATOM     27  C   UNL A   1      42.990  22.853  24.955  1.00  0.00     0.116 C 
BRANCH  27  28
ATOM     28  N   UNL A   1      44.008  23.892  24.749  1.00  0.00    -0.352 N 
ATOM     29  C   UNL A   1      44.296  25.150  25.262  1.00  0.00     0.251 C 
ATOM     30  H   UNL A   1      44.663  23.624  24.065  1.00  0.00     0.163 HD
ATOM     31  O   UNL A   1      45.299  25.701  24.796  1.00  0.00    -0.269 OA
BRANCH  29  32
ATOM     32  C   UNL A   1      43.535  25.905  26.324  1.00  0.00     0.039 A 
ATOM     33  C   UNL A   1      42.637  25.225  27.173  1.00  0.00     0.014 A 
ATOM     34  C   UNL A   1      43.633  27.270  26.527  1.00  0.00     0.014 A 
ATOM     35  C   UNL A   1      41.869  25.907  28.154  1.00  0.00     0.010 A 
ATOM     36  C   UNL A   1      42.849  27.966  27.457  1.00  0.00     0.010 A 
ATOM     37  C   UNL A   1      41.959  27.300  28.293  1.00  0.00    -0.014 A 
BRANCH  37  38
ATOM     38  C   UNL A   1      41.407  28.066  29.447  1.00  0.00     0.031 A 
ATOM     39  C   UNL A   1      40.217  28.987  29.352  1.00  0.00     0.074 A 
ATOM     40  C   UNL A   1      42.180  28.120  30.551  1.00  0.00     0.049 A 
ATOM     41  N   UNL A   1      39.659  29.716  30.292  1.00  0.00    -0.248 NA
ATOM     42  C   UNL A   1      39.598  29.151  28.030  1.00  0.00     0.031 C 
ATOM     43  C   UNL A   1      43.469  27.441  30.694  1.00  0.00     0.029 A 
ATOM     44  N   UNL A   1      42.033  28.811  31.727  1.00  0.00    -0.354 N 
ATOM     45  C   UNL A   1      38.609  30.401  29.689  1.00  0.00     0.074 A 
ATOM     46  C   UNL A   1      38.651  30.051  28.282  1.00  0.00     0.031 C 
ATOM     47  C   UNL A   1      43.998  27.751  31.885  1.00  0.00     0.029 A 
ATOM     48  C   UNL A   1      43.081  28.634  32.595  1.00  0.00     0.049 A 
ATOM     49  H   UNL A   1      41.253  29.377  31.928  1.00  0.00     0.167 HD
ATOM     50  C   UNL A   1      37.690  31.222  30.264  1.00  0.00     0.037 A 
ATOM     51  C   UNL A   1      43.277  29.104  33.841  1.00  0.00     0.037 A 
ATOM     52  C   UNL A   1      37.687  31.582  31.666  1.00  0.00     0.049 A 
ATOM     53  C   UNL A   1      42.205  29.927  34.491  1.00  0.00     0.074 A 
ATOM     54  C   UNL A   1      36.733  32.293  32.378  1.00  0.00     0.029 A 
ATOM     55  N   UNL A   1      38.705  31.289  32.563  1.00  0.00    -0.354 N 
ATOM     56  N   UNL A   1      41.095  30.392  33.972  1.00  0.00    -0.248 NA
ATOM     57  C   UNL A   1      42.392  30.255  35.909  1.00  0.00     0.031 C 
ATOM     58  C   UNL A   1      37.201  32.479  33.685  1.00  0.00     0.029 A 
ATOM     59  C   UNL A   1      38.416  31.829  33.809  1.00  0.00     0.049 A 
ATOM     60  H   UNL A   1      39.514  30.773  32.346  1.00  0.00     0.167 HD
ATOM     61  C   UNL A   1      40.437  31.042  35.006  1.00  0.00     0.074 A 
ATOM     62  C   UNL A   1      41.264  30.893  36.186  1.00  0.00     0.031 C 
ATOM     63  C   UNL A   1      39.250  31.697  34.977  1.00  0.00     0.037 A 
BRANCH  50  64
ATOM     64  C   UNL A   1      36.569  31.767  29.409  1.00  0.00     0.064 A 
ATOM     65  C   UNL A   1      35.526  30.939  28.963  1.00  0.00     0.173 A 
ATOM     66  C   UNL A   1      36.459  33.143  29.144  1.00  0.00     0.173 A 
ATOM     67  F   UNL A   1      35.563  29.620  29.200  1.00  0.00    -0.203 F 
ATOM     68  C   UNL A   1      34.434  31.461  28.269  1.00  0.00     0.198 A 
ATOM     69  C   UNL A   1      35.350  33.665  28.478  1.00  0.00     0.198 A 
ATOM     70  F   UNL A   1      37.409  33.992  29.564  1.00  0.00    -0.203 F 
ATOM     71  F   UNL A   1      33.467  30.642  27.833  1.00  0.00    -0.200 F 
ATOM     72  C   UNL A   1      34.341  32.823  28.036  1.00  0.00     0.200 A 
ATOM     73  F   UNL A   1      35.249  34.987  28.277  1.00  0.00    -0.200 F 
ATOM     74  F   UNL A   1      33.279  33.325  27.390  1.00  0.00    -0.200 F 
ENDBRANCH  50  64
BRANCH  51  75
ATOM     75  C   UNL A   1      44.495  28.688  34.578  1.00  0.00     0.064 A 
ATOM     76  C   UNL A   1      45.627  29.514  34.602  1.00  0.00     0.173 A 
ATOM     77  C   UNL A   1      44.528  27.508  35.334  1.00  0.00     0.173 A 
ATOM     78  F   UNL A   1      45.642  30.650  33.890  1.00  0.00    -0.203 F 
ATOM     79  C   UNL A   1      46.754  29.169  35.344  1.00  0.00     0.198 A 
ATOM     80  C   UNL A   1      45.644  27.178  36.100  1.00  0.00     0.198 A 
ATOM     81  F   UNL A   1      43.458  26.699  35.363  1.00  0.00    -0.203 F 
ATOM     82  F   UNL A   1      47.832  29.963  35.328  1.00  0.00    -0.200 F 
ATOM     83  C   UNL A   1      46.757  28.006  36.100  1.00  0.00     0.200 A 
ATOM     84  F   UNL A   1      45.634  26.068  36.850  1.00  0.00    -0.200 F 
ATOM     85  F   UNL A   1      47.832  27.685  36.832  1.00  0.00    -0.200 F 
ENDBRANCH  51  75
BRANCH  63  86
ATOM     86  C   UNL A   1      38.772  32.297  36.269  1.00  0.00     0.064 A 
ATOM     87  C   UNL A   1      39.063  33.625  36.619  1.00  0.00     0.173 A 
ATOM     88  C   UNL A   1      38.012  31.535  37.170  1.00  0.00     0.173 A 
ATOM     89  F   UNL A   1      39.801  34.391  35.802  1.00  0.00    -0.203 F 
ATOM     90  C   UNL A   1      38.644  34.154  37.837  1.00  0.00     0.198 A 
ATOM     91  C   UNL A   1      37.567  32.078  38.373  1.00  0.00     0.198 A 
ATOM     92  F   UNL A   1      37.699  30.263  36.884  1.00  0.00    -0.203 F 
ATOM     93  F   UNL A   1      38.990  35.404  38.176  1.00  0.00    -0.200 F 
ATOM     94  C   UNL A   1      37.893  33.382  38.710  1.00  0.00     0.200 A 
ATOM     95  F   UNL A   1      36.830  31.335  39.210  1.00  0.00    -0.200 F 
ATOM     96  F   UNL A   1      37.493  33.893  39.883  1.00  0.00    -0.200 F 
ENDBRANCH  63  86
ENDBRANCH  37  38
ENDBRANCH  29  32
ENDBRANCH  27  28
ENDBRANCH  26  27
ENDBRANCH   1  26
TORSDOF 14
ENDMDL
MODEL 2
REMARK VINA RESULT:     -12.6      5.038      9.852
REMARK SMILES O=C(CCC1CC[NH+]([C@H]2CCO[C@@]3(CCSC3)C2)CC1)NCCCCNC(=O)c1ccc(-c2c3nc(c(-c4c(F)c(F)c(F)c(F)c4F)c4ccc([nH]4)c(-c4c(F)c(F)c(F)c(F)c4F)c4nc(c(-c5c(F)c(F)c(F)c(F)c5F)c5ccc2[nH]5)C=C4)C=C3)cc1
REMARK SMILES IDX 23 1 22 2 21 3 1 4 2 5 3 7 4 8 5 9 6 10 20 11 7 12 19 13
REMARK SMILES IDX 8 14 9 16 10 17 18 18 11 19 13 20 12 21 14 22 17 23 15 24
REMARK SMILES IDX 16 25 24 26 25 27 26 28 27 29 28 31 29 32 30 33 91 34 31 35
REMARK SMILES IDX 90 36 32 37 33 38 34 39 84 40 35 41 89 42 83 43 85 44 36 45
REMARK SMILES IDX 88 46 82 47 81 48 37 50 69 51 49 52 68 53 50 54 53 55 67 56
REMARK SMILES IDX 86 57 51 58 52 59 66 61 87 62 54 63 38 64 39 65 47 66 40 67
REMARK SMILES IDX 41 68 45 69 48 70 42 71 43 72 46 73 44 74 70 75 71 76 79 77
REMARK SMILES IDX 72 78 73 79 77 80 80 81 74 82 75 83 78 84 76 85 55 86 56 87
REMARK SMILES IDX 64 88 57 89 58 90 62 91 65 92 59 93 60 94 63 95 61 96
REMARK H PARENT 21 6 8 15 26 30 85 49 53 60
REMARK Flexibility Score: inf
ROOT
ATOM      1  C   UNL A   1      41.956  20.273  27.106  1.00  0.00     0.023 C 
ENDROOT
BRANCH   1   2
ATOM      2  C   UNL A   1      40.787  21.285  27.095  1.00  0.00     0.116 C 
BRANCH   2   3
ATOM      3  N   UNL A   1      39.723  20.921  26.172  1.00  0.00    -0.356 N 
ATOM      4  O   UNL A   1      38.527  22.881  26.129  1.00  0.00    -0.275 OA
ATOM      5  C   UNL A   1      38.680  21.720  25.751  1.00  0.00     0.220 C 
ATOM      6  H   UNL A   1      39.750  20.006  25.810  1.00  0.00     0.163 HD
BRANCH   5   7
ATOM      7  C   UNL A   1      37.687  21.045  24.784  1.00  0.00     0.100 C 
BRANCH   7   8
ATOM      8  C   UNL A   1      36.172  21.182  25.040  1.00  0.00     0.014 C 
BRANCH   8   9
ATOM      9  C   UNL A   1      35.269  22.160  24.224  1.00  0.00     0.000 C 
ATOM     10  C   UNL A   1      35.535  23.661  24.361  1.00  0.00     0.065 C 
ATOM     11  C   UNL A   1      33.782  21.910  24.467  1.00  0.00     0.065 C 
ATOM     12  C   UNL A   1      34.980  24.285  25.639  1.00  0.00     0.262 C 
ATOM     13  C   UNL A   1      33.422  22.344  25.868  1.00  0.00     0.262 C 
ATOM     14  N   UNL A   1      33.686  23.765  26.131  1.00  0.00    -0.332 N 
ATOM     15  H   UNL A   1      33.803  23.772  27.144  1.00  0.00     0.348 HD
BRANCH  14  16
ATOM     16  C   UNL A   1      32.536  24.673  25.887  1.00  0.00     0.189 C 
ATOM     17  C   UNL A   1      31.187  24.217  26.464  1.00  0.00     0.093 C 
ATOM     18  C   UNL A   1      32.769  26.156  26.293  1.00  0.00     0.101 C 
ATOM     19  C   UNL A   1      30.085  25.199  26.098  1.00  0.00     0.167 C 
ATOM     20  C   UNL A   1      31.587  27.077  25.923  1.00  0.00     0.084 C 
ATOM     21  O   UNL A   1      30.394  26.530  26.510  1.00  0.00    -0.374 OA
ATOM     22  C   UNL A   1      31.778  28.511  26.477  1.00  0.00     0.047 C 
ATOM     23  C   UNL A   1      31.423  27.244  24.423  1.00  0.00     0.105 C 
ATOM     24  C   UNL A   1      32.208  29.492  25.380  1.00  0.00     0.072 C 
ATOM     25  S   UNL A   1      32.595  28.504  23.935  1.00  0.00    -0.159 SA
ENDBRANCH  14  16
ENDBRANCH   8   9
ENDBRANCH   7   8
ENDBRANCH   5   7
ENDBRANCH   2   3
ENDBRANCH   1   2
BRANCH   1  26
ATOM     26  C   UNL A   1      42.100  19.290  25.926  1.00  0.00     0.023 C 
BRANCH  26  27
ATOM     27  C   UNL A   1      43.270  18.289  25.919  1.00  0.00     0.116 C 
BRANCH  27  28
ATOM     28  N   UNL A   1      44.219  18.456  24.811  1.00  0.00    -0.352 N 
ATOM     29  C   UNL A   1      44.973  19.487  24.265  1.00  0.00     0.251 C 
ATOM     30  H   UNL A   1      44.359  17.612  24.325  1.00  0.00     0.163 HD
ATOM     31  O   UNL A   1      45.679  19.180  23.298  1.00  0.00    -0.269 OA
BRANCH  29  32
ATOM     32  C   UNL A   1      45.036  20.923  24.725  1.00  0.00     0.039 A 
ATOM     33  C   UNL A   1      45.259  21.224  26.086  1.00  0.00     0.014 A 
ATOM     34  C   UNL A   1      44.865  22.014  23.892  1.00  0.00     0.014 A 
ATOM     35  C   UNL A   1      45.280  22.560  26.565  1.00  0.00     0.010 A 
ATOM     36  C   UNL A   1      44.836  23.337  24.355  1.00  0.00     0.010 A 
ATOM     37  C   UNL A   1      45.050  23.637  25.696  1.00  0.00    -0.014 A 
BRANCH  37  38
ATOM     38  C   UNL A   1      45.310  25.064  26.041  1.00  0.00     0.031 A 
ATOM     39  C   UNL A   1      46.687  25.676  26.097  1.00  0.00     0.074 A 
ATOM     40  C   UNL A   1      44.276  25.747  26.572  1.00  0.00     0.049 A 
ATOM     41  N   UNL A   1      47.031  26.908  26.400  1.00  0.00    -0.248 NA
ATOM     42  C   UNL A   1      47.828  24.792  25.825  1.00  0.00     0.031 C 
ATOM     43  C   UNL A   1      42.934  25.197  26.771  1.00  0.00     0.029 A 
ATOM     44  N   UNL A   1      44.199  27.015  27.090  1.00  0.00    -0.354 N 
ATOM     45  C   UNL A   1      48.420  26.957  26.328  1.00  0.00     0.074 A 
ATOM     46  C   UNL A   1      48.859  25.610  26.018  1.00  0.00     0.031 C 
ATOM     47  C   UNL A   1      42.168  26.117  27.372  1.00  0.00     0.029 A 
ATOM     48  C   UNL A   1      42.956  27.325  27.584  1.00  0.00     0.049 A 
ATOM     49  H   UNL A   1      44.959  27.640  27.106  1.00  0.00     0.167 HD
ATOM     50  C   UNL A   1      49.240  28.031  26.485  1.00  0.00     0.037 A 
ATOM     51  C   UNL A   1      42.486  28.464  28.125  1.00  0.00     0.037 A 
ATOM     52  C   UNL A   1      48.781  29.361  26.825  1.00  0.00     0.049 A 
ATOM     53  C   UNL A   1      43.381  29.665  28.196  1.00  0.00     0.074 A 
ATOM     54  C   UNL A   1      49.504  30.543  26.875  1.00  0.00     0.029 A 
ATOM     55  N   UNL A   1      47.485  29.679  27.207  1.00  0.00    -0.354 N 
ATOM     56  N   UNL A   1      44.657  29.760  27.912  1.00  0.00    -0.248 NA
ATOM     57  C   UNL A   1      42.762  30.926  28.620  1.00  0.00     0.031 C 
ATOM     58  C   UNL A   1      48.662  31.560  27.344  1.00  0.00     0.029 A 
ATOM     59  C   UNL A   1      47.397  31.029  27.524  1.00  0.00     0.049 A 
ATOM     60  H   UNL A   1      46.738  29.040  27.249  1.00  0.00     0.167 HD
ATOM     61  C   UNL A   1      44.988  31.094  28.097  1.00  0.00     0.074 A 
ATOM     62  C   UNL A   1      43.772  31.774  28.496  1.00  0.00     0.031 C 
ATOM     63  C   UNL A   1      46.191  31.700  27.941  1.00  0.00     0.037 A 
BRANCH  50  64
ATOM     64  C   UNL A   1      50.722  27.852  26.248  1.00  0.00     0.064 A 
ATOM     65  C   UNL A   1      51.589  27.503  27.297  1.00  0.00     0.173 A 
ATOM     66  C   UNL A   1      51.262  27.894  24.951  1.00  0.00     0.173 A 
ATOM     67  F   UNL A   1      51.131  27.427  28.555  1.00  0.00    -0.203 F 
ATOM     68  C   UNL A   1      52.936  27.228  27.061  1.00  0.00     0.198 A 
ATOM     69  C   UNL A   1      52.602  27.587  24.716  1.00  0.00     0.198 A 
ATOM     70  F   UNL A   1      50.483  28.196  23.902  1.00  0.00    -0.203 F 
ATOM     71  F   UNL A   1      53.745  26.924  28.086  1.00  0.00    -0.200 F 
ATOM     72  C   UNL A   1      53.440  27.260  25.771  1.00  0.00     0.200 A 
ATOM     73  F   UNL A   1      53.081  27.593  23.463  1.00  0.00    -0.200 F 
ATOM     74  F   UNL A   1      54.729  26.973  25.544  1.00  0.00    -0.200 F 
ENDBRANCH  50  64
BRANCH  51  75
ATOM     75  C   UNL A   1      41.057  28.532  28.518  1.00  0.00     0.064 A 
ATOM     76  C   UNL A   1      40.665  28.215  29.825  1.00  0.00     0.173 A 
ATOM     77  C   UNL A   1      40.073  28.988  27.630  1.00  0.00     0.173 A 
ATOM     78  F   UNL A   1      41.572  27.771  30.707  1.00  0.00    -0.203 F 
ATOM     79  C   UNL A   1      39.338  28.338  30.228  1.00  0.00     0.198 A 
ATOM     80  C   UNL A   1      38.751  29.139  28.042  1.00  0.00     0.198 A 
ATOM     81  F   UNL A   1      40.406  29.328  26.376  1.00  0.00    -0.203 F 
ATOM     82  F   UNL A   1      38.986  28.004  31.476  1.00  0.00    -0.200 F 
ATOM     83  C   UNL A   1      38.384  28.809  29.338  1.00  0.00     0.200 A 
ATOM     84  F   UNL A   1      37.837  29.619  27.189  1.00  0.00    -0.200 F 
ATOM     85  F   UNL A   1      37.111  28.950  29.732  1.00  0.00    -0.200 F 
ENDBRANCH  51  75
BRANCH  63  86
ATOM     86  C   UNL A   1      46.248  33.179  28.197  1.00  0.00     0.064 A 
ATOM     87  C   UNL A   1      46.011  34.114  27.176  1.00  0.00     0.173 A 
ATOM     88  C   UNL A   1      46.541  33.670  29.478  1.00  0.00     0.173 A 
ATOM     89  F   UNL A   1      45.744  33.697  25.929  1.00  0.00    -0.203 F 
ATOM     90  C   UNL A   1      46.104  35.482  27.421  1.00  0.00     0.198 A 
ATOM     91  C   UNL A   1      46.601  35.039  29.727  1.00  0.00     0.198 A 
ATOM     92  F   UNL A   1      46.769  32.822  30.492  1.00  0.00    -0.203 F 
ATOM     93  F   UNL A   1      45.937  36.352  26.416  1.00  0.00    -0.200 F 
ATOM     94  C   UNL A   1      46.394  35.943  28.696  1.00  0.00     0.200 A 
ATOM     95  F   UNL A   1      46.869  35.484  30.963  1.00  0.00    -0.200 F 
ATOM     96  F   UNL A   1      46.485  37.259  28.929  1.00  0.00    -0.200 F 
ENDBRANCH  63  86
ENDBRANCH  37  38
ENDBRANCH  29  32
ENDBRANCH  27  28
ENDBRANCH  26  27
ENDBRANCH   1  26
TORSDOF 14
ENDMDL
MODEL 3
REMARK VINA RESULT:     -12.6      5.317     10.211
REMARK SMILES O=C(CCC1CC[NH+]([C@H]2CCO[C@@]3(CCSC3)C2)CC1)NCCCCNC(=O)c1ccc(-c2c3nc(c(-c4c(F)c(F)c(F)c(F)c4F)c4ccc([nH]4)c(-c4c(F)c(F)c(F)c(F)c4F)c4nc(c(-c5c(F)c(F)c(F)c(F)c5F)c5ccc2[nH]5)C=C4)C=C3)cc1
REMARK SMILES IDX 23 1 22 2 21 3 1 4 2 5 3 7 4 8 5 9 6 10 20 11 7 12 19 13
REMARK SMILES IDX 8 14 9 16 10 17 18 18 11 19 13 20 12 21 14 22 17 23 15 24
REMARK SMILES IDX 16 25 24 26 25 27 26 28 27 29 28 31 29 32 30 33 91 34 31 35
REMARK SMILES IDX 90 36 32 37 33 38 34 39 84 40 35 41 89 42 83 43 85 44 36 45
REMARK SMILES IDX 88 46 82 47 81 48 37 50 69 51 49 52 68 53 50 54 53 55 67 56
REMARK SMILES IDX 86 57 51 58 52 59 66 61 87 62 54 63 38 64 39 65 47 66 40 67
REMARK SMILES IDX 41 68 45 69 48 70 42 71 43 72 46 73 44 74 70 75 71 76 79 77
REMARK SMILES IDX 72 78 73 79 77 80 80 81 74 82 75 83 78 84 76 85 55 86 56 87
REMARK SMILES IDX 64 88 57 89 58 90 62 91 65 92 59 93 60 94 63 95 61 96
REMARK H PARENT 21 6 8 15 26 30 85 49 53 60
REMARK Flexibility Score: inf
ROOT
ATOM      1  C   UNL A   1      41.762  20.002  27.258  1.00  0.00     0.023 C 
ENDROOT
BRANCH   1   2
ATOM      2  C   UNL A   1      41.829  21.537  27.419  1.00  0.00     0.116 C 
BRANCH   2   3
ATOM      3  N   UNL A   1      40.877  22.244  26.577  1.00  0.00    -0.356 N 
ATOM      4  O   UNL A   1      39.941  23.668  28.117  1.00  0.00    -0.275 OA
ATOM      5  C   UNL A   1      40.009  23.245  26.964  1.00  0.00     0.220 C 
ATOM      6  H   UNL A   1      40.848  21.979  25.629  1.00  0.00     0.163 HD
BRANCH   5   7
ATOM      7  C   UNL A   1      39.096  23.788  25.846  1.00  0.00     0.100 C 
BRANCH   7   8
ATOM      8  C   UNL A   1      37.591  23.979  26.126  1.00  0.00     0.014 C 
BRANCH   8   9
ATOM      9  C   UNL A   1      36.496  23.703  25.048  1.00  0.00     0.000 C 
ATOM     10  C   UNL A   1      35.031  23.888  25.454  1.00  0.00     0.065 C 
ATOM     11  C   UNL A   1      36.650  22.325  24.409  1.00  0.00     0.065 C 
ATOM     12  C   UNL A   1      34.455  22.733  26.271  1.00  0.00     0.262 C 
ATOM     13  C   UNL A   1      36.286  21.261  25.416  1.00  0.00     0.262 C 
ATOM     14  N   UNL A   1      34.909  21.371  25.918  1.00  0.00    -0.332 N 
ATOM     15  H   UNL A   1      34.980  20.908  26.824  1.00  0.00     0.348 HD
BRANCH  14  16
ATOM     16  C   UNL A   1      33.904  20.571  25.173  1.00  0.00     0.189 C 
ATOM     17  C   UNL A   1      33.195  21.294  24.017  1.00  0.00     0.093 C 
ATOM     18  C   UNL A   1      34.407  19.194  24.656  1.00  0.00     0.101 C 
ATOM     19  C   UNL A   1      32.153  20.391  23.375  1.00  0.00     0.167 C 
ATOM     20  C   UNL A   1      33.299  18.358  23.982  1.00  0.00     0.084 C 
ATOM     21  O   UNL A   1      32.712  19.153  22.937  1.00  0.00    -0.374 OA
ATOM     22  C   UNL A   1      33.860  17.065  23.341  1.00  0.00     0.047 C 
ATOM     23  C   UNL A   1      32.239  17.893  24.965  1.00  0.00     0.105 C 
ATOM     24  C   UNL A   1      33.552  15.828  24.193  1.00  0.00     0.072 C 
ATOM     25  S   UNL A   1      32.903  16.430  25.751  1.00  0.00    -0.159 SA
ENDBRANCH  14  16
ENDBRANCH   8   9
ENDBRANCH   7   8
ENDBRANCH   5   7
ENDBRANCH   2   3
ENDBRANCH   1   2
BRANCH   1  26
ATOM     26  C   UNL A   1      42.156  19.377  25.905  1.00  0.00     0.023 C 
BRANCH  26  27
ATOM     27  C   UNL A   1      43.262  18.306  25.864  1.00  0.00     0.116 C 
BRANCH  27  28
ATOM     28  N   UNL A   1      44.237  18.466  24.777  1.00  0.00    -0.352 N 
ATOM     29  C   UNL A   1      45.011  19.491  24.249  1.00  0.00     0.251 C 
ATOM     30  H   UNL A   1      44.382  17.620  24.295  1.00  0.00     0.163 HD
ATOM     31  O   UNL A   1      45.737  19.178  23.298  1.00  0.00    -0.269 OA
BRANCH  29  32
ATOM     32  C   UNL A   1      45.074  20.926  24.710  1.00  0.00     0.039 A 
ATOM     33  C   UNL A   1      45.299  21.226  26.070  1.00  0.00     0.014 A 
ATOM     34  C   UNL A   1      44.899  22.018  23.878  1.00  0.00     0.014 A 
ATOM     35  C   UNL A   1      45.321  22.562  26.551  1.00  0.00     0.010 A 
ATOM     36  C   UNL A   1      44.870  23.341  24.343  1.00  0.00     0.010 A 
ATOM     37  C   UNL A   1      45.087  23.639  25.684  1.00  0.00    -0.014 A 
BRANCH  37  38
ATOM     38  C   UNL A   1      45.347  25.067  26.028  1.00  0.00     0.031 A 
ATOM     39  C   UNL A   1      46.725  25.678  26.089  1.00  0.00     0.074 A 
ATOM     40  C   UNL A   1      44.312  25.750  26.556  1.00  0.00     0.049 A 
ATOM     41  N   UNL A   1      47.069  26.909  26.393  1.00  0.00    -0.248 NA
ATOM     42  C   UNL A   1      47.866  24.793  25.822  1.00  0.00     0.031 C 
ATOM     43  C   UNL A   1      42.969  25.201  26.751  1.00  0.00     0.029 A 
ATOM     44  N   UNL A   1      44.233  27.018  27.074  1.00  0.00    -0.354 N 
ATOM     45  C   UNL A   1      48.457  26.958  26.326  1.00  0.00     0.074 A 
ATOM     46  C   UNL A   1      48.897  25.611  26.018  1.00  0.00     0.031 C 
ATOM     47  C   UNL A   1      42.201  26.121  27.349  1.00  0.00     0.029 A 
ATOM     48  C   UNL A   1      42.990  27.329  27.564  1.00  0.00     0.049 A 
ATOM     49  H   UNL A   1      44.994  27.643  27.092  1.00  0.00     0.167 HD
ATOM     50  C   UNL A   1      49.277  28.031  26.485  1.00  0.00     0.037 A 
ATOM     51  C   UNL A   1      42.518  28.469  28.102  1.00  0.00     0.037 A 
ATOM     52  C   UNL A   1      48.818  29.361  26.824  1.00  0.00     0.049 A 
ATOM     53  C   UNL A   1      43.414  29.669  28.176  1.00  0.00     0.074 A 
ATOM     54  C   UNL A   1      49.541  30.544  26.876  1.00  0.00     0.029 A 
ATOM     55  N   UNL A   1      47.521  29.681  27.201  1.00  0.00    -0.354 N 
ATOM     56  N   UNL A   1      44.690  29.763  27.897  1.00  0.00    -0.248 NA
ATOM     57  C   UNL A   1      42.794  30.931  28.598  1.00  0.00     0.031 C 
ATOM     58  C   UNL A   1      48.699  31.561  27.342  1.00  0.00     0.029 A 
ATOM     59  C   UNL A   1      47.432  31.031  27.517  1.00  0.00     0.049 A 
ATOM     60  H   UNL A   1      46.773  29.042  27.240  1.00  0.00     0.167 HD
ATOM     61  C   UNL A   1      45.021  31.097  28.082  1.00  0.00     0.074 A 
ATOM     62  C   UNL A   1      43.805  31.778  28.477  1.00  0.00     0.031 C 
ATOM     63  C   UNL A   1      46.226  31.702  27.931  1.00  0.00     0.037 A 
BRANCH  50  64
ATOM     64  C   UNL A   1      50.760  27.851  26.254  1.00  0.00     0.064 A 
ATOM     65  C   UNL A   1      51.320  28.002  24.975  1.00  0.00     0.173 A 
ATOM     66  C   UNL A   1      51.646  27.662  27.328  1.00  0.00     0.173 A 
ATOM     67  F   UNL A   1      50.529  28.203  23.910  1.00  0.00    -0.203 F 
ATOM     68  C   UNL A   1      52.700  27.947  24.778  1.00  0.00     0.198 A 
ATOM     69  C   UNL A   1      53.027  27.639  27.131  1.00  0.00     0.198 A 
ATOM     70  F   UNL A   1      51.178  27.536  28.579  1.00  0.00    -0.203 F 
ATOM     71  F   UNL A   1      53.204  28.066  23.541  1.00  0.00    -0.200 F 
ATOM     72  C   UNL A   1      53.553  27.776  25.856  1.00  0.00     0.200 A 
ATOM     73  F   UNL A   1      53.852  27.501  28.180  1.00  0.00    -0.200 F 
ATOM     74  F   UNL A   1      54.880  27.747  25.668  1.00  0.00    -0.200 F 
ENDBRANCH  50  64
BRANCH  51  75
ATOM     75  C   UNL A   1      41.088  28.537  28.491  1.00  0.00     0.064 A 
ATOM     76  C   UNL A   1      40.692  28.224  29.798  1.00  0.00     0.173 A 
ATOM     77  C   UNL A   1      40.106  28.991  27.598  1.00  0.00     0.173 A 
ATOM     78  F   UNL A   1      41.596  27.782  30.683  1.00  0.00    -0.203 F 
ATOM     79  C   UNL A   1      39.363  28.348  30.196  1.00  0.00     0.198 A 
ATOM     80  C   UNL A   1      38.783  29.143  28.006  1.00  0.00     0.198 A 
ATOM     81  F   UNL A   1      40.443  29.328  26.344  1.00  0.00    -0.203 F 
ATOM     82  F   UNL A   1      39.007  28.017  31.443  1.00  0.00    -0.200 F 
ATOM     83  C   UNL A   1      38.412  28.816  29.302  1.00  0.00     0.200 A 
ATOM     84  F   UNL A   1      37.872  29.621  27.148  1.00  0.00    -0.200 F 
ATOM     85  F   UNL A   1      37.138  28.958  29.691  1.00  0.00    -0.200 F 
ENDBRANCH  51  75
BRANCH  63  86
ATOM     86  C   UNL A   1      46.282  33.182  28.186  1.00  0.00     0.064 A 
ATOM     87  C   UNL A   1      46.574  33.700  29.458  1.00  0.00     0.173 A 
ATOM     88  C   UNL A   1      46.042  34.094  27.148  1.00  0.00     0.173 A 
ATOM     89  F   UNL A   1      46.794  32.871  30.490  1.00  0.00    -0.203 F 
ATOM     90  C   UNL A   1      46.586  35.073  29.688  1.00  0.00     0.198 A 
ATOM     91  C   UNL A   1      46.087  35.468  27.374  1.00  0.00     0.198 A 
ATOM     92  F   UNL A   1      45.764  33.654  25.912  1.00  0.00    -0.203 F 
ATOM     93  F   UNL A   1      46.804  35.542  30.925  1.00  0.00    -0.200 F 
ATOM     94  C   UNL A   1      46.347  35.956  28.645  1.00  0.00     0.200 A 
ATOM     95  F   UNL A   1      45.868  36.319  26.362  1.00  0.00    -0.200 F 
ATOM     96  F   UNL A   1      46.356  37.276  28.868  1.00  0.00    -0.200 F 
ENDBRANCH  63  86
ENDBRANCH  37  38
ENDBRANCH  29  32
ENDBRANCH  27  28
ENDBRANCH  26  27
ENDBRANCH   1  26
TORSDOF 14
ENDMDL
