MODEL 1
REMARK VINA RESULT:     -11.1      0.000      0.000
REMARK SMILES CC1=C(C(=O)OCC(C)C)[C@@H](c2ccc(C(=O)NCCCCNC(=O)c3ccc(-c4c5nc(c(-c6c(F)c(F)c(F)c(F)c6F)c6ccc([nH]6)c(-c6c(F)c(F)c(F)c(F)c6F)c6nc(c(-c7c(F)c(F)c(F)c(F)c7F)c7ccc4[nH]7)C=C6)C=C5)cc3)cc2)c2c(n(C)c(=O)n(C)c2=O)N1
REMARK SMILES IDX 19 1 18 2 16 3 17 4 15 6 12 7 13 8 90 9 14 10 89 11 11 12
REMARK SMILES IDX 1 13 2 14 3 15 101 16 92 17 91 19 93 20 99 21 94 22 95 23
REMARK SMILES IDX 97 24 100 25 96 26 98 27 4 28 5 29 6 30 7 31 8 32 9 33 10 34
REMARK SMILES IDX 20 35 21 36 22 37 23 38 24 39 25 41 26 42 27 43 88 44 28 45
REMARK SMILES IDX 87 46 29 47 30 48 31 49 81 50 32 51 86 52 80 53 82 54 33 55
REMARK SMILES IDX 85 56 79 57 78 58 34 60 66 61 46 62 65 63 47 64 50 65 64 66
REMARK SMILES IDX 83 67 48 68 49 69 63 71 84 72 51 73 35 74 36 75 44 76 37 77
REMARK SMILES IDX 38 78 42 79 45 80 39 81 40 82 43 83 41 84 67 85 68 86 76 87
REMARK SMILES IDX 69 88 70 89 74 90 77 91 71 92 72 93 75 94 73 95 52 96 53 97
REMARK SMILES IDX 61 98 54 99 55 100 59 101 62 102 56 103 57 104 60 105 58 106
REMARK H PARENT 18 5 101 18 23 40 82 59 50 70
REMARK Flexibility Score: inf
ROOT
ATOM      1  C   UNL A   1      49.406  27.753  26.960  1.00  0.00     0.116 C 
ENDROOT
BRANCH   1   2
ATOM      2  N   UNL A   1      49.867  26.460  27.417  1.00  0.00    -0.352 N 
ATOM      3  C   UNL A   1      49.289  25.218  27.378  1.00  0.00     0.251 C 
ATOM      4  O   UNL A   1      49.933  24.286  27.862  1.00  0.00    -0.269 OA
ATOM      5  H   UNL A   1      50.760  26.475  27.832  1.00  0.00     0.163 HD
BRANCH   3   6
ATOM      6  C   UNL A   1      47.964  24.939  26.747  1.00  0.00     0.039 A 
ATOM      7  C   UNL A   1      45.418  24.264  25.717  1.00  0.00    -0.035 A 
ATOM      8  C   UNL A   1      45.692  24.127  27.086  1.00  0.00     0.005 A 
ATOM      9  C   UNL A   1      46.410  24.787  24.884  1.00  0.00     0.005 A 
ATOM     10  C   UNL A   1      46.955  24.450  27.589  1.00  0.00     0.014 A 
ATOM     11  C   UNL A   1      47.653  25.149  25.402  1.00  0.00     0.014 A 
BRANCH   7  12
ATOM     12  C   UNL A   1      44.056  23.906  25.119  1.00  0.00     0.098 C 
ATOM     13  C   UNL A   1      40.915  25.013  27.190  1.00  0.00     0.065 C 
ATOM     14  C   UNL A   1      42.005  24.232  26.504  1.00  0.00     0.025 C 
ATOM     15  C   UNL A   1      42.979  24.784  25.746  1.00  0.00     0.068 C 
ATOM     16  N   UNL A   1      41.952  22.850  26.648  1.00  0.00    -0.344 N 
ATOM     17  C   UNL A   1      42.772  21.937  26.001  1.00  0.00     0.123 A 
ATOM     18  H   UNL A   1      41.273  22.488  27.262  1.00  0.00     0.168 HD
ATOM     19  C   UNL A   1      43.778  22.419  25.250  1.00  0.00     0.071 A 
ATOM     20  N   UNL A   1      42.590  20.565  26.097  1.00  0.00    -0.282 N 
ATOM     21  C   UNL A   1      44.653  21.499  24.496  1.00  0.00     0.262 A 
ATOM     22  C   UNL A   1      41.451  20.038  26.840  1.00  0.00     0.157 C 
ATOM     23  C   UNL A   1      43.458  19.638  25.517  1.00  0.00     0.332 A 
ATOM     24  N   UNL A   1      44.507  20.160  24.780  1.00  0.00    -0.263 N 
ATOM     25  O   UNL A   1      45.445  21.940  23.665  1.00  0.00    -0.269 OA
ATOM     26  O   UNL A   1      43.299  18.422  25.637  1.00  0.00    -0.247 OA
ATOM     27  C   UNL A   1      45.428  19.216  24.175  1.00  0.00     0.158 C 
BRANCH  15  28
ATOM     28  C   UNL A   1      43.090  26.221  25.382  1.00  0.00     0.336 C 
ATOM     29  O   UNL A   1      44.155  26.819  25.395  1.00  0.00    -0.246 OA
BRANCH  28  30
ATOM     30  O   UNL A   1      41.879  26.768  25.123  1.00  0.00    -0.462 OA
BRANCH  30  31
ATOM     31  C   UNL A   1      41.757  28.189  25.323  1.00  0.00     0.236 C 
BRANCH  31  32
ATOM     32  C   UNL A   1      41.811  28.526  26.819  1.00  0.00     0.021 C 
ATOM     33  C   UNL A   1      42.770  29.681  27.107  1.00  0.00     0.011 C 
ATOM     34  C   UNL A   1      40.416  28.863  27.343  1.00  0.00     0.011 C 
ENDBRANCH  31  32
ENDBRANCH  30  31
ENDBRANCH  28  30
ENDBRANCH  15  28
ENDBRANCH   7  12
ENDBRANCH   3   6
ENDBRANCH   1   2
BRANCH   1  35
ATOM     35  C   UNL A   1      50.491  28.436  26.122  1.00  0.00     0.023 C 
BRANCH  35  36
ATOM     36  C   UNL A   1      51.890  28.334  26.726  1.00  0.00     0.023 C 
BRANCH  36  37
ATOM     37  C   UNL A   1      52.103  29.194  27.962  1.00  0.00     0.116 C 
BRANCH  37  38
ATOM     38  N   UNL A   1      52.819  30.432  27.686  1.00  0.00    -0.352 N 
ATOM     39  C   UNL A   1      52.303  31.702  27.611  1.00  0.00     0.251 C 
ATOM     40  H   UNL A   1      53.789  30.348  27.533  1.00  0.00     0.163 HD
ATOM     41  O   UNL A   1      52.992  32.652  27.264  1.00  0.00    -0.269 OA
BRANCH  39  42
ATOM     42  C   UNL A   1      50.875  31.883  27.923  1.00  0.00     0.039 A 
ATOM     43  C   UNL A   1      49.940  31.753  26.898  1.00  0.00     0.014 A 
ATOM     44  C   UNL A   1      50.471  32.077  29.247  1.00  0.00     0.014 A 
ATOM     45  C   UNL A   1      48.583  31.763  27.212  1.00  0.00     0.010 A 
ATOM     46  C   UNL A   1      49.124  31.999  29.568  1.00  0.00     0.010 A 
ATOM     47  C   UNL A   1      48.167  31.854  28.551  1.00  0.00    -0.014 A 
BRANCH  47  48
ATOM     48  C   UNL A   1      46.727  31.841  28.900  1.00  0.00     0.031 A 
ATOM     49  C   UNL A   1      46.093  30.567  29.378  1.00  0.00     0.074 A 
ATOM     50  C   UNL A   1      45.995  32.962  28.766  1.00  0.00     0.049 A 
ATOM     51  N   UNL A   1      44.853  30.344  29.734  1.00  0.00    -0.248 NA
ATOM     52  C   UNL A   1      46.958  29.377  29.445  1.00  0.00     0.031 C 
ATOM     53  C   UNL A   1      46.496  34.246  28.270  1.00  0.00     0.029 A 
ATOM     54  N   UNL A   1      44.673  33.207  29.042  1.00  0.00    -0.354 N 
ATOM     55  C   UNL A   1      44.796  28.999  30.067  1.00  0.00     0.074 A 
ATOM     56  C   UNL A   1      46.099  28.434  29.799  1.00  0.00     0.031 C 
ATOM     57  C   UNL A   1      45.507  35.151  28.320  1.00  0.00     0.029 A 
ATOM     58  C   UNL A   1      44.294  34.507  28.816  1.00  0.00     0.049 A 
ATOM     59  H   UNL A   1      44.055  32.515  29.373  1.00  0.00     0.167 HD
ATOM     60  C   UNL A   1      43.761  28.306  30.594  1.00  0.00     0.037 A 
ATOM     61  C   UNL A   1      43.102  35.110  28.997  1.00  0.00     0.037 A 
ATOM     62  C   UNL A   1      42.476  28.880  30.882  1.00  0.00     0.049 A 
ATOM     63  C   UNL A   1      41.954  34.305  29.544  1.00  0.00     0.074 A 
ATOM     64  C   UNL A   1      41.374  28.275  31.458  1.00  0.00     0.029 A 
ATOM     65  N   UNL A   1      42.121  30.194  30.615  1.00  0.00    -0.354 N 
ATOM     66  N   UNL A   1      41.930  33.051  29.927  1.00  0.00    -0.248 NA
ATOM     67  C   UNL A   1      40.665  34.998  29.687  1.00  0.00     0.031 C 
ATOM     68  C   UNL A   1      40.335  29.208  31.492  1.00  0.00     0.029 A 
ATOM     69  C   UNL A   1      40.804  30.410  30.985  1.00  0.00     0.049 A 
ATOM     70  H   UNL A   1      42.716  30.871  30.219  1.00  0.00     0.167 HD
ATOM     71  C   UNL A   1      40.636  32.810  30.369  1.00  0.00     0.074 A 
ATOM     72  C   UNL A   1      39.909  34.053  30.230  1.00  0.00     0.031 C 
ATOM     73  C   UNL A   1      40.100  31.658  30.842  1.00  0.00     0.037 A 
BRANCH  60  74
ATOM     74  C   UNL A   1      43.982  26.857  30.914  1.00  0.00     0.064 A 
ATOM     75  C   UNL A   1      44.351  26.443  32.204  1.00  0.00     0.173 A 
ATOM     76  C   UNL A   1      43.771  25.869  29.942  1.00  0.00     0.173 A 
ATOM     77  F   UNL A   1      44.579  27.351  33.165  1.00  0.00    -0.203 F 
ATOM     78  C   UNL A   1      44.518  25.094  32.502  1.00  0.00     0.198 A 
ATOM     79  C   UNL A   1      43.908  24.519  30.253  1.00  0.00     0.198 A 
ATOM     80  F   UNL A   1      43.415  26.211  28.695  1.00  0.00    -0.203 F 
ATOM     81  F   UNL A   1      44.910  24.725  33.730  1.00  0.00    -0.200 F 
ATOM     82  C   UNL A   1      44.285  24.134  31.531  1.00  0.00     0.200 A 
ATOM     83  F   UNL A   1      43.669  23.589  29.317  1.00  0.00    -0.200 F 
ATOM     84  F   UNL A   1      44.429  22.833  31.826  1.00  0.00    -0.200 F 
ENDBRANCH  60  74
BRANCH  61  85
ATOM     85  C   UNL A   1      42.951  36.558  28.697  1.00  0.00     0.064 A 
ATOM     86  C   UNL A   1      43.419  37.530  29.592  1.00  0.00     0.173 A 
ATOM     87  C   UNL A   1      42.352  37.003  27.508  1.00  0.00     0.173 A 
ATOM     88  F   UNL A   1      43.980  37.157  30.751  1.00  0.00    -0.203 F 
ATOM     89  C   UNL A   1      43.286  38.889  29.314  1.00  0.00     0.198 A 
ATOM     90  C   UNL A   1      42.244  38.362  27.219  1.00  0.00     0.198 A 
ATOM     91  F   UNL A   1      41.889  36.115  26.617  1.00  0.00    -0.203 F 
ATOM     92  F   UNL A   1      43.710  39.797  30.205  1.00  0.00    -0.200 F 
ATOM     93  C   UNL A   1      42.706  39.305  28.125  1.00  0.00     0.200 A 
ATOM     94  F   UNL A   1      41.698  38.757  26.062  1.00  0.00    -0.200 F 
ATOM     95  F   UNL A   1      42.588  40.612  27.855  1.00  0.00    -0.200 F 
ENDBRANCH  61  85
BRANCH  73  96
ATOM     96  C   UNL A   1      38.655  31.676  31.248  1.00  0.00     0.064 A 
ATOM     97  C   UNL A   1      38.272  31.986  32.561  1.00  0.00     0.173 A 
ATOM     98  C   UNL A   1      37.643  31.486  30.294  1.00  0.00     0.173 A 
ATOM     99  F   UNL A   1      39.202  32.164  33.511  1.00  0.00    -0.203 F 
ATOM    100  C   UNL A   1      36.928  32.098  32.905  1.00  0.00     0.198 A 
ATOM    101  C   UNL A   1      36.301  31.632  30.635  1.00  0.00     0.198 A 
ATOM    102  F   UNL A   1      37.958  31.199  29.022  1.00  0.00    -0.203 F 
ATOM    103  F   UNL A   1      36.584  32.368  34.172  1.00  0.00    -0.200 F 
ATOM    104  C   UNL A   1      35.945  31.935  31.940  1.00  0.00     0.200 A 
ATOM    105  F   UNL A   1      35.354  31.493  29.696  1.00  0.00    -0.200 F 
ATOM    106  F   UNL A   1      34.653  32.071  32.268  1.00  0.00    -0.200 F 
ENDBRANCH  73  96
ENDBRANCH  47  48
ENDBRANCH  39  42
ENDBRANCH  37  38
ENDBRANCH  36  37
ENDBRANCH  35  36
ENDBRANCH   1  35
TORSDOF 16
ENDMDL
MODEL 2
REMARK VINA RESULT:     -11.0      5.521     10.123
REMARK SMILES CC1=C(C(=O)OCC(C)C)[C@@H](c2ccc(C(=O)NCCCCNC(=O)c3ccc(-c4c5nc(c(-c6c(F)c(F)c(F)c(F)c6F)c6ccc([nH]6)c(-c6c(F)c(F)c(F)c(F)c6F)c6nc(c(-c7c(F)c(F)c(F)c(F)c7F)c7ccc4[nH]7)C=C6)C=C5)cc3)cc2)c2c(n(C)c(=O)n(C)c2=O)N1
REMARK SMILES IDX 19 1 18 2 16 3 17 4 15 6 12 7 13 8 90 9 14 10 89 11 11 12
REMARK SMILES IDX 1 13 2 14 3 15 101 16 92 17 91 19 93 20 99 21 94 22 95 23
REMARK SMILES IDX 97 24 100 25 96 26 98 27 4 28 5 29 6 30 7 31 8 32 9 33 10 34
REMARK SMILES IDX 20 35 21 36 22 37 23 38 24 39 25 41 26 42 27 43 88 44 28 45
REMARK SMILES IDX 87 46 29 47 30 48 31 49 81 50 32 51 86 52 80 53 82 54 33 55
REMARK SMILES IDX 85 56 79 57 78 58 34 60 66 61 46 62 65 63 47 64 50 65 64 66
REMARK SMILES IDX 83 67 48 68 49 69 63 71 84 72 51 73 35 74 36 75 44 76 37 77
REMARK SMILES IDX 38 78 42 79 45 80 39 81 40 82 43 83 41 84 67 85 68 86 76 87
REMARK SMILES IDX 69 88 70 89 74 90 77 91 71 92 72 93 75 94 73 95 52 96 53 97
REMARK SMILES IDX 61 98 54 99 55 100 59 101 62 102 56 103 57 104 60 105 58 106
REMARK H PARENT 18 5 101 18 23 40 82 59 50 70
REMARK Flexibility Score: inf
ROOT
ATOM      1  C   UNL A   1      39.563  24.121  26.979  1.00  0.00     0.116 C 
ENDROOT
BRANCH   1   2
ATOM      2  N   UNL A   1      39.744  22.744  26.575  1.00  0.00    -0.352 N 
ATOM      3  C   UNL A   1      38.894  21.847  25.980  1.00  0.00     0.251 C 
ATOM      4  O   UNL A   1      39.337  20.718  25.759  1.00  0.00    -0.269 OA
ATOM      5  H   UNL A   1      40.641  22.385  26.761  1.00  0.00     0.163 HD
BRANCH   3   6
ATOM      6  C   UNL A   1      37.503  22.181  25.552  1.00  0.00     0.039 A 
ATOM      7  C   UNL A   1      34.796  22.707  24.924  1.00  0.00    -0.035 A 
ATOM      8  C   UNL A   1      35.195  22.515  26.256  1.00  0.00     0.005 A 
ATOM      9  C   UNL A   1      35.769  22.682  23.923  1.00  0.00     0.005 A 
ATOM     10  C   UNL A   1      36.531  22.243  26.561  1.00  0.00     0.014 A 
ATOM     11  C   UNL A   1      37.108  22.455  24.241  1.00  0.00     0.014 A 
BRANCH   7  12
ATOM     12  C   UNL A   1      33.341  22.989  24.543  1.00  0.00     0.098 C 
ATOM     13  C   UNL A   1      31.890  20.870  21.579  1.00  0.00     0.065 C 
ATOM     14  C   UNL A   1      32.419  21.973  22.457  1.00  0.00     0.025 C 
ATOM     15  C   UNL A   1      32.787  21.812  23.748  1.00  0.00     0.068 C 
ATOM     16  N   UNL A   1      32.485  23.236  21.881  1.00  0.00    -0.344 N 
ATOM     17  C   UNL A   1      32.817  24.411  22.541  1.00  0.00     0.123 A 
ATOM     18  H   UNL A   1      32.278  23.304  20.921  1.00  0.00     0.168 HD
ATOM     19  C   UNL A   1      33.216  24.320  23.822  1.00  0.00     0.071 A 
ATOM     20  N   UNL A   1      32.748  25.657  21.936  1.00  0.00    -0.282 N 
ATOM     21  C   UNL A   1      33.532  25.538  24.593  1.00  0.00     0.262 A 
ATOM     22  C   UNL A   1      32.237  25.771  20.575  1.00  0.00     0.157 C 
ATOM     23  C   UNL A   1      33.158  26.834  22.565  1.00  0.00     0.332 A 
ATOM     24  N   UNL A   1      33.599  26.708  23.872  1.00  0.00    -0.263 N 
ATOM     25  O   UNL A   1      33.710  25.473  25.808  1.00  0.00    -0.269 OA
ATOM     26  O   UNL A   1      33.119  27.930  22.002  1.00  0.00    -0.247 OA
ATOM     27  C   UNL A   1      34.039  27.917  24.543  1.00  0.00     0.158 C 
BRANCH  15  28
ATOM     28  C   UNL A   1      32.644  20.565  24.546  1.00  0.00     0.336 C 
ATOM     29  O   UNL A   1      31.786  20.432  25.404  1.00  0.00    -0.246 OA
BRANCH  28  30
ATOM     30  O   UNL A   1      33.614  19.668  24.252  1.00  0.00    -0.462 OA
BRANCH  30  31
ATOM     31  C   UNL A   1      33.445  18.338  24.778  1.00  0.00     0.236 C 
BRANCH  31  32
ATOM     32  C   UNL A   1      34.471  17.381  24.156  1.00  0.00     0.021 C 
ATOM     33  C   UNL A   1      34.707  16.152  25.033  1.00  0.00     0.011 C 
ATOM     34  C   UNL A   1      34.022  16.949  22.761  1.00  0.00     0.011 C 
ENDBRANCH  31  32
ENDBRANCH  30  31
ENDBRANCH  28  30
ENDBRANCH  15  28
ENDBRANCH   7  12
ENDBRANCH   3   6
ENDBRANCH   1   2
BRANCH   1  35
ATOM     35  C   UNL A   1      40.832  24.928  26.689  1.00  0.00     0.023 C 
BRANCH  35  36
ATOM     36  C   UNL A   1      41.859  24.177  25.845  1.00  0.00     0.023 C 
BRANCH  36  37
ATOM     37  C   UNL A   1      42.765  25.073  25.017  1.00  0.00     0.116 C 
BRANCH  37  38
ATOM     38  N   UNL A   1      44.165  24.670  25.053  1.00  0.00    -0.352 N 
ATOM     39  C   UNL A   1      45.114  25.015  25.984  1.00  0.00     0.251 C 
ATOM     40  H   UNL A   1      44.466  24.082  24.323  1.00  0.00     0.163 HD
ATOM     41  O   UNL A   1      46.288  24.698  25.845  1.00  0.00    -0.269 OA
BRANCH  39  42
ATOM     42  C   UNL A   1      44.683  25.817  27.141  1.00  0.00     0.039 A 
ATOM     43  C   UNL A   1      44.702  27.207  27.041  1.00  0.00     0.014 A 
ATOM     44  C   UNL A   1      44.166  25.183  28.274  1.00  0.00     0.014 A 
ATOM     45  C   UNL A   1      44.148  27.969  28.066  1.00  0.00     0.010 A 
ATOM     46  C   UNL A   1      43.536  25.939  29.252  1.00  0.00     0.010 A 
ATOM     47  C   UNL A   1      43.533  27.340  29.162  1.00  0.00    -0.014 A 
BRANCH  47  48
ATOM     48  C   UNL A   1      42.918  28.140  30.248  1.00  0.00     0.031 A 
ATOM     49  C   UNL A   1      41.591  28.801  30.018  1.00  0.00     0.074 A 
ATOM     50  C   UNL A   1      43.561  28.283  31.421  1.00  0.00     0.049 A 
ATOM     51  N   UNL A   1      40.884  29.541  30.833  1.00  0.00    -0.248 NA
ATOM     52  C   UNL A   1      40.984  28.632  28.686  1.00  0.00     0.031 C 
ATOM     53  C   UNL A   1      44.874  27.720  31.741  1.00  0.00     0.029 A 
ATOM     54  N   UNL A   1      43.194  28.941  32.569  1.00  0.00    -0.354 N 
ATOM     55  C   UNL A   1      39.757  29.916  30.118  1.00  0.00     0.074 A 
ATOM     56  C   UNL A   1      39.906  29.394  28.778  1.00  0.00     0.031 C 
ATOM     57  C   UNL A   1      45.181  28.019  33.013  1.00  0.00     0.029 A 
ATOM     58  C   UNL A   1      44.106  28.823  33.588  1.00  0.00     0.049 A 
ATOM     59  H   UNL A   1      42.354  29.449  32.653  1.00  0.00     0.167 HD
ATOM     60  C   UNL A   1      38.673  30.598  30.552  1.00  0.00     0.037 A 
ATOM     61  C   UNL A   1      44.072  29.305  34.846  1.00  0.00     0.037 A 
ATOM     62  C   UNL A   1      38.520  31.092  31.892  1.00  0.00     0.049 A 
ATOM     63  C   UNL A   1      42.873  30.098  35.291  1.00  0.00     0.074 A 
ATOM     64  C   UNL A   1      37.440  31.755  32.445  1.00  0.00     0.029 A 
ATOM     65  N   UNL A   1      39.477  30.976  32.889  1.00  0.00    -0.354 N 
ATOM     66  N   UNL A   1      41.779  30.384  34.628  1.00  0.00    -0.248 NA
ATOM     67  C   UNL A   1      42.902  30.634  36.660  1.00  0.00     0.031 C 
ATOM     68  C   UNL A   1      37.765  32.087  33.763  1.00  0.00     0.029 A 
ATOM     69  C   UNL A   1      39.025  31.586  34.047  1.00  0.00     0.049 A 
ATOM     70  H   UNL A   1      40.348  30.529  32.788  1.00  0.00     0.167 HD
ATOM     71  C   UNL A   1      40.984  31.117  35.500  1.00  0.00     0.074 A 
ATOM     72  C   UNL A   1      41.711  31.211  36.748  1.00  0.00     0.031 C 
ATOM     73  C   UNL A   1      39.764  31.666  35.282  1.00  0.00     0.037 A 
BRANCH  60  74
ATOM     74  C   UNL A   1      37.556  30.829  29.576  1.00  0.00     0.064 A 
ATOM     75  C   UNL A   1      36.645  29.810  29.256  1.00  0.00     0.173 A 
ATOM     76  C   UNL A   1      37.362  32.091  28.997  1.00  0.00     0.173 A 
ATOM     77  F   UNL A   1      36.797  28.581  29.771  1.00  0.00    -0.203 F 
ATOM     78  C   UNL A   1      35.591  30.043  28.378  1.00  0.00     0.198 A 
ATOM     79  C   UNL A   1      36.287  32.328  28.145  1.00  0.00     0.198 A 
ATOM     80  F   UNL A   1      38.202  33.099  29.272  1.00  0.00    -0.203 F 
ATOM     81  F   UNL A   1      34.757  29.045  28.056  1.00  0.00    -0.200 F 
ATOM     82  C   UNL A   1      35.405  31.304  27.833  1.00  0.00     0.200 A 
ATOM     83  F   UNL A   1      36.100  33.552  27.629  1.00  0.00    -0.200 F 
ATOM     84  F   UNL A   1      34.378  31.531  27.001  1.00  0.00    -0.200 F 
ENDBRANCH  60  74
BRANCH  61  85
ATOM     85  C   UNL A   1      45.191  29.014  35.781  1.00  0.00     0.064 A 
ATOM     86  C   UNL A   1      45.155  27.888  36.616  1.00  0.00     0.173 A 
ATOM     87  C   UNL A   1      46.323  29.840  35.852  1.00  0.00     0.173 A 
ATOM     88  F   UNL A   1      44.087  27.078  36.601  1.00  0.00    -0.203 F 
ATOM     89  C   UNL A   1      46.202  27.606  37.491  1.00  0.00     0.198 A 
ATOM     90  C   UNL A   1      47.382  29.542  36.708  1.00  0.00     0.198 A 
ATOM     91  F   UNL A   1      46.409  30.929  35.074  1.00  0.00    -0.203 F 
ATOM     92  F   UNL A   1      46.124  26.543  38.304  1.00  0.00    -0.200 F 
ATOM     93  C   UNL A   1      47.318  28.428  37.531  1.00  0.00     0.200 A 
ATOM     94  F   UNL A   1      48.464  30.331  36.731  1.00  0.00    -0.200 F 
ATOM     95  F   UNL A   1      48.329  28.150  38.366  1.00  0.00    -0.200 F 
ENDBRANCH  61  85
BRANCH  73  96
ATOM     96  C   UNL A   1      39.126  32.422  36.411  1.00  0.00     0.064 A 
ATOM     97  C   UNL A   1      38.195  31.809  37.263  1.00  0.00     0.173 A 
ATOM     98  C   UNL A   1      39.526  33.734  36.706  1.00  0.00     0.173 A 
ATOM     99  F   UNL A   1      37.773  30.561  37.015  1.00  0.00    -0.203 F 
ATOM    100  C   UNL A   1      37.684  32.486  38.366  1.00  0.00     0.198 A 
ATOM    101  C   UNL A   1      39.037  34.396  37.829  1.00  0.00     0.198 A 
ATOM    102  F   UNL A   1      40.422  34.359  35.928  1.00  0.00    -0.203 F 
ATOM    103  F   UNL A   1      36.776  31.891  39.151  1.00  0.00    -0.200 F 
ATOM    104  C   UNL A   1      38.116  33.773  38.656  1.00  0.00     0.200 A 
ATOM    105  F   UNL A   1      39.470  35.631  38.118  1.00  0.00    -0.200 F 
ATOM    106  F   UNL A   1      37.643  34.412  39.735  1.00  0.00    -0.200 F 
ENDBRANCH  73  96
ENDBRANCH  47  48
ENDBRANCH  39  42
ENDBRANCH  37  38
ENDBRANCH  36  37
ENDBRANCH  35  36
ENDBRANCH   1  35
TORSDOF 16
ENDMDL
MODEL 3
REMARK VINA RESULT:     -10.8      6.969     12.493
REMARK SMILES CC1=C(C(=O)OCC(C)C)[C@@H](c2ccc(C(=O)NCCCCNC(=O)c3ccc(-c4c5nc(c(-c6c(F)c(F)c(F)c(F)c6F)c6ccc([nH]6)c(-c6c(F)c(F)c(F)c(F)c6F)c6nc(c(-c7c(F)c(F)c(F)c(F)c7F)c7ccc4[nH]7)C=C6)C=C5)cc3)cc2)c2c(n(C)c(=O)n(C)c2=O)N1
REMARK SMILES IDX 19 1 18 2 16 3 17 4 15 6 12 7 13 8 90 9 14 10 89 11 11 12
REMARK SMILES IDX 1 13 2 14 3 15 101 16 92 17 91 19 93 20 99 21 94 22 95 23
REMARK SMILES IDX 97 24 100 25 96 26 98 27 4 28 5 29 6 30 7 31 8 32 9 33 10 34
REMARK SMILES IDX 20 35 21 36 22 37 23 38 24 39 25 41 26 42 27 43 88 44 28 45
REMARK SMILES IDX 87 46 29 47 30 48 31 49 81 50 32 51 86 52 80 53 82 54 33 55
REMARK SMILES IDX 85 56 79 57 78 58 34 60 66 61 46 62 65 63 47 64 50 65 64 66
REMARK SMILES IDX 83 67 48 68 49 69 63 71 84 72 51 73 35 74 36 75 44 76 37 77
REMARK SMILES IDX 38 78 42 79 45 80 39 81 40 82 43 83 41 84 67 85 68 86 76 87
REMARK SMILES IDX 69 88 70 89 74 90 77 91 71 92 72 93 75 94 73 95 52 96 53 97
REMARK SMILES IDX 61 98 54 99 55 100 59 101 62 102 56 103 57 104 60 105 58 106
REMARK H PARENT 18 5 101 18 23 40 82 59 50 70
REMARK Flexibility Score: inf
ROOT
ATOM      1  C   UNL A   1      33.248  32.210  27.664  1.00  0.00     0.116 C 
ENDROOT
BRANCH   1   2
ATOM      2  N   UNL A   1      34.361  31.493  28.245  1.00  0.00    -0.352 N 
ATOM      3  C   UNL A   1      34.779  30.194  28.113  1.00  0.00     0.251 C 
ATOM      4  O   UNL A   1      35.779  29.861  28.751  1.00  0.00    -0.269 OA
ATOM      5  H   UNL A   1      34.921  32.037  28.845  1.00  0.00     0.163 HD
BRANCH   3   6
ATOM      6  C   UNL A   1      34.123  29.198  27.214  1.00  0.00     0.039 A 
ATOM      7  C   UNL A   1      32.955  27.432  25.339  1.00  0.00    -0.035 A 
ATOM      8  C   UNL A   1      34.077  28.199  24.993  1.00  0.00     0.005 A 
ATOM      9  C   UNL A   1      32.459  27.521  26.641  1.00  0.00     0.005 A 
ATOM     10  C   UNL A   1      34.644  29.079  25.917  1.00  0.00     0.014 A 
ATOM     11  C   UNL A   1      33.059  28.369  27.572  1.00  0.00     0.014 A 
BRANCH   7  12
ATOM     12  C   UNL A   1      32.291  26.469  24.353  1.00  0.00     0.098 C 
ATOM     13  C   UNL A   1      28.370  26.531  24.251  1.00  0.00     0.065 C 
ATOM     14  C   UNL A   1      29.816  26.156  24.449  1.00  0.00     0.025 C 
ATOM     15  C   UNL A   1      30.863  26.927  24.078  1.00  0.00     0.068 C 
ATOM     16  N   UNL A   1      30.053  24.910  25.018  1.00  0.00    -0.344 N 
ATOM     17  C   UNL A   1      31.297  24.314  25.172  1.00  0.00     0.123 A 
ATOM     18  H   UNL A   1      29.271  24.407  25.340  1.00  0.00     0.168 HD
ATOM     19  C   UNL A   1      32.383  25.036  24.846  1.00  0.00     0.071 A 
ATOM     20  N   UNL A   1      31.455  23.017  25.639  1.00  0.00    -0.282 N 
ATOM     21  C   UNL A   1      33.730  24.439  24.938  1.00  0.00     0.262 A 
ATOM     22  C   UNL A   1      30.278  22.201  25.915  1.00  0.00     0.157 C 
ATOM     23  C   UNL A   1      32.703  22.439  25.875  1.00  0.00     0.332 A 
ATOM     24  N   UNL A   1      33.806  23.216  25.566  1.00  0.00    -0.263 N 
ATOM     25  O   UNL A   1      34.701  25.025  24.462  1.00  0.00    -0.269 OA
ATOM     26  O   UNL A   1      32.826  21.296  26.319  1.00  0.00    -0.247 OA
ATOM     27  C   UNL A   1      35.115  22.639  25.810  1.00  0.00     0.158 C 
BRANCH  15  28
ATOM     28  C   UNL A   1      30.778  28.212  23.335  1.00  0.00     0.336 C 
ATOM     29  O   UNL A   1      31.202  28.339  22.197  1.00  0.00    -0.246 OA
BRANCH  28  30
ATOM     30  O   UNL A   1      30.260  29.201  24.100  1.00  0.00    -0.462 OA
BRANCH  30  31
ATOM     31  C   UNL A   1      29.820  30.387  23.412  1.00  0.00     0.236 C 
BRANCH  31  32
ATOM     32  C   UNL A   1      28.310  30.322  23.143  1.00  0.00     0.021 C 
ATOM     33  C   UNL A   1      27.591  31.578  23.633  1.00  0.00     0.011 C 
ATOM     34  C   UNL A   1      28.040  30.112  21.654  1.00  0.00     0.011 C 
ENDBRANCH  31  32
ENDBRANCH  30  31
ENDBRANCH  28  30
ENDBRANCH  15  28
ENDBRANCH   7  12
ENDBRANCH   3   6
ENDBRANCH   1   2
BRANCH   1  35
ATOM     35  C   UNL A   1      33.546  33.712  27.629  1.00  0.00     0.023 C 
BRANCH  35  36
ATOM     36  C   UNL A   1      32.653  34.537  28.554  1.00  0.00     0.023 C 
BRANCH  36  37
ATOM     37  C   UNL A   1      33.402  35.282  29.647  1.00  0.00     0.116 C 
BRANCH  37  38
ATOM     38  N   UNL A   1      32.532  35.790  30.699  1.00  0.00    -0.352 N 
ATOM     39  C   UNL A   1      32.693  35.664  32.056  1.00  0.00     0.251 C 
ATOM     40  H   UNL A   1      31.732  36.282  30.401  1.00  0.00     0.163 HD
ATOM     41  O   UNL A   1      31.833  36.043  32.840  1.00  0.00    -0.269 OA
BRANCH  39  42
ATOM     42  C   UNL A   1      33.922  35.016  32.546  1.00  0.00     0.039 A 
ATOM     43  C   UNL A   1      33.844  33.719  33.052  1.00  0.00     0.014 A 
ATOM     44  C   UNL A   1      35.154  35.661  32.402  1.00  0.00     0.014 A 
ATOM     45  C   UNL A   1      35.019  33.042  33.366  1.00  0.00     0.010 A 
ATOM     46  C   UNL A   1      36.325  34.954  32.631  1.00  0.00     0.010 A 
ATOM     47  C   UNL A   1      36.268  33.643  33.128  1.00  0.00    -0.014 A 
BRANCH  47  48
ATOM     48  C   UNL A   1      37.526  32.923  33.435  1.00  0.00     0.031 A 
ATOM     49  C   UNL A   1      38.248  33.210  34.720  1.00  0.00     0.074 A 
ATOM     50  C   UNL A   1      38.021  32.033  32.555  1.00  0.00     0.049 A 
ATOM     51  N   UNL A   1      39.358  32.691  35.177  1.00  0.00    -0.248 NA
ATOM     52  C   UNL A   1      37.660  34.235  35.599  1.00  0.00     0.031 C 
ATOM     53  C   UNL A   1      37.427  31.706  31.257  1.00  0.00     0.029 A 
ATOM     54  N   UNL A   1      39.136  31.235  32.621  1.00  0.00    -0.354 N 
ATOM     55  C   UNL A   1      39.594  33.320  36.391  1.00  0.00     0.074 A 
ATOM     56  C   UNL A   1      38.560  34.315  36.566  1.00  0.00     0.031 C 
ATOM     57  C   UNL A   1      38.157  30.744  30.671  1.00  0.00     0.029 A 
ATOM     58  C   UNL A   1      39.289  30.412  31.532  1.00  0.00     0.049 A 
ATOM     59  H   UNL A   1      39.765  31.249  33.378  1.00  0.00     0.167 HD
ATOM     60  C   UNL A   1      40.561  33.060  37.299  1.00  0.00     0.037 A 
ATOM     61  C   UNL A   1      40.235  29.490  31.265  1.00  0.00     0.037 A 
ATOM     62  C   UNL A   1      41.570  32.052  37.131  1.00  0.00     0.049 A 
ATOM     63  C   UNL A   1      41.325  29.250  32.274  1.00  0.00     0.074 A 
ATOM     64  C   UNL A   1      42.568  31.678  38.012  1.00  0.00     0.029 A 
ATOM     65  N   UNL A   1      41.709  31.257  36.002  1.00  0.00    -0.354 N 
ATOM     66  N   UNL A   1      41.497  29.799  33.452  1.00  0.00    -0.248 NA
ATOM     67  C   UNL A   1      42.354  28.262  31.919  1.00  0.00     0.031 C 
ATOM     68  C   UNL A   1      43.343  30.693  37.396  1.00  0.00     0.029 A 
ATOM     69  C   UNL A   1      42.799  30.415  36.152  1.00  0.00     0.049 A 
ATOM     70  H   UNL A   1      41.122  31.288  35.212  1.00  0.00     0.167 HD
ATOM     71  C   UNL A   1      42.638  29.214  33.985  1.00  0.00     0.074 A 
ATOM     72  C   UNL A   1      43.106  28.250  33.012  1.00  0.00     0.031 C 
ATOM     73  C   UNL A   1      43.245  29.459  35.172  1.00  0.00     0.037 A 
BRANCH  60  74
ATOM     74  C   UNL A   1      40.560  33.861  38.568  1.00  0.00     0.064 A 
ATOM     75  C   UNL A   1      39.804  33.463  39.682  1.00  0.00     0.173 A 
ATOM     76  C   UNL A   1      41.361  35.005  38.693  1.00  0.00     0.173 A 
ATOM     77  F   UNL A   1      39.009  32.385  39.608  1.00  0.00    -0.203 F 
ATOM     78  C   UNL A   1      39.837  34.191  40.867  1.00  0.00     0.198 A 
ATOM     79  C   UNL A   1      41.417  35.712  39.891  1.00  0.00     0.198 A 
ATOM     80  F   UNL A   1      42.105  35.427  37.660  1.00  0.00    -0.203 F 
ATOM     81  F   UNL A   1      39.075  33.815  41.904  1.00  0.00    -0.200 F 
ATOM     82  C   UNL A   1      40.652  35.307  40.974  1.00  0.00     0.200 A 
ATOM     83  F   UNL A   1      42.215  36.783  39.998  1.00  0.00    -0.200 F 
ATOM     84  F   UNL A   1      40.696  35.997  42.123  1.00  0.00    -0.200 F 
ENDBRANCH  60  74
BRANCH  61  85
ATOM     85  C   UNL A   1      40.165  28.700  30.007  1.00  0.00     0.064 A 
ATOM     86  C   UNL A   1      40.776  29.163  28.833  1.00  0.00     0.173 A 
ATOM     87  C   UNL A   1      39.503  27.464  29.951  1.00  0.00     0.173 A 
ATOM     88  F   UNL A   1      41.403  30.348  28.828  1.00  0.00    -0.203 F 
ATOM     89  C   UNL A   1      40.719  28.426  27.652  1.00  0.00     0.198 A 
ATOM     90  C   UNL A   1      39.470  26.715  28.777  1.00  0.00     0.198 A 
ATOM     91  F   UNL A   1      38.903  26.974  31.046  1.00  0.00    -0.203 F 
ATOM     92  F   UNL A   1      41.280  28.910  26.535  1.00  0.00    -0.200 F 
ATOM     93  C   UNL A   1      40.073  27.199  27.626  1.00  0.00     0.200 A 
ATOM     94  F   UNL A   1      38.859  25.523  28.762  1.00  0.00    -0.200 F 
ATOM     95  F   UNL A   1      40.029  26.486  26.492  1.00  0.00    -0.200 F 
ENDBRANCH  61  85
BRANCH  73  96
ATOM     96  C   UNL A   1      44.486  28.678  35.496  1.00  0.00     0.064 A 
ATOM     97  C   UNL A   1      45.759  29.167  35.171  1.00  0.00     0.173 A 
ATOM     98  C   UNL A   1      44.406  27.484  36.230  1.00  0.00     0.173 A 
ATOM     99  F   UNL A   1      45.887  30.297  34.461  1.00  0.00    -0.203 F 
ATOM    100  C   UNL A   1      46.907  28.485  35.564  1.00  0.00     0.198 A 
ATOM    101  C   UNL A   1      45.557  26.822  36.648  1.00  0.00     0.198 A 
ATOM    102  F   UNL A   1      43.211  26.981  36.574  1.00  0.00    -0.203 F 
ATOM    103  F   UNL A   1      48.113  28.957  35.219  1.00  0.00    -0.200 F 
ATOM    104  C   UNL A   1      46.805  27.322  36.313  1.00  0.00     0.200 A 
ATOM    105  F   UNL A   1      45.456  25.710  37.389  1.00  0.00    -0.200 F 
ATOM    106  F   UNL A   1      47.913  26.683  36.714  1.00  0.00    -0.200 F 
ENDBRANCH  73  96
ENDBRANCH  47  48
ENDBRANCH  39  42
ENDBRANCH  37  38
ENDBRANCH  36  37
ENDBRANCH  35  36
ENDBRANCH   1  35
TORSDOF 16
ENDMDL
