MODEL 1
REMARK VINA RESULT:     -13.3      0.000      0.000
REMARK SMILES CCc1ccccc1NC(=O)c1cc(S(=O)(=O)N2CCC[C@H](C(=O)NCCCCNC(=O)c3ccc(-c4c5nc(c(-c6c(F)c(F)c(F)c(F)c6F)c6ccc([nH]6)c(-c6c(F)c(F)c(F)c(F)c6F)c6nc(c(-c7c(F)c(F)c(F)c(F)c7F)c7ccc4[nH]7)C=C6)C=C5)cc3)C2)ccc1F
REMARK SMILES IDX 26 1 25 2 23 3 24 4 22 6 18 7 19 8 96 9 20 10 21 11 15 12
REMARK SMILES IDX 16 13 17 14 14 15 12 16 13 17 99 18 98 19 100 20 97 21 10 22
REMARK SMILES IDX 9 23 11 25 8 26 3 27 4 28 5 29 7 30 6 31 2 32 1 33 27 34
REMARK SMILES IDX 28 35 29 36 30 37 31 38 32 40 33 41 34 42 95 43 35 44 94 45
REMARK SMILES IDX 36 46 37 47 38 48 88 49 39 50 93 51 87 52 89 53 40 54 92 55
REMARK SMILES IDX 86 56 85 57 41 59 73 60 53 61 72 62 54 63 57 64 71 65 90 66
REMARK SMILES IDX 55 67 56 68 70 70 91 71 58 72 42 73 43 74 51 75 44 76 45 77
REMARK SMILES IDX 49 78 52 79 46 80 47 81 50 82 48 83 74 84 75 85 83 86 76 87
REMARK SMILES IDX 77 88 81 89 84 90 78 91 79 92 82 93 80 94 59 95 60 96 68 97
REMARK SMILES IDX 61 98 62 99 66 100 69 101 63 102 64 103 67 104 65 105
REMARK H PARENT 25 5 9 24 30 39 89 58 57 69
REMARK Flexibility Score: inf
ROOT
ATOM      1  C   UNL A   1      34.898  29.675  27.468  1.00  0.00     0.116 C 
ENDROOT
BRANCH   1   2
ATOM      2  N   UNL A   1      34.301  29.735  26.153  1.00  0.00    -0.356 N 
ATOM      3  C   UNL A   1      33.704  28.795  25.385  1.00  0.00     0.224 C 
ATOM      4  O   UNL A   1      33.267  29.179  24.293  1.00  0.00    -0.275 OA
ATOM      5  H   UNL A   1      34.335  30.629  25.740  1.00  0.00     0.163 HD
BRANCH   3   6
ATOM      6  C   UNL A   1      33.564  27.320  25.765  1.00  0.00     0.093 C 
ATOM      7  N   UNL A   1      32.721  25.719  23.989  1.00  0.00    -0.197 NA
ATOM      8  C   UNL A   1      31.456  25.486  24.718  1.00  0.00     0.102 C 
ATOM      9  C   UNL A   1      33.893  26.332  24.660  1.00  0.00     0.116 C 
ATOM     10  C   UNL A   1      31.138  26.550  25.754  1.00  0.00     0.018 C 
ATOM     11  C   UNL A   1      32.328  26.977  26.585  1.00  0.00     0.016 C 
BRANCH   7  12
ATOM     12  S   UNL A   1      33.076  24.637  22.721  1.00  0.00     0.243 S 
ATOM     13  O   UNL A   1      33.706  25.380  21.659  1.00  0.00    -0.207 OA
ATOM     14  O   UNL A   1      31.882  23.842  22.496  1.00  0.00    -0.207 OA
BRANCH  12  15
ATOM     15  C   UNL A   1      34.304  23.513  23.357  1.00  0.00     0.083 A 
ATOM     16  C   UNL A   1      34.803  21.733  24.898  1.00  0.00     0.077 A 
ATOM     17  C   UNL A   1      33.862  22.560  24.279  1.00  0.00     0.038 A 
ATOM     18  C   UNL A   1      36.147  21.779  24.528  1.00  0.00     0.136 A 
ATOM     19  C   UNL A   1      36.585  22.726  23.613  1.00  0.00     0.041 A 
ATOM     20  F   UNL A   1      37.050  20.963  25.090  1.00  0.00    -0.206 F 
ATOM     21  C   UNL A   1      35.667  23.608  23.043  1.00  0.00     0.025 A 
BRANCH  16  22
ATOM     22  C   UNL A   1      34.369  20.901  26.023  1.00  0.00     0.258 C 
ATOM     23  N   UNL A   1      33.696  19.720  25.799  1.00  0.00    -0.322 N 
ATOM     24  H   UNL A   1      33.306  19.313  26.606  1.00  0.00     0.170 HD
ATOM     25  O   UNL A   1      34.589  21.300  27.163  1.00  0.00    -0.269 OA
BRANCH  23  26
ATOM     26  C   UNL A   1      33.468  18.989  24.606  1.00  0.00     0.044 A 
ATOM     27  C   UNL A   1      34.245  17.837  24.348  1.00  0.00    -0.025 A 
ATOM     28  C   UNL A   1      33.900  17.030  23.245  1.00  0.00     0.006 A 
ATOM     29  C   UNL A   1      32.863  17.383  22.381  1.00  0.00     0.000 A 
ATOM     30  C   UNL A   1      32.495  19.375  23.672  1.00  0.00     0.026 A 
ATOM     31  C   UNL A   1      32.179  18.572  22.577  1.00  0.00     0.002 A 
BRANCH  27  32
ATOM     32  C   UNL A   1      35.392  17.458  25.267  1.00  0.00     0.034 C 
ATOM     33  C   UNL A   1      35.679  15.973  25.446  1.00  0.00     0.009 C 
ENDBRANCH  27  32
ENDBRANCH  23  26
ENDBRANCH  16  22
ENDBRANCH  12  15
ENDBRANCH   7  12
ENDBRANCH   3   6
ENDBRANCH   1   2
BRANCH   1  34
ATOM     34  C   UNL A   1      34.855  31.027  28.175  1.00  0.00     0.023 C 
BRANCH  34  35
ATOM     35  C   UNL A   1      34.149  32.118  27.388  1.00  0.00     0.023 C 
BRANCH  35  36
ATOM     36  C   UNL A   1      32.841  32.591  28.003  1.00  0.00     0.116 C 
BRANCH  36  37
ATOM     37  N   UNL A   1      32.616  34.028  27.909  1.00  0.00    -0.352 N 
ATOM     38  C   UNL A   1      33.289  35.023  28.585  1.00  0.00     0.251 C 
ATOM     39  H   UNL A   1      31.905  34.320  27.295  1.00  0.00     0.163 HD
ATOM     40  O   UNL A   1      32.957  36.197  28.496  1.00  0.00    -0.269 OA
BRANCH  38  41
ATOM     41  C   UNL A   1      34.395  34.618  29.472  1.00  0.00     0.039 A 
ATOM     42  C   UNL A   1      34.104  33.925  30.647  1.00  0.00     0.014 A 
ATOM     43  C   UNL A   1      35.716  34.794  29.050  1.00  0.00     0.014 A 
ATOM     44  C   UNL A   1      35.143  33.329  31.360  1.00  0.00     0.010 A 
ATOM     45  C   UNL A   1      36.732  34.110  29.701  1.00  0.00     0.010 A 
ATOM     46  C   UNL A   1      36.459  33.376  30.866  1.00  0.00    -0.014 A 
BRANCH  46  47
ATOM     47  C   UNL A   1      37.570  32.682  31.562  1.00  0.00     0.031 A 
ATOM     48  C   UNL A   1      38.247  31.516  30.900  1.00  0.00     0.074 A 
ATOM     49  C   UNL A   1      37.922  33.054  32.809  1.00  0.00     0.049 A 
ATOM     50  N   UNL A   1      39.189  30.732  31.360  1.00  0.00    -0.248 NA
ATOM     51  C   UNL A   1      37.775  31.155  29.553  1.00  0.00     0.031 C 
ATOM     52  C   UNL A   1      37.295  34.125  33.586  1.00  0.00     0.029 A 
ATOM     53  N   UNL A   1      38.892  32.563  33.648  1.00  0.00    -0.354 N 
ATOM     54  C   UNL A   1      39.401  29.781  30.371  1.00  0.00     0.074 A 
ATOM     55  C   UNL A   1      38.444  30.038  29.320  1.00  0.00     0.031 C 
ATOM     56  C   UNL A   1      37.918  34.233  34.771  1.00  0.00     0.029 A 
ATOM     57  C   UNL A   1      38.964  33.219  34.853  1.00  0.00     0.049 A 
ATOM     58  H   UNL A   1      39.481  31.812  33.408  1.00  0.00     0.167 HD
ATOM     59  C   UNL A   1      40.335  28.802  30.327  1.00  0.00     0.037 A 
ATOM     60  C   UNL A   1      39.784  33.021  35.902  1.00  0.00     0.037 A 
ATOM     61  C   UNL A   1      41.312  28.576  31.358  1.00  0.00     0.049 A 
ATOM     62  C   UNL A   1      40.829  31.940  35.820  1.00  0.00     0.074 A 
ATOM     63  C   UNL A   1      42.346  27.658  31.379  1.00  0.00     0.029 A 
ATOM     64  N   UNL A   1      41.377  29.283  32.549  1.00  0.00    -0.354 N 
ATOM     65  N   UNL A   1      41.073  31.097  34.847  1.00  0.00    -0.248 NA
ATOM     66  C   UNL A   1      41.717  31.788  36.981  1.00  0.00     0.031 C 
ATOM     67  C   UNL A   1      43.010  27.781  32.605  1.00  0.00     0.029 A 
ATOM     68  C   UNL A   1      42.423  28.809  33.323  1.00  0.00     0.049 A 
ATOM     69  H   UNL A   1      40.769  30.014  32.807  1.00  0.00     0.167 HD
ATOM     70  C   UNL A   1      42.160  30.338  35.261  1.00  0.00     0.074 A 
ATOM     71  C   UNL A   1      42.537  30.832  36.569  1.00  0.00     0.031 C 
ATOM     72  C   UNL A   1      42.788  29.323  34.618  1.00  0.00     0.037 A 
BRANCH  59  73
ATOM     73  C   UNL A   1      40.347  27.915  29.116  1.00  0.00     0.064 A 
ATOM     74  C   UNL A   1      41.103  28.234  27.977  1.00  0.00     0.173 A 
ATOM     75  C   UNL A   1      39.607  26.723  29.098  1.00  0.00     0.173 A 
ATOM     76  F   UNL A   1      41.816  29.370  27.936  1.00  0.00    -0.203 F 
ATOM     77  C   UNL A   1      41.088  27.413  26.853  1.00  0.00     0.198 A 
ATOM     78  C   UNL A   1      39.622  25.887  27.985  1.00  0.00     0.198 A 
ATOM     79  F   UNL A   1      38.870  26.368  30.162  1.00  0.00    -0.203 F 
ATOM     80  F   UNL A   1      41.770  27.770  25.756  1.00  0.00    -0.200 F 
ATOM     81  C   UNL A   1      40.354  26.237  26.861  1.00  0.00     0.200 A 
ATOM     82  F   UNL A   1      38.922  24.745  27.998  1.00  0.00    -0.200 F 
ATOM     83  F   UNL A   1      40.345  25.445  25.780  1.00  0.00    -0.200 F 
ENDBRANCH  59  73
BRANCH  60  84
ATOM     84  C   UNL A   1      39.682  33.890  37.105  1.00  0.00     0.064 A 
ATOM     85  C   UNL A   1      38.920  33.495  38.215  1.00  0.00     0.173 A 
ATOM     86  C   UNL A   1      40.330  35.132  37.170  1.00  0.00     0.173 A 
ATOM     87  F   UNL A   1      38.264  32.325  38.194  1.00  0.00    -0.203 F 
ATOM     88  C   UNL A   1      38.790  34.319  39.331  1.00  0.00     0.198 A 
ATOM     89  C   UNL A   1      40.223  35.942  38.299  1.00  0.00     0.198 A 
ATOM     90  F   UNL A   1      41.077  35.554  36.140  1.00  0.00    -0.203 F 
ATOM     91  F   UNL A   1      38.016  33.937  40.356  1.00  0.00    -0.200 F 
ATOM     92  C   UNL A   1      39.446  35.539  39.375  1.00  0.00     0.200 A 
ATOM     93  F   UNL A   1      40.870  37.115  38.343  1.00  0.00    -0.200 F 
ATOM     94  F   UNL A   1      39.324  36.330  40.449  1.00  0.00    -0.200 F 
ENDBRANCH  60  84
BRANCH  72  95
ATOM     95  C   UNL A   1      43.972  28.705  35.302  1.00  0.00     0.064 A 
ATOM     96  C   UNL A   1      43.835  27.608  36.164  1.00  0.00     0.173 A 
ATOM     97  C   UNL A   1      45.266  29.191  35.056  1.00  0.00     0.173 A 
ATOM     98  F   UNL A   1      42.619  27.115  36.442  1.00  0.00    -0.203 F 
ATOM     99  C   UNL A   1      44.948  27.036  36.776  1.00  0.00     0.198 A 
ATOM    100  C   UNL A   1      46.378  28.597  35.644  1.00  0.00     0.198 A 
ATOM    101  F   UNL A   1      45.451  30.234  34.232  1.00  0.00    -0.203 F 
ATOM    102  F   UNL A   1      44.789  26.019  37.635  1.00  0.00    -0.200 F 
ATOM    103  C   UNL A   1      46.218  27.526  36.509  1.00  0.00     0.200 A 
ATOM    104  F   UNL A   1      47.605  29.062  35.374  1.00  0.00    -0.200 F 
ATOM    105  F   UNL A   1      47.288  26.969  37.094  1.00  0.00    -0.200 F 
ENDBRANCH  72  95
ENDBRANCH  46  47
ENDBRANCH  38  41
ENDBRANCH  36  37
ENDBRANCH  35  36
ENDBRANCH  34  35
ENDBRANCH   1  34
TORSDOF 16
ENDMDL
MODEL 2
REMARK VINA RESULT:     -13.2      1.749      7.468
REMARK SMILES CCc1ccccc1NC(=O)c1cc(S(=O)(=O)N2CCC[C@H](C(=O)NCCCCNC(=O)c3ccc(-c4c5nc(c(-c6c(F)c(F)c(F)c(F)c6F)c6ccc([nH]6)c(-c6c(F)c(F)c(F)c(F)c6F)c6nc(c(-c7c(F)c(F)c(F)c(F)c7F)c7ccc4[nH]7)C=C6)C=C5)cc3)C2)ccc1F
REMARK SMILES IDX 26 1 25 2 23 3 24 4 22 6 18 7 19 8 96 9 20 10 21 11 15 12
REMARK SMILES IDX 16 13 17 14 14 15 12 16 13 17 99 18 98 19 100 20 97 21 10 22
REMARK SMILES IDX 9 23 11 25 8 26 3 27 4 28 5 29 7 30 6 31 2 32 1 33 27 34
REMARK SMILES IDX 28 35 29 36 30 37 31 38 32 40 33 41 34 42 95 43 35 44 94 45
REMARK SMILES IDX 36 46 37 47 38 48 88 49 39 50 93 51 87 52 89 53 40 54 92 55
REMARK SMILES IDX 86 56 85 57 41 59 73 60 53 61 72 62 54 63 57 64 71 65 90 66
REMARK SMILES IDX 55 67 56 68 70 70 91 71 58 72 42 73 43 74 51 75 44 76 45 77
REMARK SMILES IDX 49 78 52 79 46 80 47 81 50 82 48 83 74 84 75 85 83 86 76 87
REMARK SMILES IDX 77 88 81 89 84 90 78 91 79 92 82 93 80 94 59 95 60 96 68 97
REMARK SMILES IDX 61 98 62 99 66 100 69 101 63 102 64 103 67 104 65 105
REMARK H PARENT 25 5 9 24 30 39 89 58 57 69
REMARK Flexibility Score: inf
ROOT
ATOM      1  C   UNL A   1      32.156  29.721  25.562  1.00  0.00     0.116 C 
ENDROOT
BRANCH   1   2
ATOM      2  N   UNL A   1      31.071  30.048  24.664  1.00  0.00    -0.356 N 
ATOM      3  C   UNL A   1      30.516  29.373  23.630  1.00  0.00     0.224 C 
ATOM      4  O   UNL A   1      29.567  29.928  23.064  1.00  0.00    -0.275 OA
ATOM      5  H   UNL A   1      30.660  30.926  24.837  1.00  0.00     0.163 HD
BRANCH   3   6
ATOM      6  C   UNL A   1      30.995  28.013  23.120  1.00  0.00     0.093 C 
ATOM      7  N   UNL A   1      31.590  26.250  24.842  1.00  0.00    -0.197 NA
ATOM      8  C   UNL A   1      33.023  26.304  24.485  1.00  0.00     0.102 C 
ATOM      9  C   UNL A   1      30.553  26.819  23.946  1.00  0.00     0.116 C 
ATOM     10  C   UNL A   1      33.424  27.559  23.732  1.00  0.00     0.018 C 
ATOM     11  C   UNL A   1      32.444  27.971  22.655  1.00  0.00     0.016 C 
BRANCH   7  12
ATOM     12  S   UNL A   1      31.095  24.933  25.803  1.00  0.00     0.243 S 
ATOM     13  O   UNL A   1      29.661  24.984  25.932  1.00  0.00    -0.207 OA
ATOM     14  O   UNL A   1      31.968  24.904  26.963  1.00  0.00    -0.207 OA
BRANCH  12  15
ATOM     15  C   UNL A   1      31.474  23.465  24.866  1.00  0.00     0.083 A 
ATOM     16  C   UNL A   1      32.379  21.236  24.887  1.00  0.00     0.077 A 
ATOM     17  C   UNL A   1      31.955  22.369  25.586  1.00  0.00     0.038 A 
ATOM     18  C   UNL A   1      32.228  21.152  23.503  1.00  0.00     0.136 A 
ATOM     19  C   UNL A   1      31.749  22.241  22.788  1.00  0.00     0.041 A 
ATOM     20  F   UNL A   1      32.597  20.054  22.830  1.00  0.00    -0.206 F 
ATOM     21  C   UNL A   1      31.392  23.407  23.467  1.00  0.00     0.025 A 
BRANCH  16  22
ATOM     22  C   UNL A   1      33.092  20.188  25.622  1.00  0.00     0.258 C 
ATOM     23  N   UNL A   1      34.434  20.322  25.904  1.00  0.00    -0.322 N 
ATOM     24  H   UNL A   1      34.861  19.508  26.254  1.00  0.00     0.170 HD
ATOM     25  O   UNL A   1      32.473  19.178  25.947  1.00  0.00    -0.269 OA
BRANCH  23  26
ATOM     26  C   UNL A   1      35.307  21.432  25.776  1.00  0.00     0.044 A 
ATOM     27  C   UNL A   1      36.563  21.249  25.155  1.00  0.00    -0.025 A 
ATOM     28  C   UNL A   1      37.350  22.388  24.888  1.00  0.00     0.006 A 
ATOM     29  C   UNL A   1      36.943  23.662  25.283  1.00  0.00     0.000 A 
ATOM     30  C   UNL A   1      34.963  22.707  26.249  1.00  0.00     0.026 A 
ATOM     31  C   UNL A   1      35.762  23.819  25.990  1.00  0.00     0.002 A 
BRANCH  27  32
ATOM     32  C   UNL A   1      37.027  19.862  24.745  1.00  0.00     0.034 C 
ATOM     33  C   UNL A   1      38.450  19.467  25.118  1.00  0.00     0.009 C 
ENDBRANCH  27  32
ENDBRANCH  23  26
ENDBRANCH  16  22
ENDBRANCH  12  15
ENDBRANCH   7  12
ENDBRANCH   3   6
ENDBRANCH   1   2
BRANCH   1  34
ATOM     34  C   UNL A   1      32.015  30.430  26.906  1.00  0.00     0.023 C 
BRANCH  34  35
ATOM     35  C   UNL A   1      31.758  31.924  26.797  1.00  0.00     0.023 C 
BRANCH  35  36
ATOM     36  C   UNL A   1      32.837  32.794  27.422  1.00  0.00     0.116 C 
BRANCH  36  37
ATOM     37  N   UNL A   1      32.420  34.164  27.699  1.00  0.00    -0.352 N 
ATOM     38  C   UNL A   1      32.971  35.033  28.615  1.00  0.00     0.251 C 
ATOM     39  H   UNL A   1      31.662  34.505  27.173  1.00  0.00     0.163 HD
ATOM     40  O   UNL A   1      32.485  36.136  28.829  1.00  0.00    -0.269 OA
BRANCH  38  41
ATOM     41  C   UNL A   1      34.143  34.567  29.380  1.00  0.00     0.039 A 
ATOM     42  C   UNL A   1      33.943  33.931  30.606  1.00  0.00     0.014 A 
ATOM     43  C   UNL A   1      35.413  34.627  28.801  1.00  0.00     0.014 A 
ATOM     44  C   UNL A   1      35.013  33.276  31.214  1.00  0.00     0.010 A 
ATOM     45  C   UNL A   1      36.446  33.883  29.353  1.00  0.00     0.010 A 
ATOM     46  C   UNL A   1      36.259  33.205  30.567  1.00  0.00    -0.014 A 
BRANCH  46  47
ATOM     47  C   UNL A   1      37.391  32.445  31.153  1.00  0.00     0.031 A 
ATOM     48  C   UNL A   1      37.895  32.803  32.523  1.00  0.00     0.074 A 
ATOM     49  C   UNL A   1      38.007  31.487  30.432  1.00  0.00     0.049 A 
ATOM     50  N   UNL A   1      38.910  32.312  33.188  1.00  0.00    -0.248 NA
ATOM     51  C   UNL A   1      37.187  33.886  33.226  1.00  0.00     0.031 C 
ATOM     52  C   UNL A   1      37.657  31.096  29.065  1.00  0.00     0.029 A 
ATOM     53  N   UNL A   1      39.066  30.673  30.747  1.00  0.00    -0.354 N 
ATOM     54  C   UNL A   1      38.971  33.041  34.369  1.00  0.00     0.074 A 
ATOM     55  C   UNL A   1      37.941  34.053  34.300  1.00  0.00     0.031 C 
ATOM     56  C   UNL A   1      38.462  30.095  28.673  1.00  0.00     0.029 A 
ATOM     57  C   UNL A   1      39.406  29.796  29.745  1.00  0.00     0.049 A 
ATOM     58  H   UNL A   1      39.537  30.713  31.610  1.00  0.00     0.167 HD
ATOM     59  C   UNL A   1      39.789  32.860  35.431  1.00  0.00     0.037 A 
ATOM     60  C   UNL A   1      40.371  28.858  29.701  1.00  0.00     0.037 A 
ATOM     61  C   UNL A   1      40.784  31.825  35.513  1.00  0.00     0.049 A 
ATOM     62  C   UNL A   1      41.255  28.662  30.905  1.00  0.00     0.074 A 
ATOM     63  C   UNL A   1      41.616  31.510  36.572  1.00  0.00     0.029 A 
ATOM     64  N   UNL A   1      41.077  30.933  34.492  1.00  0.00    -0.354 N 
ATOM     65  N   UNL A   1      41.251  29.303  32.048  1.00  0.00    -0.248 NA
ATOM     66  C   UNL A   1      42.270  27.604  30.815  1.00  0.00     0.031 C 
ATOM     67  C   UNL A   1      42.444  30.454  36.175  1.00  0.00     0.029 A 
ATOM     68  C   UNL A   1      42.091  30.078  34.889  1.00  0.00     0.049 A 
ATOM     69  H   UNL A   1      40.629  30.911  33.615  1.00  0.00     0.167 HD
ATOM     70  C   UNL A   1      42.239  28.710  32.823  1.00  0.00     0.074 A 
ATOM     71  C   UNL A   1      42.810  27.645  32.024  1.00  0.00     0.031 C 
ATOM     72  C   UNL A   1      42.637  29.017  34.082  1.00  0.00     0.037 A 
BRANCH  59  73
ATOM     73  C   UNL A   1      39.625  33.795  36.595  1.00  0.00     0.064 A 
ATOM     74  C   UNL A   1      38.843  33.454  37.710  1.00  0.00     0.173 A 
ATOM     75  C   UNL A   1      40.270  35.041  36.604  1.00  0.00     0.173 A 
ATOM     76  F   UNL A   1      38.193  32.281  37.745  1.00  0.00    -0.203 F 
ATOM     77  C   UNL A   1      38.682  34.339  38.772  1.00  0.00     0.198 A 
ATOM     78  C   UNL A   1      40.135  35.909  37.683  1.00  0.00     0.198 A 
ATOM     79  F   UNL A   1      41.033  35.416  35.565  1.00  0.00    -0.203 F 
ATOM     80  F   UNL A   1      37.883  34.015  39.797  1.00  0.00    -0.200 F 
ATOM     81  C   UNL A   1      39.335  35.563  38.761  1.00  0.00     0.200 A 
ATOM     82  F   UNL A   1      40.776  37.087  37.677  1.00  0.00    -0.200 F 
ATOM     83  F   UNL A   1      39.184  36.412  39.786  1.00  0.00    -0.200 F 
ENDBRANCH  59  73
BRANCH  60  84
ATOM     84  C   UNL A   1      40.529  28.004  28.494  1.00  0.00     0.064 A 
ATOM     85  C   UNL A   1      41.304  28.433  27.406  1.00  0.00     0.173 A 
ATOM     86  C   UNL A   1      39.907  26.752  28.396  1.00  0.00     0.173 A 
ATOM     87  F   UNL A   1      41.903  29.633  27.443  1.00  0.00    -0.203 F 
ATOM     88  C   UNL A   1      41.428  27.655  26.257  1.00  0.00     0.198 A 
ATOM     89  C   UNL A   1      40.056  25.961  27.258  1.00  0.00     0.198 A 
ATOM     90  F   UNL A   1      39.161  26.291  29.410  1.00  0.00    -0.203 F 
ATOM     91  F   UNL A   1      42.134  28.112  25.214  1.00  0.00    -0.200 F 
ATOM     92  C   UNL A   1      40.808  26.417  26.186  1.00  0.00     0.200 A 
ATOM     93  F   UNL A   1      39.466  24.758  27.198  1.00  0.00    -0.200 F 
ATOM     94  F   UNL A   1      40.930  25.667  25.082  1.00  0.00    -0.200 F 
ENDBRANCH  60  84
BRANCH  72  95
ATOM     95  C   UNL A   1      43.717  28.169  34.688  1.00  0.00     0.064 A 
ATOM     96  C   UNL A   1      45.066  28.547  34.639  1.00  0.00     0.173 A 
ATOM     97  C   UNL A   1      43.389  26.983  35.364  1.00  0.00     0.173 A 
ATOM     98  F   UNL A   1      45.432  29.664  33.993  1.00  0.00    -0.203 F 
ATOM     99  C   UNL A   1      46.052  27.755  35.222  1.00  0.00     0.198 A 
ATOM    100  C   UNL A   1      44.373  26.211  35.973  1.00  0.00     0.198 A 
ATOM    101  F   UNL A   1      42.112  26.582  35.446  1.00  0.00    -0.203 F 
ATOM    102  F   UNL A   1      47.340  28.110  35.122  1.00  0.00    -0.200 F 
ATOM    103  C   UNL A   1      45.704  26.593  35.895  1.00  0.00     0.200 A 
ATOM    104  F   UNL A   1      44.035  25.097  36.636  1.00  0.00    -0.200 F 
ATOM    105  F   UNL A   1      46.654  25.836  36.462  1.00  0.00    -0.200 F 
ENDBRANCH  72  95
ENDBRANCH  46  47
ENDBRANCH  38  41
ENDBRANCH  36  37
ENDBRANCH  35  36
ENDBRANCH  34  35
ENDBRANCH   1  34
TORSDOF 16
ENDMDL
MODEL 3
REMARK VINA RESULT:     -13.1      0.581      7.083
REMARK SMILES CCc1ccccc1NC(=O)c1cc(S(=O)(=O)N2CCC[C@H](C(=O)NCCCCNC(=O)c3ccc(-c4c5nc(c(-c6c(F)c(F)c(F)c(F)c6F)c6ccc([nH]6)c(-c6c(F)c(F)c(F)c(F)c6F)c6nc(c(-c7c(F)c(F)c(F)c(F)c7F)c7ccc4[nH]7)C=C6)C=C5)cc3)C2)ccc1F
REMARK SMILES IDX 26 1 25 2 23 3 24 4 22 6 18 7 19 8 96 9 20 10 21 11 15 12
REMARK SMILES IDX 16 13 17 14 14 15 12 16 13 17 99 18 98 19 100 20 97 21 10 22
REMARK SMILES IDX 9 23 11 25 8 26 3 27 4 28 5 29 7 30 6 31 2 32 1 33 27 34
REMARK SMILES IDX 28 35 29 36 30 37 31 38 32 40 33 41 34 42 95 43 35 44 94 45
REMARK SMILES IDX 36 46 37 47 38 48 88 49 39 50 93 51 87 52 89 53 40 54 92 55
REMARK SMILES IDX 86 56 85 57 41 59 73 60 53 61 72 62 54 63 57 64 71 65 90 66
REMARK SMILES IDX 55 67 56 68 70 70 91 71 58 72 42 73 43 74 51 75 44 76 45 77
REMARK SMILES IDX 49 78 52 79 46 80 47 81 50 82 48 83 74 84 75 85 83 86 76 87
REMARK SMILES IDX 77 88 81 89 84 90 78 91 79 92 82 93 80 94 59 95 60 96 68 97
REMARK SMILES IDX 61 98 62 99 66 100 69 101 63 102 64 103 67 104 65 105
REMARK H PARENT 25 5 9 24 30 39 89 58 57 69
REMARK Flexibility Score: inf
ROOT
ATOM      1  C   UNL A   1      34.805  29.718  27.255  1.00  0.00     0.116 C 
ENDROOT
BRANCH   1   2
ATOM      2  N   UNL A   1      34.073  29.759  26.009  1.00  0.00    -0.356 N 
ATOM      3  C   UNL A   1      33.428  28.801  25.305  1.00  0.00     0.224 C 
ATOM      4  O   UNL A   1      32.868  29.170  24.266  1.00  0.00    -0.275 OA
ATOM      5  H   UNL A   1      34.036  30.653  25.596  1.00  0.00     0.163 HD
BRANCH   3   6
ATOM      6  C   UNL A   1      33.373  27.322  25.695  1.00  0.00     0.093 C 
ATOM      7  N   UNL A   1      32.632  25.663  23.927  1.00  0.00    -0.197 NA
ATOM      8  C   UNL A   1      31.380  25.362  24.652  1.00  0.00     0.102 C 
ATOM      9  C   UNL A   1      33.764  26.349  24.598  1.00  0.00     0.116 C 
ATOM     10  C   UNL A   1      30.996  26.411  25.679  1.00  0.00     0.018 C 
ATOM     11  C   UNL A   1      32.155  26.913  26.512  1.00  0.00     0.016 C 
BRANCH   7  12
ATOM     12  S   UNL A   1      33.056  24.596  22.667  1.00  0.00     0.243 S 
ATOM     13  O   UNL A   1      33.717  25.356  21.637  1.00  0.00    -0.207 OA
ATOM     14  O   UNL A   1      31.885  23.784  22.388  1.00  0.00    -0.207 OA
BRANCH  12  15
ATOM     15  C   UNL A   1      34.274  23.486  23.346  1.00  0.00     0.083 A 
ATOM     16  C   UNL A   1      34.740  21.713  24.904  1.00  0.00     0.077 A 
ATOM     17  C   UNL A   1      33.812  22.529  24.253  1.00  0.00     0.038 A 
ATOM     18  C   UNL A   1      36.095  21.774  24.582  1.00  0.00     0.136 A 
ATOM     19  C   UNL A   1      36.554  22.725  23.681  1.00  0.00     0.041 A 
ATOM     20  F   UNL A   1      36.987  20.968  25.175  1.00  0.00    -0.206 F 
ATOM     21  C   UNL A   1      35.646  23.597  23.079  1.00  0.00     0.025 A 
BRANCH  16  22
ATOM     22  C   UNL A   1      34.277  20.876  26.015  1.00  0.00     0.258 C 
ATOM     23  N   UNL A   1      33.605  19.699  25.769  1.00  0.00    -0.322 N 
ATOM     24  H   UNL A   1      33.195  19.289  26.564  1.00  0.00     0.170 HD
ATOM     25  O   UNL A   1      34.473  21.269  27.162  1.00  0.00    -0.269 OA
BRANCH  23  26
ATOM     26  C   UNL A   1      33.401  18.975  24.567  1.00  0.00     0.044 A 
ATOM     27  C   UNL A   1      34.152  17.800  24.338  1.00  0.00    -0.025 A 
ATOM     28  C   UNL A   1      33.826  17.005  23.222  1.00  0.00     0.006 A 
ATOM     29  C   UNL A   1      32.836  17.389  22.318  1.00  0.00     0.000 A 
ATOM     30  C   UNL A   1      32.479  19.391  23.596  1.00  0.00     0.026 A 
ATOM     31  C   UNL A   1      32.182  18.599  22.489  1.00  0.00     0.002 A 
BRANCH  27  32
ATOM     32  C   UNL A   1      35.250  17.386  25.302  1.00  0.00     0.034 C 
ATOM     33  C   UNL A   1      35.591  15.903  25.373  1.00  0.00     0.009 C 
ENDBRANCH  27  32
ENDBRANCH  23  26
ENDBRANCH  16  22
ENDBRANCH  12  15
ENDBRANCH   7  12
ENDBRANCH   3   6
ENDBRANCH   1   2
BRANCH   1  34
ATOM     34  C   UNL A   1      34.747  31.053  27.993  1.00  0.00     0.023 C 
BRANCH  34  35
ATOM     35  C   UNL A   1      34.002  32.146  27.245  1.00  0.00     0.023 C 
BRANCH  35  36
ATOM     36  C   UNL A   1      32.737  32.630  27.935  1.00  0.00     0.116 C 
BRANCH  36  37
ATOM     37  N   UNL A   1      32.561  34.077  27.924  1.00  0.00    -0.352 N 
ATOM     38  C   UNL A   1      33.309  35.013  28.605  1.00  0.00     0.251 C 
ATOM     39  H   UNL A   1      31.825  34.424  27.369  1.00  0.00     0.163 HD
ATOM     40  O   UNL A   1      33.016  36.201  28.593  1.00  0.00    -0.269 OA
BRANCH  38  41
ATOM     41  C   UNL A   1      34.450  34.526  29.402  1.00  0.00     0.039 A 
ATOM     42  C   UNL A   1      34.203  33.779  30.554  1.00  0.00     0.014 A 
ATOM     43  C   UNL A   1      35.749  34.684  28.913  1.00  0.00     0.014 A 
ATOM     44  C   UNL A   1      35.261  33.113  31.172  1.00  0.00     0.010 A 
ATOM     45  C   UNL A   1      36.778  33.935  29.466  1.00  0.00     0.010 A 
ATOM     46  C   UNL A   1      36.546  33.146  30.604  1.00  0.00    -0.014 A 
BRANCH  46  47
ATOM     47  C   UNL A   1      37.672  32.381  31.196  1.00  0.00     0.031 A 
ATOM     48  C   UNL A   1      38.162  32.729  32.573  1.00  0.00     0.074 A 
ATOM     49  C   UNL A   1      38.294  31.428  30.474  1.00  0.00     0.049 A 
ATOM     50  N   UNL A   1      39.170  32.233  33.245  1.00  0.00    -0.248 NA
ATOM     51  C   UNL A   1      37.449  33.808  33.276  1.00  0.00     0.031 C 
ATOM     52  C   UNL A   1      37.956  31.047  29.101  1.00  0.00     0.029 A 
ATOM     53  N   UNL A   1      39.349  30.611  30.793  1.00  0.00    -0.354 N 
ATOM     54  C   UNL A   1      39.220  32.954  34.430  1.00  0.00     0.074 A 
ATOM     55  C   UNL A   1      38.192  33.967  34.358  1.00  0.00     0.031 C 
ATOM     56  C   UNL A   1      38.764  30.047  28.710  1.00  0.00     0.029 A 
ATOM     57  C   UNL A   1      39.698  29.740  29.789  1.00  0.00     0.049 A 
ATOM     58  H   UNL A   1      39.811  30.644  31.661  1.00  0.00     0.167 HD
ATOM     59  C   UNL A   1      40.028  32.765  35.500  1.00  0.00     0.037 A 
ATOM     60  C   UNL A   1      40.663  28.802  29.748  1.00  0.00     0.037 A 
ATOM     61  C   UNL A   1      41.022  31.729  35.584  1.00  0.00     0.049 A 
ATOM     62  C   UNL A   1      41.534  28.596  30.959  1.00  0.00     0.074 A 
ATOM     63  C   UNL A   1      41.843  31.405  36.648  1.00  0.00     0.029 A 
ATOM     64  N   UNL A   1      41.323  30.843  34.560  1.00  0.00    -0.354 N 
ATOM     65  N   UNL A   1      41.520  29.230  32.107  1.00  0.00    -0.248 NA
ATOM     66  C   UNL A   1      42.550  27.538  30.871  1.00  0.00     0.031 C 
ATOM     67  C   UNL A   1      42.674  30.351  36.252  1.00  0.00     0.029 A 
ATOM     68  C   UNL A   1      42.333  29.985  34.961  1.00  0.00     0.049 A 
ATOM     69  H   UNL A   1      40.884  30.827  33.678  1.00  0.00     0.167 HD
ATOM     70  C   UNL A   1      42.499  28.630  32.887  1.00  0.00     0.074 A 
ATOM     71  C   UNL A   1      43.077  27.570  32.087  1.00  0.00     0.031 C 
ATOM     72  C   UNL A   1      42.886  28.929  34.152  1.00  0.00     0.037 A 
BRANCH  59  73
ATOM     73  C   UNL A   1      39.854  33.692  36.668  1.00  0.00     0.064 A 
ATOM     74  C   UNL A   1      38.959  33.403  37.711  1.00  0.00     0.173 A 
ATOM     75  C   UNL A   1      40.602  34.876  36.755  1.00  0.00     0.173 A 
ATOM     76  F   UNL A   1      38.209  32.292  37.668  1.00  0.00    -0.203 F 
ATOM     77  C   UNL A   1      38.792  34.283  38.777  1.00  0.00     0.198 A 
ATOM     78  C   UNL A   1      40.457  35.736  37.840  1.00  0.00     0.198 A 
ATOM     79  F   UNL A   1      41.474  35.198  35.788  1.00  0.00    -0.203 F 
ATOM     80  F   UNL A   1      37.888  34.014  39.729  1.00  0.00    -0.200 F 
ATOM     81  C   UNL A   1      39.546  35.444  38.844  1.00  0.00     0.200 A 
ATOM     82  F   UNL A   1      41.195  36.852  37.911  1.00  0.00    -0.200 F 
ATOM     83  F   UNL A   1      39.388  36.286  39.874  1.00  0.00    -0.200 F 
ENDBRANCH  59  73
BRANCH  60  84
ATOM     84  C   UNL A   1      40.832  27.956  28.537  1.00  0.00     0.064 A 
ATOM     85  C   UNL A   1      41.644  28.377  27.473  1.00  0.00     0.173 A 
ATOM     86  C   UNL A   1      40.182  26.720  28.410  1.00  0.00     0.173 A 
ATOM     87  F   UNL A   1      42.271  29.561  27.539  1.00  0.00    -0.203 F 
ATOM     88  C   UNL A   1      41.780  27.607  26.321  1.00  0.00     0.198 A 
ATOM     89  C   UNL A   1      40.342  25.937  27.268  1.00  0.00     0.198 A 
ATOM     90  F   UNL A   1      39.399  26.267  29.399  1.00  0.00    -0.203 F 
ATOM     91  F   UNL A   1      42.523  28.057  25.301  1.00  0.00    -0.200 F 
ATOM     92  C   UNL A   1      41.133  26.385  26.220  1.00  0.00     0.200 A 
ATOM     93  F   UNL A   1      39.726  24.749  27.180  1.00  0.00    -0.200 F 
ATOM     94  F   UNL A   1      41.266  25.642  25.112  1.00  0.00    -0.200 F 
ENDBRANCH  60  84
BRANCH  72  95
ATOM     95  C   UNL A   1      43.959  28.075  34.762  1.00  0.00     0.064 A 
ATOM     96  C   UNL A   1      45.315  28.420  34.673  1.00  0.00     0.173 A 
ATOM     97  C   UNL A   1      43.619  26.920  35.484  1.00  0.00     0.173 A 
ATOM     98  F   UNL A   1      45.692  29.506  33.983  1.00  0.00    -0.203 F 
ATOM     99  C   UNL A   1      46.295  27.624  35.260  1.00  0.00     0.198 A 
ATOM    100  C   UNL A   1      44.598  26.145  36.097  1.00  0.00     0.198 A 
ATOM    101  F   UNL A   1      42.335  26.552  35.605  1.00  0.00    -0.203 F 
ATOM    102  F   UNL A   1      47.589  27.945  35.122  1.00  0.00    -0.200 F 
ATOM    103  C   UNL A   1      45.935  26.493  35.979  1.00  0.00     0.200 A 
ATOM    104  F   UNL A   1      44.249  25.061  36.802  1.00  0.00    -0.200 F 
ATOM    105  F   UNL A   1      46.880  25.733  36.550  1.00  0.00    -0.200 F 
ENDBRANCH  72  95
ENDBRANCH  46  47
ENDBRANCH  38  41
ENDBRANCH  36  37
ENDBRANCH  35  36
ENDBRANCH  34  35
ENDBRANCH   1  34
TORSDOF 16
ENDMDL
