MODEL 1
REMARK VINA RESULT:     -12.2      0.000      0.000
REMARK SMILES CCC(CC)(NC(=O)NC[C@H](C)[NH+]1CCCCC1)C(=O)NCCCCNC(=O)c1ccc(-c2c3nc(c(-c4c(F)c(F)c(F)c(F)c4F)c4ccc([nH]4)c(-c4c(F)c(F)c(F)c(F)c4F)c4nc(c(-c5c(F)c(F)c(F)c(F)c5F)c5ccc2[nH]5)C=C4)C=C3)cc1
REMARK SMILES IDX 22 1 21 2 19 3 20 4 3 6 2 7 1 8 4 9 5 10 6 11 7 12 8 14 9 15
REMARK SMILES IDX 10 17 11 18 12 19 13 20 14 21 18 22 15 24 17 25 16 26 23 27
REMARK SMILES IDX 24 28 25 29 26 30 27 31 28 33 29 34 30 35 91 36 31 37 90 38
REMARK SMILES IDX 32 39 33 40 34 41 84 42 35 43 89 44 83 45 85 46 36 47 88 48
REMARK SMILES IDX 82 49 81 50 37 52 69 53 49 54 68 55 50 56 53 57 67 58 86 59
REMARK SMILES IDX 51 60 52 61 66 63 87 64 54 65 38 66 39 67 47 68 40 69 41 70
REMARK SMILES IDX 45 71 48 72 42 73 43 74 46 75 44 76 70 77 71 78 79 79 72 80
REMARK SMILES IDX 73 81 77 82 80 83 74 84 75 85 78 86 76 87 55 88 56 89 64 90
REMARK SMILES IDX 57 91 58 92 62 93 65 94 59 95 60 96 63 97 61 98
REMARK H PARENT 21 5 6 13 9 16 13 23 26 32 85 51 53 62
REMARK Flexibility Score: inf
ROOT
ATOM      1  C   UNL A   1      32.558  29.716  25.584  1.00  0.00     0.116 C 
ENDROOT
BRANCH   1   2
ATOM      2  N   UNL A   1      33.401  29.543  24.387  1.00  0.00    -0.354 N 
ATOM      3  C   UNL A   1      33.630  28.590  23.416  1.00  0.00     0.245 C 
ATOM      4  O   UNL A   1      34.302  28.943  22.440  1.00  0.00    -0.272 OA
ATOM      5  H   UNL A   1      33.963  30.338  24.237  1.00  0.00     0.163 HD
BRANCH   3   6
ATOM      6  C   UNL A   1      32.861  27.262  23.400  1.00  0.00     0.120 C 
BRANCH   6   7
ATOM      7  C   UNL A   1      31.425  27.142  23.984  1.00  0.00     0.035 C 
ATOM      8  C   UNL A   1      30.269  27.828  23.274  1.00  0.00     0.007 C 
ENDBRANCH   6   7
BRANCH   6   9
ATOM      9  C   UNL A   1      33.881  26.445  24.278  1.00  0.00     0.035 C 
ATOM     10  C   UNL A   1      33.633  26.172  25.744  1.00  0.00     0.007 C 
ENDBRANCH   6   9
BRANCH   6  11
ATOM     11  N   UNL A   1      32.760  26.876  21.992  1.00  0.00    -0.324 N 
ATOM     12  C   UNL A   1      32.753  25.668  21.392  1.00  0.00     0.315 C 
ATOM     13  H   UNL A   1      32.683  27.635  21.371  1.00  0.00     0.166 HD
ATOM     14  O   UNL A   1      32.963  25.662  20.173  1.00  0.00    -0.249 OA
ATOM     15  N   UNL A   1      32.407  24.489  21.951  1.00  0.00    -0.332 N 
ATOM     16  H   UNL A   1      32.038  23.886  21.266  1.00  0.00     0.165 HD
BRANCH  15  17
ATOM     17  C   UNL A   1      32.408  23.815  23.277  1.00  0.00     0.182 C 
BRANCH  17  18
ATOM     18  C   UNL A   1      32.994  22.339  23.474  1.00  0.00     0.200 C 
ATOM     19  C   UNL A   1      32.210  21.174  24.093  1.00  0.00     0.077 C 
BRANCH  18  20
ATOM     20  N   UNL A   1      34.315  22.438  24.179  1.00  0.00    -0.331 N 
ATOM     21  C   UNL A   1      34.818  21.145  24.706  1.00  0.00     0.262 C 
ATOM     22  C   UNL A   1      35.311  23.084  23.318  1.00  0.00     0.262 C 
ATOM     23  H   UNL A   1      34.153  23.020  25.002  1.00  0.00     0.348 HD
ATOM     24  C   UNL A   1      36.152  21.244  25.430  1.00  0.00     0.062 C 
ATOM     25  C   UNL A   1      36.649  23.238  24.038  1.00  0.00     0.062 C 
ATOM     26  C   UNL A   1      37.178  21.892  24.515  1.00  0.00     0.012 C 
ENDBRANCH  18  20
ENDBRANCH  17  18
ENDBRANCH  15  17
ENDBRANCH   6  11
ENDBRANCH   3   6
ENDBRANCH   1   2
BRANCH   1  27
ATOM     27  C   UNL A   1      31.370  30.724  25.768  1.00  0.00     0.023 C 
BRANCH  27  28
ATOM     28  C   UNL A   1      31.277  32.104  26.473  1.00  0.00     0.023 C 
BRANCH  28  29
ATOM     29  C   UNL A   1      32.440  32.834  27.170  1.00  0.00     0.116 C 
BRANCH  29  30
ATOM     30  N   UNL A   1      32.251  34.221  27.510  1.00  0.00    -0.352 N 
ATOM     31  C   UNL A   1      32.943  34.927  28.469  1.00  0.00     0.251 C 
ATOM     32  H   UNL A   1      31.560  34.711  27.008  1.00  0.00     0.163 HD
ATOM     33  O   UNL A   1      32.579  36.060  28.789  1.00  0.00    -0.269 OA
BRANCH  31  34
ATOM     34  C   UNL A   1      34.109  34.319  29.158  1.00  0.00     0.039 A 
ATOM     35  C   UNL A   1      33.922  33.720  30.408  1.00  0.00     0.014 A 
ATOM     36  C   UNL A   1      35.394  34.387  28.609  1.00  0.00     0.014 A 
ATOM     37  C   UNL A   1      35.008  33.150  31.084  1.00  0.00     0.010 A 
ATOM     38  C   UNL A   1      36.473  33.782  29.270  1.00  0.00     0.010 A 
ATOM     39  C   UNL A   1      36.294  33.155  30.514  1.00  0.00    -0.014 A 
BRANCH  39  40
ATOM     40  C   UNL A   1      37.437  32.490  31.206  1.00  0.00     0.031 A 
ATOM     41  C   UNL A   1      38.176  31.347  30.559  1.00  0.00     0.074 A 
ATOM     42  C   UNL A   1      37.798  32.894  32.441  1.00  0.00     0.049 A 
ATOM     43  N   UNL A   1      39.184  30.644  31.019  1.00  0.00    -0.248 NA
ATOM     44  C   UNL A   1      37.712  30.928  29.230  1.00  0.00     0.031 C 
ATOM     45  C   UNL A   1      37.149  33.964  33.198  1.00  0.00     0.029 A 
ATOM     46  N   UNL A   1      38.793  32.451  33.281  1.00  0.00    -0.354 N 
ATOM     47  C   UNL A   1      39.469  29.699  30.040  1.00  0.00     0.074 A 
ATOM     48  C   UNL A   1      38.498  29.888  28.983  1.00  0.00     0.031 C 
ATOM     49  C   UNL A   1      37.774  34.111  34.376  1.00  0.00     0.029 A 
ATOM     50  C   UNL A   1      38.845  33.124  34.478  1.00  0.00     0.049 A 
ATOM     51  H   UNL A   1      39.410  31.722  33.045  1.00  0.00     0.167 HD
ATOM     52  C   UNL A   1      40.460  28.773  30.016  1.00  0.00     0.037 A 
ATOM     53  C   UNL A   1      39.659  32.962  35.541  1.00  0.00     0.037 A 
ATOM     54  C   UNL A   1      41.436  28.593  31.060  1.00  0.00     0.049 A 
ATOM     55  C   UNL A   1      40.734  31.908  35.498  1.00  0.00     0.074 A 
ATOM     56  C   UNL A   1      42.512  27.721  31.095  1.00  0.00     0.029 A 
ATOM     57  N   UNL A   1      41.452  29.291  32.259  1.00  0.00    -0.354 N 
ATOM     58  N   UNL A   1      41.039  31.074  34.533  1.00  0.00    -0.248 NA
ATOM     59  C   UNL A   1      41.584  31.779  36.691  1.00  0.00     0.031 C 
ATOM     60  C   UNL A   1      43.142  27.849  32.338  1.00  0.00     0.029 A 
ATOM     61  C   UNL A   1      42.499  28.846  33.053  1.00  0.00     0.049 A 
ATOM     62  H   UNL A   1      40.813  29.997  32.509  1.00  0.00     0.167 HD
ATOM     63  C   UNL A   1      42.131  30.348  34.988  1.00  0.00     0.074 A 
ATOM     64  C   UNL A   1      42.447  30.849  36.309  1.00  0.00     0.031 C 
ATOM     65  C   UNL A   1      42.813  29.354  34.364  1.00  0.00     0.037 A 
BRANCH  52  66
ATOM     66  C   UNL A   1      40.540  27.867  28.817  1.00  0.00     0.064 A 
ATOM     67  C   UNL A   1      39.832  26.657  28.758  1.00  0.00     0.173 A 
ATOM     68  C   UNL A   1      41.293  28.239  27.693  1.00  0.00     0.173 A 
ATOM     69  F   UNL A   1      39.099  26.252  29.806  1.00  0.00    -0.203 F 
ATOM     70  C   UNL A   1      39.901  25.840  27.632  1.00  0.00     0.198 A 
ATOM     71  C   UNL A   1      41.334  27.434  26.557  1.00  0.00     0.198 A 
ATOM     72  F   UNL A   1      41.981  29.391  27.689  1.00  0.00    -0.203 F 
ATOM     73  F   UNL A   1      39.254  24.665  27.618  1.00  0.00    -0.200 F 
ATOM     74  C   UNL A   1      40.645  26.232  26.530  1.00  0.00     0.200 A 
ATOM     75  F   UNL A   1      42.041  27.824  25.486  1.00  0.00    -0.200 F 
ATOM     76  F   UNL A   1      40.703  25.448  25.445  1.00  0.00    -0.200 F 
ENDBRANCH  52  66
BRANCH  53  77
ATOM     77  C   UNL A   1      39.504  33.834  36.738  1.00  0.00     0.064 A 
ATOM     78  C   UNL A   1      40.113  35.096  36.794  1.00  0.00     0.173 A 
ATOM     79  C   UNL A   1      38.765  33.418  37.854  1.00  0.00     0.173 A 
ATOM     80  F   UNL A   1      40.852  35.529  35.761  1.00  0.00    -0.203 F 
ATOM     81  C   UNL A   1      40.009  35.897  37.929  1.00  0.00     0.198 A 
ATOM     82  C   UNL A   1      38.633  34.234  38.976  1.00  0.00     0.198 A 
ATOM     83  F   UNL A   1      38.160  32.221  37.852  1.00  0.00    -0.203 F 
ATOM     84  F   UNL A   1      40.645  37.075  37.975  1.00  0.00    -0.200 F 
ATOM     85  C   UNL A   1      39.263  35.468  39.017  1.00  0.00     0.200 A 
ATOM     86  F   UNL A   1      37.900  33.821  40.019  1.00  0.00    -0.200 F 
ATOM     87  F   UNL A   1      39.160  36.240  40.108  1.00  0.00    -0.200 F 
ENDBRANCH  53  77
BRANCH  65  88
ATOM     88  C   UNL A   1      43.995  28.768  35.083  1.00  0.00     0.064 A 
ATOM     89  C   UNL A   1      43.872  27.648  35.918  1.00  0.00     0.173 A 
ATOM     90  C   UNL A   1      45.277  29.311  34.902  1.00  0.00     0.173 A 
ATOM     91  F   UNL A   1      42.668  27.098  36.138  1.00  0.00    -0.203 F 
ATOM     92  C   UNL A   1      44.982  27.112  36.568  1.00  0.00     0.198 A 
ATOM     93  C   UNL A   1      46.389  28.753  35.527  1.00  0.00     0.198 A 
ATOM     94  F   UNL A   1      45.453  30.378  34.109  1.00  0.00    -0.203 F 
ATOM     95  F   UNL A   1      44.831  26.074  37.403  1.00  0.00    -0.200 F 
ATOM     96  C   UNL A   1      46.239  27.660  36.365  1.00  0.00     0.200 A 
ATOM     97  F   UNL A   1      47.605  29.275  35.317  1.00  0.00    -0.200 F 
ATOM     98  F   UNL A   1      47.308  27.138  36.984  1.00  0.00    -0.200 F 
ENDBRANCH  65  88
ENDBRANCH  39  40
ENDBRANCH  31  34
ENDBRANCH  29  30
ENDBRANCH  28  29
ENDBRANCH  27  28
ENDBRANCH   1  27
TORSDOF 17
ENDMDL
MODEL 2
REMARK VINA RESULT:     -12.1      0.766      7.281
REMARK SMILES CCC(CC)(NC(=O)NC[C@H](C)[NH+]1CCCCC1)C(=O)NCCCCNC(=O)c1ccc(-c2c3nc(c(-c4c(F)c(F)c(F)c(F)c4F)c4ccc([nH]4)c(-c4c(F)c(F)c(F)c(F)c4F)c4nc(c(-c5c(F)c(F)c(F)c(F)c5F)c5ccc2[nH]5)C=C4)C=C3)cc1
REMARK SMILES IDX 22 1 21 2 19 3 20 4 3 6 2 7 1 8 4 9 5 10 6 11 7 12 8 14 9 15
REMARK SMILES IDX 10 17 11 18 12 19 13 20 14 21 18 22 15 24 17 25 16 26 23 27
REMARK SMILES IDX 24 28 25 29 26 30 27 31 28 33 29 34 30 35 91 36 31 37 90 38
REMARK SMILES IDX 32 39 33 40 34 41 84 42 35 43 89 44 83 45 85 46 36 47 88 48
REMARK SMILES IDX 82 49 81 50 37 52 69 53 49 54 68 55 50 56 53 57 67 58 86 59
REMARK SMILES IDX 51 60 52 61 66 63 87 64 54 65 38 66 39 67 47 68 40 69 41 70
REMARK SMILES IDX 45 71 48 72 42 73 43 74 46 75 44 76 70 77 71 78 79 79 72 80
REMARK SMILES IDX 73 81 77 82 80 83 74 84 75 85 78 86 76 87 55 88 56 89 64 90
REMARK SMILES IDX 57 91 58 92 62 93 65 94 59 95 60 96 63 97 61 98
REMARK H PARENT 21 5 6 13 9 16 13 23 26 32 85 51 53 62
REMARK Flexibility Score: inf
ROOT
ATOM      1  C   UNL A   1      32.478  29.699  25.638  1.00  0.00     0.116 C 
ENDROOT
BRANCH   1   2
ATOM      2  N   UNL A   1      33.404  29.510  24.507  1.00  0.00    -0.354 N 
ATOM      3  C   UNL A   1      33.646  28.581  23.516  1.00  0.00     0.245 C 
ATOM      4  O   UNL A   1      34.421  28.919  22.614  1.00  0.00    -0.272 OA
ATOM      5  H   UNL A   1      34.032  30.266  24.438  1.00  0.00     0.163 HD
BRANCH   3   6
ATOM      6  C   UNL A   1      32.788  27.315  23.379  1.00  0.00     0.120 C 
BRANCH   6   7
ATOM      7  C   UNL A   1      31.299  27.284  23.827  1.00  0.00     0.035 C 
ATOM      8  C   UNL A   1      30.263  28.065  23.035  1.00  0.00     0.007 C 
ENDBRANCH   6   7
BRANCH   6   9
ATOM      9  C   UNL A   1      33.662  26.395  24.312  1.00  0.00     0.035 C 
ATOM     10  C   UNL A   1      33.333  26.199  25.774  1.00  0.00     0.007 C 
ENDBRANCH   6   9
BRANCH   6  11
ATOM     11  N   UNL A   1      32.789  26.985  21.953  1.00  0.00    -0.324 N 
ATOM     12  C   UNL A   1      32.722  25.802  21.307  1.00  0.00     0.315 C 
ATOM     13  H   UNL A   1      32.851  27.766  21.358  1.00  0.00     0.166 HD
ATOM     14  O   UNL A   1      33.050  25.812  20.115  1.00  0.00    -0.249 OA
ATOM     15  N   UNL A   1      32.207  24.649  21.783  1.00  0.00    -0.332 N 
ATOM     16  H   UNL A   1      31.849  24.108  21.042  1.00  0.00     0.165 HD
BRANCH  15  17
ATOM     17  C   UNL A   1      32.008  23.939  23.075  1.00  0.00     0.182 C 
BRANCH  17  18
ATOM     18  C   UNL A   1      32.830  22.617  23.447  1.00  0.00     0.200 C 
ATOM     19  C   UNL A   1      32.290  21.190  23.283  1.00  0.00     0.077 C 
BRANCH  18  20
ATOM     20  N   UNL A   1      33.358  22.757  24.845  1.00  0.00    -0.331 N 
ATOM     21  C   UNL A   1      32.334  22.566  25.901  1.00  0.00     0.262 C 
ATOM     22  C   UNL A   1      34.507  21.869  25.053  1.00  0.00     0.262 C 
ATOM     23  H   UNL A   1      33.662  23.727  24.935  1.00  0.00     0.348 HD
ATOM     24  C   UNL A   1      32.864  22.718  27.318  1.00  0.00     0.062 C 
ATOM     25  C   UNL A   1      35.089  22.035  26.454  1.00  0.00     0.062 C 
ATOM     26  C   UNL A   1      34.037  21.774  27.524  1.00  0.00     0.012 C 
ENDBRANCH  18  20
ENDBRANCH  17  18
ENDBRANCH  15  17
ENDBRANCH   6  11
ENDBRANCH   3   6
ENDBRANCH   1   2
BRANCH   1  27
ATOM     27  C   UNL A   1      31.338  30.771  25.760  1.00  0.00     0.023 C 
BRANCH  27  28
ATOM     28  C   UNL A   1      31.280  32.150  26.468  1.00  0.00     0.023 C 
BRANCH  28  29
ATOM     29  C   UNL A   1      32.460  32.850  27.167  1.00  0.00     0.116 C 
BRANCH  29  30
ATOM     30  N   UNL A   1      32.273  34.214  27.591  1.00  0.00    -0.352 N 
ATOM     31  C   UNL A   1      32.985  34.867  28.572  1.00  0.00     0.251 C 
ATOM     32  H   UNL A   1      31.569  34.728  27.135  1.00  0.00     0.163 HD
ATOM     33  O   UNL A   1      32.624  35.978  28.966  1.00  0.00    -0.269 OA
BRANCH  31  34
ATOM     34  C   UNL A   1      34.170  34.227  29.198  1.00  0.00     0.039 A 
ATOM     35  C   UNL A   1      33.994  33.447  30.345  1.00  0.00     0.014 A 
ATOM     36  C   UNL A   1      35.458  34.437  28.696  1.00  0.00     0.014 A 
ATOM     37  C   UNL A   1      35.097  32.843  30.961  1.00  0.00     0.010 A 
ATOM     38  C   UNL A   1      36.557  33.800  29.292  1.00  0.00     0.010 A 
ATOM     39  C   UNL A   1      36.390  32.994  30.430  1.00  0.00    -0.014 A 
BRANCH  39  40
ATOM     40  C   UNL A   1      37.555  32.296  31.049  1.00  0.00     0.031 A 
ATOM     41  C   UNL A   1      38.043  32.670  32.424  1.00  0.00     0.074 A 
ATOM     42  C   UNL A   1      38.204  31.336  30.357  1.00  0.00     0.049 A 
ATOM     43  N   UNL A   1      39.047  32.179  33.111  1.00  0.00    -0.248 NA
ATOM     44  C   UNL A   1      37.320  33.749  33.111  1.00  0.00     0.031 C 
ATOM     45  C   UNL A   1      37.860  30.898  29.005  1.00  0.00     0.029 A 
ATOM     46  N   UNL A   1      39.289  30.560  30.692  1.00  0.00    -0.354 N 
ATOM     47  C   UNL A   1      39.078  32.891  34.305  1.00  0.00     0.074 A 
ATOM     48  C   UNL A   1      38.023  33.880  34.228  1.00  0.00     0.031 C 
ATOM     49  C   UNL A   1      38.700  29.918  28.634  1.00  0.00     0.029 A 
ATOM     50  C   UNL A   1      39.665  29.681  29.704  1.00  0.00     0.049 A 
ATOM     51  H   UNL A   1      39.751  30.628  31.557  1.00  0.00     0.167 HD
ATOM     52  C   UNL A   1      39.897  32.725  35.373  1.00  0.00     0.037 A 
ATOM     53  C   UNL A   1      40.674  28.789  29.661  1.00  0.00     0.037 A 
ATOM     54  C   UNL A   1      40.939  31.732  35.457  1.00  0.00     0.049 A 
ATOM     55  C   UNL A   1      41.585  28.642  30.852  1.00  0.00     0.074 A 
ATOM     56  C   UNL A   1      41.778  31.450  36.522  1.00  0.00     0.029 A 
ATOM     57  N   UNL A   1      41.291  30.864  34.433  1.00  0.00    -0.354 N 
ATOM     58  N   UNL A   1      41.553  29.269  32.002  1.00  0.00    -0.248 NA
ATOM     59  C   UNL A   1      42.670  27.656  30.739  1.00  0.00     0.031 C 
ATOM     60  C   UNL A   1      42.676  30.453  36.122  1.00  0.00     0.029 A 
ATOM     61  C   UNL A   1      42.356  30.069  34.831  1.00  0.00     0.049 A 
ATOM     62  H   UNL A   1      40.850  30.820  33.554  1.00  0.00     0.167 HD
ATOM     63  C   UNL A   1      42.586  28.733  32.758  1.00  0.00     0.074 A 
ATOM     64  C   UNL A   1      43.218  27.718  31.943  1.00  0.00     0.031 C 
ATOM     65  C   UNL A   1      42.975  29.054  34.017  1.00  0.00     0.037 A 
BRANCH  52  66
ATOM     66  C   UNL A   1      39.708  33.644  36.548  1.00  0.00     0.064 A 
ATOM     67  C   UNL A   1      40.333  34.899  36.611  1.00  0.00     0.173 A 
ATOM     68  C   UNL A   1      38.851  33.287  37.601  1.00  0.00     0.173 A 
ATOM     69  F   UNL A   1      41.165  35.289  35.634  1.00  0.00    -0.203 F 
ATOM     70  C   UNL A   1      40.131  35.747  37.698  1.00  0.00     0.198 A 
ATOM     71  C   UNL A   1      38.627  34.152  38.670  1.00  0.00     0.198 A 
ATOM     72  F   UNL A   1      38.218  32.104  37.588  1.00  0.00    -0.203 F 
ATOM     73  F   UNL A   1      40.777  36.921  37.758  1.00  0.00    -0.200 F 
ATOM     74  C   UNL A   1      39.273  35.377  38.722  1.00  0.00     0.200 A 
ATOM     75  F   UNL A   1      37.783  33.799  39.650  1.00  0.00    -0.200 F 
ATOM     76  F   UNL A   1      39.074  36.198  39.762  1.00  0.00    -0.200 F 
ENDBRANCH  52  66
BRANCH  53  77
ATOM     77  C   UNL A   1      40.871  27.943  28.452  1.00  0.00     0.064 A 
ATOM     78  C   UNL A   1      41.666  28.385  27.384  1.00  0.00     0.173 A 
ATOM     79  C   UNL A   1      40.254  26.690  28.329  1.00  0.00     0.173 A 
ATOM     80  F   UNL A   1      42.257  29.588  27.442  1.00  0.00    -0.203 F 
ATOM     81  C   UNL A   1      41.816  27.618  26.231  1.00  0.00     0.198 A 
ATOM     82  C   UNL A   1      40.432  25.908  27.188  1.00  0.00     0.198 A 
ATOM     83  F   UNL A   1      39.485  26.219  29.321  1.00  0.00    -0.203 F 
ATOM     84  F   UNL A   1      42.538  28.088  25.205  1.00  0.00    -0.200 F 
ATOM     85  C   UNL A   1      41.204  26.377  26.137  1.00  0.00     0.200 A 
ATOM     86  F   UNL A   1      39.850  24.704  27.108  1.00  0.00    -0.200 F 
ATOM     87  F   UNL A   1      41.351  25.637  25.029  1.00  0.00    -0.200 F 
ENDBRANCH  53  77
BRANCH  65  88
ATOM     88  C   UNL A   1      44.113  28.272  34.612  1.00  0.00     0.064 A 
ATOM     89  C   UNL A   1      43.898  27.092  35.340  1.00  0.00     0.173 A 
ATOM     90  C   UNL A   1      45.439  28.688  34.416  1.00  0.00     0.173 A 
ATOM     91  F   UNL A   1      42.650  26.657  35.569  1.00  0.00    -0.203 F 
ATOM     92  C   UNL A   1      44.967  26.375  35.874  1.00  0.00     0.198 A 
ATOM     93  C   UNL A   1      46.506  27.951  34.923  1.00  0.00     0.198 A 
ATOM     94  F   UNL A   1      45.702  29.805  33.722  1.00  0.00    -0.203 F 
ATOM     95  F   UNL A   1      44.735  25.279  36.611  1.00  0.00    -0.200 F 
ATOM     96  C   UNL A   1      46.269  26.800  35.658  1.00  0.00     0.200 A 
ATOM     97  F   UNL A   1      47.764  28.356  34.700  1.00  0.00    -0.200 F 
ATOM     98  F   UNL A   1      47.296  26.105  36.165  1.00  0.00    -0.200 F 
ENDBRANCH  65  88
ENDBRANCH  39  40
ENDBRANCH  31  34
ENDBRANCH  29  30
ENDBRANCH  28  29
ENDBRANCH  27  28
ENDBRANCH   1  27
TORSDOF 17
ENDMDL
MODEL 3
REMARK VINA RESULT:     -11.9      0.677      1.424
REMARK SMILES CCC(CC)(NC(=O)NC[C@H](C)[NH+]1CCCCC1)C(=O)NCCCCNC(=O)c1ccc(-c2c3nc(c(-c4c(F)c(F)c(F)c(F)c4F)c4ccc([nH]4)c(-c4c(F)c(F)c(F)c(F)c4F)c4nc(c(-c5c(F)c(F)c(F)c(F)c5F)c5ccc2[nH]5)C=C4)C=C3)cc1
REMARK SMILES IDX 22 1 21 2 19 3 20 4 3 6 2 7 1 8 4 9 5 10 6 11 7 12 8 14 9 15
REMARK SMILES IDX 10 17 11 18 12 19 13 20 14 21 18 22 15 24 17 25 16 26 23 27
REMARK SMILES IDX 24 28 25 29 26 30 27 31 28 33 29 34 30 35 91 36 31 37 90 38
REMARK SMILES IDX 32 39 33 40 34 41 84 42 35 43 89 44 83 45 85 46 36 47 88 48
REMARK SMILES IDX 82 49 81 50 37 52 69 53 49 54 68 55 50 56 53 57 67 58 86 59
REMARK SMILES IDX 51 60 52 61 66 63 87 64 54 65 38 66 39 67 47 68 40 69 41 70
REMARK SMILES IDX 45 71 48 72 42 73 43 74 46 75 44 76 70 77 71 78 79 79 72 80
REMARK SMILES IDX 73 81 77 82 80 83 74 84 75 85 78 86 76 87 55 88 56 89 64 90
REMARK SMILES IDX 57 91 58 92 62 93 65 94 59 95 60 96 63 97 61 98
REMARK H PARENT 21 5 6 13 9 16 13 23 26 32 85 51 53 62
REMARK Flexibility Score: inf
ROOT
ATOM      1  C   UNL A   1      31.598  29.729  25.207  1.00  0.00     0.116 C 
ENDROOT
BRANCH   1   2
ATOM      2  N   UNL A   1      32.745  29.564  24.296  1.00  0.00    -0.354 N 
ATOM      3  C   UNL A   1      33.285  28.587  23.485  1.00  0.00     0.245 C 
ATOM      4  O   UNL A   1      34.178  28.943  22.706  1.00  0.00    -0.272 OA
ATOM      5  H   UNL A   1      33.280  30.390  24.254  1.00  0.00     0.163 HD
BRANCH   3   6
ATOM      6  C   UNL A   1      32.627  27.208  23.345  1.00  0.00     0.120 C 
BRANCH   6   7
ATOM      7  C   UNL A   1      31.159  26.954  23.790  1.00  0.00     0.035 C 
ATOM      8  C   UNL A   1      30.018  27.538  22.973  1.00  0.00     0.007 C 
ENDBRANCH   6   7
BRANCH   6   9
ATOM      9  C   UNL A   1      33.627  26.428  24.279  1.00  0.00     0.035 C 
ATOM     10  C   UNL A   1      33.407  26.321  25.771  1.00  0.00     0.007 C 
ENDBRANCH   6   9
BRANCH   6  11
ATOM     11  N   UNL A   1      32.681  26.883  21.919  1.00  0.00    -0.324 N 
ATOM     12  C   UNL A   1      32.709  25.701  21.270  1.00  0.00     0.315 C 
ATOM     13  H   UNL A   1      32.700  27.669  21.327  1.00  0.00     0.166 HD
ATOM     14  O   UNL A   1      33.060  25.736  20.085  1.00  0.00    -0.249 OA
ATOM     15  N   UNL A   1      32.265  24.513  21.733  1.00  0.00    -0.332 N 
ATOM     16  H   UNL A   1      31.961  23.951  20.984  1.00  0.00     0.165 HD
BRANCH  15  17
ATOM     17  C   UNL A   1      32.089  23.787  23.019  1.00  0.00     0.182 C 
BRANCH  17  18
ATOM     18  C   UNL A   1      32.898  22.446  23.350  1.00  0.00     0.200 C 
ATOM     19  C   UNL A   1      32.317  21.032  23.219  1.00  0.00     0.077 C 
BRANCH  18  20
ATOM     20  N   UNL A   1      33.504  22.576  24.717  1.00  0.00    -0.331 N 
ATOM     21  C   UNL A   1      32.510  22.661  25.814  1.00  0.00     0.262 C 
ATOM     22  C   UNL A   1      34.469  21.497  24.957  1.00  0.00     0.262 C 
ATOM     23  H   UNL A   1      33.993  23.472  24.724  1.00  0.00     0.348 HD
ATOM     24  C   UNL A   1      33.121  22.802  27.199  1.00  0.00     0.062 C 
ATOM     25  C   UNL A   1      35.133  21.641  26.324  1.00  0.00     0.062 C 
ATOM     26  C   UNL A   1      34.098  21.664  27.441  1.00  0.00     0.012 C 
ENDBRANCH  18  20
ENDBRANCH  17  18
ENDBRANCH  15  17
ENDBRANCH   6  11
ENDBRANCH   3   6
ENDBRANCH   1   2
BRANCH   1  27
ATOM     27  C   UNL A   1      31.538  30.608  26.506  1.00  0.00     0.023 C 
BRANCH  27  28
ATOM     28  C   UNL A   1      31.498  32.144  26.721  1.00  0.00     0.023 C 
BRANCH  28  29
ATOM     29  C   UNL A   1      32.689  33.020  27.152  1.00  0.00     0.116 C 
BRANCH  29  30
ATOM     30  N   UNL A   1      32.400  34.332  27.671  1.00  0.00    -0.352 N 
ATOM     31  C   UNL A   1      33.015  34.938  28.745  1.00  0.00     0.251 C 
ATOM     32  H   UNL A   1      31.695  34.846  27.215  1.00  0.00     0.163 HD
ATOM     33  O   UNL A   1      32.569  35.991  29.203  1.00  0.00    -0.269 OA
BRANCH  31  34
ATOM     34  C   UNL A   1      34.196  34.310  29.390  1.00  0.00     0.039 A 
ATOM     35  C   UNL A   1      34.002  33.469  30.490  1.00  0.00     0.014 A 
ATOM     36  C   UNL A   1      35.496  34.591  28.957  1.00  0.00     0.014 A 
ATOM     37  C   UNL A   1      35.100  32.874  31.124  1.00  0.00     0.010 A 
ATOM     38  C   UNL A   1      36.592  33.966  29.568  1.00  0.00     0.010 A 
ATOM     39  C   UNL A   1      36.408  33.098  30.658  1.00  0.00    -0.014 A 
BRANCH  39  40
ATOM     40  C   UNL A   1      37.572  32.412  31.293  1.00  0.00     0.031 A 
ATOM     41  C   UNL A   1      38.305  31.306  30.579  1.00  0.00     0.074 A 
ATOM     42  C   UNL A   1      37.957  32.763  32.537  1.00  0.00     0.049 A 
ATOM     43  N   UNL A   1      39.328  30.592  30.983  1.00  0.00    -0.248 NA
ATOM     44  C   UNL A   1      37.814  30.943  29.242  1.00  0.00     0.031 C 
ATOM     45  C   UNL A   1      37.316  33.792  33.355  1.00  0.00     0.029 A 
ATOM     46  N   UNL A   1      38.974  32.291  33.333  1.00  0.00    -0.354 N 
ATOM     47  C   UNL A   1      39.598  29.695  29.956  1.00  0.00     0.074 A 
ATOM     48  C   UNL A   1      38.602  29.923  28.931  1.00  0.00     0.031 C 
ATOM     49  C   UNL A   1      37.967  33.891  34.525  1.00  0.00     0.029 A 
ATOM     50  C   UNL A   1      39.048  32.910  34.559  1.00  0.00     0.049 A 
ATOM     51  H   UNL A   1      39.591  31.579  33.051  1.00  0.00     0.167 HD
ATOM     52  C   UNL A   1      40.595  28.780  29.868  1.00  0.00     0.037 A 
ATOM     53  C   UNL A   1      39.887  32.707  35.595  1.00  0.00     0.037 A 
ATOM     54  C   UNL A   1      41.597  28.561  30.881  1.00  0.00     0.049 A 
ATOM     55  C   UNL A   1      40.969  31.666  35.480  1.00  0.00     0.074 A 
ATOM     56  C   UNL A   1      42.680  27.698  30.853  1.00  0.00     0.029 A 
ATOM     57  N   UNL A   1      41.634  29.204  32.110  1.00  0.00    -0.354 N 
ATOM     58  N   UNL A   1      41.258  30.879  34.472  1.00  0.00    -0.248 NA
ATOM     59  C   UNL A   1      41.846  31.490  36.646  1.00  0.00     0.031 C 
ATOM     60  C   UNL A   1      43.336  27.775  32.086  1.00  0.00     0.029 A 
ATOM     61  C   UNL A   1      42.702  28.733  32.859  1.00  0.00     0.049 A 
ATOM     62  H   UNL A   1      40.996  29.892  32.406  1.00  0.00     0.167 HD
ATOM     63  C   UNL A   1      42.366  30.143  34.868  1.00  0.00     0.074 A 
ATOM     64  C   UNL A   1      42.708  30.586  36.204  1.00  0.00     0.031 C 
ATOM     65  C   UNL A   1      43.041  29.184  34.185  1.00  0.00     0.037 A 
BRANCH  52  66
ATOM     66  C   UNL A   1      40.656  27.930  28.628  1.00  0.00     0.064 A 
ATOM     67  C   UNL A   1      41.415  28.309  27.511  1.00  0.00     0.173 A 
ATOM     68  C   UNL A   1      39.988  26.696  28.577  1.00  0.00     0.173 A 
ATOM     69  F   UNL A   1      42.071  29.479  27.505  1.00  0.00    -0.203 F 
ATOM     70  C   UNL A   1      41.478  27.501  26.378  1.00  0.00     0.198 A 
ATOM     71  C   UNL A   1      40.079  25.876  27.454  1.00  0.00     0.198 A 
ATOM     72  F   UNL A   1      39.257  26.278  29.621  1.00  0.00    -0.203 F 
ATOM     73  F   UNL A   1      42.170  27.907  25.304  1.00  0.00    -0.200 F 
ATOM     74  C   UNL A   1      40.816  26.282  26.353  1.00  0.00     0.200 A 
ATOM     75  F   UNL A   1      39.453  24.691  27.439  1.00  0.00    -0.200 F 
ATOM     76  F   UNL A   1      40.885  25.503  25.265  1.00  0.00    -0.200 F 
ENDBRANCH  52  66
BRANCH  53  77
ATOM     77  C   UNL A   1      39.752  33.522  36.833  1.00  0.00     0.064 A 
ATOM     78  C   UNL A   1      40.485  34.707  37.000  1.00  0.00     0.173 A 
ATOM     79  C   UNL A   1      38.908  33.127  37.879  1.00  0.00     0.173 A 
ATOM     80  F   UNL A   1      41.326  35.114  36.037  1.00  0.00    -0.203 F 
ATOM     81  C   UNL A   1      40.397  35.450  38.175  1.00  0.00     0.198 A 
ATOM     82  C   UNL A   1      38.795  33.888  39.042  1.00  0.00     0.198 A 
ATOM     83  F   UNL A   1      38.183  32.004  37.771  1.00  0.00    -0.203 F 
ATOM     84  F   UNL A   1      41.149  36.548  38.328  1.00  0.00    -0.200 F 
ATOM     85  C   UNL A   1      39.547  35.043  39.192  1.00  0.00     0.200 A 
ATOM     86  F   UNL A   1      37.961  33.499  40.016  1.00  0.00    -0.200 F 
ATOM     87  F   UNL A   1      39.459  35.760  40.322  1.00  0.00    -0.200 F 
ENDBRANCH  53  77
BRANCH  65  88
ATOM     88  C   UNL A   1      44.244  28.576  34.851  1.00  0.00     0.064 A 
ATOM     89  C   UNL A   1      44.150  27.411  35.626  1.00  0.00     0.173 A 
ATOM     90  C   UNL A   1      45.515  29.146  34.676  1.00  0.00     0.173 A 
ATOM     91  F   UNL A   1      42.957  26.835  35.838  1.00  0.00    -0.203 F 
ATOM     92  C   UNL A   1      45.279  26.857  36.226  1.00  0.00     0.198 A 
ATOM     93  C   UNL A   1      46.645  28.570  35.249  1.00  0.00     0.198 A 
ATOM     94  F   UNL A   1      45.663  30.256  33.938  1.00  0.00    -0.203 F 
ATOM     95  F   UNL A   1      45.157  25.773  37.007  1.00  0.00    -0.200 F 
ATOM     96  C   UNL A   1      46.526  27.432  36.030  1.00  0.00     0.200 A 
ATOM     97  F   UNL A   1      47.851  29.119  35.046  1.00  0.00    -0.200 F 
ATOM     98  F   UNL A   1      47.611  26.892  36.601  1.00  0.00    -0.200 F 
ENDBRANCH  65  88
ENDBRANCH  39  40
ENDBRANCH  31  34
ENDBRANCH  29  30
ENDBRANCH  28  29
ENDBRANCH  27  28
ENDBRANCH   1  27
TORSDOF 17
ENDMDL
