MODEL 1
REMARK VINA RESULT:     -13.0      0.000      0.000
REMARK SMILES Cc1ncccc1OC1(C(=O)NCCCCNC(=O)c2ccc(-c3c4nc(c(-c5c(F)c(F)c(F)c(F)c5F)c5ccc([nH]5)c(-c5c(F)c(F)c(F)c(F)c5F)c5nc(c(-c6c(F)c(F)c(F)c(F)c6F)c6ccc3[nH]6)C=C5)C=C4)cc2)CCN(C(=O)c2ccc(O)nn2)CC1
REMARK SMILES IDX 14 1 13 2 12 3 10 4 11 5 9 7 83 8 96 9 84 10 95 11 85 12
REMARK SMILES IDX 86 13 87 14 8 15 7 16 1 17 2 18 3 19 4 20 6 21 5 22 88 23
REMARK SMILES IDX 89 24 94 25 90 26 93 27 91 28 92 29 15 31 16 32 17 33 18 34
REMARK SMILES IDX 19 36 20 37 21 38 82 39 22 40 81 41 23 42 24 43 25 44 75 45
REMARK SMILES IDX 26 46 80 47 74 48 76 49 27 50 79 51 73 52 72 53 28 55 60 56
REMARK SMILES IDX 40 57 59 58 41 59 44 60 58 61 77 62 42 63 43 64 57 66 78 67
REMARK SMILES IDX 45 68 29 69 30 70 38 71 31 72 32 73 36 74 39 75 33 76 34 77
REMARK SMILES IDX 37 78 35 79 61 80 62 81 70 82 63 83 64 84 68 85 71 86 65 87
REMARK SMILES IDX 66 88 69 89 67 90 46 91 47 92 55 93 48 94 49 95 53 96 56 97
REMARK SMILES IDX 50 98 51 99 54 100 52 101
REMARK H PARENT 12 6 92 30 17 35 76 54 44 65
REMARK Flexibility Score: inf
ROOT
ATOM      1  C   UNL A   1      39.073  22.602  26.153  1.00  0.00     0.023 C 
ENDROOT
BRANCH   1   2
ATOM      2  C   UNL A   1      37.687  23.219  25.994  1.00  0.00     0.116 C 
BRANCH   2   3
ATOM      3  N   UNL A   1      37.297  23.381  24.609  1.00  0.00    -0.353 N 
ATOM      4  C   UNL A   1      36.099  23.186  23.971  1.00  0.00     0.264 C 
ATOM      5  O   UNL A   1      36.086  23.514  22.779  1.00  0.00    -0.270 OA
ATOM      6  H   UNL A   1      38.023  23.689  24.018  1.00  0.00     0.163 HD
BRANCH   4   7
ATOM      7  C   UNL A   1      34.831  22.584  24.701  1.00  0.00     0.190 C 
ATOM      8  C   UNL A   1      33.674  22.660  23.712  1.00  0.00     0.080 C 
ATOM      9  C   UNL A   1      35.254  21.251  25.303  1.00  0.00     0.080 C 
ATOM     10  C   UNL A   1      33.112  21.352  23.187  1.00  0.00     0.124 C 
ATOM     11  C   UNL A   1      34.492  20.009  24.883  1.00  0.00     0.124 C 
ATOM     12  N   UNL A   1      33.438  20.112  23.873  1.00  0.00    -0.337 N 
ATOM     13  C   UNL A   1      32.701  18.980  23.464  1.00  0.00     0.274 C 
ATOM     14  O   UNL A   1      31.935  18.993  22.503  1.00  0.00    -0.267 OA
BRANCH   7  15
ATOM     15  O   UNL A   1      34.633  23.542  25.773  1.00  0.00    -0.475 OA
BRANCH  15  16
ATOM     16  C   UNL A   1      33.633  24.419  26.055  1.00  0.00     0.142 A 
ATOM     17  C   UNL A   1      31.615  23.061  26.942  1.00  0.00     0.071 C 
ATOM     18  C   UNL A   1      32.328  24.298  26.541  1.00  0.00     0.079 A 
ATOM     19  N   UNL A   1      31.504  25.378  26.724  1.00  0.00    -0.258 NA
ATOM     20  C   UNL A   1      31.960  26.606  26.431  1.00  0.00     0.111 A 
ATOM     21  C   UNL A   1      34.058  25.729  25.774  1.00  0.00     0.050 A 
ATOM     22  C   UNL A   1      33.228  26.832  25.957  1.00  0.00     0.024 A 
ENDBRANCH  15  16
ENDBRANCH   7  15
BRANCH  13  23
ATOM     23  C   UNL A   1      32.909  17.700  24.180  1.00  0.00     0.151 A 
ATOM     24  C   UNL A   1      32.173  17.425  25.320  1.00  0.00     0.042 A 
ATOM     25  N   UNL A   1      33.765  16.811  23.617  1.00  0.00    -0.142 NA
ATOM     26  C   UNL A   1      32.304  16.161  25.877  1.00  0.00     0.072 A 
ATOM     27  N   UNL A   1      33.894  15.576  24.169  1.00  0.00    -0.112 NA
ATOM     28  C   UNL A   1      33.169  15.280  25.264  1.00  0.00     0.230 A 
BRANCH  28  29
ATOM     29  O   UNL A   1      33.319  14.017  25.739  1.00  0.00    -0.492 OA
ATOM     30  H   UNL A   1      32.648  13.632  26.268  1.00  0.00     0.295 HD
ENDBRANCH  28  29
ENDBRANCH  13  23
ENDBRANCH   4   7
ENDBRANCH   2   3
ENDBRANCH   1   2
BRANCH   1  31
ATOM     31  C   UNL A   1      39.226  21.204  25.555  1.00  0.00     0.023 C 
BRANCH  31  32
ATOM     32  C   UNL A   1      39.644  20.111  26.535  1.00  0.00     0.116 C 
BRANCH  32  33
ATOM     33  N   UNL A   1      40.690  19.232  26.035  1.00  0.00    -0.352 N 
ATOM     34  C   UNL A   1      42.035  19.489  25.890  1.00  0.00     0.251 C 
ATOM     35  H   UNL A   1      40.398  18.332  25.764  1.00  0.00     0.163 HD
ATOM     36  O   UNL A   1      42.778  18.652  25.386  1.00  0.00    -0.269 OA
BRANCH  34  37
ATOM     37  C   UNL A   1      42.571  20.803  26.302  1.00  0.00     0.039 A 
ATOM     38  C   UNL A   1      42.992  21.702  25.317  1.00  0.00     0.014 A 
ATOM     39  C   UNL A   1      42.607  21.168  27.651  1.00  0.00     0.014 A 
ATOM     40  C   UNL A   1      43.367  22.997  25.679  1.00  0.00     0.010 A 
ATOM     41  C   UNL A   1      42.910  22.480  28.000  1.00  0.00     0.010 A 
ATOM     42  C   UNL A   1      43.285  23.410  27.018  1.00  0.00    -0.014 A 
BRANCH  42  43
ATOM     43  C   UNL A   1      43.570  24.812  27.416  1.00  0.00     0.031 A 
ATOM     44  C   UNL A   1      44.991  25.283  27.550  1.00  0.00     0.074 A 
ATOM     45  C   UNL A   1      42.553  25.635  27.739  1.00  0.00     0.049 A 
ATOM     46  N   UNL A   1      45.446  26.433  27.980  1.00  0.00    -0.248 NA
ATOM     47  C   UNL A   1      46.041  24.322  27.183  1.00  0.00     0.031 C 
ATOM     48  C   UNL A   1      41.133  25.283  27.702  1.00  0.00     0.029 A 
ATOM     49  N   UNL A   1      42.560  26.937  28.179  1.00  0.00    -0.354 N 
ATOM     50  C   UNL A   1      46.830  26.324  27.954  1.00  0.00     0.074 A 
ATOM     51  C   UNL A   1      47.140  24.982  27.515  1.00  0.00     0.031 C 
ATOM     52  C   UNL A   1      40.406  26.345  28.083  1.00  0.00     0.029 A 
ATOM     53  C   UNL A   1      41.306  27.441  28.426  1.00  0.00     0.049 A 
ATOM     54  H   UNL A   1      43.384  27.458  28.304  1.00  0.00     0.167 HD
ATOM     55  C   UNL A   1      47.757  27.267  28.246  1.00  0.00     0.037 A 
ATOM     56  C   UNL A   1      40.926  28.649  28.885  1.00  0.00     0.037 A 
ATOM     57  C   UNL A   1      47.446  28.613  28.649  1.00  0.00     0.049 A 
ATOM     58  C   UNL A   1      41.977  29.683  29.191  1.00  0.00     0.074 A 
ATOM     59  C   UNL A   1      48.313  29.660  28.903  1.00  0.00     0.029 A 
ATOM     60  N   UNL A   1      46.162  29.097  28.854  1.00  0.00    -0.354 N 
ATOM     61  N   UNL A   1      43.281  29.590  29.096  1.00  0.00    -0.248 NA
ATOM     62  C   UNL A   1      41.501  30.991  29.662  1.00  0.00     0.031 C 
ATOM     63  C   UNL A   1      47.557  30.769  29.301  1.00  0.00     0.029 A 
ATOM     64  C   UNL A   1      46.216  30.425  29.249  1.00  0.00     0.049 A 
ATOM     65  H   UNL A   1      45.335  28.576  28.736  1.00  0.00     0.167 HD
ATOM     66  C   UNL A   1      43.779  30.832  29.464  1.00  0.00     0.074 A 
ATOM     67  C   UNL A   1      42.637  31.667  29.773  1.00  0.00     0.031 C 
ATOM     68  C   UNL A   1      45.068  31.245  29.538  1.00  0.00     0.037 A 
BRANCH  55  69
ATOM     69  C   UNL A   1      49.202  26.877  28.131  1.00  0.00     0.064 A 
ATOM     70  C   UNL A   1      49.948  26.485  29.253  1.00  0.00     0.173 A 
ATOM     71  C   UNL A   1      49.839  26.862  26.881  1.00  0.00     0.173 A 
ATOM     72  F   UNL A   1      49.389  26.494  30.472  1.00  0.00    -0.203 F 
ATOM     73  C   UNL A   1      51.287  26.121  29.131  1.00  0.00     0.198 A 
ATOM     74  C   UNL A   1      51.169  26.468  26.760  1.00  0.00     0.198 A 
ATOM     75  F   UNL A   1      49.170  27.223  25.776  1.00  0.00    -0.203 F 
ATOM     76  F   UNL A   1      51.993  25.799  30.224  1.00  0.00    -0.200 F 
ATOM     77  C   UNL A   1      51.894  26.107  27.885  1.00  0.00     0.200 A 
ATOM     78  F   UNL A   1      51.752  26.443  25.553  1.00  0.00    -0.200 F 
ATOM     79  F   UNL A   1      53.181  25.750  27.770  1.00  0.00    -0.200 F 
ENDBRANCH  55  69
BRANCH  56  80
ATOM     80  C   UNL A   1      39.483  28.960  29.054  1.00  0.00     0.064 A 
ATOM     81  C   UNL A   1      38.713  29.400  27.968  1.00  0.00     0.173 A 
ATOM     82  C   UNL A   1      38.848  28.833  30.297  1.00  0.00     0.173 A 
ATOM     83  F   UNL A   1      39.281  29.559  26.765  1.00  0.00    -0.203 F 
ATOM     84  C   UNL A   1      37.365  29.720  28.124  1.00  0.00     0.198 A 
ATOM     85  C   UNL A   1      37.494  29.127  30.446  1.00  0.00     0.198 A 
ATOM     86  F   UNL A   1      39.540  28.411  31.365  1.00  0.00    -0.203 F 
ATOM     87  F   UNL A   1      36.663  30.180  27.080  1.00  0.00    -0.200 F 
ATOM     88  C   UNL A   1      36.755  29.578  29.362  1.00  0.00     0.200 A 
ATOM     89  F   UNL A   1      36.905  28.976  31.640  1.00  0.00    -0.200 F 
ATOM     90  F   UNL A   1      35.459  29.882  29.511  1.00  0.00    -0.200 F 
ENDBRANCH  56  80
BRANCH  68  91
ATOM     91  C   UNL A   1      45.314  32.673  29.928  1.00  0.00     0.064 A 
ATOM     92  C   UNL A   1      45.341  33.702  28.975  1.00  0.00     0.173 A 
ATOM     93  C   UNL A   1      45.479  33.021  31.278  1.00  0.00     0.173 A 
ATOM     94  F   UNL A   1      45.204  33.418  27.671  1.00  0.00    -0.203 F 
ATOM     95  C   UNL A   1      45.546  35.025  29.358  1.00  0.00     0.198 A 
ATOM     96  C   UNL A   1      45.654  34.348  31.660  1.00  0.00     0.198 A 
ATOM     97  F   UNL A   1      45.454  32.074  32.227  1.00  0.00    -0.203 F 
ATOM     98  F   UNL A   1      45.610  35.987  28.428  1.00  0.00    -0.200 F 
ATOM     99  C   UNL A   1      45.693  35.347  30.699  1.00  0.00     0.200 A 
ATOM    100  F   UNL A   1      45.784  34.658  32.956  1.00  0.00    -0.200 F 
ATOM    101  F   UNL A   1      45.879  36.622  31.066  1.00  0.00    -0.200 F 
ENDBRANCH  68  91
ENDBRANCH  42  43
ENDBRANCH  34  37
ENDBRANCH  32  33
ENDBRANCH  31  32
ENDBRANCH   1  31
TORSDOF 15
ENDMDL
MODEL 2
REMARK VINA RESULT:     -12.9      0.930      7.064
REMARK SMILES Cc1ncccc1OC1(C(=O)NCCCCNC(=O)c2ccc(-c3c4nc(c(-c5c(F)c(F)c(F)c(F)c5F)c5ccc([nH]5)c(-c5c(F)c(F)c(F)c(F)c5F)c5nc(c(-c6c(F)c(F)c(F)c(F)c6F)c6ccc3[nH]6)C=C5)C=C4)cc2)CCN(C(=O)c2ccc(O)nn2)CC1
REMARK SMILES IDX 14 1 13 2 12 3 10 4 11 5 9 7 83 8 96 9 84 10 95 11 85 12
REMARK SMILES IDX 86 13 87 14 8 15 7 16 1 17 2 18 3 19 4 20 6 21 5 22 88 23
REMARK SMILES IDX 89 24 94 25 90 26 93 27 91 28 92 29 15 31 16 32 17 33 18 34
REMARK SMILES IDX 19 36 20 37 21 38 82 39 22 40 81 41 23 42 24 43 25 44 75 45
REMARK SMILES IDX 26 46 80 47 74 48 76 49 27 50 79 51 73 52 72 53 28 55 60 56
REMARK SMILES IDX 40 57 59 58 41 59 44 60 58 61 77 62 42 63 43 64 57 66 78 67
REMARK SMILES IDX 45 68 29 69 30 70 38 71 31 72 32 73 36 74 39 75 33 76 34 77
REMARK SMILES IDX 37 78 35 79 61 80 62 81 70 82 63 83 64 84 68 85 71 86 65 87
REMARK SMILES IDX 66 88 69 89 67 90 46 91 47 92 55 93 48 94 49 95 53 96 56 97
REMARK SMILES IDX 50 98 51 99 54 100 52 101
REMARK H PARENT 12 6 92 30 17 35 76 54 44 65
REMARK Flexibility Score: inf
ROOT
ATOM      1  C   UNL A   1      39.063  22.781  26.237  1.00  0.00     0.023 C 
ENDROOT
BRANCH   1   2
ATOM      2  C   UNL A   1      37.627  23.244  26.015  1.00  0.00     0.116 C 
BRANCH   2   3
ATOM      3  N   UNL A   1      37.270  23.324  24.614  1.00  0.00    -0.353 N 
ATOM      4  C   UNL A   1      36.093  23.064  23.958  1.00  0.00     0.264 C 
ATOM      5  O   UNL A   1      36.104  23.329  22.751  1.00  0.00    -0.270 OA
ATOM      6  H   UNL A   1      38.002  23.619  24.027  1.00  0.00     0.163 HD
BRANCH   4   7
ATOM      7  C   UNL A   1      34.822  22.469  24.688  1.00  0.00     0.190 C 
ATOM      8  C   UNL A   1      33.667  22.545  23.696  1.00  0.00     0.080 C 
ATOM      9  C   UNL A   1      35.239  21.136  25.295  1.00  0.00     0.080 C 
ATOM     10  C   UNL A   1      33.102  21.237  23.174  1.00  0.00     0.124 C 
ATOM     11  C   UNL A   1      34.475  19.895  24.877  1.00  0.00     0.124 C 
ATOM     12  N   UNL A   1      33.423  19.999  23.865  1.00  0.00    -0.337 N 
ATOM     13  C   UNL A   1      32.683  18.867  23.458  1.00  0.00     0.274 C 
ATOM     14  O   UNL A   1      31.919  18.880  22.494  1.00  0.00    -0.267 OA
BRANCH   7  15
ATOM     15  O   UNL A   1      34.624  23.431  25.756  1.00  0.00    -0.475 OA
BRANCH  15  16
ATOM     16  C   UNL A   1      33.624  24.309  26.036  1.00  0.00     0.142 A 
ATOM     17  C   UNL A   1      31.605  22.953  26.922  1.00  0.00     0.071 C 
ATOM     18  C   UNL A   1      32.319  24.190  26.520  1.00  0.00     0.079 A 
ATOM     19  N   UNL A   1      31.496  25.270  26.700  1.00  0.00    -0.258 NA
ATOM     20  C   UNL A   1      31.953  26.497  26.405  1.00  0.00     0.111 A 
ATOM     21  C   UNL A   1      34.051  25.618  25.752  1.00  0.00     0.050 A 
ATOM     22  C   UNL A   1      33.221  26.722  25.933  1.00  0.00     0.024 A 
ENDBRANCH  15  16
ENDBRANCH   7  15
BRANCH  13  23
ATOM     23  C   UNL A   1      32.886  17.589  24.178  1.00  0.00     0.151 A 
ATOM     24  C   UNL A   1      32.153  17.324  25.322  1.00  0.00     0.042 A 
ATOM     25  N   UNL A   1      33.734  16.692  23.615  1.00  0.00    -0.142 NA
ATOM     26  C   UNL A   1      32.278  16.061  25.884  1.00  0.00     0.072 A 
ATOM     27  N   UNL A   1      33.856  15.459  24.172  1.00  0.00    -0.112 NA
ATOM     28  C   UNL A   1      33.134  15.172  25.271  1.00  0.00     0.230 A 
BRANCH  28  29
ATOM     29  O   UNL A   1      33.278  13.910  25.751  1.00  0.00    -0.492 OA
ATOM     30  H   UNL A   1      34.077  13.656  26.170  1.00  0.00     0.295 HD
ENDBRANCH  28  29
ENDBRANCH  13  23
ENDBRANCH   4   7
ENDBRANCH   2   3
ENDBRANCH   1   2
BRANCH   1  31
ATOM     31  C   UNL A   1      39.412  21.441  25.590  1.00  0.00     0.023 C 
BRANCH  31  32
ATOM     32  C   UNL A   1      39.415  20.237  26.529  1.00  0.00     0.116 C 
BRANCH  32  33
ATOM     33  N   UNL A   1      40.376  19.205  26.171  1.00  0.00    -0.352 N 
ATOM     34  C   UNL A   1      41.747  19.298  26.084  1.00  0.00     0.251 C 
ATOM     35  H   UNL A   1      39.995  18.322  25.961  1.00  0.00     0.163 HD
ATOM     36  O   UNL A   1      42.412  18.341  25.701  1.00  0.00    -0.269 OA
BRANCH  34  37
ATOM     37  C   UNL A   1      42.410  20.577  26.413  1.00  0.00     0.039 A 
ATOM     38  C   UNL A   1      42.943  21.349  25.376  1.00  0.00     0.014 A 
ATOM     39  C   UNL A   1      42.457  21.038  27.731  1.00  0.00     0.014 A 
ATOM     40  C   UNL A   1      43.445  22.622  25.651  1.00  0.00     0.010 A 
ATOM     41  C   UNL A   1      42.890  22.335  27.991  1.00  0.00     0.010 A 
ATOM     42  C   UNL A   1      43.380  23.143  26.953  1.00  0.00    -0.014 A 
BRANCH  42  43
ATOM     43  C   UNL A   1      43.803  24.535  27.254  1.00  0.00     0.031 A 
ATOM     44  C   UNL A   1      42.793  25.546  27.718  1.00  0.00     0.074 A 
ATOM     45  C   UNL A   1      45.078  24.909  27.028  1.00  0.00     0.049 A 
ATOM     46  N   UNL A   1      42.943  26.828  27.936  1.00  0.00    -0.248 NA
ATOM     47  C   UNL A   1      41.424  25.057  27.935  1.00  0.00     0.031 C 
ATOM     48  C   UNL A   1      46.142  24.037  26.528  1.00  0.00     0.029 A 
ATOM     49  N   UNL A   1      45.693  26.129  27.176  1.00  0.00    -0.354 N 
ATOM     50  C   UNL A   1      41.688  27.299  28.294  1.00  0.00     0.074 A 
ATOM     51  C   UNL A   1      40.777  26.178  28.216  1.00  0.00     0.031 C 
ATOM     52  C   UNL A   1      47.279  24.742  26.428  1.00  0.00     0.029 A 
ATOM     53  C   UNL A   1      47.020  26.123  26.822  1.00  0.00     0.049 A 
ATOM     54  H   UNL A   1      45.226  26.930  27.505  1.00  0.00     0.167 HD
ATOM     55  C   UNL A   1      41.332  28.549  28.677  1.00  0.00     0.037 A 
ATOM     56  C   UNL A   1      47.924  27.121  26.810  1.00  0.00     0.037 A 
ATOM     57  C   UNL A   1      42.246  29.654  28.788  1.00  0.00     0.049 A 
ATOM     58  C   UNL A   1      47.505  28.498  27.251  1.00  0.00     0.074 A 
ATOM     59  C   UNL A   1      41.996  30.941  29.230  1.00  0.00     0.029 A 
ATOM     60  N   UNL A   1      43.592  29.600  28.454  1.00  0.00    -0.354 N 
ATOM     61  N   UNL A   1      46.329  28.916  27.653  1.00  0.00    -0.248 NA
ATOM     62  C   UNL A   1      48.541  29.541  27.243  1.00  0.00     0.031 C 
ATOM     63  C   UNL A   1      43.180  31.678  29.126  1.00  0.00     0.029 A 
ATOM     64  C   UNL A   1      44.180  30.838  28.664  1.00  0.00     0.049 A 
ATOM     65  H   UNL A   1      44.060  28.802  28.118  1.00  0.00     0.167 HD
ATOM     66  C   UNL A   1      46.490  30.257  27.975  1.00  0.00     0.074 A 
ATOM     67  C   UNL A   1      47.880  30.581  27.731  1.00  0.00     0.031 C 
ATOM     68  C   UNL A   1      45.569  31.140  28.431  1.00  0.00     0.037 A 
BRANCH  55  69
ATOM     69  C   UNL A   1      39.889  28.785  29.015  1.00  0.00     0.064 A 
ATOM     70  C   UNL A   1      39.404  28.620  30.321  1.00  0.00     0.173 A 
ATOM     71  C   UNL A   1      38.987  29.214  28.029  1.00  0.00     0.173 A 
ATOM     72  F   UNL A   1      40.222  28.199  31.297  1.00  0.00    -0.203 F 
ATOM     73  C   UNL A   1      38.063  28.847  30.621  1.00  0.00     0.198 A 
ATOM     74  C   UNL A   1      37.655  29.470  28.340  1.00  0.00     0.198 A 
ATOM     75  F   UNL A   1      39.400  29.393  26.765  1.00  0.00    -0.203 F 
ATOM     76  F   UNL A   1      37.612  28.633  31.865  1.00  0.00    -0.200 F 
ATOM     77  C   UNL A   1      37.191  29.278  29.633  1.00  0.00     0.200 A 
ATOM     78  F   UNL A   1      36.816  29.898  27.387  1.00  0.00    -0.200 F 
ATOM     79  F   UNL A   1      35.903  29.501  29.926  1.00  0.00    -0.200 F 
ENDBRANCH  55  69
BRANCH  56  80
ATOM     80  C   UNL A   1      49.325  26.851  26.393  1.00  0.00     0.064 A 
ATOM     81  C   UNL A   1      50.296  26.486  27.337  1.00  0.00     0.173 A 
ATOM     82  C   UNL A   1      49.723  26.958  25.054  1.00  0.00     0.173 A 
ATOM     83  F   UNL A   1      49.967  26.393  28.633  1.00  0.00    -0.203 F 
ATOM     84  C   UNL A   1      51.617  26.257  26.958  1.00  0.00     0.198 A 
ATOM     85  C   UNL A   1      51.039  26.702  24.672  1.00  0.00     0.198 A 
ATOM     86  F   UNL A   1      48.831  27.300  24.112  1.00  0.00    -0.203 F 
ATOM     87  F   UNL A   1      52.534  25.953  27.887  1.00  0.00    -0.200 F 
ATOM     88  C   UNL A   1      51.987  26.361  25.626  1.00  0.00     0.200 A 
ATOM     89  F   UNL A   1      51.389  26.790  23.382  1.00  0.00    -0.200 F 
ATOM     90  F   UNL A   1      53.256  26.138  25.261  1.00  0.00    -0.200 F 
ENDBRANCH  56  80
BRANCH  68  91
ATOM     91  C   UNL A   1      46.040  32.531  28.740  1.00  0.00     0.064 A 
ATOM     92  C   UNL A   1      45.986  33.555  27.783  1.00  0.00     0.173 A 
ATOM     93  C   UNL A   1      46.508  32.852  30.023  1.00  0.00     0.173 A 
ATOM     94  F   UNL A   1      45.561  33.294  26.538  1.00  0.00    -0.203 F 
ATOM     95  C   UNL A   1      46.404  34.846  28.095  1.00  0.00     0.198 A 
ATOM     96  C   UNL A   1      46.897  34.150  30.340  1.00  0.00     0.198 A 
ATOM     97  F   UNL A   1      46.572  31.908  30.974  1.00  0.00    -0.203 F 
ATOM     98  F   UNL A   1      46.383  35.800  27.155  1.00  0.00    -0.200 F 
ATOM     99  C   UNL A   1      46.850  35.143  29.374  1.00  0.00     0.200 A 
ATOM    100  F   UNL A   1      47.316  34.438  31.579  1.00  0.00    -0.200 F 
ATOM    101  F   UNL A   1      47.242  36.389  29.675  1.00  0.00    -0.200 F 
ENDBRANCH  68  91
ENDBRANCH  42  43
ENDBRANCH  34  37
ENDBRANCH  32  33
ENDBRANCH  31  32
ENDBRANCH   1  31
TORSDOF 15
ENDMDL
MODEL 3
REMARK VINA RESULT:     -12.9      5.406      9.535
REMARK SMILES Cc1ncccc1OC1(C(=O)NCCCCNC(=O)c2ccc(-c3c4nc(c(-c5c(F)c(F)c(F)c(F)c5F)c5ccc([nH]5)c(-c5c(F)c(F)c(F)c(F)c5F)c5nc(c(-c6c(F)c(F)c(F)c(F)c6F)c6ccc3[nH]6)C=C5)C=C4)cc2)CCN(C(=O)c2ccc(O)nn2)CC1
REMARK SMILES IDX 14 1 13 2 12 3 10 4 11 5 9 7 83 8 96 9 84 10 95 11 85 12
REMARK SMILES IDX 86 13 87 14 8 15 7 16 1 17 2 18 3 19 4 20 6 21 5 22 88 23
REMARK SMILES IDX 89 24 94 25 90 26 93 27 91 28 92 29 15 31 16 32 17 33 18 34
REMARK SMILES IDX 19 36 20 37 21 38 82 39 22 40 81 41 23 42 24 43 25 44 75 45
REMARK SMILES IDX 26 46 80 47 74 48 76 49 27 50 79 51 73 52 72 53 28 55 60 56
REMARK SMILES IDX 40 57 59 58 41 59 44 60 58 61 77 62 42 63 43 64 57 66 78 67
REMARK SMILES IDX 45 68 29 69 30 70 38 71 31 72 32 73 36 74 39 75 33 76 34 77
REMARK SMILES IDX 37 78 35 79 61 80 62 81 70 82 63 83 64 84 68 85 71 86 65 87
REMARK SMILES IDX 66 88 69 89 67 90 46 91 47 92 55 93 48 94 49 95 53 96 56 97
REMARK SMILES IDX 50 98 51 99 54 100 52 101
REMARK H PARENT 12 6 92 30 17 35 76 54 44 65
REMARK Flexibility Score: inf
ROOT
ATOM      1  C   UNL A   1      31.775  30.182  26.878  1.00  0.00     0.023 C 
ENDROOT
BRANCH   1   2
ATOM      2  C   UNL A   1      33.023  29.333  26.660  1.00  0.00     0.116 C 
BRANCH   2   3
ATOM      3  N   UNL A   1      33.589  29.490  25.336  1.00  0.00    -0.353 N 
ATOM      4  C   UNL A   1      33.291  28.886  24.142  1.00  0.00     0.264 C 
ATOM      5  O   UNL A   1      33.913  29.327  23.169  1.00  0.00    -0.270 OA
ATOM      6  H   UNL A   1      34.318  30.150  25.284  1.00  0.00     0.163 HD
BRANCH   4   7
ATOM      7  C   UNL A   1      32.236  27.714  24.017  1.00  0.00     0.190 C 
ATOM      8  C   UNL A   1      32.156  27.347  22.540  1.00  0.00     0.080 C 
ATOM      9  C   UNL A   1      32.607  26.667  25.059  1.00  0.00     0.080 C 
ATOM     10  C   UNL A   1      32.667  25.979  22.127  1.00  0.00     0.124 C 
ATOM     11  C   UNL A   1      32.897  25.259  24.579  1.00  0.00     0.124 C 
ATOM     12  N   UNL A   1      32.884  24.964  23.146  1.00  0.00    -0.337 N 
ATOM     13  C   UNL A   1      33.139  23.663  22.662  1.00  0.00     0.274 C 
ATOM     14  O   UNL A   1      33.308  23.415  21.470  1.00  0.00    -0.267 OA
BRANCH   7  15
ATOM     15  O   UNL A   1      31.014  28.378  24.431  1.00  0.00    -0.475 OA
BRANCH  15  16
ATOM     16  C   UNL A   1      29.860  28.680  23.780  1.00  0.00     0.142 A 
ATOM     17  C   UNL A   1      28.377  26.557  23.770  1.00  0.00     0.071 C 
ATOM     18  C   UNL A   1      28.703  27.969  23.449  1.00  0.00     0.079 A 
ATOM     19  N   UNL A   1      27.664  28.529  22.753  1.00  0.00    -0.258 NA
ATOM     20  C   UNL A   1      27.750  29.813  22.371  1.00  0.00     0.111 A 
ATOM     21  C   UNL A   1      29.889  30.022  23.361  1.00  0.00     0.050 A 
ATOM     22  C   UNL A   1      28.838  30.599  22.655  1.00  0.00     0.024 A 
ENDBRANCH  15  16
ENDBRANCH   7  15
BRANCH  13  23
ATOM     23  C   UNL A   1      33.277  22.556  23.637  1.00  0.00     0.151 A 
ATOM     24  C   UNL A   1      34.521  22.263  24.168  1.00  0.00     0.042 A 
ATOM     25  N   UNL A   1      32.137  21.935  24.029  1.00  0.00    -0.142 NA
ATOM     26  C   UNL A   1      34.578  21.310  25.175  1.00  0.00     0.072 A 
ATOM     27  N   UNL A   1      32.199  21.000  25.013  1.00  0.00    -0.112 NA
ATOM     28  C   UNL A   1      33.395  20.716  25.560  1.00  0.00     0.230 A 
BRANCH  28  29
ATOM     29  O   UNL A   1      33.377  19.800  26.561  1.00  0.00    -0.492 OA
ATOM     30  H   UNL A   1      33.874  19.009  26.482  1.00  0.00     0.295 HD
ENDBRANCH  28  29
ENDBRANCH  13  23
ENDBRANCH   4   7
ENDBRANCH   2   3
ENDBRANCH   1   2
BRANCH   1  31
ATOM     31  C   UNL A   1      31.923  31.652  26.489  1.00  0.00     0.023 C 
BRANCH  31  32
ATOM     32  C   UNL A   1      32.929  32.453  27.311  1.00  0.00     0.116 C 
BRANCH  32  33
ATOM     33  N   UNL A   1      32.507  33.814  27.607  1.00  0.00    -0.352 N 
ATOM     34  C   UNL A   1      33.039  34.703  28.514  1.00  0.00     0.251 C 
ATOM     35  H   UNL A   1      31.737  34.144  27.090  1.00  0.00     0.163 HD
ATOM     36  O   UNL A   1      32.519  35.800  28.689  1.00  0.00    -0.269 OA
BRANCH  34  37
ATOM     37  C   UNL A   1      34.218  34.307  29.312  1.00  0.00     0.039 A 
ATOM     38  C   UNL A   1      34.021  33.697  30.554  1.00  0.00     0.014 A 
ATOM     39  C   UNL A   1      35.512  34.486  28.812  1.00  0.00     0.014 A 
ATOM     40  C   UNL A   1      35.116  33.189  31.256  1.00  0.00     0.010 A 
ATOM     41  C   UNL A   1      36.591  33.915  29.477  1.00  0.00     0.010 A 
ATOM     42  C   UNL A   1      36.404  33.253  30.701  1.00  0.00    -0.014 A 
BRANCH  42  43
ATOM     43  C   UNL A   1      37.570  32.623  31.372  1.00  0.00     0.031 A 
ATOM     44  C   UNL A   1      38.291  31.481  30.715  1.00  0.00     0.074 A 
ATOM     45  C   UNL A   1      37.925  33.023  32.610  1.00  0.00     0.049 A 
ATOM     46  N   UNL A   1      39.263  30.736  31.179  1.00  0.00    -0.248 NA
ATOM     47  C   UNL A   1      37.838  31.103  29.368  1.00  0.00     0.031 C 
ATOM     48  C   UNL A   1      37.273  34.084  33.378  1.00  0.00     0.029 A 
ATOM     49  N   UNL A   1      38.916  32.571  33.447  1.00  0.00    -0.354 N 
ATOM     50  C   UNL A   1      39.521  29.794  30.193  1.00  0.00     0.074 A 
ATOM     51  C   UNL A   1      38.572  30.028  29.127  1.00  0.00     0.031 C 
ATOM     52  C   UNL A   1      37.889  34.214  34.562  1.00  0.00     0.029 A 
ATOM     53  C   UNL A   1      38.958  33.224  34.654  1.00  0.00     0.049 A 
ATOM     54  H   UNL A   1      39.538  31.848  33.204  1.00  0.00     0.167 HD
ATOM     55  C   UNL A   1      40.479  28.837  30.169  1.00  0.00     0.037 A 
ATOM     56  C   UNL A   1      39.763  33.040  35.718  1.00  0.00     0.037 A 
ATOM     57  C   UNL A   1      41.444  28.630  31.215  1.00  0.00     0.049 A 
ATOM     58  C   UNL A   1      40.827  31.977  35.661  1.00  0.00     0.074 A 
ATOM     59  C   UNL A   1      42.495  27.730  31.254  1.00  0.00     0.029 A 
ATOM     60  N   UNL A   1      41.477  29.336  32.409  1.00  0.00    -0.354 N 
ATOM     61  N   UNL A   1      41.105  31.137  34.693  1.00  0.00    -0.248 NA
ATOM     62  C   UNL A   1      41.692  31.841  36.841  1.00  0.00     0.031 C 
ATOM     63  C   UNL A   1      43.140  27.863  32.489  1.00  0.00     0.029 A 
ATOM     64  C   UNL A   1      42.520  28.879  33.199  1.00  0.00     0.049 A 
ATOM     65  H   UNL A   1      40.852  30.055  32.658  1.00  0.00     0.167 HD
ATOM     66  C   UNL A   1      42.194  30.396  35.133  1.00  0.00     0.074 A 
ATOM     67  C   UNL A   1      42.533  30.893  36.450  1.00  0.00     0.031 C 
ATOM     68  C   UNL A   1      42.853  29.395  34.502  1.00  0.00     0.037 A 
BRANCH  55  69
ATOM     69  C   UNL A   1      40.536  27.944  28.963  1.00  0.00     0.064 A 
ATOM     70  C   UNL A   1      39.779  26.765  28.887  1.00  0.00     0.173 A 
ATOM     71  C   UNL A   1      41.328  28.289  27.858  1.00  0.00     0.173 A 
ATOM     72  F   UNL A   1      39.016  26.384  29.923  1.00  0.00    -0.203 F 
ATOM     73  C   UNL A   1      39.838  25.948  27.761  1.00  0.00     0.198 A 
ATOM     74  C   UNL A   1      41.360  27.485  26.722  1.00  0.00     0.198 A 
ATOM     75  F   UNL A   1      42.066  29.409  27.876  1.00  0.00    -0.203 F 
ATOM     76  F   UNL A   1      39.147  24.800  27.732  1.00  0.00    -0.200 F 
ATOM     77  C   UNL A   1      40.623  26.311  26.677  1.00  0.00     0.200 A 
ATOM     78  F   UNL A   1      42.109  27.843  25.670  1.00  0.00    -0.200 F 
ATOM     79  F   UNL A   1      40.672  25.526  25.592  1.00  0.00    -0.200 F 
ENDBRANCH  55  69
BRANCH  56  80
ATOM     80  C   UNL A   1      39.616  33.902  36.920  1.00  0.00     0.064 A 
ATOM     81  C   UNL A   1      38.842  33.484  38.012  1.00  0.00     0.173 A 
ATOM     82  C   UNL A   1      40.235  35.157  37.000  1.00  0.00     0.173 A 
ATOM     83  F   UNL A   1      38.212  32.301  37.972  1.00  0.00    -0.203 F 
ATOM     84  C   UNL A   1      38.677  34.298  39.131  1.00  0.00     0.198 A 
ATOM     85  C   UNL A   1      40.092  35.958  38.132  1.00  0.00     0.198 A 
ATOM     86  F   UNL A   1      40.990  35.601  35.984  1.00  0.00    -0.203 F 
ATOM     87  F   UNL A   1      37.896  33.892  40.141  1.00  0.00    -0.200 F 
ATOM     88  C   UNL A   1      39.306  35.532  39.192  1.00  0.00     0.200 A 
ATOM     89  F   UNL A   1      40.712  37.144  38.193  1.00  0.00    -0.200 F 
ATOM     90  F   UNL A   1      39.151  36.313  40.270  1.00  0.00    -0.200 F 
ENDBRANCH  56  80
BRANCH  68  91
ATOM     91  C   UNL A   1      44.036  28.796  35.205  1.00  0.00     0.064 A 
ATOM     92  C   UNL A   1      45.337  29.271  34.991  1.00  0.00     0.173 A 
ATOM     93  C   UNL A   1      43.856  27.765  36.140  1.00  0.00     0.173 A 
ATOM     94  F   UNL A   1      45.562  30.244  34.095  1.00  0.00    -0.203 F 
ATOM     95  C   UNL A   1      46.420  28.720  35.672  1.00  0.00     0.198 A 
ATOM     96  C   UNL A   1      44.937  27.237  36.841  1.00  0.00     0.198 A 
ATOM     97  F   UNL A   1      42.629  27.281  36.386  1.00  0.00    -0.203 F 
ATOM     98  F   UNL A   1      47.661  29.160  35.421  1.00  0.00    -0.200 F 
ATOM     99  C   UNL A   1      46.218  27.711  36.601  1.00  0.00     0.200 A 
ATOM    100  F   UNL A   1      44.738  26.271  37.747  1.00  0.00    -0.200 F 
ATOM    101  F   UNL A   1      47.260  27.189  37.263  1.00  0.00    -0.200 F 
ENDBRANCH  68  91
ENDBRANCH  42  43
ENDBRANCH  34  37
ENDBRANCH  32  33
ENDBRANCH  31  32
ENDBRANCH   1  31
TORSDOF 15
ENDMDL
