MODEL 1
REMARK VINA RESULT:     -12.0      0.000      0.000
REMARK SMILES C[C@H](NC(N)=O)C(=O)N[C@@H](CO)C(=O)NCCCCNC(=O)c1ccc(-c2c3nc(c(-c4c(F)c(F)c(F)c(F)c4F)c4ccc([nH]4)c(-c4c(F)c(F)c(F)c(F)c4F)c4nc(c(-c5c(F)c(F)c(F)c(F)c5F)c5ccc2[nH]5)C=C4)C=C3)cc1
REMARK SMILES IDX 17 1 16 2 15 3 13 4 14 5 10 7 9 8 7 9 8 10 2 12 1 13 3 14
REMARK SMILES IDX 4 15 5 17 6 18 11 21 12 22 18 24 19 25 20 26 21 27 22 29
REMARK SMILES IDX 23 30 24 31 85 32 25 33 84 34 26 35 27 36 28 37 78 38 29 39
REMARK SMILES IDX 83 40 77 41 79 42 30 43 82 44 76 45 75 46 31 48 63 49 43 50
REMARK SMILES IDX 62 51 44 52 47 53 61 54 80 55 45 56 46 57 60 59 81 60 48 61
REMARK SMILES IDX 32 62 33 63 41 64 34 65 35 66 39 67 42 68 36 69 37 70 40 71
REMARK SMILES IDX 38 72 64 73 65 74 73 75 66 76 67 77 71 78 74 79 68 80 69 81
REMARK SMILES IDX 72 82 70 83 49 84 50 85 58 86 51 87 52 88 56 89 59 90 53 91
REMARK SMILES IDX 54 92 57 93 55 94
REMARK H PARENT 15 6 9 11 3 16 5 19 5 20 12 23 20 28 79 47 47 58
REMARK Flexibility Score: inf
ROOT
ATOM      1  C   UNL A   1      32.054  30.491  26.867  1.00  0.00     0.023 C 
ENDROOT
BRANCH   1   2
ATOM      2  C   UNL A   1      31.483  29.741  25.671  1.00  0.00     0.116 C 
BRANCH   2   3
ATOM      3  N   UNL A   1      32.462  29.598  24.614  1.00  0.00    -0.354 N 
ATOM      4  C   UNL A   1      32.363  29.044  23.376  1.00  0.00     0.244 C 
ATOM      5  O   UNL A   1      33.317  29.227  22.613  1.00  0.00    -0.273 OA
ATOM      6  H   UNL A   1      33.351  29.964  24.828  1.00  0.00     0.163 HD
BRANCH   4   7
ATOM      7  C   UNL A   1      31.104  28.305  22.897  1.00  0.00     0.197 C 
BRANCH   7   8
ATOM      8  N   UNL A   1      30.383  29.021  21.839  1.00  0.00    -0.340 N 
ATOM      9  C   UNL A   1      29.505  30.058  21.927  1.00  0.00     0.243 C 
ATOM     10  O   UNL A   1      29.208  30.624  20.870  1.00  0.00    -0.273 OA
ATOM     11  H   UNL A   1      30.561  28.703  20.924  1.00  0.00     0.164 HD
BRANCH   9  12
ATOM     12  C   UNL A   1      28.945  30.563  23.270  1.00  0.00     0.170 C 
ATOM     13  C   UNL A   1      27.432  30.384  23.337  1.00  0.00     0.041 C 
BRANCH  12  14
ATOM     14  N   UNL A   1      29.501  31.879  23.599  1.00  0.00    -0.327 N 
ATOM     15  C   UNL A   1      29.113  33.083  23.114  1.00  0.00     0.312 C 
ATOM     16  H   UNL A   1      30.242  31.889  24.248  1.00  0.00     0.166 HD
ATOM     17  N   UNL A   1      29.921  34.094  23.510  1.00  0.00    -0.352 N 
ATOM     18  O   UNL A   1      28.187  33.293  22.347  1.00  0.00    -0.249 OA
ATOM     19  H   UNL A   1      30.665  33.914  24.130  1.00  0.00     0.161 HD
ATOM     20  H   UNL A   1      29.766  35.008  23.179  1.00  0.00     0.161 HD
ENDBRANCH  12  14
ENDBRANCH   9  12
ENDBRANCH   7   8
BRANCH   7  21
ATOM     21  C   UNL A   1      31.387  26.830  22.568  1.00  0.00     0.191 C 
BRANCH  21  22
ATOM     22  O   UNL A   1      31.446  26.542  21.172  1.00  0.00    -0.394 OA
ATOM     23  H   UNL A   1      31.276  27.353  20.667  1.00  0.00     0.210 HD
ENDBRANCH  21  22
ENDBRANCH   7  21
ENDBRANCH   4   7
ENDBRANCH   2   3
ENDBRANCH   1   2
BRANCH   1  24
ATOM     24  C   UNL A   1      31.758  31.988  26.868  1.00  0.00     0.023 C 
BRANCH  24  25
ATOM     25  C   UNL A   1      32.943  32.870  27.239  1.00  0.00     0.116 C 
BRANCH  25  26
ATOM     26  N   UNL A   1      32.546  34.215  27.627  1.00  0.00    -0.352 N 
ATOM     27  C   UNL A   1      33.016  34.987  28.661  1.00  0.00     0.251 C 
ATOM     28  H   UNL A   1      31.845  34.628  27.073  1.00  0.00     0.163 HD
ATOM     29  O   UNL A   1      32.469  36.045  28.952  1.00  0.00    -0.269 OA
BRANCH  27  30
ATOM     30  C   UNL A   1      34.172  34.507  29.442  1.00  0.00     0.039 A 
ATOM     31  C   UNL A   1      33.950  33.900  30.679  1.00  0.00     0.014 A 
ATOM     32  C   UNL A   1      35.465  34.614  28.925  1.00  0.00     0.014 A 
ATOM     33  C   UNL A   1      35.024  33.336  31.368  1.00  0.00     0.010 A 
ATOM     34  C   UNL A   1      36.515  33.970  29.566  1.00  0.00     0.010 A 
ATOM     35  C   UNL A   1      36.308  33.332  30.798  1.00  0.00    -0.014 A 
BRANCH  35  36
ATOM     36  C   UNL A   1      37.452  32.680  31.482  1.00  0.00     0.031 A 
ATOM     37  C   UNL A   1      38.160  31.529  30.823  1.00  0.00     0.074 A 
ATOM     38  C   UNL A   1      37.813  33.081  32.716  1.00  0.00     0.049 A 
ATOM     39  N   UNL A   1      39.138  30.788  31.278  1.00  0.00    -0.248 NA
ATOM     40  C   UNL A   1      37.681  31.136  29.488  1.00  0.00     0.031 C 
ATOM     41  C   UNL A   1      37.171  34.152  33.480  1.00  0.00     0.029 A 
ATOM     42  N   UNL A   1      38.803  32.627  33.551  1.00  0.00    -0.354 N 
ATOM     43  C   UNL A   1      39.378  29.837  30.294  1.00  0.00     0.074 A 
ATOM     44  C   UNL A   1      38.402  30.052  29.250  1.00  0.00     0.031 C 
ATOM     45  C   UNL A   1      37.804  34.294  34.656  1.00  0.00     0.029 A 
ATOM     46  C   UNL A   1      38.866  33.297  34.748  1.00  0.00     0.049 A 
ATOM     47  H   UNL A   1      39.412  31.890  33.313  1.00  0.00     0.167 HD
ATOM     48  C   UNL A   1      40.343  28.889  30.253  1.00  0.00     0.037 A 
ATOM     49  C   UNL A   1      39.685  33.122  35.802  1.00  0.00     0.037 A 
ATOM     50  C   UNL A   1      41.326  28.694  31.286  1.00  0.00     0.049 A 
ATOM     51  C   UNL A   1      40.741  32.050  35.738  1.00  0.00     0.074 A 
ATOM     52  C   UNL A   1      42.384  27.803  31.315  1.00  0.00     0.029 A 
ATOM     53  N   UNL A   1      41.363  29.399  32.481  1.00  0.00    -0.354 N 
ATOM     54  N   UNL A   1      41.011  31.208  34.770  1.00  0.00    -0.248 NA
ATOM     55  C   UNL A   1      41.613  31.911  36.912  1.00  0.00     0.031 C 
ATOM     56  C   UNL A   1      43.027  27.928  32.550  1.00  0.00     0.029 A 
ATOM     57  C   UNL A   1      42.411  28.943  33.266  1.00  0.00     0.049 A 
ATOM     58  H   UNL A   1      40.740  30.117  32.734  1.00  0.00     0.167 HD
ATOM     59  C   UNL A   1      42.101  30.464  35.202  1.00  0.00     0.074 A 
ATOM     60  C   UNL A   1      42.451  30.965  36.515  1.00  0.00     0.031 C 
ATOM     61  C   UNL A   1      42.754  29.459  34.568  1.00  0.00     0.037 A 
BRANCH  48  62
ATOM     62  C   UNL A   1      40.378  27.987  29.051  1.00  0.00     0.064 A 
ATOM     63  C   UNL A   1      41.132  28.304  27.910  1.00  0.00     0.173 A 
ATOM     64  C   UNL A   1      39.664  26.779  29.048  1.00  0.00     0.173 A 
ATOM     65  F   UNL A   1      41.825  29.452  27.855  1.00  0.00    -0.203 F 
ATOM     66  C   UNL A   1      41.138  27.466  26.797  1.00  0.00     0.198 A 
ATOM     67  C   UNL A   1      39.701  25.927  27.948  1.00  0.00     0.198 A 
ATOM     68  F   UNL A   1      38.931  26.422  30.113  1.00  0.00    -0.203 F 
ATOM     69  F   UNL A   1      41.815  27.823  25.697  1.00  0.00    -0.200 F 
ATOM     70  C   UNL A   1      40.429  26.276  26.820  1.00  0.00     0.200 A 
ATOM     71  F   UNL A   1      39.028  24.768  27.977  1.00  0.00    -0.200 F 
ATOM     72  F   UNL A   1      40.439  25.468  25.751  1.00  0.00    -0.200 F 
ENDBRANCH  48  62
BRANCH  49  73
ATOM     73  C   UNL A   1      39.560  33.999  36.995  1.00  0.00     0.064 A 
ATOM     74  C   UNL A   1      40.193  35.250  37.039  1.00  0.00     0.173 A 
ATOM     75  C   UNL A   1      38.815  33.608  38.118  1.00  0.00     0.173 A 
ATOM     76  F   UNL A   1      40.933  35.661  35.998  1.00  0.00    -0.203 F 
ATOM     77  C   UNL A   1      40.106  36.065  38.166  1.00  0.00     0.198 A 
ATOM     78  C   UNL A   1      38.702  34.437  39.232  1.00  0.00     0.198 A 
ATOM     79  F   UNL A   1      38.186  32.424  38.127  1.00  0.00    -0.203 F 
ATOM     80  F   UNL A   1      40.762  37.232  38.199  1.00  0.00    -0.200 F 
ATOM     81  C   UNL A   1      39.355  35.660  39.259  1.00  0.00     0.200 A 
ATOM     82  F   UNL A   1      37.962  34.049  40.280  1.00  0.00    -0.200 F 
ATOM     83  F   UNL A   1      39.267  36.446  40.341  1.00  0.00    -0.200 F 
ENDBRANCH  49  73
BRANCH  61  84
ATOM     84  C   UNL A   1      43.944  28.861  35.263  1.00  0.00     0.064 A 
ATOM     85  C   UNL A   1      43.817  27.797  36.169  1.00  0.00     0.173 A 
ATOM     86  C   UNL A   1      45.236  29.337  34.987  1.00  0.00     0.173 A 
ATOM     87  F   UNL A   1      42.604  27.314  36.477  1.00  0.00    -0.203 F 
ATOM     88  C   UNL A   1      44.936  27.252  36.794  1.00  0.00     0.198 A 
ATOM     89  C   UNL A   1      46.354  28.766  35.587  1.00  0.00     0.198 A 
ATOM     90  F   UNL A   1      45.415  30.348  34.123  1.00  0.00    -0.203 F 
ATOM     91  F   UNL A   1      44.785  26.272  37.696  1.00  0.00    -0.200 F 
ATOM     92  C   UNL A   1      46.203  27.730  36.496  1.00  0.00     0.200 A 
ATOM     93  F   UNL A   1      47.578  29.218  35.283  1.00  0.00    -0.200 F 
ATOM     94  F   UNL A   1      47.279  27.197  37.091  1.00  0.00    -0.200 F 
ENDBRANCH  61  84
ENDBRANCH  35  36
ENDBRANCH  27  30
ENDBRANCH  25  26
ENDBRANCH  24  25
ENDBRANCH   1  24
TORSDOF 16
ENDMDL
MODEL 2
REMARK VINA RESULT:     -11.9      0.227      2.008
REMARK SMILES C[C@H](NC(N)=O)C(=O)N[C@@H](CO)C(=O)NCCCCNC(=O)c1ccc(-c2c3nc(c(-c4c(F)c(F)c(F)c(F)c4F)c4ccc([nH]4)c(-c4c(F)c(F)c(F)c(F)c4F)c4nc(c(-c5c(F)c(F)c(F)c(F)c5F)c5ccc2[nH]5)C=C4)C=C3)cc1
REMARK SMILES IDX 17 1 16 2 15 3 13 4 14 5 10 7 9 8 7 9 8 10 2 12 1 13 3 14
REMARK SMILES IDX 4 15 5 17 6 18 11 21 12 22 18 24 19 25 20 26 21 27 22 29
REMARK SMILES IDX 23 30 24 31 85 32 25 33 84 34 26 35 27 36 28 37 78 38 29 39
REMARK SMILES IDX 83 40 77 41 79 42 30 43 82 44 76 45 75 46 31 48 63 49 43 50
REMARK SMILES IDX 62 51 44 52 47 53 61 54 80 55 45 56 46 57 60 59 81 60 48 61
REMARK SMILES IDX 32 62 33 63 41 64 34 65 35 66 39 67 42 68 36 69 37 70 40 71
REMARK SMILES IDX 38 72 64 73 65 74 73 75 66 76 67 77 71 78 74 79 68 80 69 81
REMARK SMILES IDX 72 82 70 83 49 84 50 85 58 86 51 87 52 88 56 89 59 90 53 91
REMARK SMILES IDX 54 92 57 93 55 94
REMARK H PARENT 15 6 9 11 3 16 5 19 5 20 12 23 20 28 79 47 47 58
REMARK Flexibility Score: inf
ROOT
ATOM      1  C   UNL A   1      32.023  30.508  26.890  1.00  0.00     0.023 C 
ENDROOT
BRANCH   1   2
ATOM      2  C   UNL A   1      31.447  29.758  25.696  1.00  0.00     0.116 C 
BRANCH   2   3
ATOM      3  N   UNL A   1      32.428  29.594  24.645  1.00  0.00    -0.354 N 
ATOM      4  C   UNL A   1      32.329  29.022  23.416  1.00  0.00     0.244 C 
ATOM      5  O   UNL A   1      33.287  29.188  22.653  1.00  0.00    -0.273 OA
ATOM      6  H   UNL A   1      33.318  29.958  24.856  1.00  0.00     0.163 HD
BRANCH   4   7
ATOM      7  C   UNL A   1      31.068  28.281  22.944  1.00  0.00     0.197 C 
BRANCH   7   8
ATOM      8  N   UNL A   1      30.362  28.978  21.863  1.00  0.00    -0.340 N 
ATOM      9  C   UNL A   1      29.483  30.016  21.919  1.00  0.00     0.243 C 
ATOM     10  O   UNL A   1      29.201  30.562  20.848  1.00  0.00    -0.273 OA
ATOM     11  H   UNL A   1      30.553  28.643  20.956  1.00  0.00     0.164 HD
BRANCH   9  12
ATOM     12  C   UNL A   1      28.904  30.545  23.245  1.00  0.00     0.170 C 
ATOM     13  C   UNL A   1      27.388  30.388  23.284  1.00  0.00     0.041 C 
BRANCH  12  14
ATOM     14  N   UNL A   1      29.472  31.857  23.568  1.00  0.00    -0.327 N 
ATOM     15  C   UNL A   1      29.082  33.065  23.093  1.00  0.00     0.312 C 
ATOM     16  H   UNL A   1      30.224  31.861  24.205  1.00  0.00     0.166 HD
ATOM     17  N   UNL A   1      29.903  34.070  23.479  1.00  0.00    -0.352 N 
ATOM     18  O   UNL A   1      28.145  33.282  22.342  1.00  0.00    -0.249 OA
ATOM     19  H   UNL A   1      30.655  33.885  24.086  1.00  0.00     0.161 HD
ATOM     20  H   UNL A   1      29.746  34.986  23.154  1.00  0.00     0.161 HD
ENDBRANCH  12  14
ENDBRANCH   9  12
ENDBRANCH   7   8
BRANCH   7  21
ATOM     21  C   UNL A   1      31.342  26.796  22.653  1.00  0.00     0.191 C 
BRANCH  21  22
ATOM     22  O   UNL A   1      32.723  26.440  22.675  1.00  0.00    -0.394 OA
ATOM     23  H   UNL A   1      33.031  26.395  23.594  1.00  0.00     0.210 HD
ENDBRANCH  21  22
ENDBRANCH   7  21
ENDBRANCH   4   7
ENDBRANCH   2   3
ENDBRANCH   1   2
BRANCH   1  24
ATOM     24  C   UNL A   1      31.742  32.008  26.883  1.00  0.00     0.023 C 
BRANCH  24  25
ATOM     25  C   UNL A   1      32.932  32.879  27.259  1.00  0.00     0.116 C 
BRANCH  25  26
ATOM     26  N   UNL A   1      32.546  34.230  27.638  1.00  0.00    -0.352 N 
ATOM     27  C   UNL A   1      33.026  35.007  28.664  1.00  0.00     0.251 C 
ATOM     28  H   UNL A   1      31.846  34.644  27.083  1.00  0.00     0.163 HD
ATOM     29  O   UNL A   1      32.487  36.071  28.949  1.00  0.00    -0.269 OA
BRANCH  27  30
ATOM     30  C   UNL A   1      34.181  34.525  29.445  1.00  0.00     0.039 A 
ATOM     31  C   UNL A   1      33.959  33.915  30.680  1.00  0.00     0.014 A 
ATOM     32  C   UNL A   1      35.475  34.633  28.928  1.00  0.00     0.014 A 
ATOM     33  C   UNL A   1      35.033  33.349  31.368  1.00  0.00     0.010 A 
ATOM     34  C   UNL A   1      36.525  33.987  29.567  1.00  0.00     0.010 A 
ATOM     35  C   UNL A   1      36.317  33.347  30.798  1.00  0.00    -0.014 A 
BRANCH  35  36
ATOM     36  C   UNL A   1      37.461  32.693  31.480  1.00  0.00     0.031 A 
ATOM     37  C   UNL A   1      38.173  31.548  30.816  1.00  0.00     0.074 A 
ATOM     38  C   UNL A   1      37.817  33.086  32.718  1.00  0.00     0.049 A 
ATOM     39  N   UNL A   1      39.153  30.806  31.268  1.00  0.00    -0.248 NA
ATOM     40  C   UNL A   1      37.700  31.163  29.477  1.00  0.00     0.031 C 
ATOM     41  C   UNL A   1      37.171  34.150  33.488  1.00  0.00     0.029 A 
ATOM     42  N   UNL A   1      38.807  32.629  33.553  1.00  0.00    -0.354 N 
ATOM     43  C   UNL A   1      39.397  29.862  30.279  1.00  0.00     0.074 A 
ATOM     44  C   UNL A   1      38.423  30.082  29.233  1.00  0.00     0.031 C 
ATOM     45  C   UNL A   1      37.801  34.286  34.666  1.00  0.00     0.029 A 
ATOM     46  C   UNL A   1      38.865  33.291  34.754  1.00  0.00     0.049 A 
ATOM     47  H   UNL A   1      39.418  31.895  33.311  1.00  0.00     0.167 HD
ATOM     48  C   UNL A   1      40.364  28.917  30.234  1.00  0.00     0.037 A 
ATOM     49  C   UNL A   1      39.681  33.111  35.809  1.00  0.00     0.037 A 
ATOM     50  C   UNL A   1      41.345  28.718  31.268  1.00  0.00     0.049 A 
ATOM     51  C   UNL A   1      40.740  32.042  35.741  1.00  0.00     0.074 A 
ATOM     52  C   UNL A   1      42.405  27.829  31.294  1.00  0.00     0.029 A 
ATOM     53  N   UNL A   1      41.378  29.415  32.468  1.00  0.00    -0.354 N 
ATOM     54  N   UNL A   1      41.015  31.207  34.768  1.00  0.00    -0.248 NA
ATOM     55  C   UNL A   1      41.609  31.897  36.917  1.00  0.00     0.031 C 
ATOM     56  C   UNL A   1      43.045  27.948  32.532  1.00  0.00     0.029 A 
ATOM     57  C   UNL A   1      42.425  28.956  33.253  1.00  0.00     0.049 A 
ATOM     58  H   UNL A   1      40.752  30.129  32.724  1.00  0.00     0.167 HD
ATOM     59  C   UNL A   1      42.105  30.463  35.198  1.00  0.00     0.074 A 
ATOM     60  C   UNL A   1      42.451  30.956  36.515  1.00  0.00     0.031 C 
ATOM     61  C   UNL A   1      42.762  29.464  34.559  1.00  0.00     0.037 A 
BRANCH  48  62
ATOM     62  C   UNL A   1      40.405  28.023  29.026  1.00  0.00     0.064 A 
ATOM     63  C   UNL A   1      39.693  26.815  28.975  1.00  0.00     0.173 A 
ATOM     64  C   UNL A   1      41.152  28.389  27.896  1.00  0.00     0.173 A 
ATOM     65  F   UNL A   1      38.971  26.410  30.032  1.00  0.00    -0.203 F 
ATOM     66  C   UNL A   1      39.758  25.989  27.855  1.00  0.00     0.198 A 
ATOM     67  C   UNL A   1      41.185  27.579  26.764  1.00  0.00     0.198 A 
ATOM     68  F   UNL A   1      41.848  29.536  27.887  1.00  0.00    -0.203 F 
ATOM     69  F   UNL A   1      39.119  24.810  27.856  1.00  0.00    -0.200 F 
ATOM     70  C   UNL A   1      40.497  26.376  26.749  1.00  0.00     0.200 A 
ATOM     71  F   UNL A   1      41.888  27.962  25.689  1.00  0.00    -0.200 F 
ATOM     72  F   UNL A   1      40.555  25.583  25.670  1.00  0.00    -0.200 F 
ENDBRANCH  48  62
BRANCH  49  73
ATOM     73  C   UNL A   1      39.551  33.980  37.008  1.00  0.00     0.064 A 
ATOM     74  C   UNL A   1      38.809  33.565  38.122  1.00  0.00     0.173 A 
ATOM     75  C   UNL A   1      40.158  35.244  37.065  1.00  0.00     0.173 A 
ATOM     76  F   UNL A   1      38.193  32.373  38.109  1.00  0.00    -0.203 F 
ATOM     77  C   UNL A   1      38.658  34.387  39.237  1.00  0.00     0.198 A 
ATOM     78  C   UNL A   1      40.033  36.053  38.193  1.00  0.00     0.198 A 
ATOM     79  F   UNL A   1      40.884  35.688  36.029  1.00  0.00    -0.203 F 
ATOM     80  F   UNL A   1      37.902  33.985  40.267  1.00  0.00    -0.200 F 
ATOM     81  C   UNL A   1      39.277  35.628  39.274  1.00  0.00     0.200 A 
ATOM     82  F   UNL A   1      40.646  37.244  38.231  1.00  0.00    -0.200 F 
ATOM     83  F   UNL A   1      39.136  36.417  40.348  1.00  0.00    -0.200 F 
ENDBRANCH  49  73
BRANCH  61  84
ATOM     84  C   UNL A   1      43.952  28.865  35.254  1.00  0.00     0.064 A 
ATOM     85  C   UNL A   1      45.251  29.359  35.059  1.00  0.00     0.173 A 
ATOM     86  C   UNL A   1      43.782  27.805  36.159  1.00  0.00     0.173 A 
ATOM     87  F   UNL A   1      45.469  30.361  34.195  1.00  0.00    -0.203 F 
ATOM     88  C   UNL A   1      46.338  28.795  35.722  1.00  0.00     0.198 A 
ATOM     89  C   UNL A   1      44.867  27.268  36.846  1.00  0.00     0.198 A 
ATOM     90  F   UNL A   1      42.561  27.300  36.389  1.00  0.00    -0.203 F 
ATOM     91  F   UNL A   1      47.576  29.247  35.479  1.00  0.00    -0.200 F 
ATOM     92  C   UNL A   1      46.144  27.757  36.621  1.00  0.00     0.200 A 
ATOM     93  F   UNL A   1      44.674  26.278  37.728  1.00  0.00    -0.200 F 
ATOM     94  F   UNL A   1      47.191  27.222  37.265  1.00  0.00    -0.200 F 
ENDBRANCH  61  84
ENDBRANCH  35  36
ENDBRANCH  27  30
ENDBRANCH  25  26
ENDBRANCH  24  25
ENDBRANCH   1  24
TORSDOF 16
ENDMDL
MODEL 3
REMARK VINA RESULT:     -11.7      0.787      7.606
REMARK SMILES C[C@H](NC(N)=O)C(=O)N[C@@H](CO)C(=O)NCCCCNC(=O)c1ccc(-c2c3nc(c(-c4c(F)c(F)c(F)c(F)c4F)c4ccc([nH]4)c(-c4c(F)c(F)c(F)c(F)c4F)c4nc(c(-c5c(F)c(F)c(F)c(F)c5F)c5ccc2[nH]5)C=C4)C=C3)cc1
REMARK SMILES IDX 17 1 16 2 15 3 13 4 14 5 10 7 9 8 7 9 8 10 2 12 1 13 3 14
REMARK SMILES IDX 4 15 5 17 6 18 11 21 12 22 18 24 19 25 20 26 21 27 22 29
REMARK SMILES IDX 23 30 24 31 85 32 25 33 84 34 26 35 27 36 28 37 78 38 29 39
REMARK SMILES IDX 83 40 77 41 79 42 30 43 82 44 76 45 75 46 31 48 63 49 43 50
REMARK SMILES IDX 62 51 44 52 47 53 61 54 80 55 45 56 46 57 60 59 81 60 48 61
REMARK SMILES IDX 32 62 33 63 41 64 34 65 35 66 39 67 42 68 36 69 37 70 40 71
REMARK SMILES IDX 38 72 64 73 65 74 73 75 66 76 67 77 71 78 74 79 68 80 69 81
REMARK SMILES IDX 72 82 70 83 49 84 50 85 58 86 51 87 52 88 56 89 59 90 53 91
REMARK SMILES IDX 54 92 57 93 55 94
REMARK H PARENT 15 6 9 11 3 16 5 19 5 20 12 23 20 28 79 47 47 58
REMARK Flexibility Score: inf
ROOT
ATOM      1  C   UNL A   1      31.928  30.525  26.911  1.00  0.00     0.023 C 
ENDROOT
BRANCH   1   2
ATOM      2  C   UNL A   1      31.404  29.769  25.698  1.00  0.00     0.116 C 
BRANCH   2   3
ATOM      3  N   UNL A   1      32.434  29.587  24.696  1.00  0.00    -0.354 N 
ATOM      4  C   UNL A   1      32.405  28.954  23.494  1.00  0.00     0.244 C 
ATOM      5  O   UNL A   1      33.389  29.115  22.764  1.00  0.00    -0.273 OA
ATOM      6  H   UNL A   1      33.303  29.989  24.926  1.00  0.00     0.163 HD
BRANCH   4   7
ATOM      7  C   UNL A   1      31.188  28.152  23.007  1.00  0.00     0.197 C 
BRANCH   7   8
ATOM      8  N   UNL A   1      30.464  28.810  21.915  1.00  0.00    -0.340 N 
ATOM      9  C   UNL A   1      29.544  29.813  21.956  1.00  0.00     0.243 C 
ATOM     10  O   UNL A   1      29.248  30.338  20.877  1.00  0.00    -0.273 OA
ATOM     11  H   UNL A   1      30.675  28.475  21.013  1.00  0.00     0.164 HD
BRANCH   9  12
ATOM     12  C   UNL A   1      28.933  30.330  23.272  1.00  0.00     0.170 C 
ATOM     13  C   UNL A   1      27.423  30.122  23.296  1.00  0.00     0.041 C 
BRANCH  12  14
ATOM     14  N   UNL A   1      29.454  31.662  23.593  1.00  0.00    -0.327 N 
ATOM     15  C   UNL A   1      29.018  32.854  23.120  1.00  0.00     0.312 C 
ATOM     16  H   UNL A   1      30.207  31.694  24.227  1.00  0.00     0.166 HD
ATOM     17  N   UNL A   1      29.802  33.889  23.503  1.00  0.00    -0.352 N 
ATOM     18  O   UNL A   1      28.071  33.036  22.372  1.00  0.00    -0.249 OA
ATOM     19  H   UNL A   1      30.563  33.732  24.107  1.00  0.00     0.161 HD
ATOM     20  H   UNL A   1      29.611  34.798  23.178  1.00  0.00     0.161 HD
ENDBRANCH  12  14
ENDBRANCH   9  12
ENDBRANCH   7   8
BRANCH   7  21
ATOM     21  C   UNL A   1      31.539  26.681  22.724  1.00  0.00     0.191 C 
BRANCH  21  22
ATOM     22  O   UNL A   1      32.690  26.209  23.422  1.00  0.00    -0.394 OA
ATOM     23  H   UNL A   1      32.758  25.247  23.319  1.00  0.00     0.210 HD
ENDBRANCH  21  22
ENDBRANCH   7  21
ENDBRANCH   4   7
ENDBRANCH   2   3
ENDBRANCH   1   2
BRANCH   1  24
ATOM     24  C   UNL A   1      31.658  32.027  26.878  1.00  0.00     0.023 C 
BRANCH  24  25
ATOM     25  C   UNL A   1      32.885  32.898  27.112  1.00  0.00     0.116 C 
BRANCH  25  26
ATOM     26  N   UNL A   1      32.550  34.217  27.629  1.00  0.00    -0.352 N 
ATOM     27  C   UNL A   1      33.070  34.873  28.718  1.00  0.00     0.251 C 
ATOM     28  H   UNL A   1      31.858  34.706  27.129  1.00  0.00     0.163 HD
ATOM     29  O   UNL A   1      32.572  35.920  29.114  1.00  0.00    -0.269 OA
BRANCH  27  30
ATOM     30  C   UNL A   1      34.219  34.278  29.427  1.00  0.00     0.039 A 
ATOM     31  C   UNL A   1      33.983  33.433  30.513  1.00  0.00     0.014 A 
ATOM     32  C   UNL A   1      35.522  34.519  28.984  1.00  0.00     0.014 A 
ATOM     33  C   UNL A   1      35.055  32.773  31.112  1.00  0.00     0.010 A 
ATOM     34  C   UNL A   1      36.575  33.789  29.521  1.00  0.00     0.010 A 
ATOM     35  C   UNL A   1      36.354  32.916  30.596  1.00  0.00    -0.014 A 
BRANCH  35  36
ATOM     36  C   UNL A   1      37.500  32.172  31.176  1.00  0.00     0.031 A 
ATOM     37  C   UNL A   1      37.989  32.510  32.557  1.00  0.00     0.074 A 
ATOM     38  C   UNL A   1      38.137  31.241  30.441  1.00  0.00     0.049 A 
ATOM     39  N   UNL A   1      39.007  32.021  33.219  1.00  0.00    -0.248 NA
ATOM     40  C   UNL A   1      37.254  33.560  33.279  1.00  0.00     0.031 C 
ATOM     41  C   UNL A   1      37.790  30.861  29.070  1.00  0.00     0.029 A 
ATOM     42  N   UNL A   1      39.219  30.450  30.739  1.00  0.00    -0.354 N 
ATOM     43  C   UNL A   1      39.042  32.716  34.421  1.00  0.00     0.074 A 
ATOM     44  C   UNL A   1      37.987  33.703  34.372  1.00  0.00     0.031 C 
ATOM     45  C   UNL A   1      38.620  29.889  28.660  1.00  0.00     0.029 A 
ATOM     46  C   UNL A   1      39.584  29.607  29.718  1.00  0.00     0.049 A 
ATOM     47  H   UNL A   1      39.687  30.483  31.604  1.00  0.00     0.167 HD
ATOM     48  C   UNL A   1      39.863  32.528  35.481  1.00  0.00     0.037 A 
ATOM     49  C   UNL A   1      40.589  28.714  29.644  1.00  0.00     0.037 A 
ATOM     50  C   UNL A   1      40.897  31.529  35.532  1.00  0.00     0.049 A 
ATOM     51  C   UNL A   1      41.497  28.534  30.832  1.00  0.00     0.074 A 
ATOM     52  C   UNL A   1      41.743  31.215  36.581  1.00  0.00     0.029 A 
ATOM     53  N   UNL A   1      41.233  30.687  34.481  1.00  0.00    -0.354 N 
ATOM     54  N   UNL A   1      41.472  29.140  31.994  1.00  0.00    -0.248 NA
ATOM     55  C   UNL A   1      42.569  27.538  30.698  1.00  0.00     0.031 C 
ATOM     56  C   UNL A   1      42.629  30.223  36.146  1.00  0.00     0.029 A 
ATOM     57  C   UNL A   1      42.292  29.872  34.848  1.00  0.00     0.049 A 
ATOM     58  H   UNL A   1      40.784  30.670  33.605  1.00  0.00     0.167 HD
ATOM     59  C   UNL A   1      42.500  28.578  32.741  1.00  0.00     0.074 A 
ATOM     60  C   UNL A   1      43.118  27.571  31.904  1.00  0.00     0.031 C 
ATOM     61  C   UNL A   1      42.892  28.867  34.006  1.00  0.00     0.037 A 
BRANCH  48  62
ATOM     62  C   UNL A   1      39.675  33.427  36.671  1.00  0.00     0.064 A 
ATOM     63  C   UNL A   1      40.355  34.648  36.791  1.00  0.00     0.173 A 
ATOM     64  C   UNL A   1      38.786  33.070  37.697  1.00  0.00     0.173 A 
ATOM     65  F   UNL A   1      41.225  35.033  35.845  1.00  0.00    -0.203 F 
ATOM     66  C   UNL A   1      40.184  35.460  37.911  1.00  0.00     0.198 A 
ATOM     67  C   UNL A   1      38.590  33.901  38.797  1.00  0.00     0.198 A 
ATOM     68  F   UNL A   1      38.105  31.917  37.632  1.00  0.00    -0.203 F 
ATOM     69  F   UNL A   1      40.893  36.590  38.031  1.00  0.00    -0.200 F 
ATOM     70  C   UNL A   1      39.296  35.089  38.908  1.00  0.00     0.200 A 
ATOM     71  F   UNL A   1      37.719  33.549  39.753  1.00  0.00    -0.200 F 
ATOM     72  F   UNL A   1      39.128  35.872  39.982  1.00  0.00    -0.200 F 
ENDBRANCH  48  62
BRANCH  49  73
ATOM     73  C   UNL A   1      40.771  27.899  28.414  1.00  0.00     0.064 A 
ATOM     74  C   UNL A   1      40.166  26.641  28.288  1.00  0.00     0.173 A 
ATOM     75  C   UNL A   1      41.556  28.354  27.344  1.00  0.00     0.173 A 
ATOM     76  F   UNL A   1      39.421  26.153  29.292  1.00  0.00    -0.203 F 
ATOM     77  C   UNL A   1      40.356  25.859  27.151  1.00  0.00     0.198 A 
ATOM     78  C   UNL A   1      41.721  27.584  26.194  1.00  0.00     0.198 A 
ATOM     79  F   UNL A   1      42.154  29.552  27.411  1.00  0.00    -0.203 F 
ATOM     80  F   UNL A   1      39.806  24.639  27.078  1.00  0.00    -0.200 F 
ATOM     81  C   UNL A   1      41.129  26.335  26.102  1.00  0.00     0.200 A 
ATOM     82  F   UNL A   1      42.455  28.055  25.176  1.00  0.00    -0.200 F 
ATOM     83  F   UNL A   1      41.309  25.584  25.006  1.00  0.00    -0.200 F 
ENDBRANCH  49  73
BRANCH  61  84
ATOM     84  C   UNL A   1      44.016  28.054  34.583  1.00  0.00     0.064 A 
ATOM     85  C   UNL A   1      45.350  28.487  34.525  1.00  0.00     0.173 A 
ATOM     86  C   UNL A   1      43.748  26.843  35.240  1.00  0.00     0.173 A 
ATOM     87  F   UNL A   1      45.662  29.630  33.897  1.00  0.00    -0.203 F 
ATOM     88  C   UNL A   1      46.375  27.722  35.076  1.00  0.00     0.198 A 
ATOM     89  C   UNL A   1      44.771  26.099  35.821  1.00  0.00     0.198 A 
ATOM     90  F   UNL A   1      42.489  26.387  35.332  1.00  0.00    -0.203 F 
ATOM     91  F   UNL A   1      47.647  28.127  34.961  1.00  0.00    -0.200 F 
ATOM     92  C   UNL A   1      46.083  26.534  35.731  1.00  0.00     0.200 A 
ATOM     93  F   UNL A   1      44.484  24.962  36.469  1.00  0.00    -0.200 F 
ATOM     94  F   UNL A   1      47.071  25.805  36.270  1.00  0.00    -0.200 F 
ENDBRANCH  61  84
ENDBRANCH  35  36
ENDBRANCH  27  30
ENDBRANCH  25  26
ENDBRANCH  24  25
ENDBRANCH   1  24
TORSDOF 16
ENDMDL
