MODEL 1
REMARK VINA RESULT:     -12.9      0.000      0.000
REMARK SMILES C[C@H](C(=O)NCCCCNC(=O)c1ccc(-c2c3nc(c(-c4c(F)c(F)c(F)c(F)c4F)c4ccc([nH]4)c(-c4c(F)c(F)c(F)c(F)c4F)c4nc(c(-c5c(F)c(F)c(F)c(F)c5F)c5ccc2[nH]5)C=C4)C=C3)cc1)N1C(=O)/C(=C/c2ccccc2F)SC1=S
REMARK SMILES IDX 7 1 6 2 5 3 3 4 4 5 2 7 1 8 76 9 77 10 89 11 78 12 79 13
REMARK SMILES IDX 88 14 90 15 80 16 81 17 82 18 86 19 83 20 85 21 87 22 84 23
REMARK SMILES IDX 8 24 9 25 10 26 11 27 12 29 13 30 14 31 75 32 15 33 74 34
REMARK SMILES IDX 16 35 17 36 18 37 68 38 19 39 73 40 67 41 69 42 20 43 72 44
REMARK SMILES IDX 66 45 65 46 21 48 53 49 33 50 52 51 34 52 37 53 51 54 70 55
REMARK SMILES IDX 35 56 36 57 50 59 71 60 38 61 22 62 23 63 31 64 24 65 25 66
REMARK SMILES IDX 29 67 32 68 26 69 27 70 30 71 28 72 54 73 55 74 63 75 56 76
REMARK SMILES IDX 57 77 61 78 64 79 58 80 59 81 62 82 60 83 39 84 40 85 48 86
REMARK SMILES IDX 41 87 42 88 46 89 49 90 43 91 44 92 47 93 45 94
REMARK H PARENT 5 6 10 28 69 47 37 58
REMARK Flexibility Score: inf
ROOT
ATOM      1  C   UNL A   1      32.151  29.894  26.880  1.00  0.00     0.023 C 
ENDROOT
BRANCH   1   2
ATOM      2  C   UNL A   1      33.403  29.422  26.149  1.00  0.00     0.116 C 
BRANCH   2   3
ATOM      3  N   UNL A   1      33.305  29.382  24.705  1.00  0.00    -0.354 N 
ATOM      4  C   UNL A   1      32.433  28.701  23.898  1.00  0.00     0.242 C 
ATOM      5  O   UNL A   1      32.415  29.061  22.712  1.00  0.00    -0.273 OA
ATOM      6  H   UNL A   1      33.970  29.930  24.228  1.00  0.00     0.163 HD
BRANCH   4   7
ATOM      7  C   UNL A   1      31.724  27.368  24.304  1.00  0.00     0.178 C 
ATOM      8  C   UNL A   1      30.378  27.481  23.564  1.00  0.00     0.042 C 
BRANCH   7   9
ATOM      9  N   UNL A   1      32.473  26.110  24.074  1.00  0.00    -0.281 N 
ATOM     10  C   UNL A   1      32.586  25.239  25.148  1.00  0.00     0.266 C 
ATOM     11  C   UNL A   1      32.779  25.500  22.871  1.00  0.00     0.149 C 
ATOM     12  O   UNL A   1      31.992  25.304  26.210  1.00  0.00    -0.268 OA
ATOM     13  C   UNL A   1      33.631  24.226  24.850  1.00  0.00     0.081 C 
ATOM     14  S   UNL A   1      33.791  24.078  23.158  1.00  0.00    -0.054 SA
ATOM     15  S   UNL A   1      32.321  25.872  21.312  1.00  0.00    -0.052 S 
ATOM     16  C   UNL A   1      34.385  23.705  25.827  1.00  0.00     0.032 C 
BRANCH  16  17
ATOM     17  C   UNL A   1      35.595  22.888  25.661  1.00  0.00     0.012 A 
ATOM     18  C   UNL A   1      36.845  23.482  25.860  1.00  0.00     0.011 A 
ATOM     19  C   UNL A   1      35.551  21.555  25.227  1.00  0.00     0.130 A 
ATOM     20  C   UNL A   1      38.018  22.741  25.679  1.00  0.00     0.001 A 
ATOM     21  C   UNL A   1      36.715  20.808  25.062  1.00  0.00     0.040 A 
ATOM     22  F   UNL A   1      34.377  20.976  24.926  1.00  0.00    -0.206 F 
ATOM     23  C   UNL A   1      37.953  21.402  25.294  1.00  0.00     0.003 A 
ENDBRANCH  16  17
ENDBRANCH   7   9
ENDBRANCH   4   7
ENDBRANCH   2   3
ENDBRANCH   1   2
BRANCH   1  24
ATOM     24  C   UNL A   1      31.870  31.396  26.849  1.00  0.00     0.023 C 
BRANCH  24  25
ATOM     25  C   UNL A   1      32.964  32.308  27.398  1.00  0.00     0.116 C 
BRANCH  25  26
ATOM     26  N   UNL A   1      32.528  33.677  27.635  1.00  0.00    -0.352 N 
ATOM     27  C   UNL A   1      33.039  34.643  28.475  1.00  0.00     0.251 C 
ATOM     28  H   UNL A   1      31.743  33.958  27.110  1.00  0.00     0.163 HD
ATOM     29  O   UNL A   1      32.475  35.727  28.584  1.00  0.00    -0.269 OA
BRANCH  27  30
ATOM     30  C   UNL A   1      34.240  34.359  29.290  1.00  0.00     0.039 A 
ATOM     31  C   UNL A   1      34.079  33.820  30.570  1.00  0.00     0.014 A 
ATOM     32  C   UNL A   1      35.520  34.584  28.782  1.00  0.00     0.014 A 
ATOM     33  C   UNL A   1      35.198  33.392  31.290  1.00  0.00     0.010 A 
ATOM     34  C   UNL A   1      36.625  34.082  29.461  1.00  0.00     0.010 A 
ATOM     35  C   UNL A   1      36.475  33.459  30.712  1.00  0.00    -0.014 A 
BRANCH  35  36
ATOM     36  C   UNL A   1      37.673  32.863  31.361  1.00  0.00     0.031 A 
ATOM     37  C   UNL A   1      38.355  31.684  30.730  1.00  0.00     0.074 A 
ATOM     38  C   UNL A   1      38.057  33.287  32.580  1.00  0.00     0.049 A 
ATOM     39  N   UNL A   1      39.266  30.885  31.228  1.00  0.00    -0.248 NA
ATOM     40  C   UNL A   1      37.923  31.332  29.369  1.00  0.00     0.031 C 
ATOM     41  C   UNL A   1      37.449  34.390  33.325  1.00  0.00     0.029 A 
ATOM     42  N   UNL A   1      39.030  32.812  33.427  1.00  0.00    -0.354 N 
ATOM     43  C   UNL A   1      39.479  29.912  30.262  1.00  0.00     0.074 A 
ATOM     44  C   UNL A   1      38.580  30.200  29.165  1.00  0.00     0.031 C 
ATOM     45  C   UNL A   1      38.059  34.507  34.516  1.00  0.00     0.029 A 
ATOM     46  C   UNL A   1      39.067  33.458  34.639  1.00  0.00     0.049 A 
ATOM     47  H   UNL A   1      39.642  32.079  33.189  1.00  0.00     0.167 HD
ATOM     48  C   UNL A   1      40.355  28.877  30.283  1.00  0.00     0.037 A 
ATOM     49  C   UNL A   1      39.809  33.219  35.737  1.00  0.00     0.037 A 
ATOM     50  C   UNL A   1      41.276  28.620  31.358  1.00  0.00     0.049 A 
ATOM     51  C   UNL A   1      40.797  32.085  35.730  1.00  0.00     0.074 A 
ATOM     52  C   UNL A   1      42.260  27.649  31.437  1.00  0.00     0.029 A 
ATOM     53  N   UNL A   1      41.328  29.340  32.543  1.00  0.00    -0.354 N 
ATOM     54  N   UNL A   1      41.034  31.204  34.789  1.00  0.00    -0.248 NA
ATOM     55  C   UNL A   1      41.621  31.912  36.935  1.00  0.00     0.031 C 
ATOM     56  C   UNL A   1      42.879  27.756  32.688  1.00  0.00     0.029 A 
ATOM     57  C   UNL A   1      42.314  28.824  33.367  1.00  0.00     0.049 A 
ATOM     58  H   UNL A   1      40.749  30.104  32.765  1.00  0.00     0.167 HD
ATOM     59  C   UNL A   1      42.049  30.391  35.272  1.00  0.00     0.074 A 
ATOM     60  C   UNL A   1      42.387  30.885  36.591  1.00  0.00     0.031 C 
ATOM     61  C   UNL A   1      42.649  29.333  34.673  1.00  0.00     0.037 A 
BRANCH  48  62
ATOM     62  C   UNL A   1      40.343  27.942  29.109  1.00  0.00     0.064 A 
ATOM     63  C   UNL A   1      41.074  28.210  27.941  1.00  0.00     0.173 A 
ATOM     64  C   UNL A   1      39.588  26.760  29.153  1.00  0.00     0.173 A 
ATOM     65  F   UNL A   1      41.802  29.333  27.844  1.00  0.00    -0.203 F 
ATOM     66  C   UNL A   1      41.012  27.355  26.844  1.00  0.00     0.198 A 
ATOM     67  C   UNL A   1      39.556  25.889  28.065  1.00  0.00     0.198 A 
ATOM     68  F   UNL A   1      38.879  26.449  30.247  1.00  0.00    -0.203 F 
ATOM     69  F   UNL A   1      41.664  27.669  25.716  1.00  0.00    -0.200 F 
ATOM     70  C   UNL A   1      40.256  26.194  26.909  1.00  0.00     0.200 A 
ATOM     71  F   UNL A   1      38.837  24.760  28.135  1.00  0.00    -0.200 F 
ATOM     72  F   UNL A   1      40.195  25.374  25.850  1.00  0.00    -0.200 F 
ENDBRANCH  48  62
BRANCH  49  73
ATOM     73  C   UNL A   1      39.650  34.089  36.931  1.00  0.00     0.064 A 
ATOM     74  C   UNL A   1      38.848  33.687  38.007  1.00  0.00     0.173 A 
ATOM     75  C   UNL A   1      40.321  35.315  37.036  1.00  0.00     0.173 A 
ATOM     76  F   UNL A   1      38.172  32.531  37.944  1.00  0.00    -0.203 F 
ATOM     77  C   UNL A   1      38.720  34.483  39.145  1.00  0.00     0.198 A 
ATOM     78  C   UNL A   1      40.211  36.099  38.183  1.00  0.00     0.198 A 
ATOM     79  F   UNL A   1      41.105  35.740  36.034  1.00  0.00    -0.203 F 
ATOM     80  F   UNL A   1      37.928  34.088  40.149  1.00  0.00    -0.200 F 
ATOM     81  C   UNL A   1      39.409  35.684  39.234  1.00  0.00     0.200 A 
ATOM     82  F   UNL A   1      40.890  37.251  38.272  1.00  0.00    -0.200 F 
ATOM     83  F   UNL A   1      39.297  36.441  40.334  1.00  0.00    -0.200 F 
ENDBRANCH  49  73
BRANCH  61  84
ATOM     84  C   UNL A   1      43.764  28.658  35.415  1.00  0.00     0.064 A 
ATOM     85  C   UNL A   1      45.099  29.058  35.263  1.00  0.00     0.173 A 
ATOM     86  C   UNL A   1      43.483  27.641  36.340  1.00  0.00     0.173 A 
ATOM     87  F   UNL A   1      45.421  30.015  34.379  1.00  0.00    -0.203 F 
ATOM     88  C   UNL A   1      46.114  28.457  36.003  1.00  0.00     0.198 A 
ATOM     89  C   UNL A   1      44.496  27.060  37.097  1.00  0.00     0.198 A 
ATOM     90  F   UNL A   1      42.220  27.226  36.524  1.00  0.00    -0.203 F 
ATOM     91  F   UNL A   1      47.386  28.833  35.822  1.00  0.00    -0.200 F 
ATOM     92  C   UNL A   1      45.810  27.466  36.927  1.00  0.00     0.200 A 
ATOM     93  F   UNL A   1      44.199  26.111  37.996  1.00  0.00    -0.200 F 
ATOM     94  F   UNL A   1      46.786  26.899  37.649  1.00  0.00    -0.200 F 
ENDBRANCH  61  84
ENDBRANCH  35  36
ENDBRANCH  27  30
ENDBRANCH  25  26
ENDBRANCH  24  25
ENDBRANCH   1  24
TORSDOF 13
ENDMDL
MODEL 2
REMARK VINA RESULT:     -12.9      0.165      1.592
REMARK SMILES C[C@H](C(=O)NCCCCNC(=O)c1ccc(-c2c3nc(c(-c4c(F)c(F)c(F)c(F)c4F)c4ccc([nH]4)c(-c4c(F)c(F)c(F)c(F)c4F)c4nc(c(-c5c(F)c(F)c(F)c(F)c5F)c5ccc2[nH]5)C=C4)C=C3)cc1)N1C(=O)/C(=C/c2ccccc2F)SC1=S
REMARK SMILES IDX 7 1 6 2 5 3 3 4 4 5 2 7 1 8 76 9 77 10 89 11 78 12 79 13
REMARK SMILES IDX 88 14 90 15 80 16 81 17 82 18 86 19 83 20 85 21 87 22 84 23
REMARK SMILES IDX 8 24 9 25 10 26 11 27 12 29 13 30 14 31 75 32 15 33 74 34
REMARK SMILES IDX 16 35 17 36 18 37 68 38 19 39 73 40 67 41 69 42 20 43 72 44
REMARK SMILES IDX 66 45 65 46 21 48 53 49 33 50 52 51 34 52 37 53 51 54 70 55
REMARK SMILES IDX 35 56 36 57 50 59 71 60 38 61 22 62 23 63 31 64 24 65 25 66
REMARK SMILES IDX 29 67 32 68 26 69 27 70 30 71 28 72 54 73 55 74 63 75 56 76
REMARK SMILES IDX 57 77 61 78 64 79 58 80 59 81 62 82 60 83 39 84 40 85 48 86
REMARK SMILES IDX 41 87 42 88 46 89 49 90 43 91 44 92 47 93 45 94
REMARK H PARENT 5 6 10 28 69 47 37 58
REMARK Flexibility Score: inf
ROOT
ATOM      1  C   UNL A   1      32.219  29.820  26.907  1.00  0.00     0.023 C 
ENDROOT
BRANCH   1   2
ATOM      2  C   UNL A   1      33.407  29.365  26.066  1.00  0.00     0.116 C 
BRANCH   2   3
ATOM      3  N   UNL A   1      33.200  29.379  24.633  1.00  0.00    -0.354 N 
ATOM      4  C   UNL A   1      32.267  28.729  23.871  1.00  0.00     0.242 C 
ATOM      5  O   UNL A   1      32.162  29.132  22.704  1.00  0.00    -0.273 OA
ATOM      6  H   UNL A   1      33.830  29.943  24.128  1.00  0.00     0.163 HD
BRANCH   4   7
ATOM      7  C   UNL A   1      31.586  27.382  24.281  1.00  0.00     0.178 C 
ATOM      8  C   UNL A   1      30.236  27.468  23.543  1.00  0.00     0.042 C 
BRANCH   7   9
ATOM      9  N   UNL A   1      32.360  26.140  24.051  1.00  0.00    -0.281 N 
ATOM     10  C   UNL A   1      32.475  25.263  25.121  1.00  0.00     0.266 C 
ATOM     11  C   UNL A   1      32.690  25.543  22.847  1.00  0.00     0.149 C 
ATOM     12  O   UNL A   1      31.868  25.311  26.176  1.00  0.00    -0.268 OA
ATOM     13  C   UNL A   1      33.541  24.271  24.828  1.00  0.00     0.081 C 
ATOM     14  S   UNL A   1      33.723  24.137  23.138  1.00  0.00    -0.054 SA
ATOM     15  S   UNL A   1      32.243  25.917  21.286  1.00  0.00    -0.052 S 
ATOM     16  C   UNL A   1      34.293  23.757  25.811  1.00  0.00     0.032 C 
BRANCH  16  17
ATOM     17  C   UNL A   1      35.518  22.962  25.654  1.00  0.00     0.012 A 
ATOM     18  C   UNL A   1      36.758  23.593  25.803  1.00  0.00     0.011 A 
ATOM     19  C   UNL A   1      35.499  21.611  25.275  1.00  0.00     0.130 A 
ATOM     20  C   UNL A   1      37.944  22.872  25.629  1.00  0.00     0.001 A 
ATOM     21  C   UNL A   1      36.676  20.885  25.116  1.00  0.00     0.040 A 
ATOM     22  F   UNL A   1      34.333  20.994  25.021  1.00  0.00    -0.206 F 
ATOM     23  C   UNL A   1      37.904  21.517  25.299  1.00  0.00     0.003 A 
ENDBRANCH  16  17
ENDBRANCH   7   9
ENDBRANCH   4   7
ENDBRANCH   2   3
ENDBRANCH   1   2
BRANCH   1  24
ATOM     24  C   UNL A   1      31.902  31.316  26.885  1.00  0.00     0.023 C 
BRANCH  24  25
ATOM     25  C   UNL A   1      33.014  32.257  27.344  1.00  0.00     0.116 C 
BRANCH  25  26
ATOM     26  N   UNL A   1      32.567  33.619  27.600  1.00  0.00    -0.352 N 
ATOM     27  C   UNL A   1      33.062  34.572  28.462  1.00  0.00     0.251 C 
ATOM     28  H   UNL A   1      31.786  33.904  27.072  1.00  0.00     0.163 HD
ATOM     29  O   UNL A   1      32.491  35.651  28.585  1.00  0.00    -0.269 OA
BRANCH  27  30
ATOM     30  C   UNL A   1      34.256  34.281  29.286  1.00  0.00     0.039 A 
ATOM     31  C   UNL A   1      34.089  33.654  30.524  1.00  0.00     0.014 A 
ATOM     32  C   UNL A   1      35.537  34.587  28.824  1.00  0.00     0.014 A 
ATOM     33  C   UNL A   1      35.208  33.222  31.241  1.00  0.00     0.010 A 
ATOM     34  C   UNL A   1      36.646  34.083  29.495  1.00  0.00     0.010 A 
ATOM     35  C   UNL A   1      36.494  33.375  30.700  1.00  0.00    -0.014 A 
BRANCH  35  36
ATOM     36  C   UNL A   1      37.701  32.783  31.337  1.00  0.00     0.031 A 
ATOM     37  C   UNL A   1      38.385  31.611  30.695  1.00  0.00     0.074 A 
ATOM     38  C   UNL A   1      38.090  33.204  32.556  1.00  0.00     0.049 A 
ATOM     39  N   UNL A   1      39.304  30.816  31.183  1.00  0.00    -0.248 NA
ATOM     40  C   UNL A   1      37.945  31.263  29.336  1.00  0.00     0.031 C 
ATOM     41  C   UNL A   1      37.481  34.300  33.310  1.00  0.00     0.029 A 
ATOM     42  N   UNL A   1      39.072  32.731  33.393  1.00  0.00    -0.354 N 
ATOM     43  C   UNL A   1      39.517  29.849  30.210  1.00  0.00     0.074 A 
ATOM     44  C   UNL A   1      38.607  30.137  29.121  1.00  0.00     0.031 C 
ATOM     45  C   UNL A   1      38.099  34.415  34.497  1.00  0.00     0.029 A 
ATOM     46  C   UNL A   1      39.114  33.372  34.607  1.00  0.00     0.049 A 
ATOM     47  H   UNL A   1      39.687  32.003  33.146  1.00  0.00     0.167 HD
ATOM     48  C   UNL A   1      40.399  28.820  30.220  1.00  0.00     0.037 A 
ATOM     49  C   UNL A   1      39.866  33.132  35.699  1.00  0.00     0.037 A 
ATOM     50  C   UNL A   1      41.330  28.563  31.287  1.00  0.00     0.049 A 
ATOM     51  C   UNL A   1      40.860  32.004  35.679  1.00  0.00     0.074 A 
ATOM     52  C   UNL A   1      42.320  27.598  31.355  1.00  0.00     0.029 A 
ATOM     53  N   UNL A   1      41.385  29.277  32.475  1.00  0.00    -0.354 N 
ATOM     54  N   UNL A   1      41.096  31.129  34.733  1.00  0.00    -0.248 NA
ATOM     55  C   UNL A   1      41.694  31.830  36.877  1.00  0.00     0.031 C 
ATOM     56  C   UNL A   1      42.947  27.703  32.602  1.00  0.00     0.029 A 
ATOM     57  C   UNL A   1      42.381  28.764  33.290  1.00  0.00     0.049 A 
ATOM     58  H   UNL A   1      40.803  30.037  32.705  1.00  0.00     0.167 HD
ATOM     59  C   UNL A   1      42.120  30.320  35.204  1.00  0.00     0.074 A 
ATOM     60  C   UNL A   1      42.465  30.810  36.523  1.00  0.00     0.031 C 
ATOM     61  C   UNL A   1      42.722  29.269  34.596  1.00  0.00     0.037 A 
BRANCH  48  62
ATOM     62  C   UNL A   1      40.384  27.890  29.042  1.00  0.00     0.064 A 
ATOM     63  C   UNL A   1      41.117  28.161  27.876  1.00  0.00     0.173 A 
ATOM     64  C   UNL A   1      39.625  26.711  29.079  1.00  0.00     0.173 A 
ATOM     65  F   UNL A   1      41.851  29.281  27.784  1.00  0.00    -0.203 F 
ATOM     66  C   UNL A   1      41.053  27.311  26.775  1.00  0.00     0.198 A 
ATOM     67  C   UNL A   1      39.590  25.845  27.988  1.00  0.00     0.198 A 
ATOM     68  F   UNL A   1      38.913  26.398  30.172  1.00  0.00    -0.203 F 
ATOM     69  F   UNL A   1      41.707  27.627  25.649  1.00  0.00    -0.200 F 
ATOM     70  C   UNL A   1      40.293  26.152  26.834  1.00  0.00     0.200 A 
ATOM     71  F   UNL A   1      38.866  24.719  28.051  1.00  0.00    -0.200 F 
ATOM     72  F   UNL A   1      40.229  25.337  25.771  1.00  0.00    -0.200 F 
ENDBRANCH  48  62
BRANCH  49  73
ATOM     73  C   UNL A   1      39.710  33.995  36.898  1.00  0.00     0.064 A 
ATOM     74  C   UNL A   1      40.333  35.248  36.964  1.00  0.00     0.173 A 
ATOM     75  C   UNL A   1      38.908  33.605  37.980  1.00  0.00     0.173 A 
ATOM     76  F   UNL A   1      41.125  35.655  35.961  1.00  0.00    -0.203 F 
ATOM     77  C   UNL A   1      40.164  36.078  38.071  1.00  0.00     0.198 A 
ATOM     78  C   UNL A   1      38.720  34.445  39.076  1.00  0.00     0.198 A 
ATOM     79  F   UNL A   1      38.284  32.418  37.960  1.00  0.00    -0.203 F 
ATOM     80  F   UNL A   1      40.792  37.260  38.121  1.00  0.00    -0.200 F 
ATOM     81  C   UNL A   1      39.351  35.679  39.121  1.00  0.00     0.200 A 
ATOM     82  F   UNL A   1      37.922  34.063  40.081  1.00  0.00    -0.200 F 
ATOM     83  F   UNL A   1      39.177  36.484  40.178  1.00  0.00    -0.200 F 
ENDBRANCH  49  73
BRANCH  61  84
ATOM     84  C   UNL A   1      43.847  28.597  35.326  1.00  0.00     0.064 A 
ATOM     85  C   UNL A   1      43.624  27.519  36.194  1.00  0.00     0.173 A 
ATOM     86  C   UNL A   1      45.173  28.996  35.099  1.00  0.00     0.173 A 
ATOM     87  F   UNL A   1      42.372  27.111  36.456  1.00  0.00    -0.203 F 
ATOM     88  C   UNL A   1      44.687  26.871  36.817  1.00  0.00     0.198 A 
ATOM     89  C   UNL A   1      46.235  28.329  35.703  1.00  0.00     0.198 A 
ATOM     90  F   UNL A   1      45.438  30.020  34.273  1.00  0.00    -0.203 F 
ATOM     91  F   UNL A   1      44.450  25.862  37.666  1.00  0.00    -0.200 F 
ATOM     92  C   UNL A   1      45.992  27.270  36.563  1.00  0.00     0.200 A 
ATOM     93  F   UNL A   1      47.495  28.710  35.448  1.00  0.00    -0.200 F 
ATOM     94  F   UNL A   1      47.015  26.636  37.152  1.00  0.00    -0.200 F 
ENDBRANCH  61  84
ENDBRANCH  35  36
ENDBRANCH  27  30
ENDBRANCH  25  26
ENDBRANCH  24  25
ENDBRANCH   1  24
TORSDOF 13
ENDMDL
MODEL 3
REMARK VINA RESULT:     -12.8      5.772     11.183
REMARK SMILES C[C@H](C(=O)NCCCCNC(=O)c1ccc(-c2c3nc(c(-c4c(F)c(F)c(F)c(F)c4F)c4ccc([nH]4)c(-c4c(F)c(F)c(F)c(F)c4F)c4nc(c(-c5c(F)c(F)c(F)c(F)c5F)c5ccc2[nH]5)C=C4)C=C3)cc1)N1C(=O)/C(=C/c2ccccc2F)SC1=S
REMARK SMILES IDX 7 1 6 2 5 3 3 4 4 5 2 7 1 8 76 9 77 10 89 11 78 12 79 13
REMARK SMILES IDX 88 14 90 15 80 16 81 17 82 18 86 19 83 20 85 21 87 22 84 23
REMARK SMILES IDX 8 24 9 25 10 26 11 27 12 29 13 30 14 31 75 32 15 33 74 34
REMARK SMILES IDX 16 35 17 36 18 37 68 38 19 39 73 40 67 41 69 42 20 43 72 44
REMARK SMILES IDX 66 45 65 46 21 48 53 49 33 50 52 51 34 52 37 53 51 54 70 55
REMARK SMILES IDX 35 56 36 57 50 59 71 60 38 61 22 62 23 63 31 64 24 65 25 66
REMARK SMILES IDX 29 67 32 68 26 69 27 70 30 71 28 72 54 73 55 74 63 75 56 76
REMARK SMILES IDX 57 77 61 78 64 79 58 80 59 81 62 82 60 83 39 84 40 85 48 86
REMARK SMILES IDX 41 87 42 88 46 89 49 90 43 91 44 92 47 93 45 94
REMARK H PARENT 5 6 10 28 69 47 37 58
REMARK Flexibility Score: inf
ROOT
ATOM      1  C   UNL A   1      37.372  22.086  24.671  1.00  0.00     0.023 C 
ENDROOT
BRANCH   1   2
ATOM      2  C   UNL A   1      36.593  22.764  25.792  1.00  0.00     0.116 C 
BRANCH   2   3
ATOM      3  N   UNL A   1      35.500  21.995  26.348  1.00  0.00    -0.354 N 
ATOM      4  C   UNL A   1      34.340  21.563  25.764  1.00  0.00     0.242 C 
ATOM      5  O   UNL A   1      33.713  20.703  26.400  1.00  0.00    -0.273 OA
ATOM      6  H   UNL A   1      35.607  21.743  27.294  1.00  0.00     0.163 HD
BRANCH   4   7
ATOM      7  C   UNL A   1      33.647  22.277  24.557  1.00  0.00     0.178 C 
ATOM      8  C   UNL A   1      32.777  21.149  23.971  1.00  0.00     0.042 C 
BRANCH   7   9
ATOM      9  N   UNL A   1      32.937  23.546  24.844  1.00  0.00    -0.281 N 
ATOM     10  C   UNL A   1      33.273  24.645  24.066  1.00  0.00     0.266 C 
ATOM     11  C   UNL A   1      31.746  23.730  25.523  1.00  0.00     0.149 C 
ATOM     12  O   UNL A   1      33.957  24.648  23.058  1.00  0.00    -0.268 OA
ATOM     13  C   UNL A   1      32.736  25.876  24.700  1.00  0.00     0.081 C 
ATOM     14  S   UNL A   1      31.405  25.458  25.681  1.00  0.00    -0.054 SA
ATOM     15  S   UNL A   1      30.654  22.625  26.126  1.00  0.00    -0.052 S 
ATOM     16  C   UNL A   1      33.379  27.046  24.588  1.00  0.00     0.032 C 
BRANCH  16  17
ATOM     17  C   UNL A   1      33.103  28.275  25.344  1.00  0.00     0.012 A 
ATOM     18  C   UNL A   1      33.885  28.571  26.465  1.00  0.00     0.011 A 
ATOM     19  C   UNL A   1      32.029  29.124  25.038  1.00  0.00     0.130 A 
ATOM     20  C   UNL A   1      33.628  29.716  27.225  1.00  0.00     0.001 A 
ATOM     21  C   UNL A   1      31.778  30.275  25.782  1.00  0.00     0.040 A 
ATOM     22  F   UNL A   1      31.190  28.823  24.033  1.00  0.00    -0.206 F 
ATOM     23  C   UNL A   1      32.585  30.575  26.876  1.00  0.00     0.003 A 
ENDBRANCH  16  17
ENDBRANCH   7   9
ENDBRANCH   4   7
ENDBRANCH   2   3
ENDBRANCH   1   2
BRANCH   1  24
ATOM     24  C   UNL A   1      38.002  20.733  25.001  1.00  0.00     0.023 C 
BRANCH  24  25
ATOM     25  C   UNL A   1      39.134  20.739  26.026  1.00  0.00     0.116 C 
BRANCH  25  26
ATOM     26  N   UNL A   1      40.023  19.588  25.932  1.00  0.00    -0.352 N 
ATOM     27  C   UNL A   1      41.390  19.504  26.077  1.00  0.00     0.251 C 
ATOM     28  H   UNL A   1      39.574  18.734  25.733  1.00  0.00     0.163 HD
ATOM     29  O   UNL A   1      41.967  18.438  25.885  1.00  0.00    -0.269 OA
BRANCH  27  30
ATOM     30  C   UNL A   1      42.177  20.710  26.414  1.00  0.00     0.039 A 
ATOM     31  C   UNL A   1      42.626  21.538  25.381  1.00  0.00     0.014 A 
ATOM     32  C   UNL A   1      42.439  21.047  27.743  1.00  0.00     0.014 A 
ATOM     33  C   UNL A   1      43.226  22.763  25.682  1.00  0.00     0.010 A 
ATOM     34  C   UNL A   1      42.958  22.302  28.042  1.00  0.00     0.010 A 
ATOM     35  C   UNL A   1      43.337  23.184  27.016  1.00  0.00    -0.014 A 
BRANCH  35  36
ATOM     36  C   UNL A   1      43.808  24.546  27.384  1.00  0.00     0.031 A 
ATOM     37  C   UNL A   1      42.821  25.577  27.850  1.00  0.00     0.074 A 
ATOM     38  C   UNL A   1      45.090  24.895  27.163  1.00  0.00     0.049 A 
ATOM     39  N   UNL A   1      42.980  26.867  28.009  1.00  0.00    -0.248 NA
ATOM     40  C   UNL A   1      41.461  25.097  28.134  1.00  0.00     0.031 C 
ATOM     41  C   UNL A   1      46.138  24.003  26.667  1.00  0.00     0.029 A 
ATOM     42  N   UNL A   1      45.721  26.109  27.291  1.00  0.00    -0.354 N 
ATOM     43  C   UNL A   1      41.731  27.357  28.366  1.00  0.00     0.074 A 
ATOM     44  C   UNL A   1      40.820  26.232  28.367  1.00  0.00     0.031 C 
ATOM     45  C   UNL A   1      47.280  24.698  26.531  1.00  0.00     0.029 A 
ATOM     46  C   UNL A   1      47.033  26.093  26.883  1.00  0.00     0.049 A 
ATOM     47  H   UNL A   1      45.276  26.914  27.642  1.00  0.00     0.167 HD
ATOM     48  C   UNL A   1      41.378  28.628  28.677  1.00  0.00     0.037 A 
ATOM     49  C   UNL A   1      47.930  27.091  26.778  1.00  0.00     0.037 A 
ATOM     50  C   UNL A   1      42.296  29.735  28.716  1.00  0.00     0.049 A 
ATOM     51  C   UNL A   1      47.528  28.490  27.156  1.00  0.00     0.074 A 
ATOM     52  C   UNL A   1      42.056  31.043  29.100  1.00  0.00     0.029 A 
ATOM     53  N   UNL A   1      43.635  29.663  28.358  1.00  0.00    -0.354 N 
ATOM     54  N   UNL A   1      46.360  28.935  27.549  1.00  0.00    -0.248 NA
ATOM     55  C   UNL A   1      48.568  29.526  27.079  1.00  0.00     0.031 C 
ATOM     56  C   UNL A   1      43.239  31.772  28.935  1.00  0.00     0.029 A 
ATOM     57  C   UNL A   1      44.229  30.907  28.495  1.00  0.00     0.049 A 
ATOM     58  H   UNL A   1      44.095  28.848  28.053  1.00  0.00     0.167 HD
ATOM     59  C   UNL A   1      46.527  30.290  27.792  1.00  0.00     0.074 A 
ATOM     60  C   UNL A   1      47.913  30.598  27.506  1.00  0.00     0.031 C 
ATOM     61  C   UNL A   1      45.614  31.196  28.218  1.00  0.00     0.037 A 
BRANCH  48  62
ATOM     62  C   UNL A   1      39.932  28.885  28.986  1.00  0.00     0.064 A 
ATOM     63  C   UNL A   1      39.415  28.740  30.283  1.00  0.00     0.173 A 
ATOM     64  C   UNL A   1      39.050  29.280  27.969  1.00  0.00     0.173 A 
ATOM     65  F   UNL A   1      40.214  28.354  31.289  1.00  0.00    -0.203 F 
ATOM     66  C   UNL A   1      38.061  28.936  30.541  1.00  0.00     0.198 A 
ATOM     67  C   UNL A   1      37.701  29.508  28.237  1.00  0.00     0.198 A 
ATOM     68  F   UNL A   1      39.492  29.442  26.713  1.00  0.00    -0.203 F 
ATOM     69  F   UNL A   1      37.579  28.725  31.774  1.00  0.00    -0.200 F 
ATOM     70  C   UNL A   1      37.206  29.324  29.519  1.00  0.00     0.200 A 
ATOM     71  F   UNL A   1      36.880  29.896  27.252  1.00  0.00    -0.200 F 
ATOM     72  F   UNL A   1      35.902  29.507  29.768  1.00  0.00    -0.200 F 
ENDBRANCH  48  62
BRANCH  49  73
ATOM     73  C   UNL A   1      49.306  26.791  26.304  1.00  0.00     0.064 A 
ATOM     74  C   UNL A   1      50.281  26.319  27.193  1.00  0.00     0.173 A 
ATOM     75  C   UNL A   1      49.661  26.931  24.956  1.00  0.00     0.173 A 
ATOM     76  F   UNL A   1      49.993  26.187  28.496  1.00  0.00    -0.203 F 
ATOM     77  C   UNL A   1      51.565  26.002  26.750  1.00  0.00     0.198 A 
ATOM     78  C   UNL A   1      50.937  26.592  24.509  1.00  0.00     0.198 A 
ATOM     79  F   UNL A   1      48.760  27.372  24.066  1.00  0.00    -0.203 F 
ATOM     80  F   UNL A   1      52.487  25.578  27.623  1.00  0.00    -0.200 F 
ATOM     81  C   UNL A   1      51.888  26.132  25.407  1.00  0.00     0.200 A 
ATOM     82  F   UNL A   1      51.241  26.703  23.209  1.00  0.00    -0.200 F 
ATOM     83  F   UNL A   1      53.117  25.813  24.979  1.00  0.00    -0.200 F 
ENDBRANCH  49  73
BRANCH  61  84
ATOM     84  C   UNL A   1      46.086  32.602  28.446  1.00  0.00     0.064 A 
ATOM     85  C   UNL A   1      46.015  33.576  27.440  1.00  0.00     0.173 A 
ATOM     86  C   UNL A   1      46.551  32.994  29.710  1.00  0.00     0.173 A 
ATOM     87  F   UNL A   1      45.593  33.246  26.209  1.00  0.00    -0.203 F 
ATOM     88  C   UNL A   1      46.404  34.889  27.688  1.00  0.00     0.198 A 
ATOM     89  C   UNL A   1      46.914  34.314  29.962  1.00  0.00     0.198 A 
ATOM     90  F   UNL A   1      46.633  32.100  30.707  1.00  0.00    -0.203 F 
ATOM     91  F   UNL A   1      46.358  35.798  26.704  1.00  0.00    -0.200 F 
ATOM     92  C   UNL A   1      46.844  35.259  28.952  1.00  0.00     0.200 A 
ATOM     93  F   UNL A   1      47.328  34.671  31.186  1.00  0.00    -0.200 F 
ATOM     94  F   UNL A   1      47.203  36.528  29.193  1.00  0.00    -0.200 F 
ENDBRANCH  61  84
ENDBRANCH  35  36
ENDBRANCH  27  30
ENDBRANCH  25  26
ENDBRANCH  24  25
ENDBRANCH   1  24
TORSDOF 13
ENDMDL
