MODEL 1
REMARK VINA RESULT:     -12.2      0.000      0.000
REMARK SMILES CCc1ccsc1-c1nnnn1C[C@H](CC(C)C)C(=O)NCCCCNC(=O)c1ccc(-c2c3nc(c(-c4c(F)c(F)c(F)c(F)c4F)c4ccc([nH]4)c(-c4c(F)c(F)c(F)c(F)c4F)c4nc(c(-c5c(F)c(F)c(F)c(F)c5F)c5ccc2[nH]5)C=C4)C=C3)cc1
REMARK SMILES IDX 22 1 21 2 19 3 20 4 14 6 13 7 12 8 8 9 9 10 10 11 11 12 7 13
REMARK SMILES IDX 3 14 4 15 5 16 6 17 2 18 1 19 15 20 16 21 17 22 18 23 23 24
REMARK SMILES IDX 24 25 25 26 26 27 27 28 28 30 29 31 30 32 91 33 31 34 90 35
REMARK SMILES IDX 32 36 33 37 34 38 84 39 35 40 89 41 83 42 85 43 36 44 88 45
REMARK SMILES IDX 82 46 81 47 37 49 69 50 49 51 68 52 50 53 53 54 67 55 86 56
REMARK SMILES IDX 51 57 52 58 66 60 87 61 54 62 38 63 39 64 47 65 40 66 41 67
REMARK SMILES IDX 45 68 48 69 42 70 43 71 46 72 44 73 70 74 71 75 79 76 72 77
REMARK SMILES IDX 73 78 77 79 80 80 74 81 75 82 78 83 76 84 55 85 56 86 64 87
REMARK SMILES IDX 57 88 58 89 62 90 65 91 59 92 60 93 63 94 61 95
REMARK H PARENT 21 5 26 29 85 48 53 59
REMARK Flexibility Score: inf
ROOT
ATOM      1  C   UNL A   1      33.090  29.633  26.169  1.00  0.00     0.116 C 
ENDROOT
BRANCH   1   2
ATOM      2  N   UNL A   1      33.718  29.599  24.868  1.00  0.00    -0.356 N 
ATOM      3  C   UNL A   1      33.648  28.647  23.903  1.00  0.00     0.224 C 
ATOM      4  O   UNL A   1      34.164  28.887  22.809  1.00  0.00    -0.275 OA
ATOM      5  H   UNL A   1      34.279  30.378  24.650  1.00  0.00     0.163 HD
BRANCH   3   6
ATOM      6  C   UNL A   1      32.959  27.307  24.143  1.00  0.00     0.100 C 
BRANCH   6   7
ATOM      7  C   UNL A   1      33.835  26.079  23.865  1.00  0.00     0.162 C 
BRANCH   7   8
ATOM      8  N   UNL A   1      33.757  25.395  22.593  1.00  0.00    -0.224 N 
ATOM      9  C   UNL A   1      33.659  24.047  22.342  1.00  0.00     0.192 A 
ATOM     10  N   UNL A   1      33.329  23.889  21.075  1.00  0.00    -0.108 NA
ATOM     11  N   UNL A   1      33.149  25.146  20.565  1.00  0.00    -0.023 NA
ATOM     12  N   UNL A   1      33.348  26.064  21.495  1.00  0.00    -0.045 NA
BRANCH   9  13
ATOM     13  C   UNL A   1      33.825  22.980  23.276  1.00  0.00     0.077 A 
ATOM     14  C   UNL A   1      34.968  22.542  23.940  1.00  0.00    -0.026 A 
ATOM     15  C   UNL A   1      34.662  21.376  24.732  1.00  0.00     0.016 A 
ATOM     16  C   UNL A   1      33.335  21.019  24.689  1.00  0.00     0.066 A 
ATOM     17  S   UNL A   1      32.431  22.071  23.706  1.00  0.00    -0.140 S 
BRANCH  14  18
ATOM     18  C   UNL A   1      36.380  23.080  23.868  1.00  0.00     0.034 C 
ATOM     19  C   UNL A   1      36.954  23.685  25.139  1.00  0.00     0.009 C 
ENDBRANCH  14  18
ENDBRANCH   9  13
ENDBRANCH   7   8
ENDBRANCH   6   7
BRANCH   6  20
ATOM     20  C   UNL A   1      31.496  27.281  23.590  1.00  0.00     0.018 C 
BRANCH  20  21
ATOM     21  C   UNL A   1      30.391  26.496  24.345  1.00  0.00    -0.017 C 
ATOM     22  C   UNL A   1      30.176  25.084  23.795  1.00  0.00     0.007 C 
ATOM     23  C   UNL A   1      30.732  26.391  25.837  1.00  0.00     0.007 C 
ENDBRANCH  20  21
ENDBRANCH   6  20
ENDBRANCH   3   6
ENDBRANCH   1   2
BRANCH   1  24
ATOM     24  C   UNL A   1      31.635  30.084  26.103  1.00  0.00     0.023 C 
BRANCH  24  25
ATOM     25  C   UNL A   1      31.415  31.570  26.407  1.00  0.00     0.023 C 
BRANCH  25  26
ATOM     26  C   UNL A   1      32.525  32.213  27.227  1.00  0.00     0.116 C 
BRANCH  26  27
ATOM     27  N   UNL A   1      32.328  33.651  27.455  1.00  0.00    -0.352 N 
ATOM     28  C   UNL A   1      32.944  34.436  28.414  1.00  0.00     0.251 C 
ATOM     29  H   UNL A   1      31.688  34.105  26.861  1.00  0.00     0.163 HD
ATOM     30  O   UNL A   1      32.461  35.505  28.790  1.00  0.00    -0.269 OA
BRANCH  28  31
ATOM     31  C   UNL A   1      34.233  33.975  28.939  1.00  0.00     0.039 A 
ATOM     32  C   UNL A   1      34.386  33.321  30.163  1.00  0.00     0.014 A 
ATOM     33  C   UNL A   1      35.305  34.147  28.074  1.00  0.00     0.014 A 
ATOM     34  C   UNL A   1      35.636  32.788  30.473  1.00  0.00     0.010 A 
ATOM     35  C   UNL A   1      36.424  33.397  28.257  1.00  0.00     0.010 A 
ATOM     36  C   UNL A   1      36.649  32.832  29.502  1.00  0.00    -0.014 A 
BRANCH  36  37
ATOM     37  C   UNL A   1      37.970  32.258  29.703  1.00  0.00     0.031 A 
ATOM     38  C   UNL A   1      38.099  30.854  29.249  1.00  0.00     0.074 A 
ATOM     39  C   UNL A   1      39.026  33.040  30.031  1.00  0.00     0.049 A 
ATOM     40  N   UNL A   1      38.246  29.799  29.978  1.00  0.00    -0.248 NA
ATOM     41  C   UNL A   1      37.890  30.561  27.822  1.00  0.00     0.031 C 
ATOM     42  C   UNL A   1      39.070  34.508  30.172  1.00  0.00     0.029 A 
ATOM     43  N   UNL A   1      40.327  32.696  30.220  1.00  0.00    -0.354 N 
ATOM     44  C   UNL A   1      38.378  28.735  29.087  1.00  0.00     0.074 A 
ATOM     45  C   UNL A   1      37.945  29.227  27.807  1.00  0.00     0.031 C 
ATOM     46  C   UNL A   1      40.350  34.936  30.184  1.00  0.00     0.029 A 
ATOM     47  C   UNL A   1      41.207  33.773  30.268  1.00  0.00     0.049 A 
ATOM     48  H   UNL A   1      40.622  31.761  30.314  1.00  0.00     0.167 HD
ATOM     49  C   UNL A   1      39.120  27.643  29.425  1.00  0.00     0.037 A 
ATOM     50  C   UNL A   1      42.554  33.708  30.384  1.00  0.00     0.037 A 
ATOM     51  C   UNL A   1      39.424  27.661  30.835  1.00  0.00     0.049 A 
ATOM     52  C   UNL A   1      42.862  32.377  30.951  1.00  0.00     0.074 A 
ATOM     53  C   UNL A   1      38.741  27.436  32.009  1.00  0.00     0.029 A 
ATOM     54  N   UNL A   1      40.542  28.392  31.145  1.00  0.00    -0.354 N 
ATOM     55  N   UNL A   1      42.498  32.006  32.148  1.00  0.00    -0.248 NA
ATOM     56  C   UNL A   1      43.231  31.298  30.046  1.00  0.00     0.031 C 
ATOM     57  C   UNL A   1      39.367  28.268  32.989  1.00  0.00     0.029 A 
ATOM     58  C   UNL A   1      40.441  28.930  32.398  1.00  0.00     0.049 A 
ATOM     59  H   UNL A   1      41.313  28.511  30.545  1.00  0.00     0.167 HD
ATOM     60  C   UNL A   1      42.193  30.663  32.018  1.00  0.00     0.074 A 
ATOM     61  C   UNL A   1      42.819  30.249  30.766  1.00  0.00     0.031 C 
ATOM     62  C   UNL A   1      41.206  30.099  32.773  1.00  0.00     0.037 A 
BRANCH  49  63
ATOM     63  C   UNL A   1      39.991  26.853  28.469  1.00  0.00     0.064 A 
ATOM     64  C   UNL A   1      40.976  27.538  27.723  1.00  0.00     0.173 A 
ATOM     65  C   UNL A   1      39.689  25.551  28.014  1.00  0.00     0.173 A 
ATOM     66  F   UNL A   1      41.333  28.789  28.050  1.00  0.00    -0.203 F 
ATOM     67  C   UNL A   1      41.550  26.989  26.571  1.00  0.00     0.198 A 
ATOM     68  C   UNL A   1      40.301  24.988  26.894  1.00  0.00     0.198 A 
ATOM     69  F   UNL A   1      38.714  24.814  28.554  1.00  0.00    -0.203 F 
ATOM     70  F   UNL A   1      42.390  27.723  25.829  1.00  0.00    -0.200 F 
ATOM     71  C   UNL A   1      41.207  25.717  26.155  1.00  0.00     0.200 A 
ATOM     72  F   UNL A   1      39.938  23.761  26.494  1.00  0.00    -0.200 F 
ATOM     73  F   UNL A   1      41.708  25.210  25.020  1.00  0.00    -0.200 F 
ENDBRANCH  49  63
BRANCH  50  74
ATOM     74  C   UNL A   1      43.575  34.577  29.760  1.00  0.00     0.064 A 
ATOM     75  C   UNL A   1      43.875  34.483  28.392  1.00  0.00     0.173 A 
ATOM     76  C   UNL A   1      44.050  35.719  30.434  1.00  0.00     0.173 A 
ATOM     77  F   UNL A   1      43.418  33.449  27.672  1.00  0.00    -0.203 F 
ATOM     78  C   UNL A   1      44.582  35.492  27.729  1.00  0.00     0.198 A 
ATOM     79  C   UNL A   1      44.757  36.723  29.771  1.00  0.00     0.198 A 
ATOM     80  F   UNL A   1      43.730  35.932  31.718  1.00  0.00    -0.203 F 
ATOM     81  F   UNL A   1      44.790  35.405  26.407  1.00  0.00    -0.200 F 
ATOM     82  C   UNL A   1      45.010  36.616  28.415  1.00  0.00     0.200 A 
ATOM     83  F   UNL A   1      45.119  37.833  30.431  1.00  0.00    -0.200 F 
ATOM     84  F   UNL A   1      45.619  37.617  27.763  1.00  0.00    -0.200 F 
ENDBRANCH  50  74
BRANCH  62  85
ATOM     85  C   UNL A   1      40.775  30.846  34.002  1.00  0.00     0.064 A 
ATOM     86  C   UNL A   1      41.510  30.898  35.198  1.00  0.00     0.173 A 
ATOM     87  C   UNL A   1      39.611  31.617  33.926  1.00  0.00     0.173 A 
ATOM     88  F   UNL A   1      42.673  30.255  35.319  1.00  0.00    -0.203 F 
ATOM     89  C   UNL A   1      41.077  31.663  36.282  1.00  0.00     0.198 A 
ATOM     90  C   UNL A   1      39.197  32.405  34.997  1.00  0.00     0.198 A 
ATOM     91  F   UNL A   1      38.896  31.642  32.791  1.00  0.00    -0.203 F 
ATOM     92  F   UNL A   1      41.791  31.688  37.417  1.00  0.00    -0.200 F 
ATOM     93  C   UNL A   1      39.923  32.420  36.177  1.00  0.00     0.200 A 
ATOM     94  F   UNL A   1      38.103  33.169  34.874  1.00  0.00    -0.200 F 
ATOM     95  F   UNL A   1      39.523  33.184  37.202  1.00  0.00    -0.200 F 
ENDBRANCH  62  85
ENDBRANCH  36  37
ENDBRANCH  28  31
ENDBRANCH  26  27
ENDBRANCH  25  26
ENDBRANCH  24  25
ENDBRANCH   1  24
TORSDOF 17
ENDMDL
MODEL 2
REMARK VINA RESULT:     -12.1      4.292      9.383
REMARK SMILES CCc1ccsc1-c1nnnn1C[C@H](CC(C)C)C(=O)NCCCCNC(=O)c1ccc(-c2c3nc(c(-c4c(F)c(F)c(F)c(F)c4F)c4ccc([nH]4)c(-c4c(F)c(F)c(F)c(F)c4F)c4nc(c(-c5c(F)c(F)c(F)c(F)c5F)c5ccc2[nH]5)C=C4)C=C3)cc1
REMARK SMILES IDX 22 1 21 2 19 3 20 4 14 6 13 7 12 8 8 9 9 10 10 11 11 12 7 13
REMARK SMILES IDX 3 14 4 15 5 16 6 17 2 18 1 19 15 20 16 21 17 22 18 23 23 24
REMARK SMILES IDX 24 25 25 26 26 27 27 28 28 30 29 31 30 32 91 33 31 34 90 35
REMARK SMILES IDX 32 36 33 37 34 38 84 39 35 40 89 41 83 42 85 43 36 44 88 45
REMARK SMILES IDX 82 46 81 47 37 49 69 50 49 51 68 52 50 53 53 54 67 55 86 56
REMARK SMILES IDX 51 57 52 58 66 60 87 61 54 62 38 63 39 64 47 65 40 66 41 67
REMARK SMILES IDX 45 68 48 69 42 70 43 71 46 72 44 73 70 74 71 75 79 76 72 77
REMARK SMILES IDX 73 78 77 79 80 80 74 81 75 82 78 83 76 84 55 85 56 86 64 87
REMARK SMILES IDX 57 88 58 89 62 90 65 91 59 92 60 93 63 94 61 95
REMARK H PARENT 21 5 26 29 85 48 53 59
REMARK Flexibility Score: inf
ROOT
ATOM      1  C   UNL A   1      37.120  22.003  25.385  1.00  0.00     0.116 C 
ENDROOT
BRANCH   1   2
ATOM      2  N   UNL A   1      36.189  22.427  26.406  1.00  0.00    -0.356 N 
ATOM      3  C   UNL A   1      34.968  23.005  26.271  1.00  0.00     0.224 C 
ATOM      4  O   UNL A   1      34.284  23.165  27.283  1.00  0.00    -0.275 OA
ATOM      5  H   UNL A   1      36.483  22.277  27.333  1.00  0.00     0.163 HD
BRANCH   3   6
ATOM      6  C   UNL A   1      34.437  23.456  24.913  1.00  0.00     0.100 C 
BRANCH   6   7
ATOM      7  C   UNL A   1      34.525  24.966  24.661  1.00  0.00     0.162 C 
BRANCH   7   8
ATOM      8  N   UNL A   1      33.776  25.575  23.585  1.00  0.00    -0.224 N 
ATOM      9  C   UNL A   1      33.049  26.742  23.591  1.00  0.00     0.192 A 
ATOM     10  N   UNL A   1      32.773  27.059  22.341  1.00  0.00    -0.108 NA
ATOM     11  N   UNL A   1      33.398  26.125  21.560  1.00  0.00    -0.023 NA
ATOM     12  N   UNL A   1      34.059  25.255  22.305  1.00  0.00    -0.045 NA
BRANCH   9  13
ATOM     13  C   UNL A   1      32.685  27.527  24.727  1.00  0.00     0.077 A 
ATOM     14  C   UNL A   1      31.952  27.177  25.858  1.00  0.00    -0.026 A 
ATOM     15  C   UNL A   1      31.775  28.330  26.706  1.00  0.00     0.016 A 
ATOM     16  C   UNL A   1      32.405  29.458  26.234  1.00  0.00     0.066 A 
ATOM     17  S   UNL A   1      33.222  29.158  24.774  1.00  0.00    -0.140 S 
BRANCH  14  18
ATOM     18  C   UNL A   1      31.328  25.847  26.220  1.00  0.00     0.034 C 
ATOM     19  C   UNL A   1      29.924  25.580  25.704  1.00  0.00     0.009 C 
ENDBRANCH  14  18
ENDBRANCH   9  13
ENDBRANCH   7   8
ENDBRANCH   6   7
BRANCH   6  20
ATOM     20  C   UNL A   1      33.097  22.744  24.531  1.00  0.00     0.018 C 
BRANCH  20  21
ATOM     21  C   UNL A   1      33.119  21.326  23.904  1.00  0.00    -0.017 C 
ATOM     22  C   UNL A   1      32.786  20.220  24.907  1.00  0.00     0.007 C 
ATOM     23  C   UNL A   1      32.126  21.240  22.737  1.00  0.00     0.007 C 
ENDBRANCH  20  21
ENDBRANCH   6  20
ENDBRANCH   3   6
ENDBRANCH   1   2
BRANCH   1  24
ATOM     24  C   UNL A   1      36.779  20.629  24.818  1.00  0.00     0.023 C 
BRANCH  24  25
ATOM     25  C   UNL A   1      37.899  19.591  24.948  1.00  0.00     0.023 C 
BRANCH  25  26
ATOM     26  C   UNL A   1      39.147  20.100  25.657  1.00  0.00     0.116 C 
BRANCH  26  27
ATOM     27  N   UNL A   1      40.204  19.088  25.783  1.00  0.00    -0.352 N 
ATOM     28  C   UNL A   1      41.563  19.312  25.916  1.00  0.00     0.251 C 
ATOM     29  H   UNL A   1      39.913  18.148  25.774  1.00  0.00     0.163 HD
ATOM     30  O   UNL A   1      42.396  18.451  25.634  1.00  0.00    -0.269 OA
BRANCH  28  31
ATOM     31  C   UNL A   1      41.985  20.608  26.458  1.00  0.00     0.039 A 
ATOM     32  C   UNL A   1      42.467  21.659  25.676  1.00  0.00     0.014 A 
ATOM     33  C   UNL A   1      41.775  20.760  27.822  1.00  0.00     0.014 A 
ATOM     34  C   UNL A   1      42.679  22.892  26.289  1.00  0.00     0.010 A 
ATOM     35  C   UNL A   1      41.720  22.016  28.342  1.00  0.00     0.010 A 
ATOM     36  C   UNL A   1      42.295  23.056  27.629  1.00  0.00    -0.014 A 
BRANCH  36  37
ATOM     37  C   UNL A   1      42.422  24.314  28.347  1.00  0.00     0.031 A 
ATOM     38  C   UNL A   1      41.301  25.258  28.126  1.00  0.00     0.074 A 
ATOM     39  C   UNL A   1      43.353  24.470  29.318  1.00  0.00     0.049 A 
ATOM     40  N   UNL A   1      41.325  26.374  27.479  1.00  0.00    -0.248 NA
ATOM     41  C   UNL A   1      39.951  24.843  28.540  1.00  0.00     0.031 C 
ATOM     42  C   UNL A   1      44.297  23.470  29.851  1.00  0.00     0.029 A 
ATOM     43  N   UNL A   1      43.595  25.545  30.114  1.00  0.00    -0.354 N 
ATOM     44  C   UNL A   1      40.046  26.914  27.604  1.00  0.00     0.074 A 
ATOM     45  C   UNL A   1      39.204  25.848  28.076  1.00  0.00     0.031 C 
ATOM     46  C   UNL A   1      44.826  23.905  31.015  1.00  0.00     0.029 A 
ATOM     47  C   UNL A   1      44.429  25.283  31.197  1.00  0.00     0.049 A 
ATOM     48  H   UNL A   1      43.211  26.435  29.939  1.00  0.00     0.167 HD
ATOM     49  C   UNL A   1      39.866  28.265  27.600  1.00  0.00     0.037 A 
ATOM     50  C   UNL A   1      44.779  26.154  32.172  1.00  0.00     0.037 A 
ATOM     51  C   UNL A   1      41.069  28.929  27.162  1.00  0.00     0.049 A 
ATOM     52  C   UNL A   1      44.554  27.510  31.625  1.00  0.00     0.074 A 
ATOM     53  C   UNL A   1      41.732  29.114  25.970  1.00  0.00     0.029 A 
ATOM     54  N   UNL A   1      41.970  29.152  28.171  1.00  0.00    -0.354 N 
ATOM     55  N   UNL A   1      45.223  27.996  30.615  1.00  0.00    -0.248 NA
ATOM     56  C   UNL A   1      43.307  28.194  31.937  1.00  0.00     0.031 C 
ATOM     57  C   UNL A   1      43.118  29.217  26.307  1.00  0.00     0.029 A 
ATOM     58  C   UNL A   1      43.251  29.144  27.692  1.00  0.00     0.049 A 
ATOM     59  H   UNL A   1      41.726  29.299  29.114  1.00  0.00     0.167 HD
ATOM     60  C   UNL A   1      44.300  28.756  29.921  1.00  0.00     0.074 A 
ATOM     61  C   UNL A   1      43.204  28.978  30.859  1.00  0.00     0.031 C 
ATOM     62  C   UNL A   1      44.373  28.865  28.562  1.00  0.00     0.037 A 
BRANCH  49  63
ATOM     63  C   UNL A   1      38.849  29.010  28.443  1.00  0.00     0.064 A 
ATOM     64  C   UNL A   1      38.846  28.808  29.841  1.00  0.00     0.173 A 
ATOM     65  C   UNL A   1      37.695  29.634  27.923  1.00  0.00     0.173 A 
ATOM     66  F   UNL A   1      39.882  28.208  30.447  1.00  0.00    -0.203 F 
ATOM     67  C   UNL A   1      37.743  29.135  30.636  1.00  0.00     0.198 A 
ATOM     68  C   UNL A   1      36.616  30.005  28.727  1.00  0.00     0.198 A 
ATOM     69  F   UNL A   1      37.506  29.807  26.611  1.00  0.00    -0.203 F 
ATOM     70  F   UNL A   1      37.738  28.814  31.937  1.00  0.00    -0.200 F 
ATOM     71  C   UNL A   1      36.626  29.727  30.076  1.00  0.00     0.200 A 
ATOM     72  F   UNL A   1      35.535  30.558  28.161  1.00  0.00    -0.200 F 
ATOM     73  F   UNL A   1      35.543  29.987  30.822  1.00  0.00    -0.200 F 
ENDBRANCH  49  63
BRANCH  50  74
ATOM     74  C   UNL A   1      44.990  25.889  33.612  1.00  0.00     0.064 A 
ATOM     75  C   UNL A   1      46.277  25.882  34.171  1.00  0.00     0.173 A 
ATOM     76  C   UNL A   1      43.909  25.944  34.515  1.00  0.00     0.173 A 
ATOM     77  F   UNL A   1      47.356  25.878  33.376  1.00  0.00    -0.203 F 
ATOM     78  C   UNL A   1      46.473  25.958  35.554  1.00  0.00     0.198 A 
ATOM     79  C   UNL A   1      44.106  26.019  35.894  1.00  0.00     0.198 A 
ATOM     80  F   UNL A   1      42.651  26.048  34.062  1.00  0.00    -0.203 F 
ATOM     81  F   UNL A   1      47.717  26.021  36.052  1.00  0.00    -0.200 F 
ATOM     82  C   UNL A   1      45.389  26.040  36.413  1.00  0.00     0.200 A 
ATOM     83  F   UNL A   1      43.054  26.153  36.713  1.00  0.00    -0.200 F 
ATOM     84  F   UNL A   1      45.580  26.192  37.732  1.00  0.00    -0.200 F 
ENDBRANCH  50  74
BRANCH  62  85
ATOM     85  C   UNL A   1      45.679  28.504  27.916  1.00  0.00     0.064 A 
ATOM     86  C   UNL A   1      45.960  27.256  27.337  1.00  0.00     0.173 A 
ATOM     87  C   UNL A   1      46.651  29.503  27.800  1.00  0.00     0.173 A 
ATOM     88  F   UNL A   1      45.051  26.278  27.334  1.00  0.00    -0.203 F 
ATOM     89  C   UNL A   1      47.177  27.011  26.700  1.00  0.00     0.198 A 
ATOM     90  C   UNL A   1      47.852  29.267  27.136  1.00  0.00     0.198 A 
ATOM     91  F   UNL A   1      46.415  30.728  28.294  1.00  0.00    -0.203 F 
ATOM     92  F   UNL A   1      47.426  25.807  26.163  1.00  0.00    -0.200 F 
ATOM     93  C   UNL A   1      48.119  28.019  26.596  1.00  0.00     0.200 A 
ATOM     94  F   UNL A   1      48.741  30.260  27.002  1.00  0.00    -0.200 F 
ATOM     95  F   UNL A   1      49.274  27.799  25.954  1.00  0.00    -0.200 F 
ENDBRANCH  62  85
ENDBRANCH  36  37
ENDBRANCH  28  31
ENDBRANCH  26  27
ENDBRANCH  25  26
ENDBRANCH  24  25
ENDBRANCH   1  24
TORSDOF 17
ENDMDL
MODEL 3
REMARK VINA RESULT:     -12.0      2.933      7.557
REMARK SMILES CCc1ccsc1-c1nnnn1C[C@H](CC(C)C)C(=O)NCCCCNC(=O)c1ccc(-c2c3nc(c(-c4c(F)c(F)c(F)c(F)c4F)c4ccc([nH]4)c(-c4c(F)c(F)c(F)c(F)c4F)c4nc(c(-c5c(F)c(F)c(F)c(F)c5F)c5ccc2[nH]5)C=C4)C=C3)cc1
REMARK SMILES IDX 22 1 21 2 19 3 20 4 14 6 13 7 12 8 8 9 9 10 10 11 11 12 7 13
REMARK SMILES IDX 3 14 4 15 5 16 6 17 2 18 1 19 15 20 16 21 17 22 18 23 23 24
REMARK SMILES IDX 24 25 25 26 26 27 27 28 28 30 29 31 30 32 91 33 31 34 90 35
REMARK SMILES IDX 32 36 33 37 34 38 84 39 35 40 89 41 83 42 85 43 36 44 88 45
REMARK SMILES IDX 82 46 81 47 37 49 69 50 49 51 68 52 50 53 53 54 67 55 86 56
REMARK SMILES IDX 51 57 52 58 66 60 87 61 54 62 38 63 39 64 47 65 40 66 41 67
REMARK SMILES IDX 45 68 48 69 42 70 43 71 46 72 44 73 70 74 71 75 79 76 72 77
REMARK SMILES IDX 73 78 77 79 80 80 74 81 75 82 78 83 76 84 55 85 56 86 64 87
REMARK SMILES IDX 57 88 58 89 62 90 65 91 59 92 60 93 63 94 61 95
REMARK H PARENT 21 5 26 29 85 48 53 59
REMARK Flexibility Score: inf
ROOT
ATOM      1  C   UNL A   1      33.356  28.296  27.116  1.00  0.00     0.116 C 
ENDROOT
BRANCH   1   2
ATOM      2  N   UNL A   1      32.602  28.318  25.884  1.00  0.00    -0.356 N 
ATOM      3  C   UNL A   1      32.301  27.297  25.041  1.00  0.00     0.224 C 
ATOM      4  O   UNL A   1      31.528  27.521  24.107  1.00  0.00    -0.275 OA
ATOM      5  H   UNL A   1      32.259  29.200  25.615  1.00  0.00     0.163 HD
BRANCH   3   6
ATOM      6  C   UNL A   1      32.893  25.902  25.222  1.00  0.00     0.100 C 
BRANCH   6   7
ATOM      7  C   UNL A   1      34.129  25.615  24.361  1.00  0.00     0.162 C 
BRANCH   7   8
ATOM      8  N   UNL A   1      33.987  25.027  23.048  1.00  0.00    -0.224 N 
ATOM      9  C   UNL A   1      33.891  23.699  22.702  1.00  0.00     0.192 A 
ATOM     10  N   UNL A   1      33.492  23.630  21.447  1.00  0.00    -0.108 NA
ATOM     11  N   UNL A   1      33.269  24.919  21.043  1.00  0.00    -0.023 NA
ATOM     12  N   UNL A   1      33.508  25.769  22.028  1.00  0.00    -0.045 NA
BRANCH   9  13
ATOM     13  C   UNL A   1      34.122  22.569  23.543  1.00  0.00     0.077 A 
ATOM     14  C   UNL A   1      35.258  22.208  24.264  1.00  0.00    -0.026 A 
ATOM     15  C   UNL A   1      35.046  20.936  24.912  1.00  0.00     0.016 A 
ATOM     16  C   UNL A   1      33.786  20.425  24.714  1.00  0.00     0.066 A 
ATOM     17  S   UNL A   1      32.831  21.456  23.756  1.00  0.00    -0.140 S 
BRANCH  14  18
ATOM     18  C   UNL A   1      36.588  22.920  24.373  1.00  0.00     0.034 C 
ATOM     19  C   UNL A   1      36.899  23.605  25.694  1.00  0.00     0.009 C 
ENDBRANCH  14  18
ENDBRANCH   9  13
ENDBRANCH   7   8
ENDBRANCH   6   7
BRANCH   6  20
ATOM     20  C   UNL A   1      31.793  24.792  25.287  1.00  0.00     0.018 C 
BRANCH  20  21
ATOM     21  C   UNL A   1      31.607  23.952  26.578  1.00  0.00    -0.017 C 
ATOM     22  C   UNL A   1      30.597  22.815  26.415  1.00  0.00     0.007 C 
ATOM     23  C   UNL A   1      32.947  23.353  27.025  1.00  0.00     0.007 C 
ENDBRANCH  20  21
ENDBRANCH   6  20
ENDBRANCH   3   6
ENDBRANCH   1   2
BRANCH   1  24
ATOM     24  C   UNL A   1      34.379  29.424  27.196  1.00  0.00     0.023 C 
BRANCH  24  25
ATOM     25  C   UNL A   1      33.776  30.815  27.420  1.00  0.00     0.023 C 
BRANCH  25  26
ATOM     26  C   UNL A   1      34.788  31.881  27.816  1.00  0.00     0.116 C 
BRANCH  26  27
ATOM     27  N   UNL A   1      34.622  32.364  29.194  1.00  0.00    -0.352 N 
ATOM     28  C   UNL A   1      35.342  31.970  30.308  1.00  0.00     0.251 C 
ATOM     29  H   UNL A   1      33.924  33.042  29.339  1.00  0.00     0.163 HD
ATOM     30  O   UNL A   1      34.907  32.119  31.451  1.00  0.00    -0.269 OA
BRANCH  28  31
ATOM     31  C   UNL A   1      36.679  31.409  30.087  1.00  0.00     0.039 A 
ATOM     32  C   UNL A   1      37.833  32.183  29.939  1.00  0.00     0.014 A 
ATOM     33  C   UNL A   1      36.740  30.023  30.135  1.00  0.00     0.014 A 
ATOM     34  C   UNL A   1      39.062  31.529  29.899  1.00  0.00     0.010 A 
ATOM     35  C   UNL A   1      37.939  29.426  30.371  1.00  0.00     0.010 A 
ATOM     36  C   UNL A   1      39.099  30.143  30.121  1.00  0.00    -0.014 A 
BRANCH  36  37
ATOM     37  C   UNL A   1      40.332  29.374  30.154  1.00  0.00     0.031 A 
ATOM     38  C   UNL A   1      40.895  29.182  31.511  1.00  0.00     0.074 A 
ATOM     39  C   UNL A   1      40.755  28.690  29.064  1.00  0.00     0.049 A 
ATOM     40  N   UNL A   1      41.971  29.700  32.001  1.00  0.00    -0.248 NA
ATOM     41  C   UNL A   1      40.089  28.449  32.502  1.00  0.00     0.031 C 
ATOM     42  C   UNL A   1      40.083  28.539  27.760  1.00  0.00     0.029 A 
ATOM     43  N   UNL A   1      41.848  27.895  28.917  1.00  0.00    -0.354 N 
ATOM     44  C   UNL A   1      42.098  29.173  33.284  1.00  0.00     0.074 A 
ATOM     45  C   UNL A   1      40.825  28.589  33.608  1.00  0.00     0.031 C 
ATOM     46  C   UNL A   1      40.649  27.533  27.059  1.00  0.00     0.029 A 
ATOM     47  C   UNL A   1      41.843  27.117  27.763  1.00  0.00     0.049 A 
ATOM     48  H   UNL A   1      42.581  27.871  29.573  1.00  0.00     0.167 HD
ATOM     49  C   UNL A   1      43.332  28.998  33.836  1.00  0.00     0.037 A 
ATOM     50  C   UNL A   1      42.772  26.200  27.406  1.00  0.00     0.037 A 
ATOM     51  C   UNL A   1      44.331  29.690  33.059  1.00  0.00     0.049 A 
ATOM     52  C   UNL A   1      44.000  26.532  28.160  1.00  0.00     0.074 A 
ATOM     53  C   UNL A   1      44.715  30.997  32.859  1.00  0.00     0.029 A 
ATOM     54  N   UNL A   1      44.809  28.956  32.004  1.00  0.00    -0.354 N 
ATOM     55  N   UNL A   1      44.672  27.638  27.987  1.00  0.00    -0.248 NA
ATOM     56  C   UNL A   1      44.274  25.821  29.402  1.00  0.00     0.031 C 
ATOM     57  C   UNL A   1      45.229  31.051  31.525  1.00  0.00     0.029 A 
ATOM     58  C   UNL A   1      45.191  29.771  30.975  1.00  0.00     0.049 A 
ATOM     59  H   UNL A   1      44.870  27.973  31.991  1.00  0.00     0.167 HD
ATOM     60  C   UNL A   1      45.123  27.971  29.251  1.00  0.00     0.074 A 
ATOM     61  C   UNL A   1      44.998  26.748  30.037  1.00  0.00     0.031 C 
ATOM     62  C   UNL A   1      45.258  29.280  29.616  1.00  0.00     0.037 A 
BRANCH  49  63
ATOM     63  C   UNL A   1      43.730  27.839  34.728  1.00  0.00     0.064 A 
ATOM     64  C   UNL A   1      43.581  26.522  34.239  1.00  0.00     0.173 A 
ATOM     65  C   UNL A   1      43.928  27.944  36.122  1.00  0.00     0.173 A 
ATOM     66  F   UNL A   1      43.369  26.299  32.933  1.00  0.00    -0.203 F 
ATOM     67  C   UNL A   1      43.554  25.412  35.090  1.00  0.00     0.198 A 
ATOM     68  C   UNL A   1      43.951  26.830  36.962  1.00  0.00     0.198 A 
ATOM     69  F   UNL A   1      43.990  29.123  36.748  1.00  0.00    -0.203 F 
ATOM     70  F   UNL A   1      43.289  24.197  34.594  1.00  0.00    -0.200 F 
ATOM     71  C   UNL A   1      43.732  25.569  36.452  1.00  0.00     0.200 A 
ATOM     72  F   UNL A   1      44.103  27.005  38.282  1.00  0.00    -0.200 F 
ATOM     73  F   UNL A   1      43.647  24.517  37.278  1.00  0.00    -0.200 F 
ENDBRANCH  49  63
BRANCH  50  74
ATOM     74  C   UNL A   1      42.573  24.908  26.713  1.00  0.00     0.064 A 
ATOM     75  C   UNL A   1      43.208  24.630  25.494  1.00  0.00     0.173 A 
ATOM     76  C   UNL A   1      42.002  23.814  27.393  1.00  0.00     0.173 A 
ATOM     77  F   UNL A   1      43.817  25.611  24.812  1.00  0.00    -0.203 F 
ATOM     78  C   UNL A   1      43.295  23.325  24.997  1.00  0.00     0.198 A 
ATOM     79  C   UNL A   1      42.088  22.513  26.895  1.00  0.00     0.198 A 
ATOM     80  F   UNL A   1      41.457  23.978  28.607  1.00  0.00    -0.203 F 
ATOM     81  F   UNL A   1      43.972  23.084  23.864  1.00  0.00    -0.200 F 
ATOM     82  C   UNL A   1      42.747  22.267  25.704  1.00  0.00     0.200 A 
ATOM     83  F   UNL A   1      41.603  21.490  27.612  1.00  0.00    -0.200 F 
ATOM     84  F   UNL A   1      42.900  21.008  25.266  1.00  0.00    -0.200 F 
ENDBRANCH  50  74
BRANCH  62  85
ATOM     85  C   UNL A   1      45.312  30.296  28.512  1.00  0.00     0.064 A 
ATOM     86  C   UNL A   1      44.209  31.040  28.063  1.00  0.00     0.173 A 
ATOM     87  C   UNL A   1      46.560  30.590  27.953  1.00  0.00     0.173 A 
ATOM     88  F   UNL A   1      43.000  30.874  28.606  1.00  0.00    -0.203 F 
ATOM     89  C   UNL A   1      44.346  32.011  27.071  1.00  0.00     0.198 A 
ATOM     90  C   UNL A   1      46.701  31.582  26.987  1.00  0.00     0.198 A 
ATOM     91  F   UNL A   1      47.654  29.943  28.380  1.00  0.00    -0.203 F 
ATOM     92  F   UNL A   1      43.275  32.702  26.652  1.00  0.00    -0.200 F 
ATOM     93  C   UNL A   1      45.593  32.285  26.539  1.00  0.00     0.200 A 
ATOM     94  F   UNL A   1      47.917  31.872  26.507  1.00  0.00    -0.200 F 
ATOM     95  F   UNL A   1      45.735  33.242  25.612  1.00  0.00    -0.200 F 
ENDBRANCH  62  85
ENDBRANCH  36  37
ENDBRANCH  28  31
ENDBRANCH  26  27
ENDBRANCH  25  26
ENDBRANCH  24  25
ENDBRANCH   1  24
TORSDOF 17
ENDMDL
