MODEL 1
REMARK VINA RESULT:     -14.7      0.000      0.000
REMARK SMILES Cc1c(Cl)cccc1NC(=O)C[C@](C)(C(=O)NCCCCNC(=O)c1ccc(-c2c3nc(c(-c4c(F)c(F)c(F)c(F)c4F)c4ccc([nH]4)c(-c4c(F)c(F)c(F)c(F)c4F)c4nc(c(-c5c(F)c(F)c(F)c(F)c5F)c5ccc2[nH]5)C=C4)C=C3)cc1)c1ccccc1
REMARK SMILES IDX 19 1 18 2 17 3 15 4 16 5 13 7 14 8 12 9 10 10 9 11 11 13
REMARK SMILES IDX 8 14 1 15 2 16 3 17 4 18 5 19 7 20 6 21 88 22 89 23 93 24
REMARK SMILES IDX 90 25 92 26 91 27 20 28 21 29 22 30 23 31 24 33 25 34 26 35
REMARK SMILES IDX 87 36 27 37 86 38 28 39 29 40 30 41 80 42 31 43 85 44 79 45
REMARK SMILES IDX 81 46 32 47 84 48 78 49 77 50 33 52 65 53 45 54 64 55 46 56
REMARK SMILES IDX 49 57 63 58 82 59 47 60 48 61 62 63 83 64 50 65 34 66 35 67
REMARK SMILES IDX 43 68 36 69 37 70 41 71 44 72 38 73 39 74 42 75 40 76 66 77
REMARK SMILES IDX 67 78 75 79 68 80 69 81 73 82 76 83 70 84 71 85 74 86 72 87
REMARK SMILES IDX 51 88 52 89 60 90 53 91 54 92 58 93 61 94 55 95 56 96 59 97
REMARK SMILES IDX 57 98
REMARK H PARENT 17 6 9 12 22 32 81 51 49 62
REMARK Flexibility Score: inf
ROOT
ATOM      1  C   UNL A   1      32.000  30.753  27.091  1.00  0.00     0.023 C 
ENDROOT
BRANCH   1   2
ATOM      2  C   UNL A   1      33.275  29.942  26.258  1.00  0.00     0.116 C 
BRANCH   2   3
ATOM      3  N   UNL A   1      33.270  28.635  24.626  1.00  0.00    -0.355 N 
ATOM      4  C   UNL A   1      32.635  27.766  23.674  1.00  0.00     0.230 C 
ATOM      5  O   UNL A   1      33.491  27.373  22.858  1.00  0.00    -0.274 OA
ATOM      6  H   UNL A   1      34.220  28.591  24.371  1.00  0.00     0.163 HD
BRANCH   4   7
ATOM      7  C   UNL A   1      31.112  27.213  23.571  1.00  0.00     0.080 C 
ATOM      8  C   UNL A   1      30.967  26.553  22.146  1.00  0.00     0.027 C 
BRANCH   7   9
ATOM      9  C   UNL A   1      30.629  26.274  24.736  1.00  0.00     0.121 C 
BRANCH   9  10
ATOM     10  C   UNL A   1      31.329  26.329  26.080  1.00  0.00     0.225 C 
ATOM     11  N   UNL A   1      32.172  25.333  26.474  1.00  0.00    -0.326 N 
ATOM     12  H   UNL A   1      32.337  25.217  27.438  1.00  0.00     0.169 HD
ATOM     13  O   UNL A   1      31.119  27.253  26.870  1.00  0.00    -0.275 OA
BRANCH  11  14
ATOM     14  C   UNL A   1      32.815  24.471  25.589  1.00  0.00     0.045 A 
ATOM     15  C   UNL A   1      30.710  22.520  25.810  1.00  0.00     0.048 C 
ATOM     16  C   UNL A   1      32.175  22.777  25.608  1.00  0.00    -0.009 A 
ATOM     17  C   UNL A   1      33.226  21.425  25.045  1.00  0.00     0.046 A 
ATOM     18  Cl  UNL A   1      32.615  19.820  24.947  1.00  0.00    -0.084 Cl
ATOM     19  C   UNL A   1      34.937  21.730  24.577  1.00  0.00     0.021 A 
ATOM     20  C   UNL A   1      34.511  24.819  24.987  1.00  0.00     0.026 A 
ATOM     21  C   UNL A   1      35.581  23.427  24.519  1.00  0.00     0.004 A 
ENDBRANCH  11  14
ENDBRANCH   9  10
ENDBRANCH   7   9
BRANCH   7  22
ATOM     22  C   UNL A   1      29.968  28.308  23.499  1.00  0.00    -0.032 A 
ATOM     23  C   UNL A   1      28.638  27.865  23.233  1.00  0.00     0.005 A 
ATOM     24  C   UNL A   1      30.146  29.682  23.664  1.00  0.00     0.005 A 
ATOM     25  C   UNL A   1      27.586  28.743  22.995  1.00  0.00     0.000 A 
ATOM     26  C   UNL A   1      29.079  30.570  23.444  1.00  0.00     0.000 A 
ATOM     27  C   UNL A   1      27.814  30.105  23.084  1.00  0.00     0.000 A 
ENDBRANCH   7  22
ENDBRANCH   4   7
ENDBRANCH   2   3
ENDBRANCH   1   2
BRANCH   1  28
ATOM     28  C   UNL A   1      31.911  32.258  26.833  1.00  0.00     0.023 C 
BRANCH  28  29
ATOM     29  C   UNL A   1      32.963  33.079  27.544  1.00  0.00     0.116 C 
BRANCH  29  30
ATOM     30  N   UNL A   1      32.510  34.435  27.818  1.00  0.00    -0.352 N 
ATOM     31  C   UNL A   1      32.979  35.228  28.837  1.00  0.00     0.251 C 
ATOM     32  H   UNL A   1      31.817  34.812  27.230  1.00  0.00     0.163 HD
ATOM     33  O   UNL A   1      32.447  36.279  29.161  1.00  0.00    -0.269 OA
BRANCH  31  34
ATOM     34  C   UNL A   1      34.168  34.711  29.529  1.00  0.00     0.039 A 
ATOM     35  C   UNL A   1      33.996  33.851  30.611  1.00  0.00     0.014 A 
ATOM     36  C   UNL A   1      35.404  34.850  28.886  1.00  0.00     0.014 A 
ATOM     37  C   UNL A   1      35.091  33.124  31.064  1.00  0.00     0.010 A 
ATOM     38  C   UNL A   1      36.456  34.034  29.267  1.00  0.00     0.010 A 
ATOM     39  C   UNL A   1      36.325  33.202  30.390  1.00  0.00    -0.014 A 
BRANCH  39  40
ATOM     40  C   UNL A   1      37.514  32.500  30.924  1.00  0.00     0.031 A 
ATOM     41  C   UNL A   1      38.003  32.852  32.303  1.00  0.00     0.074 A 
ATOM     42  C   UNL A   1      38.129  31.547  30.198  1.00  0.00     0.049 A 
ATOM     43  N   UNL A   1      38.989  32.335  32.990  1.00  0.00    -0.248 NA
ATOM     44  C   UNL A   1      37.306  33.948  32.998  1.00  0.00     0.031 C 
ATOM     45  C   UNL A   1      37.768  31.151  28.836  1.00  0.00     0.029 A 
ATOM     46  N   UNL A   1      39.179  30.723  30.516  1.00  0.00    -0.354 N 
ATOM     47  C   UNL A   1      39.024  33.042  34.183  1.00  0.00     0.074 A 
ATOM     48  C   UNL A   1      38.027  34.082  34.097  1.00  0.00     0.031 C 
ATOM     49  C   UNL A   1      38.549  30.127  28.455  1.00  0.00     0.029 A 
ATOM     50  C   UNL A   1      39.491  29.822  29.528  1.00  0.00     0.049 A 
ATOM     51  H   UNL A   1      39.662  30.773  31.373  1.00  0.00     0.167 HD
ATOM     52  C   UNL A   1      39.788  32.819  35.275  1.00  0.00     0.037 A 
ATOM     53  C   UNL A   1      40.435  28.860  29.498  1.00  0.00     0.037 A 
ATOM     54  C   UNL A   1      40.767  31.772  35.361  1.00  0.00     0.049 A 
ATOM     55  C   UNL A   1      41.307  28.663  30.712  1.00  0.00     0.074 A 
ATOM     56  C   UNL A   1      41.573  31.432  36.431  1.00  0.00     0.029 A 
ATOM     57  N   UNL A   1      41.075  30.897  34.328  1.00  0.00    -0.354 N 
ATOM     58  N   UNL A   1      41.282  29.289  31.864  1.00  0.00    -0.248 NA
ATOM     59  C   UNL A   1      42.335  27.618  30.623  1.00  0.00     0.031 C 
ATOM     60  C   UNL A   1      42.421  30.399  36.022  1.00  0.00     0.029 A 
ATOM     61  C   UNL A   1      42.087  30.040  34.726  1.00  0.00     0.049 A 
ATOM     62  H   UNL A   1      40.639  30.888  33.445  1.00  0.00     0.167 HD
ATOM     63  C   UNL A   1      42.264  28.696  32.645  1.00  0.00     0.074 A 
ATOM     64  C   UNL A   1      42.851  27.643  31.842  1.00  0.00     0.031 C 
ATOM     65  C   UNL A   1      42.650  28.992  33.911  1.00  0.00     0.037 A 
BRANCH  52  66
ATOM     66  C   UNL A   1      39.595  33.728  36.456  1.00  0.00     0.064 A 
ATOM     67  C   UNL A   1      40.216  34.985  36.533  1.00  0.00     0.173 A 
ATOM     68  C   UNL A   1      38.764  33.343  37.518  1.00  0.00     0.173 A 
ATOM     69  F   UNL A   1      41.038  35.394  35.553  1.00  0.00    -0.203 F 
ATOM     70  C   UNL A   1      40.038  35.807  37.641  1.00  0.00     0.198 A 
ATOM     71  C   UNL A   1      38.556  34.185  38.606  1.00  0.00     0.198 A 
ATOM     72  F   UNL A   1      38.148  32.151  37.498  1.00  0.00    -0.203 F 
ATOM     73  F   UNL A   1      40.691  36.975  37.719  1.00  0.00    -0.200 F 
ATOM     74  C   UNL A   1      39.200  35.410  38.673  1.00  0.00     0.200 A 
ATOM     75  F   UNL A   1      37.735  33.806  39.596  1.00  0.00    -0.200 F 
ATOM     76  F   UNL A   1      39.021  36.207  39.736  1.00  0.00    -0.200 F 
ENDBRANCH  52  66
BRANCH  53  77
ATOM     77  C   UNL A   1      40.598  28.002  28.293  1.00  0.00     0.064 A 
ATOM     78  C   UNL A   1      39.984  26.745  28.206  1.00  0.00     0.173 A 
ATOM     79  C   UNL A   1      41.398  28.409  27.214  1.00  0.00     0.173 A 
ATOM     80  F   UNL A   1      39.224  26.299  29.217  1.00  0.00    -0.203 F 
ATOM     81  C   UNL A   1      40.192  25.914  27.106  1.00  0.00     0.198 A 
ATOM     82  C   UNL A   1      41.575  27.593  26.098  1.00  0.00     0.198 A 
ATOM     83  F   UNL A   1      42.006  29.604  27.240  1.00  0.00    -0.203 F 
ATOM     84  F   UNL A   1      39.644  24.691  27.080  1.00  0.00    -0.200 F 
ATOM     85  C   UNL A   1      40.982  26.341  26.051  1.00  0.00     0.200 A 
ATOM     86  F   UNL A   1      42.324  28.019  25.072  1.00  0.00    -0.200 F 
ATOM     87  F   UNL A   1      41.182  25.543  24.992  1.00  0.00    -0.200 F 
ENDBRANCH  53  77
BRANCH  65  88
ATOM     88  C   UNL A   1      43.726  28.142  34.525  1.00  0.00     0.064 A 
ATOM     89  C   UNL A   1      45.077  28.519  34.495  1.00  0.00     0.173 A 
ATOM     90  C   UNL A   1      43.391  26.953  35.193  1.00  0.00     0.173 A 
ATOM     91  F   UNL A   1      45.452  29.640  33.860  1.00  0.00    -0.203 F 
ATOM     92  C   UNL A   1      46.056  27.719  35.078  1.00  0.00     0.198 A 
ATOM     93  C   UNL A   1      44.367  26.179  35.812  1.00  0.00     0.198 A 
ATOM     94  F   UNL A   1      42.113  26.552  35.265  1.00  0.00    -0.203 F 
ATOM     95  F   UNL A   1      47.346  28.068  34.982  1.00  0.00    -0.200 F 
ATOM     96  C   UNL A   1      45.699  26.556  35.744  1.00  0.00     0.200 A 
ATOM     97  F   UNL A   1      44.018  25.068  36.476  1.00  0.00    -0.200 F 
ATOM     98  F   UNL A   1      46.642  25.794  36.314  1.00  0.00    -0.200 F 
ENDBRANCH  65  88
ENDBRANCH  39  40
ENDBRANCH  31  34
ENDBRANCH  29  30
ENDBRANCH  28  29
ENDBRANCH   1  28
TORSDOF 15
ENDMDL
MODEL 2
REMARK VINA RESULT:     -14.5      1.284      2.767
REMARK SMILES Cc1c(Cl)cccc1NC(=O)C[C@](C)(C(=O)NCCCCNC(=O)c1ccc(-c2c3nc(c(-c4c(F)c(F)c(F)c(F)c4F)c4ccc([nH]4)c(-c4c(F)c(F)c(F)c(F)c4F)c4nc(c(-c5c(F)c(F)c(F)c(F)c5F)c5ccc2[nH]5)C=C4)C=C3)cc1)c1ccccc1
REMARK SMILES IDX 19 1 18 2 17 3 15 4 16 5 13 7 14 8 12 9 10 10 9 11 11 13
REMARK SMILES IDX 8 14 1 15 2 16 3 17 4 18 5 19 7 20 6 21 88 22 89 23 93 24
REMARK SMILES IDX 90 25 92 26 91 27 20 28 21 29 22 30 23 31 24 33 25 34 26 35
REMARK SMILES IDX 87 36 27 37 86 38 28 39 29 40 30 41 80 42 31 43 85 44 79 45
REMARK SMILES IDX 81 46 32 47 84 48 78 49 77 50 33 52 65 53 45 54 64 55 46 56
REMARK SMILES IDX 49 57 63 58 82 59 47 60 48 61 62 63 83 64 50 65 34 66 35 67
REMARK SMILES IDX 43 68 36 69 37 70 41 71 44 72 38 73 39 74 42 75 40 76 66 77
REMARK SMILES IDX 67 78 75 79 68 80 69 81 73 82 76 83 70 84 71 85 74 86 72 87
REMARK SMILES IDX 51 88 52 89 60 90 53 91 54 92 58 93 61 94 55 95 56 96 59 97
REMARK SMILES IDX 57 98
REMARK H PARENT 17 6 9 12 22 32 81 51 49 62
REMARK Flexibility Score: inf
ROOT
ATOM      1  C   UNL A   1      32.153  30.341  26.890  1.00  0.00     0.023 C 
ENDROOT
BRANCH   1   2
ATOM      2  C   UNL A   1      32.094  29.492  25.389  1.00  0.00     0.116 C 
BRANCH   2   3
ATOM      3  N   UNL A   1      30.719  28.121  24.612  1.00  0.00    -0.355 N 
ATOM      4  C   UNL A   1      30.319  26.821  24.148  1.00  0.00     0.230 C 
ATOM      5  O   UNL A   1      29.102  26.848  23.883  1.00  0.00    -0.274 OA
ATOM      6  H   UNL A   1      29.903  28.659  24.505  1.00  0.00     0.163 HD
BRANCH   4   7
ATOM      7  C   UNL A   1      31.171  25.466  23.874  1.00  0.00     0.080 C 
ATOM      8  C   UNL A   1      30.212  24.476  23.109  1.00  0.00     0.027 C 
BRANCH   7   9
ATOM      9  C   UNL A   1      32.562  25.648  23.164  1.00  0.00     0.121 C 
BRANCH   9  10
ATOM     10  C   UNL A   1      32.833  24.933  21.855  1.00  0.00     0.225 C 
ATOM     11  N   UNL A   1      33.417  23.701  21.835  1.00  0.00    -0.326 N 
ATOM     12  H   UNL A   1      33.878  23.418  21.013  1.00  0.00     0.169 HD
ATOM     13  O   UNL A   1      32.573  25.465  20.773  1.00  0.00    -0.275 OA
BRANCH  11  14
ATOM     14  C   UNL A   1      33.395  22.820  22.913  1.00  0.00     0.045 A 
ATOM     15  C   UNL A   1      35.887  23.848  23.925  1.00  0.00     0.048 C 
ATOM     16  C   UNL A   1      34.983  22.659  23.770  1.00  0.00    -0.009 A 
ATOM     17  C   UNL A   1      35.326  21.174  24.733  1.00  0.00     0.046 A 
ATOM     18  Cl  UNL A   1      36.776  21.036  25.646  1.00  0.00    -0.084 Cl
ATOM     19  C   UNL A   1      34.155  19.807  24.753  1.00  0.00     0.021 A 
ATOM     20  C   UNL A   1      32.135  21.495  23.034  1.00  0.00     0.026 A 
ATOM     21  C   UNL A   1      32.545  19.968  23.928  1.00  0.00     0.004 A 
ENDBRANCH  11  14
ENDBRANCH   9  10
ENDBRANCH   7   9
BRANCH   7  22
ATOM     22  C   UNL A   1      31.533  24.591  25.146  1.00  0.00    -0.032 A 
ATOM     23  C   UNL A   1      32.814  24.785  25.745  1.00  0.00     0.005 A 
ATOM     24  C   UNL A   1      30.709  23.632  25.734  1.00  0.00     0.005 A 
ATOM     25  C   UNL A   1      33.300  23.970  26.763  1.00  0.00     0.000 A 
ATOM     26  C   UNL A   1      31.190  22.822  26.777  1.00  0.00     0.000 A 
ATOM     27  C   UNL A   1      32.487  22.971  27.269  1.00  0.00     0.000 A 
ENDBRANCH   7  22
ENDBRANCH   4   7
ENDBRANCH   2   3
ENDBRANCH   1   2
BRANCH   1  28
ATOM     28  C   UNL A   1      31.913  31.849  26.792  1.00  0.00     0.023 C 
BRANCH  28  29
ATOM     29  C   UNL A   1      32.981  32.697  27.445  1.00  0.00     0.116 C 
BRANCH  29  30
ATOM     30  N   UNL A   1      32.538  34.067  27.664  1.00  0.00    -0.352 N 
ATOM     31  C   UNL A   1      33.009  34.895  28.652  1.00  0.00     0.251 C 
ATOM     32  H   UNL A   1      31.851  34.425  27.057  1.00  0.00     0.163 HD
ATOM     33  O   UNL A   1      32.485  35.962  28.932  1.00  0.00    -0.269 OA
BRANCH  31  34
ATOM     34  C   UNL A   1      34.190  34.396  29.371  1.00  0.00     0.039 A 
ATOM     35  C   UNL A   1      34.014  33.459  30.386  1.00  0.00     0.014 A 
ATOM     36  C   UNL A   1      35.446  34.642  28.802  1.00  0.00     0.014 A 
ATOM     37  C   UNL A   1      35.125  32.761  30.847  1.00  0.00     0.010 A 
ATOM     38  C   UNL A   1      36.522  33.858  29.185  1.00  0.00     0.010 A 
ATOM     39  C   UNL A   1      36.383  32.948  30.244  1.00  0.00    -0.014 A 
BRANCH  39  40
ATOM     40  C   UNL A   1      37.583  32.275  30.793  1.00  0.00     0.031 A 
ATOM     41  C   UNL A   1      38.048  32.642  32.176  1.00  0.00     0.074 A 
ATOM     42  C   UNL A   1      38.227  31.334  30.077  1.00  0.00     0.049 A 
ATOM     43  N   UNL A   1      39.039  32.150  32.875  1.00  0.00    -0.248 NA
ATOM     44  C   UNL A   1      37.319  33.724  32.859  1.00  0.00     0.031 C 
ATOM     45  C   UNL A   1      37.890  30.926  28.712  1.00  0.00     0.029 A 
ATOM     46  N   UNL A   1      39.292  30.536  30.409  1.00  0.00    -0.354 N 
ATOM     47  C   UNL A   1      39.045  32.862  34.065  1.00  0.00     0.074 A 
ATOM     48  C   UNL A   1      38.026  33.878  33.966  1.00  0.00     0.031 C 
ATOM     49  C   UNL A   1      38.697  29.919  28.343  1.00  0.00     0.029 A 
ATOM     50  C   UNL A   1      39.635  29.639  29.427  1.00  0.00     0.049 A 
ATOM     51  H   UNL A   1      39.765  30.599  31.271  1.00  0.00     0.167 HD
ATOM     52  C   UNL A   1      39.803  32.659  35.167  1.00  0.00     0.037 A 
ATOM     53  C   UNL A   1      40.601  28.699  29.411  1.00  0.00     0.037 A 
ATOM     54  C   UNL A   1      40.804  31.635  35.267  1.00  0.00     0.049 A 
ATOM     55  C   UNL A   1      41.464  28.525  30.634  1.00  0.00     0.074 A 
ATOM     56  C   UNL A   1      41.607  31.318  36.346  1.00  0.00     0.029 A 
ATOM     57  N   UNL A   1      41.143  30.765  34.240  1.00  0.00    -0.354 N 
ATOM     58  N   UNL A   1      41.413  29.154  31.784  1.00  0.00    -0.248 NA
ATOM     59  C   UNL A   1      42.517  27.503  30.560  1.00  0.00     0.031 C 
ATOM     60  C   UNL A   1      42.482  30.304  35.949  1.00  0.00     0.029 A 
ATOM     61  C   UNL A   1      42.171  29.933  34.651  1.00  0.00     0.049 A 
ATOM     62  H   UNL A   1      40.717  30.743  33.353  1.00  0.00     0.167 HD
ATOM     63  C   UNL A   1      42.400  28.586  32.577  1.00  0.00     0.074 A 
ATOM     64  C   UNL A   1      43.019  27.545  31.784  1.00  0.00     0.031 C 
ATOM     65  C   UNL A   1      42.765  28.895  33.846  1.00  0.00     0.037 A 
BRANCH  52  66
ATOM     66  C   UNL A   1      39.576  33.568  36.342  1.00  0.00     0.064 A 
ATOM     67  C   UNL A   1      38.749  33.199  37.416  1.00  0.00     0.173 A 
ATOM     68  C   UNL A   1      40.208  34.818  36.403  1.00  0.00     0.173 A 
ATOM     69  F   UNL A   1      38.104  32.022  37.399  1.00  0.00    -0.203 F 
ATOM     70  C   UNL A   1      38.539  34.060  38.488  1.00  0.00     0.198 A 
ATOM     71  C   UNL A   1      40.028  35.660  37.496  1.00  0.00     0.198 A 
ATOM     72  F   UNL A   1      41.007  35.222  35.404  1.00  0.00    -0.203 F 
ATOM     73  F   UNL A   1      37.696  33.711  39.470  1.00  0.00    -0.200 F 
ATOM     74  C   UNL A   1      39.186  35.286  38.533  1.00  0.00     0.200 A 
ATOM     75  F   UNL A   1      40.665  36.838  37.545  1.00  0.00    -0.200 F 
ATOM     76  F   UNL A   1      38.991  36.110  39.571  1.00  0.00    -0.200 F 
ENDBRANCH  52  66
BRANCH  53  77
ATOM     77  C   UNL A   1      40.797  27.841  28.210  1.00  0.00     0.064 A 
ATOM     78  C   UNL A   1      40.214  26.568  28.121  1.00  0.00     0.173 A 
ATOM     79  C   UNL A   1      41.597  28.263  27.137  1.00  0.00     0.173 A 
ATOM     80  F   UNL A   1      39.454  26.108  29.126  1.00  0.00    -0.203 F 
ATOM     81  C   UNL A   1      40.452  25.739  27.026  1.00  0.00     0.198 A 
ATOM     82  C   UNL A   1      41.805  27.448  26.026  1.00  0.00     0.198 A 
ATOM     83  F   UNL A   1      42.177  29.472  27.165  1.00  0.00    -0.203 F 
ATOM     84  F   UNL A   1      39.934  24.503  26.999  1.00  0.00    -0.200 F 
ATOM     85  C   UNL A   1      41.243  26.182  25.977  1.00  0.00     0.200 A 
ATOM     86  F   UNL A   1      42.554  27.888  25.006  1.00  0.00    -0.200 F 
ATOM     87  F   UNL A   1      41.472  25.385  24.924  1.00  0.00    -0.200 F 
ENDBRANCH  53  77
BRANCH  65  88
ATOM     88  C   UNL A   1      43.854  28.072  34.474  1.00  0.00     0.064 A 
ATOM     89  C   UNL A   1      45.196  28.480  34.457  1.00  0.00     0.173 A 
ATOM     90  C   UNL A   1      43.539  26.878  35.143  1.00  0.00     0.173 A 
ATOM     91  F   UNL A   1      45.552  29.607  33.823  1.00  0.00    -0.203 F 
ATOM     92  C   UNL A   1      46.187  27.704  35.053  1.00  0.00     0.198 A 
ATOM     93  C   UNL A   1      44.527  26.128  35.775  1.00  0.00     0.198 A 
ATOM     94  F   UNL A   1      42.270  26.448  35.202  1.00  0.00    -0.203 F 
ATOM     95  F   UNL A   1      47.470  28.082  34.970  1.00  0.00    -0.200 F 
ATOM     96  C   UNL A   1      45.850  26.535  35.719  1.00  0.00     0.200 A 
ATOM     97  F   UNL A   1      44.196  25.012  36.438  1.00  0.00    -0.200 F 
ATOM     98  F   UNL A   1      46.804  25.797  36.302  1.00  0.00    -0.200 F 
ENDBRANCH  65  88
ENDBRANCH  39  40
ENDBRANCH  31  34
ENDBRANCH  29  30
ENDBRANCH  28  29
ENDBRANCH   1  28
TORSDOF 15
ENDMDL
MODEL 3
REMARK VINA RESULT:     -14.5      1.088      2.013
REMARK SMILES Cc1c(Cl)cccc1NC(=O)C[C@](C)(C(=O)NCCCCNC(=O)c1ccc(-c2c3nc(c(-c4c(F)c(F)c(F)c(F)c4F)c4ccc([nH]4)c(-c4c(F)c(F)c(F)c(F)c4F)c4nc(c(-c5c(F)c(F)c(F)c(F)c5F)c5ccc2[nH]5)C=C4)C=C3)cc1)c1ccccc1
REMARK SMILES IDX 19 1 18 2 17 3 15 4 16 5 13 7 14 8 12 9 10 10 9 11 11 13
REMARK SMILES IDX 8 14 1 15 2 16 3 17 4 18 5 19 7 20 6 21 88 22 89 23 93 24
REMARK SMILES IDX 90 25 92 26 91 27 20 28 21 29 22 30 23 31 24 33 25 34 26 35
REMARK SMILES IDX 87 36 27 37 86 38 28 39 29 40 30 41 80 42 31 43 85 44 79 45
REMARK SMILES IDX 81 46 32 47 84 48 78 49 77 50 33 52 65 53 45 54 64 55 46 56
REMARK SMILES IDX 49 57 63 58 82 59 47 60 48 61 62 63 83 64 50 65 34 66 35 67
REMARK SMILES IDX 43 68 36 69 37 70 41 71 44 72 38 73 39 74 42 75 40 76 66 77
REMARK SMILES IDX 67 78 75 79 68 80 69 81 73 82 76 83 70 84 71 85 74 86 72 87
REMARK SMILES IDX 51 88 52 89 60 90 53 91 54 92 58 93 61 94 55 95 56 96 59 97
REMARK SMILES IDX 57 98
REMARK H PARENT 17 6 9 12 22 32 81 51 49 62
REMARK Flexibility Score: inf
ROOT
ATOM      1  C   UNL A   1      32.951  30.067  27.342  1.00  0.00     0.023 C 
ENDROOT
BRANCH   1   2
ATOM      2  C   UNL A   1      31.793  28.806  27.557  1.00  0.00     0.116 C 
BRANCH   2   3
ATOM      3  N   UNL A   1      31.174  27.247  26.308  1.00  0.00    -0.355 N 
ATOM      4  C   UNL A   1      30.990  26.617  25.030  1.00  0.00     0.230 C 
ATOM      5  O   UNL A   1      30.540  25.469  25.212  1.00  0.00    -0.274 OA
ATOM      6  H   UNL A   1      30.812  26.585  26.940  1.00  0.00     0.163 HD
BRANCH   4   7
ATOM      7  C   UNL A   1      31.195  27.171  23.518  1.00  0.00     0.080 C 
ATOM      8  C   UNL A   1      32.383  28.206  23.573  1.00  0.00     0.027 C 
BRANCH   7   9
ATOM      9  C   UNL A   1      31.377  26.085  22.395  1.00  0.00     0.121 C 
BRANCH   9  10
ATOM     10  C   UNL A   1      32.767  25.768  21.879  1.00  0.00     0.225 C 
ATOM     11  N   UNL A   1      33.578  24.891  22.537  1.00  0.00    -0.326 N 
ATOM     12  H   UNL A   1      34.549  24.957  22.393  1.00  0.00     0.169 HD
ATOM     13  O   UNL A   1      33.217  26.327  20.876  1.00  0.00    -0.275 OA
BRANCH  11  14
ATOM     14  C   UNL A   1      33.107  23.905  23.401  1.00  0.00     0.045 A 
ATOM     15  C   UNL A   1      34.118  25.308  25.704  1.00  0.00     0.048 C 
ATOM     16  C   UNL A   1      33.814  23.983  25.068  1.00  0.00    -0.009 A 
ATOM     17  C   UNL A   1      33.831  22.501  26.094  1.00  0.00     0.046 A 
ATOM     18  Cl  UNL A   1      34.395  22.565  27.718  1.00  0.00    -0.084 Cl
ATOM     19  C   UNL A   1      33.261  20.926  25.436  1.00  0.00     0.021 A 
ATOM     20  C   UNL A   1      32.397  22.341  22.764  1.00  0.00     0.026 A 
ATOM     21  C   UNL A   1      32.517  20.840  23.781  1.00  0.00     0.004 A 
ENDBRANCH  11  14
ENDBRANCH   9  10
ENDBRANCH   7   9
BRANCH   7  22
ATOM     22  C   UNL A   1      30.040  28.090  22.940  1.00  0.00    -0.032 A 
ATOM     23  C   UNL A   1      30.414  29.182  22.101  1.00  0.00     0.005 A 
ATOM     24  C   UNL A   1      28.676  27.933  23.188  1.00  0.00     0.005 A 
ATOM     25  C   UNL A   1      29.506  30.141  21.666  1.00  0.00     0.000 A 
ATOM     26  C   UNL A   1      27.754  28.890  22.731  1.00  0.00     0.000 A 
ATOM     27  C   UNL A   1      28.170  30.002  21.999  1.00  0.00     0.000 A 
ENDBRANCH   7  22
ENDBRANCH   4   7
ENDBRANCH   2   3
ENDBRANCH   1   2
BRANCH   1  28
ATOM     28  C   UNL A   1      32.366  31.478  27.264  1.00  0.00     0.023 C 
BRANCH  28  29
ATOM     29  C   UNL A   1      33.397  32.584  27.250  1.00  0.00     0.116 C 
BRANCH  29  30
ATOM     30  N   UNL A   1      32.826  33.873  27.612  1.00  0.00    -0.352 N 
ATOM     31  C   UNL A   1      33.160  34.593  28.732  1.00  0.00     0.251 C 
ATOM     32  H   UNL A   1      32.150  34.257  27.008  1.00  0.00     0.163 HD
ATOM     33  O   UNL A   1      32.529  35.569  29.109  1.00  0.00    -0.269 OA
BRANCH  31  34
ATOM     34  C   UNL A   1      34.331  34.092  29.465  1.00  0.00     0.039 A 
ATOM     35  C   UNL A   1      34.158  33.069  30.394  1.00  0.00     0.014 A 
ATOM     36  C   UNL A   1      35.597  34.440  28.978  1.00  0.00     0.014 A 
ATOM     37  C   UNL A   1      35.280  32.389  30.852  1.00  0.00     0.010 A 
ATOM     38  C   UNL A   1      36.693  33.679  29.349  1.00  0.00     0.010 A 
ATOM     39  C   UNL A   1      36.553  32.681  30.326  1.00  0.00    -0.014 A 
BRANCH  39  40
ATOM     40  C   UNL A   1      37.759  32.022  30.877  1.00  0.00     0.031 A 
ATOM     41  C   UNL A   1      38.211  32.385  32.266  1.00  0.00     0.074 A 
ATOM     42  C   UNL A   1      38.421  31.096  30.159  1.00  0.00     0.049 A 
ATOM     43  N   UNL A   1      39.205  31.903  32.967  1.00  0.00    -0.248 NA
ATOM     44  C   UNL A   1      37.462  33.452  32.953  1.00  0.00     0.031 C 
ATOM     45  C   UNL A   1      38.098  30.692  28.789  1.00  0.00     0.029 A 
ATOM     46  N   UNL A   1      39.496  30.310  30.491  1.00  0.00    -0.354 N 
ATOM     47  C   UNL A   1      39.193  32.606  34.163  1.00  0.00     0.074 A 
ATOM     48  C   UNL A   1      38.160  33.608  34.065  1.00  0.00     0.031 C 
ATOM     49  C   UNL A   1      38.923  29.700  28.418  1.00  0.00     0.029 A 
ATOM     50  C   UNL A   1      39.858  29.426  29.505  1.00  0.00     0.049 A 
ATOM     51  H   UNL A   1      39.963  30.374  31.356  1.00  0.00     0.167 HD
ATOM     52  C   UNL A   1      39.947  32.407  35.268  1.00  0.00     0.037 A 
ATOM     53  C   UNL A   1      40.837  28.500  29.488  1.00  0.00     0.037 A 
ATOM     54  C   UNL A   1      40.962  31.397  35.366  1.00  0.00     0.049 A 
ATOM     55  C   UNL A   1      41.696  28.331  30.715  1.00  0.00     0.074 A 
ATOM     56  C   UNL A   1      41.763  31.083  36.448  1.00  0.00     0.029 A 
ATOM     57  N   UNL A   1      41.321  30.539  34.336  1.00  0.00    -0.354 N 
ATOM     58  N   UNL A   1      41.629  28.951  31.869  1.00  0.00    -0.248 NA
ATOM     59  C   UNL A   1      42.765  27.325  30.640  1.00  0.00     0.031 C 
ATOM     60  C   UNL A   1      42.656  30.085  36.049  1.00  0.00     0.029 A 
ATOM     61  C   UNL A   1      42.358  29.719  34.747  1.00  0.00     0.049 A 
ATOM     62  H   UNL A   1      40.900  30.517  33.445  1.00  0.00     0.167 HD
ATOM     63  C   UNL A   1      42.620  28.391  32.665  1.00  0.00     0.074 A 
ATOM     64  C   UNL A   1      43.259  27.364  31.868  1.00  0.00     0.031 C 
ATOM     65  C   UNL A   1      42.972  28.696  33.938  1.00  0.00     0.037 A 
BRANCH  52  66
ATOM     66  C   UNL A   1      39.700  33.303  36.448  1.00  0.00     0.064 A 
ATOM     67  C   UNL A   1      40.386  34.517  36.613  1.00  0.00     0.173 A 
ATOM     68  C   UNL A   1      38.752  32.949  37.420  1.00  0.00     0.173 A 
ATOM     69  F   UNL A   1      41.318  34.894  35.724  1.00  0.00    -0.203 F 
ATOM     70  C   UNL A   1      40.155  35.327  37.721  1.00  0.00     0.198 A 
ATOM     71  C   UNL A   1      38.495  33.781  38.505  1.00  0.00     0.198 A 
ATOM     72  F   UNL A   1      38.070  31.800  37.313  1.00  0.00    -0.203 F 
ATOM     73  F   UNL A   1      40.868  36.450  37.888  1.00  0.00    -0.200 F 
ATOM     74  C   UNL A   1      39.203  34.963  38.661  1.00  0.00     0.200 A 
ATOM     75  F   UNL A   1      37.565  33.436  39.406  1.00  0.00    -0.200 F 
ATOM     76  F   UNL A   1      38.974  35.749  39.723  1.00  0.00    -0.200 F 
ENDBRANCH  52  66
BRANCH  53  77
ATOM     77  C   UNL A   1      41.054  27.654  28.282  1.00  0.00     0.064 A 
ATOM     78  C   UNL A   1      40.440  26.400  28.154  1.00  0.00     0.173 A 
ATOM     79  C   UNL A   1      41.903  28.068  27.245  1.00  0.00     0.173 A 
ATOM     80  F   UNL A   1      39.632  25.947  29.124  1.00  0.00    -0.203 F 
ATOM     81  C   UNL A   1      40.695  25.579  27.056  1.00  0.00     0.198 A 
ATOM     82  C   UNL A   1      42.128  27.264  26.130  1.00  0.00     0.198 A 
ATOM     83  F   UNL A   1      42.514  29.261  27.312  1.00  0.00    -0.203 F 
ATOM     84  F   UNL A   1      40.145  24.359  26.992  1.00  0.00    -0.200 F 
ATOM     85  C   UNL A   1      41.534  26.015  26.043  1.00  0.00     0.200 A 
ATOM     86  F   UNL A   1      42.925  27.697  25.144  1.00  0.00    -0.200 F 
ATOM     87  F   UNL A   1      41.779  25.227  24.986  1.00  0.00    -0.200 F 
ENDBRANCH  53  77
BRANCH  65  88
ATOM     88  C   UNL A   1      44.070  27.884  34.567  1.00  0.00     0.064 A 
ATOM     89  C   UNL A   1      43.812  26.673  35.225  1.00  0.00     0.173 A 
ATOM     90  C   UNL A   1      45.405  28.306  34.466  1.00  0.00     0.173 A 
ATOM     91  F   UNL A   1      42.552  26.230  35.358  1.00  0.00    -0.203 F 
ATOM     92  C   UNL A   1      44.847  25.934  35.793  1.00  0.00     0.198 A 
ATOM     93  C   UNL A   1      46.440  27.542  34.997  1.00  0.00     0.198 A 
ATOM     94  F   UNL A   1      45.710  29.450  33.835  1.00  0.00    -0.203 F 
ATOM     95  F   UNL A   1      44.569  24.812  36.471  1.00  0.00    -0.200 F 
ATOM     96  C   UNL A   1      46.159  26.364  35.669  1.00  0.00     0.200 A 
ATOM     97  F   UNL A   1      47.710  27.947  34.856  1.00  0.00    -0.200 F 
ATOM     98  F   UNL A   1      47.154  25.644  36.206  1.00  0.00    -0.200 F 
ENDBRANCH  65  88
ENDBRANCH  39  40
ENDBRANCH  31  34
ENDBRANCH  29  30
ENDBRANCH  28  29
ENDBRANCH   1  28
TORSDOF 15
ENDMDL
