MODEL 1
REMARK VINA RESULT:     -12.9      0.000      0.000
REMARK SMILES CC[C@@H]1CCC[C@@](Cc2ccccn2)(C(=O)NCCCCNC(=O)c2ccc(-c3c4nc(c(-c5c(F)c(F)c(F)c(F)c5F)c5ccc([nH]5)c(-c5c(F)c(F)c(F)c(F)c5F)c5nc(c(-c6c(F)c(F)c(F)c(F)c6F)c6ccc3[nH]6)C=C5)C=C4)cc2)C1
REMARK SMILES IDX 19 1 18 2 17 3 15 4 16 5 7 7 3 8 4 9 88 10 5 11 6 12 2 13
REMARK SMILES IDX 1 14 8 15 9 16 10 17 14 18 11 19 13 20 12 21 20 22 21 23
REMARK SMILES IDX 22 24 23 25 24 27 25 28 26 29 87 30 27 31 86 32 28 33 29 34
REMARK SMILES IDX 30 35 80 36 31 37 85 38 79 39 81 40 32 41 84 42 78 43 77 44
REMARK SMILES IDX 33 46 65 47 45 48 64 49 46 50 49 51 63 52 82 53 47 54 48 55
REMARK SMILES IDX 62 57 83 58 50 59 34 60 35 61 43 62 36 63 37 64 41 65 44 66
REMARK SMILES IDX 38 67 39 68 42 69 40 70 66 71 67 72 75 73 68 74 69 75 73 76
REMARK SMILES IDX 76 77 70 78 71 79 74 80 72 81 51 82 52 83 60 84 53 85 54 86
REMARK SMILES IDX 58 87 61 88 55 89 56 90 59 91 57 92
REMARK H PARENT 17 6 22 26 81 45 49 56
REMARK Flexibility Score: inf
ROOT
ATOM      1  C   UNL A   1      31.842  30.507  26.520  1.00  0.00     0.023 C 
ENDROOT
BRANCH   1   2
ATOM      2  C   UNL A   1      31.495  30.078  25.102  1.00  0.00     0.116 C 
BRANCH   2   3
ATOM      3  N   UNL A   1      32.634  29.649  24.320  1.00  0.00    -0.356 N 
ATOM      4  C   UNL A   1      32.843  28.544  23.555  1.00  0.00     0.226 C 
ATOM      5  O   UNL A   1      33.774  28.644  22.747  1.00  0.00    -0.274 OA
ATOM      6  H   UNL A   1      33.398  30.271  24.345  1.00  0.00     0.163 HD
BRANCH   4   7
ATOM      7  C   UNL A   1      31.983  27.251  23.617  1.00  0.00     0.055 C 
ATOM      8  C   UNL A   1      34.002  25.734  24.344  1.00  0.00    -0.010 C 
ATOM      9  C   UNL A   1      33.397  25.629  25.751  1.00  0.00     0.003 C 
ATOM     10  C   UNL A   1      32.922  26.031  23.282  1.00  0.00     0.021 C 
ATOM     11  C   UNL A   1      32.456  26.781  26.075  1.00  0.00     0.001 C 
ATOM     12  C   UNL A   1      31.381  26.926  25.001  1.00  0.00     0.017 C 
BRANCH   8  13
ATOM     13  C   UNL A   1      34.778  24.435  24.036  1.00  0.00     0.000 C 
ATOM     14  C   UNL A   1      34.058  23.482  23.095  1.00  0.00     0.004 C 
ENDBRANCH   8  13
BRANCH   7  15
ATOM     15  C   UNL A   1      30.922  27.265  22.472  1.00  0.00     0.073 C 
BRANCH  15  16
ATOM     16  C   UNL A   1      29.862  28.336  22.481  1.00  0.00     0.041 A 
ATOM     17  C   UNL A   1      28.643  28.123  23.126  1.00  0.00     0.024 A 
ATOM     18  N   UNL A   1      30.143  29.494  21.835  1.00  0.00    -0.261 NA
ATOM     19  C   UNL A   1      27.672  29.121  23.083  1.00  0.00     0.003 A 
ATOM     20  C   UNL A   1      29.188  30.452  21.823  1.00  0.00     0.111 A 
ATOM     21  C   UNL A   1      27.945  30.308  22.415  1.00  0.00     0.020 A 
ENDBRANCH  15  16
ENDBRANCH   7  15
ENDBRANCH   4   7
ENDBRANCH   2   3
ENDBRANCH   1   2
BRANCH   1  22
ATOM     22  C   UNL A   1      31.523  31.966  26.849  1.00  0.00     0.023 C 
BRANCH  22  23
ATOM     23  C   UNL A   1      32.707  32.837  27.265  1.00  0.00     0.116 C 
BRANCH  23  24
ATOM     24  N   UNL A   1      32.350  34.203  27.626  1.00  0.00    -0.352 N 
ATOM     25  C   UNL A   1      32.957  35.031  28.541  1.00  0.00     0.251 C 
ATOM     26  H   UNL A   1      31.574  34.583  27.153  1.00  0.00     0.163 HD
ATOM     27  O   UNL A   1      32.528  36.162  28.751  1.00  0.00    -0.269 OA
BRANCH  25  28
ATOM     28  C   UNL A   1      34.111  34.523  29.306  1.00  0.00     0.039 A 
ATOM     29  C   UNL A   1      33.885  33.921  30.547  1.00  0.00     0.014 A 
ATOM     30  C   UNL A   1      35.396  34.568  28.761  1.00  0.00     0.014 A 
ATOM     31  C   UNL A   1      34.937  33.282  31.203  1.00  0.00     0.010 A 
ATOM     32  C   UNL A   1      36.431  33.879  29.386  1.00  0.00     0.010 A 
ATOM     33  C   UNL A   1      36.206  33.215  30.604  1.00  0.00    -0.014 A 
BRANCH  33  34
ATOM     34  C   UNL A   1      37.305  32.426  31.215  1.00  0.00     0.031 A 
ATOM     35  C   UNL A   1      37.801  32.761  32.592  1.00  0.00     0.074 A 
ATOM     36  C   UNL A   1      37.911  31.462  30.495  1.00  0.00     0.049 A 
ATOM     37  N   UNL A   1      38.800  32.245  33.261  1.00  0.00    -0.248 NA
ATOM     38  C   UNL A   1      37.099  33.842  33.301  1.00  0.00     0.031 C 
ATOM     39  C   UNL A   1      37.556  31.079  29.128  1.00  0.00     0.029 A 
ATOM     40  N   UNL A   1      38.963  30.638  30.808  1.00  0.00    -0.354 N 
ATOM     41  C   UNL A   1      38.856  32.945  34.457  1.00  0.00     0.074 A 
ATOM     42  C   UNL A   1      37.820  33.954  34.406  1.00  0.00     0.031 C 
ATOM     43  C   UNL A   1      38.365  30.084  28.726  1.00  0.00     0.029 A 
ATOM     44  C   UNL A   1      39.314  29.782  29.793  1.00  0.00     0.049 A 
ATOM     45  H   UNL A   1      39.422  30.658  31.679  1.00  0.00     0.167 HD
ATOM     46  C   UNL A   1      39.683  32.750  35.512  1.00  0.00     0.037 A 
ATOM     47  C   UNL A   1      40.295  28.862  29.729  1.00  0.00     0.037 A 
ATOM     48  C   UNL A   1      40.694  31.727  35.572  1.00  0.00     0.049 A 
ATOM     49  C   UNL A   1      41.193  28.660  30.918  1.00  0.00     0.074 A 
ATOM     50  C   UNL A   1      41.534  31.406  36.624  1.00  0.00     0.029 A 
ATOM     51  N   UNL A   1      41.001  30.859  34.535  1.00  0.00    -0.354 N 
ATOM     52  N   UNL A   1      41.189  29.278  32.073  1.00  0.00    -0.248 NA
ATOM     53  C   UNL A   1      42.231  27.625  30.796  1.00  0.00     0.031 C 
ATOM     54  C   UNL A   1      42.376  30.368  36.210  1.00  0.00     0.029 A 
ATOM     55  C   UNL A   1      42.032  30.014  34.916  1.00  0.00     0.049 A 
ATOM     56  H   UNL A   1      40.554  30.846  33.659  1.00  0.00     0.167 HD
ATOM     57  C   UNL A   1      42.199  28.693  32.824  1.00  0.00     0.074 A 
ATOM     58  C   UNL A   1      42.790  27.661  31.998  1.00  0.00     0.031 C 
ATOM     59  C   UNL A   1      42.601  28.985  34.085  1.00  0.00     0.037 A 
BRANCH  46  60
ATOM     60  C   UNL A   1      39.525  33.662  36.691  1.00  0.00     0.064 A 
ATOM     61  C   UNL A   1      38.722  33.310  37.787  1.00  0.00     0.173 A 
ATOM     62  C   UNL A   1      40.208  34.885  36.744  1.00  0.00     0.173 A 
ATOM     63  F   UNL A   1      38.037  32.156  37.780  1.00  0.00    -0.203 F 
ATOM     64  C   UNL A   1      38.586  34.163  38.879  1.00  0.00     0.198 A 
ATOM     65  C   UNL A   1      40.093  35.723  37.850  1.00  0.00     0.198 A 
ATOM     66  F   UNL A   1      40.993  35.266  35.725  1.00  0.00    -0.203 F 
ATOM     67  F   UNL A   1      37.777  33.827  39.893  1.00  0.00    -0.200 F 
ATOM     68  C   UNL A   1      39.277  35.365  38.913  1.00  0.00     0.200 A 
ATOM     69  F   UNL A   1      40.769  36.880  37.887  1.00  0.00    -0.200 F 
ATOM     70  F   UNL A   1      39.150  36.182  39.967  1.00  0.00    -0.200 F 
ENDBRANCH  46  60
BRANCH  47  71
ATOM     71  C   UNL A   1      40.460  28.037  28.505  1.00  0.00     0.064 A 
ATOM     72  C   UNL A   1      39.847  26.780  28.400  1.00  0.00     0.173 A 
ATOM     73  C   UNL A   1      41.232  28.481  27.422  1.00  0.00     0.173 A 
ATOM     74  F   UNL A   1      39.116  26.306  29.419  1.00  0.00    -0.203 F 
ATOM     75  C   UNL A   1      40.017  25.989  27.265  1.00  0.00     0.198 A 
ATOM     76  C   UNL A   1      41.380  27.700  26.277  1.00  0.00     0.198 A 
ATOM     77  F   UNL A   1      41.835  29.677  27.473  1.00  0.00    -0.203 F 
ATOM     78  F   UNL A   1      39.455  24.775  27.208  1.00  0.00    -0.200 F 
ATOM     79  C   UNL A   1      40.778  26.452  26.203  1.00  0.00     0.200 A 
ATOM     80  F   UNL A   1      42.108  28.154  25.248  1.00  0.00    -0.200 F 
ATOM     81  F   UNL A   1      40.939  25.692  25.111  1.00  0.00    -0.200 F 
ENDBRANCH  47  71
BRANCH  59  82
ATOM     82  C   UNL A   1      43.709  28.155  34.662  1.00  0.00     0.064 A 
ATOM     83  C   UNL A   1      45.050  28.557  34.576  1.00  0.00     0.173 A 
ATOM     84  C   UNL A   1      43.420  26.964  35.346  1.00  0.00     0.173 A 
ATOM     85  F   UNL A   1      45.376  29.679  33.917  1.00  0.00    -0.203 F 
ATOM     86  C   UNL A   1      46.064  27.785  35.135  1.00  0.00     0.198 A 
ATOM     87  C   UNL A   1      44.435  26.209  35.926  1.00  0.00     0.198 A 
ATOM     88  F   UNL A   1      42.154  26.540  35.460  1.00  0.00    -0.203 F 
ATOM     89  F   UNL A   1      47.343  28.166  35.004  1.00  0.00    -0.200 F 
ATOM     90  C   UNL A   1      45.756  26.617  35.816  1.00  0.00     0.200 A 
ATOM     91  F   UNL A   1      44.135  25.086  36.593  1.00  0.00    -0.200 F 
ATOM     92  F   UNL A   1      46.734  25.880  36.360  1.00  0.00    -0.200 F 
ENDBRANCH  59  82
ENDBRANCH  33  34
ENDBRANCH  25  28
ENDBRANCH  23  24
ENDBRANCH  22  23
ENDBRANCH   1  22
TORSDOF 14
ENDMDL
MODEL 2
REMARK VINA RESULT:     -12.8      0.134      1.607
REMARK SMILES CC[C@@H]1CCC[C@@](Cc2ccccn2)(C(=O)NCCCCNC(=O)c2ccc(-c3c4nc(c(-c5c(F)c(F)c(F)c(F)c5F)c5ccc([nH]5)c(-c5c(F)c(F)c(F)c(F)c5F)c5nc(c(-c6c(F)c(F)c(F)c(F)c6F)c6ccc3[nH]6)C=C5)C=C4)cc2)C1
REMARK SMILES IDX 19 1 18 2 17 3 15 4 16 5 7 7 3 8 4 9 88 10 5 11 6 12 2 13
REMARK SMILES IDX 1 14 8 15 9 16 10 17 14 18 11 19 13 20 12 21 20 22 21 23
REMARK SMILES IDX 22 24 23 25 24 27 25 28 26 29 87 30 27 31 86 32 28 33 29 34
REMARK SMILES IDX 30 35 80 36 31 37 85 38 79 39 81 40 32 41 84 42 78 43 77 44
REMARK SMILES IDX 33 46 65 47 45 48 64 49 46 50 49 51 63 52 82 53 47 54 48 55
REMARK SMILES IDX 62 57 83 58 50 59 34 60 35 61 43 62 36 63 37 64 41 65 44 66
REMARK SMILES IDX 38 67 39 68 42 69 40 70 66 71 67 72 75 73 68 74 69 75 73 76
REMARK SMILES IDX 76 77 70 78 71 79 74 80 72 81 51 82 52 83 60 84 53 85 54 86
REMARK SMILES IDX 58 87 61 88 55 89 56 90 59 91 57 92
REMARK H PARENT 17 6 22 26 81 45 49 56
REMARK Flexibility Score: inf
ROOT
ATOM      1  C   UNL A   1      31.830  30.514  26.549  1.00  0.00     0.023 C 
ENDROOT
BRANCH   1   2
ATOM      2  C   UNL A   1      31.527  30.059  25.129  1.00  0.00     0.116 C 
BRANCH   2   3
ATOM      3  N   UNL A   1      32.690  29.616  24.390  1.00  0.00    -0.356 N 
ATOM      4  C   UNL A   1      32.912  28.512  23.627  1.00  0.00     0.226 C 
ATOM      5  O   UNL A   1      33.876  28.602  22.858  1.00  0.00    -0.274 OA
ATOM      6  H   UNL A   1      33.462  30.225  24.450  1.00  0.00     0.163 HD
BRANCH   4   7
ATOM      7  C   UNL A   1      32.029  27.233  23.646  1.00  0.00     0.055 C 
ATOM      8  C   UNL A   1      33.996  25.677  24.430  1.00  0.00    -0.010 C 
ATOM      9  C   UNL A   1      33.340  25.569  25.814  1.00  0.00     0.003 C 
ATOM     10  C   UNL A   1      32.959  26.000  23.333  1.00  0.00     0.021 C 
ATOM     11  C   UNL A   1      32.407  26.733  26.116  1.00  0.00     0.001 C 
ATOM     12  C   UNL A   1      31.373  26.906  25.005  1.00  0.00     0.017 C 
BRANCH   8  13
ATOM     13  C   UNL A   1      34.761  24.368  24.137  1.00  0.00     0.000 C 
ATOM     14  C   UNL A   1      33.926  23.289  23.466  1.00  0.00     0.004 C 
ENDBRANCH   8  13
BRANCH   7  15
ATOM     15  C   UNL A   1      31.010  27.275  22.465  1.00  0.00     0.073 C 
BRANCH  15  16
ATOM     16  C   UNL A   1      29.920  28.316  22.486  1.00  0.00     0.041 A 
ATOM     17  C   UNL A   1      28.749  28.102  23.213  1.00  0.00     0.024 A 
ATOM     18  N   UNL A   1      30.128  29.447  21.768  1.00  0.00    -0.261 NA
ATOM     19  C   UNL A   1      27.748  29.070  23.181  1.00  0.00     0.003 A 
ATOM     20  C   UNL A   1      29.145  30.377  21.767  1.00  0.00     0.111 A 
ATOM     21  C   UNL A   1      27.944  30.229  22.440  1.00  0.00     0.020 A 
ENDBRANCH  15  16
ENDBRANCH   7  15
ENDBRANCH   4   7
ENDBRANCH   2   3
ENDBRANCH   1   2
BRANCH   1  22
ATOM     22  C   UNL A   1      31.530  31.985  26.833  1.00  0.00     0.023 C 
BRANCH  22  23
ATOM     23  C   UNL A   1      32.697  32.825  27.349  1.00  0.00     0.116 C 
BRANCH  23  24
ATOM     24  N   UNL A   1      32.348  34.199  27.682  1.00  0.00    -0.352 N 
ATOM     25  C   UNL A   1      32.966  35.047  28.572  1.00  0.00     0.251 C 
ATOM     26  H   UNL A   1      31.568  34.571  27.208  1.00  0.00     0.163 HD
ATOM     27  O   UNL A   1      32.543  36.183  28.760  1.00  0.00    -0.269 OA
BRANCH  25  28
ATOM     28  C   UNL A   1      34.126  34.552  29.337  1.00  0.00     0.039 A 
ATOM     29  C   UNL A   1      33.911  33.975  30.591  1.00  0.00     0.014 A 
ATOM     30  C   UNL A   1      35.407  34.585  28.779  1.00  0.00     0.014 A 
ATOM     31  C   UNL A   1      34.968  33.348  31.250  1.00  0.00     0.010 A 
ATOM     32  C   UNL A   1      36.446  33.908  29.409  1.00  0.00     0.010 A 
ATOM     33  C   UNL A   1      36.232  33.268  30.642  1.00  0.00    -0.014 A 
BRANCH  33  34
ATOM     34  C   UNL A   1      37.335  32.490  31.259  1.00  0.00     0.031 A 
ATOM     35  C   UNL A   1      37.838  32.846  32.627  1.00  0.00     0.074 A 
ATOM     36  C   UNL A   1      37.939  31.516  30.550  1.00  0.00     0.049 A 
ATOM     37  N   UNL A   1      38.842  32.341  33.299  1.00  0.00    -0.248 NA
ATOM     38  C   UNL A   1      37.138  33.937  33.324  1.00  0.00     0.031 C 
ATOM     39  C   UNL A   1      37.578  31.112  29.190  1.00  0.00     0.029 A 
ATOM     40  N   UNL A   1      38.994  30.698  30.869  1.00  0.00    -0.354 N 
ATOM     41  C   UNL A   1      38.903  33.059  34.484  1.00  0.00     0.074 A 
ATOM     42  C   UNL A   1      37.865  34.066  34.423  1.00  0.00     0.031 C 
ATOM     43  C   UNL A   1      38.386  30.113  28.799  1.00  0.00     0.029 A 
ATOM     44  C   UNL A   1      39.341  29.828  29.865  1.00  0.00     0.049 A 
ATOM     45  H   UNL A   1      39.458  30.733  31.737  1.00  0.00     0.167 HD
ATOM     46  C   UNL A   1      39.736  32.882  35.537  1.00  0.00     0.037 A 
ATOM     47  C   UNL A   1      40.323  28.908  29.810  1.00  0.00     0.037 A 
ATOM     48  C   UNL A   1      40.749  31.862  35.607  1.00  0.00     0.049 A 
ATOM     49  C   UNL A   1      41.228  28.725  30.996  1.00  0.00     0.074 A 
ATOM     50  C   UNL A   1      41.595  31.557  36.659  1.00  0.00     0.029 A 
ATOM     51  N   UNL A   1      41.052  30.978  34.582  1.00  0.00    -0.354 N 
ATOM     52  N   UNL A   1      41.229  29.361  32.142  1.00  0.00    -0.248 NA
ATOM     53  C   UNL A   1      42.267  27.691  30.884  1.00  0.00     0.031 C 
ATOM     54  C   UNL A   1      42.437  30.515  36.256  1.00  0.00     0.029 A 
ATOM     55  C   UNL A   1      42.086  30.141  34.969  1.00  0.00     0.049 A 
ATOM     56  H   UNL A   1      40.600  30.951  33.708  1.00  0.00     0.167 HD
ATOM     57  C   UNL A   1      42.244  28.789  32.896  1.00  0.00     0.074 A 
ATOM     58  C   UNL A   1      42.832  27.745  32.082  1.00  0.00     0.031 C 
ATOM     59  C   UNL A   1      42.652  29.101  34.150  1.00  0.00     0.037 A 
BRANCH  46  60
ATOM     60  C   UNL A   1      39.582  33.811  36.703  1.00  0.00     0.064 A 
ATOM     61  C   UNL A   1      38.800  33.467  37.817  1.00  0.00     0.173 A 
ATOM     62  C   UNL A   1      40.250  35.044  36.726  1.00  0.00     0.173 A 
ATOM     63  F   UNL A   1      38.132  32.304  37.839  1.00  0.00    -0.203 F 
ATOM     64  C   UNL A   1      38.669  34.336  38.896  1.00  0.00     0.198 A 
ATOM     65  C   UNL A   1      40.140  35.898  37.819  1.00  0.00     0.198 A 
ATOM     66  F   UNL A   1      41.014  35.419  35.689  1.00  0.00    -0.203 F 
ATOM     67  F   UNL A   1      37.879  34.006  39.927  1.00  0.00    -0.200 F 
ATOM     68  C   UNL A   1      39.344  35.547  38.900  1.00  0.00     0.200 A 
ATOM     69  F   UNL A   1      40.800  37.065  37.827  1.00  0.00    -0.200 F 
ATOM     70  F   UNL A   1      39.221  36.380  39.943  1.00  0.00    -0.200 F 
ENDBRANCH  46  60
BRANCH  47  71
ATOM     71  C   UNL A   1      40.483  28.065  28.597  1.00  0.00     0.064 A 
ATOM     72  C   UNL A   1      41.260  28.505  27.517  1.00  0.00     0.173 A 
ATOM     73  C   UNL A   1      39.863  26.812  28.490  1.00  0.00     0.173 A 
ATOM     74  F   UNL A   1      41.856  29.705  27.566  1.00  0.00    -0.203 F 
ATOM     75  C   UNL A   1      41.396  27.731  26.366  1.00  0.00     0.198 A 
ATOM     76  C   UNL A   1      40.019  26.028  27.348  1.00  0.00     0.198 A 
ATOM     77  F   UNL A   1      39.111  26.346  29.498  1.00  0.00    -0.203 F 
ATOM     78  F   UNL A   1      42.110  28.193  25.331  1.00  0.00    -0.200 F 
ATOM     79  C   UNL A   1      40.780  26.492  26.285  1.00  0.00     0.200 A 
ATOM     80  F   UNL A   1      39.431  24.826  27.278  1.00  0.00    -0.200 F 
ATOM     81  F   UNL A   1      40.912  25.747  25.179  1.00  0.00    -0.200 F 
ENDBRANCH  47  71
BRANCH  59  82
ATOM     82  C   UNL A   1      43.765  28.281  34.734  1.00  0.00     0.064 A 
ATOM     83  C   UNL A   1      43.514  27.085  35.421  1.00  0.00     0.173 A 
ATOM     84  C   UNL A   1      45.100  28.679  34.568  1.00  0.00     0.173 A 
ATOM     85  F   UNL A   1      42.253  26.672  35.620  1.00  0.00    -0.203 F 
ATOM     86  C   UNL A   1      44.560  26.326  35.939  1.00  0.00     0.198 A 
ATOM     87  C   UNL A   1      46.145  27.903  35.064  1.00  0.00     0.198 A 
ATOM     88  F   UNL A   1      45.392  29.812  33.914  1.00  0.00    -0.203 F 
ATOM     89  F   UNL A   1      44.296  25.207  36.628  1.00  0.00    -0.200 F 
ATOM     90  C   UNL A   1      45.874  26.731  35.754  1.00  0.00     0.200 A 
ATOM     91  F   UNL A   1      47.413  28.291  34.875  1.00  0.00    -0.200 F 
ATOM     92  F   UNL A   1      46.879  25.995  36.247  1.00  0.00    -0.200 F 
ENDBRANCH  59  82
ENDBRANCH  33  34
ENDBRANCH  25  28
ENDBRANCH  23  24
ENDBRANCH  22  23
ENDBRANCH   1  22
TORSDOF 14
ENDMDL
MODEL 3
REMARK VINA RESULT:     -12.7      0.574      7.535
REMARK SMILES CC[C@@H]1CCC[C@@](Cc2ccccn2)(C(=O)NCCCCNC(=O)c2ccc(-c3c4nc(c(-c5c(F)c(F)c(F)c(F)c5F)c5ccc([nH]5)c(-c5c(F)c(F)c(F)c(F)c5F)c5nc(c(-c6c(F)c(F)c(F)c(F)c6F)c6ccc3[nH]6)C=C5)C=C4)cc2)C1
REMARK SMILES IDX 19 1 18 2 17 3 15 4 16 5 7 7 3 8 4 9 88 10 5 11 6 12 2 13
REMARK SMILES IDX 1 14 8 15 9 16 10 17 14 18 11 19 13 20 12 21 20 22 21 23
REMARK SMILES IDX 22 24 23 25 24 27 25 28 26 29 87 30 27 31 86 32 28 33 29 34
REMARK SMILES IDX 30 35 80 36 31 37 85 38 79 39 81 40 32 41 84 42 78 43 77 44
REMARK SMILES IDX 33 46 65 47 45 48 64 49 46 50 49 51 63 52 82 53 47 54 48 55
REMARK SMILES IDX 62 57 83 58 50 59 34 60 35 61 43 62 36 63 37 64 41 65 44 66
REMARK SMILES IDX 38 67 39 68 42 69 40 70 66 71 67 72 75 73 68 74 69 75 73 76
REMARK SMILES IDX 76 77 70 78 71 79 74 80 72 81 51 82 52 83 60 84 53 85 54 86
REMARK SMILES IDX 58 87 61 88 55 89 56 90 59 91 57 92
REMARK H PARENT 17 6 22 26 81 45 49 56
REMARK Flexibility Score: inf
ROOT
ATOM      1  C   UNL A   1      32.212  30.406  26.515  1.00  0.00     0.023 C 
ENDROOT
BRANCH   1   2
ATOM      2  C   UNL A   1      31.841  29.979  25.103  1.00  0.00     0.116 C 
BRANCH   2   3
ATOM      3  N   UNL A   1      32.957  29.497  24.319  1.00  0.00    -0.356 N 
ATOM      4  C   UNL A   1      33.121  28.371  23.573  1.00  0.00     0.226 C 
ATOM      5  O   UNL A   1      34.048  28.425  22.755  1.00  0.00    -0.274 OA
ATOM      6  H   UNL A   1      33.742  30.092  24.326  1.00  0.00     0.163 HD
BRANCH   4   7
ATOM      7  C   UNL A   1      32.218  27.110  23.666  1.00  0.00     0.055 C 
ATOM      8  C   UNL A   1      34.168  25.561  24.504  1.00  0.00    -0.010 C 
ATOM      9  C   UNL A   1      33.527  25.534  25.899  1.00  0.00     0.003 C 
ATOM     10  C   UNL A   1      33.123  25.848  23.404  1.00  0.00     0.021 C 
ATOM     11  C   UNL A   1      32.618  26.728  26.153  1.00  0.00     0.001 C 
ATOM     12  C   UNL A   1      31.573  26.862  25.047  1.00  0.00     0.017 C 
BRANCH   8  13
ATOM     13  C   UNL A   1      34.908  24.226  24.268  1.00  0.00     0.000 C 
ATOM     14  C   UNL A   1      34.036  23.116  23.704  1.00  0.00     0.004 C 
ENDBRANCH   8  13
BRANCH   7  15
ATOM     15  C   UNL A   1      31.185  27.111  22.496  1.00  0.00     0.073 C 
BRANCH  15  16
ATOM     16  C   UNL A   1      30.079  28.134  22.507  1.00  0.00     0.041 A 
ATOM     17  C   UNL A   1      28.877  27.872  23.164  1.00  0.00     0.024 A 
ATOM     18  N   UNL A   1      30.304  29.299  21.851  1.00  0.00    -0.261 NA
ATOM     19  C   UNL A   1      27.862  28.826  23.124  1.00  0.00     0.003 A 
ATOM     20  C   UNL A   1      29.307  30.214  21.841  1.00  0.00     0.111 A 
ATOM     21  C   UNL A   1      28.077  30.020  22.445  1.00  0.00     0.020 A 
ENDBRANCH  15  16
ENDBRANCH   7  15
ENDBRANCH   4   7
ENDBRANCH   2   3
ENDBRANCH   1   2
BRANCH   1  22
ATOM     22  C   UNL A   1      31.778  31.821  26.896  1.00  0.00     0.023 C 
BRANCH  22  23
ATOM     23  C   UNL A   1      32.866  32.730  27.464  1.00  0.00     0.116 C 
BRANCH  23  24
ATOM     24  N   UNL A   1      32.429  34.092  27.739  1.00  0.00    -0.352 N 
ATOM     25  C   UNL A   1      32.986  35.013  28.595  1.00  0.00     0.251 C 
ATOM     26  H   UNL A   1      31.631  34.394  27.246  1.00  0.00     0.163 HD
ATOM     27  O   UNL A   1      32.491  36.127  28.734  1.00  0.00    -0.269 OA
BRANCH  25  28
ATOM     28  C   UNL A   1      34.170  34.624  29.385  1.00  0.00     0.039 A 
ATOM     29  C   UNL A   1      33.985  34.150  30.687  1.00  0.00     0.014 A 
ATOM     30  C   UNL A   1      35.443  34.652  28.812  1.00  0.00     0.014 A 
ATOM     31  C   UNL A   1      35.070  33.617  31.384  1.00  0.00     0.010 A 
ATOM     32  C   UNL A   1      36.511  34.066  29.484  1.00  0.00     0.010 A 
ATOM     33  C   UNL A   1      36.330  33.527  30.770  1.00  0.00    -0.014 A 
BRANCH  33  34
ATOM     34  C   UNL A   1      37.465  32.842  31.437  1.00  0.00     0.031 A 
ATOM     35  C   UNL A   1      38.134  31.671  30.779  1.00  0.00     0.074 A 
ATOM     36  C   UNL A   1      37.836  33.224  32.675  1.00  0.00     0.049 A 
ATOM     37  N   UNL A   1      39.083  30.894  31.236  1.00  0.00    -0.248 NA
ATOM     38  C   UNL A   1      37.654  31.306  29.437  1.00  0.00     0.031 C 
ATOM     39  C   UNL A   1      37.228  34.312  33.442  1.00  0.00     0.029 A 
ATOM     40  N   UNL A   1      38.805  32.730  33.512  1.00  0.00    -0.354 N 
ATOM     41  C   UNL A   1      39.301  29.943  30.250  1.00  0.00     0.074 A 
ATOM     42  C   UNL A   1      38.355  30.211  29.188  1.00  0.00     0.031 C 
ATOM     43  C   UNL A   1      37.848  34.413  34.629  1.00  0.00     0.029 A 
ATOM     44  C   UNL A   1      38.874  33.379  34.720  1.00  0.00     0.049 A 
ATOM     45  H   UNL A   1      39.395  31.980  33.268  1.00  0.00     0.167 HD
ATOM     46  C   UNL A   1      40.220  28.949  30.224  1.00  0.00     0.037 A 
ATOM     47  C   UNL A   1      39.672  33.161  35.782  1.00  0.00     0.037 A 
ATOM     48  C   UNL A   1      41.179  28.702  31.269  1.00  0.00     0.049 A 
ATOM     49  C   UNL A   1      40.691  32.056  35.723  1.00  0.00     0.074 A 
ATOM     50  C   UNL A   1      42.195  27.765  31.303  1.00  0.00     0.029 A 
ATOM     51  N   UNL A   1      41.238  29.401  32.466  1.00  0.00    -0.354 N 
ATOM     52  N   UNL A   1      40.938  31.209  34.755  1.00  0.00    -0.248 NA
ATOM     53  C   UNL A   1      41.547  31.881  36.905  1.00  0.00     0.031 C 
ATOM     54  C   UNL A   1      42.846  27.869  32.537  1.00  0.00     0.029 A 
ATOM     55  C   UNL A   1      42.262  28.901  33.254  1.00  0.00     0.049 A 
ATOM     56  H   UNL A   1      40.640  30.141  32.718  1.00  0.00     0.167 HD
ATOM     57  C   UNL A   1      41.991  30.421  35.195  1.00  0.00     0.074 A 
ATOM     58  C   UNL A   1      42.346  30.897  36.516  1.00  0.00     0.031 C 
ATOM     59  C   UNL A   1      42.609  29.394  34.562  1.00  0.00     0.037 A 
BRANCH  46  60
ATOM     60  C   UNL A   1      40.236  28.055  29.021  1.00  0.00     0.064 A 
ATOM     61  C   UNL A   1      40.963  28.390  27.868  1.00  0.00     0.173 A 
ATOM     62  C   UNL A   1      39.547  26.834  29.031  1.00  0.00     0.173 A 
ATOM     63  F   UNL A   1      41.629  29.553  27.804  1.00  0.00    -0.203 F 
ATOM     64  C   UNL A   1      40.974  27.548  26.759  1.00  0.00     0.198 A 
ATOM     65  C   UNL A   1      39.583  25.982  27.930  1.00  0.00     0.198 A 
ATOM     66  F   UNL A   1      38.841  26.464  30.110  1.00  0.00    -0.203 F 
ATOM     67  F   UNL A   1      41.637  27.912  25.652  1.00  0.00    -0.200 F 
ATOM     68  C   UNL A   1      40.291  26.343  26.793  1.00  0.00     0.200 A 
ATOM     69  F   UNL A   1      38.931  24.811  27.968  1.00  0.00    -0.200 F 
ATOM     70  F   UNL A   1      40.308  25.532  25.727  1.00  0.00    -0.200 F 
ENDBRANCH  46  60
BRANCH  47  71
ATOM     71  C   UNL A   1      39.562  34.027  36.984  1.00  0.00     0.064 A 
ATOM     72  C   UNL A   1      40.235  35.255  37.045  1.00  0.00     0.173 A 
ATOM     73  C   UNL A   1      38.791  33.648  38.092  1.00  0.00     0.173 A 
ATOM     74  F   UNL A   1      41.001  35.650  36.018  1.00  0.00    -0.203 F 
ATOM     75  C   UNL A   1      40.157  36.063  38.178  1.00  0.00     0.198 A 
ATOM     76  C   UNL A   1      38.693  34.469  39.214  1.00  0.00     0.198 A 
ATOM     77  F   UNL A   1      38.125  32.484  38.080  1.00  0.00    -0.203 F 
ATOM     78  F   UNL A   1      40.845  37.212  38.227  1.00  0.00    -0.200 F 
ATOM     79  C   UNL A   1      39.382  35.672  39.258  1.00  0.00     0.200 A 
ATOM     80  F   UNL A   1      37.934  34.093  40.253  1.00  0.00    -0.200 F 
ATOM     81  F   UNL A   1      39.306  36.450  40.347  1.00  0.00    -0.200 F 
ENDBRANCH  47  71
BRANCH  59  82
ATOM     82  C   UNL A   1      43.756  28.738  35.274  1.00  0.00     0.064 A 
ATOM     83  C   UNL A   1      43.564  27.629  36.110  1.00  0.00     0.173 A 
ATOM     84  C   UNL A   1      45.066  29.202  35.083  1.00  0.00     0.173 A 
ATOM     85  F   UNL A   1      42.327  27.161  36.336  1.00  0.00    -0.203 F 
ATOM     86  C   UNL A   1      44.642  27.020  36.747  1.00  0.00     0.198 A 
ATOM     87  C   UNL A   1      46.144  28.573  35.700  1.00  0.00     0.198 A 
ATOM     88  F   UNL A   1      45.302  30.256  34.288  1.00  0.00    -0.203 F 
ATOM     89  F   UNL A   1      44.432  25.987  37.575  1.00  0.00    -0.200 F 
ATOM     90  C   UNL A   1      45.931  27.487  36.536  1.00  0.00     0.200 A 
ATOM     91  F   UNL A   1      47.389  29.019  35.487  1.00  0.00    -0.200 F 
ATOM     92  F   UNL A   1      46.967  26.895  37.143  1.00  0.00    -0.200 F 
ENDBRANCH  59  82
ENDBRANCH  33  34
ENDBRANCH  25  28
ENDBRANCH  23  24
ENDBRANCH  22  23
ENDBRANCH   1  22
TORSDOF 14
ENDMDL
