MODEL 1
REMARK VINA RESULT:     -13.1      0.000      0.000
REMARK SMILES Cn1ccc(-c2n[nH]c(=O)n2-c2ccc(C(=O)NCCCCNC(=O)c3ccc(-c4c5nc(c(-c6c(F)c(F)c(F)c(F)c6F)c6ccc([nH]6)c(-c6c(F)c(F)c(F)c(F)c6F)c6nc(c(-c7c(F)c(F)c(F)c(F)c7F)c7ccc4[nH]7)C=C6)C=C5)cc3)cc2)n1
REMARK SMILES IDX 20 1 19 2 18 3 16 4 17 5 15 7 12 8 13 9 90 10 14 11 89 12
REMARK SMILES IDX 11 13 6 14 7 15 8 16 9 17 10 19 5 20 1 21 2 22 3 23 91 24
REMARK SMILES IDX 4 25 21 26 22 27 23 28 24 29 25 31 26 32 27 33 88 34 28 35
REMARK SMILES IDX 87 36 29 37 30 38 31 39 81 40 32 41 86 42 80 43 82 44 33 45
REMARK SMILES IDX 85 46 79 47 78 48 34 50 66 51 46 52 65 53 47 54 50 55 64 56
REMARK SMILES IDX 83 57 48 58 49 59 63 61 84 62 51 63 35 64 36 65 44 66 37 67
REMARK SMILES IDX 38 68 42 69 45 70 39 71 40 72 43 73 41 74 67 75 68 76 76 77
REMARK SMILES IDX 69 78 70 79 74 80 77 81 71 82 72 83 75 84 73 85 52 86 53 87
REMARK SMILES IDX 61 88 54 89 55 90 59 91 62 92 56 93 57 94 60 95 58 96
REMARK H PARENT 18 6 8 18 23 30 82 49 50 60
REMARK Flexibility Score: inf
ROOT
ATOM      1  C   UNL A   1      32.839  30.788  26.871  1.00  0.00     0.023 C 
ENDROOT
BRANCH   1   2
ATOM      2  C   UNL A   1      32.214  29.838  25.838  1.00  0.00     0.116 C 
BRANCH   2   3
ATOM      3  N   UNL A   1      33.066  29.694  24.672  1.00  0.00    -0.352 N 
ATOM      4  C   UNL A   1      33.579  28.606  24.007  1.00  0.00     0.251 C 
ATOM      5  O   UNL A   1      34.292  28.840  23.031  1.00  0.00    -0.269 OA
ATOM      6  H   UNL A   1      33.331  30.554  24.274  1.00  0.00     0.163 HD
BRANCH   4   7
ATOM      7  C   UNL A   1      33.280  27.185  24.362  1.00  0.00     0.039 A 
ATOM      8  C   UNL A   1      32.968  24.484  25.117  1.00  0.00     0.052 A 
ATOM      9  C   UNL A   1      33.494  25.400  26.025  1.00  0.00     0.028 A 
ATOM     10  C   UNL A   1      32.520  24.935  23.874  1.00  0.00     0.028 A 
ATOM     11  C   UNL A   1      33.679  26.734  25.635  1.00  0.00     0.016 A 
ATOM     12  C   UNL A   1      32.628  26.281  23.526  1.00  0.00     0.016 A 
BRANCH   8  13
ATOM     13  N   UNL A   1      32.804  23.133  25.448  1.00  0.00    -0.242 N 
ATOM     14  C   UNL A   1      33.622  22.086  25.143  1.00  0.00     0.189 A 
ATOM     15  N   UNL A   1      33.058  20.910  25.208  1.00  0.00    -0.150 NA
ATOM     16  N   UNL A   1      31.780  21.190  25.618  1.00  0.00    -0.226 N 
ATOM     17  C   UNL A   1      31.596  22.564  25.770  1.00  0.00     0.348 A 
ATOM     18  H   UNL A   1      31.086  20.512  25.781  1.00  0.00     0.195 HD
ATOM     19  O   UNL A   1      30.529  23.102  26.040  1.00  0.00    -0.246 OA
BRANCH  14  20
ATOM     20  C   UNL A   1      35.032  22.242  24.824  1.00  0.00     0.130 A 
ATOM     21  C   UNL A   1      38.399  21.693  25.616  1.00  0.00     0.173 C 
ATOM     22  N   UNL A   1      37.145  22.092  25.022  1.00  0.00    -0.275 N 
ATOM     23  C   UNL A   1      36.960  22.608  23.774  1.00  0.00     0.109 A 
ATOM     24  N   UNL A   1      36.000  21.921  25.705  1.00  0.00    -0.170 NA
ATOM     25  C   UNL A   1      35.597  22.683  23.599  1.00  0.00     0.054 A 
ENDBRANCH  14  20
ENDBRANCH   8  13
ENDBRANCH   4   7
ENDBRANCH   2   3
ENDBRANCH   1   2
BRANCH   1  26
ATOM     26  C   UNL A   1      34.204  30.349  27.423  1.00  0.00     0.023 C 
BRANCH  26  27
ATOM     27  C   UNL A   1      35.188  31.487  27.660  1.00  0.00     0.116 C 
BRANCH  27  28
ATOM     28  N   UNL A   1      34.944  32.222  28.910  1.00  0.00    -0.352 N 
ATOM     29  C   UNL A   1      35.374  31.907  30.193  1.00  0.00     0.251 C 
ATOM     30  H   UNL A   1      34.408  33.043  28.827  1.00  0.00     0.163 HD
ATOM     31  O   UNL A   1      34.826  32.351  31.187  1.00  0.00    -0.269 OA
BRANCH  29  32
ATOM     32  C   UNL A   1      36.561  31.047  30.315  1.00  0.00     0.039 A 
ATOM     33  C   UNL A   1      36.517  29.649  30.347  1.00  0.00     0.014 A 
ATOM     34  C   UNL A   1      37.770  31.725  30.321  1.00  0.00     0.014 A 
ATOM     35  C   UNL A   1      37.724  28.950  30.336  1.00  0.00     0.010 A 
ATOM     36  C   UNL A   1      38.901  31.049  29.995  1.00  0.00     0.010 A 
ATOM     37  C   UNL A   1      38.910  29.673  30.160  1.00  0.00    -0.014 A 
BRANCH  37  38
ATOM     38  C   UNL A   1      40.235  29.079  30.132  1.00  0.00     0.031 A 
ATOM     39  C   UNL A   1      40.861  28.868  31.462  1.00  0.00     0.074 A 
ATOM     40  C   UNL A   1      40.671  28.483  28.996  1.00  0.00     0.049 A 
ATOM     41  N   UNL A   1      41.968  29.364  31.902  1.00  0.00    -0.248 NA
ATOM     42  C   UNL A   1      40.108  28.110  32.476  1.00  0.00     0.031 C 
ATOM     43  C   UNL A   1      39.972  28.323  27.708  1.00  0.00     0.029 A 
ATOM     44  N   UNL A   1      41.806  27.767  28.795  1.00  0.00    -0.354 N 
ATOM     45  C   UNL A   1      42.145  28.849  33.186  1.00  0.00     0.074 A 
ATOM     46  C   UNL A   1      40.895  28.234  33.545  1.00  0.00     0.031 C 
ATOM     47  C   UNL A   1      40.586  27.375  26.965  1.00  0.00     0.029 A 
ATOM     48  C   UNL A   1      41.809  26.991  27.638  1.00  0.00     0.049 A 
ATOM     49  H   UNL A   1      42.567  27.793  29.419  1.00  0.00     0.167 HD
ATOM     50  C   UNL A   1      43.381  28.792  33.758  1.00  0.00     0.037 A 
ATOM     51  C   UNL A   1      42.747  26.067  27.310  1.00  0.00     0.037 A 
ATOM     52  C   UNL A   1      44.318  29.606  33.024  1.00  0.00     0.049 A 
ATOM     53  C   UNL A   1      43.951  26.377  28.130  1.00  0.00     0.074 A 
ATOM     54  C   UNL A   1      44.422  30.958  32.769  1.00  0.00     0.029 A 
ATOM     55  N   UNL A   1      45.105  28.985  32.084  1.00  0.00    -0.354 N 
ATOM     56  N   UNL A   1      44.644  27.477  27.998  1.00  0.00    -0.248 NA
ATOM     57  C   UNL A   1      44.056  25.722  29.426  1.00  0.00     0.031 C 
ATOM     58  C   UNL A   1      44.838  31.040  31.408  1.00  0.00     0.029 A 
ATOM     59  C   UNL A   1      45.052  29.742  30.941  1.00  0.00     0.049 A 
ATOM     60  H   UNL A   1      45.613  28.151  32.208  1.00  0.00     0.167 HD
ATOM     61  C   UNL A   1      44.936  27.873  29.296  1.00  0.00     0.074 A 
ATOM     62  C   UNL A   1      44.588  26.725  30.133  1.00  0.00     0.031 C 
ATOM     63  C   UNL A   1      45.138  29.188  29.609  1.00  0.00     0.037 A 
BRANCH  50  64
ATOM     64  C   UNL A   1      43.843  27.761  34.759  1.00  0.00     0.064 A 
ATOM     65  C   UNL A   1      43.780  26.396  34.409  1.00  0.00     0.173 A 
ATOM     66  C   UNL A   1      44.064  28.026  36.127  1.00  0.00     0.173 A 
ATOM     67  F   UNL A   1      43.577  26.023  33.136  1.00  0.00    -0.203 F 
ATOM     68  C   UNL A   1      43.834  25.382  35.369  1.00  0.00     0.198 A 
ATOM     69  C   UNL A   1      44.171  27.009  37.075  1.00  0.00     0.198 A 
ATOM     70  F   UNL A   1      44.073  29.269  36.621  1.00  0.00    -0.203 F 
ATOM     71  F   UNL A   1      43.638  24.108  35.004  1.00  0.00    -0.200 F 
ATOM     72  C   UNL A   1      44.020  25.691  36.704  1.00  0.00     0.200 A 
ATOM     73  F   UNL A   1      44.340  27.330  38.365  1.00  0.00    -0.200 F 
ATOM     74  F   UNL A   1      44.006  24.728  37.634  1.00  0.00    -0.200 F 
ENDBRANCH  50  64
BRANCH  51  75
ATOM     75  C   UNL A   1      42.529  24.749  26.662  1.00  0.00     0.064 A 
ATOM     76  C   UNL A   1      43.183  24.404  25.469  1.00  0.00     0.173 A 
ATOM     77  C   UNL A   1      41.886  23.698  27.348  1.00  0.00     0.173 A 
ATOM     78  F   UNL A   1      43.856  25.334  24.777  1.00  0.00    -0.203 F 
ATOM     79  C   UNL A   1      43.210  23.083  25.001  1.00  0.00     0.198 A 
ATOM     80  C   UNL A   1      41.913  22.383  26.880  1.00  0.00     0.198 A 
ATOM     81  F   UNL A   1      41.297  23.911  28.534  1.00  0.00    -0.203 F 
ATOM     82  F   UNL A   1      43.889  22.781  23.886  1.00  0.00    -0.200 F 
ATOM     83  C   UNL A   1      42.585  22.072  25.713  1.00  0.00     0.200 A 
ATOM     84  F   UNL A   1      41.333  21.411  27.599  1.00  0.00    -0.200 F 
ATOM     85  F   UNL A   1      42.661  20.800  25.299  1.00  0.00    -0.200 F 
ENDBRANCH  51  75
BRANCH  63  86
ATOM     86  C   UNL A   1      45.234  30.182  28.481  1.00  0.00     0.064 A 
ATOM     87  C   UNL A   1      44.166  30.987  28.044  1.00  0.00     0.173 A 
ATOM     88  C   UNL A   1      46.501  30.465  27.956  1.00  0.00     0.173 A 
ATOM     89  F   UNL A   1      42.943  30.850  28.564  1.00  0.00    -0.203 F 
ATOM     90  C   UNL A   1      44.354  32.004  27.110  1.00  0.00     0.198 A 
ATOM     91  C   UNL A   1      46.695  31.504  27.050  1.00  0.00     0.198 A 
ATOM     92  F   UNL A   1      47.570  29.771  28.378  1.00  0.00    -0.203 F 
ATOM     93  F   UNL A   1      43.317  32.758  26.716  1.00  0.00    -0.200 F 
ATOM     94  C   UNL A   1      45.622  32.269  26.621  1.00  0.00     0.200 A 
ATOM     95  F   UNL A   1      47.932  31.789  26.621  1.00  0.00    -0.200 F 
ATOM     96  F   UNL A   1      45.815  33.279  25.762  1.00  0.00    -0.200 F 
ENDBRANCH  63  86
ENDBRANCH  37  38
ENDBRANCH  29  32
ENDBRANCH  27  28
ENDBRANCH  26  27
ENDBRANCH   1  26
TORSDOF 13
ENDMDL
MODEL 2
REMARK VINA RESULT:     -13.0      2.832      7.974
REMARK SMILES Cn1ccc(-c2n[nH]c(=O)n2-c2ccc(C(=O)NCCCCNC(=O)c3ccc(-c4c5nc(c(-c6c(F)c(F)c(F)c(F)c6F)c6ccc([nH]6)c(-c6c(F)c(F)c(F)c(F)c6F)c6nc(c(-c7c(F)c(F)c(F)c(F)c7F)c7ccc4[nH]7)C=C6)C=C5)cc3)cc2)n1
REMARK SMILES IDX 20 1 19 2 18 3 16 4 17 5 15 7 12 8 13 9 90 10 14 11 89 12
REMARK SMILES IDX 11 13 6 14 7 15 8 16 9 17 10 19 5 20 1 21 2 22 3 23 91 24
REMARK SMILES IDX 4 25 21 26 22 27 23 28 24 29 25 31 26 32 27 33 88 34 28 35
REMARK SMILES IDX 87 36 29 37 30 38 31 39 81 40 32 41 86 42 80 43 82 44 33 45
REMARK SMILES IDX 85 46 79 47 78 48 34 50 66 51 46 52 65 53 47 54 50 55 64 56
REMARK SMILES IDX 83 57 48 58 49 59 63 61 84 62 51 63 35 64 36 65 44 66 37 67
REMARK SMILES IDX 38 68 42 69 45 70 39 71 40 72 43 73 41 74 67 75 68 76 76 77
REMARK SMILES IDX 69 78 70 79 74 80 77 81 71 82 72 83 75 84 73 85 52 86 53 87
REMARK SMILES IDX 61 88 54 89 55 90 59 91 62 92 56 93 57 94 60 95 58 96
REMARK H PARENT 18 6 8 18 23 30 82 49 50 60
REMARK Flexibility Score: inf
ROOT
ATOM      1  C   UNL A   1      36.524  20.687  24.720  1.00  0.00     0.023 C 
ENDROOT
BRANCH   1   2
ATOM      2  C   UNL A   1      35.085  20.296  25.091  1.00  0.00     0.116 C 
BRANCH   2   3
ATOM      3  N   UNL A   1      34.704  20.850  26.377  1.00  0.00    -0.352 N 
ATOM      4  C   UNL A   1      34.241  22.081  26.774  1.00  0.00     0.251 C 
ATOM      5  O   UNL A   1      34.014  22.226  27.976  1.00  0.00    -0.269 OA
ATOM      6  H   UNL A   1      34.795  20.209  27.120  1.00  0.00     0.163 HD
BRANCH   4   7
ATOM      7  C   UNL A   1      33.951  23.212  25.841  1.00  0.00     0.039 A 
ATOM      8  C   UNL A   1      33.504  25.510  24.265  1.00  0.00     0.052 A 
ATOM      9  C   UNL A   1      34.763  25.282  24.815  1.00  0.00     0.028 A 
ATOM     10  C   UNL A   1      32.504  24.549  24.429  1.00  0.00     0.028 A 
ATOM     11  C   UNL A   1      34.972  24.157  25.626  1.00  0.00     0.016 A 
ATOM     12  C   UNL A   1      32.746  23.391  25.165  1.00  0.00     0.016 A 
BRANCH   8  13
ATOM     13  N   UNL A   1      33.237  26.641  23.483  1.00  0.00    -0.242 N 
ATOM     14  C   UNL A   1      32.636  27.803  23.863  1.00  0.00     0.189 A 
ATOM     15  N   UNL A   1      32.150  28.518  22.883  1.00  0.00    -0.150 NA
ATOM     16  N   UNL A   1      32.481  27.795  21.766  1.00  0.00    -0.226 N 
ATOM     17  C   UNL A   1      33.154  26.623  22.113  1.00  0.00     0.348 A 
ATOM     18  H   UNL A   1      32.272  28.067  20.844  1.00  0.00     0.195 HD
ATOM     19  O   UNL A   1      33.487  25.748  21.323  1.00  0.00    -0.246 OA
BRANCH  14  20
ATOM     20  C   UNL A   1      32.579  28.260  25.243  1.00  0.00     0.130 A 
ATOM     21  C   UNL A   1      33.400  30.625  27.690  1.00  0.00     0.173 C 
ATOM     22  N   UNL A   1      32.918  29.484  26.949  1.00  0.00    -0.275 N 
ATOM     23  C   UNL A   1      32.030  28.545  27.380  1.00  0.00     0.109 A 
ATOM     24  N   UNL A   1      33.319  29.298  25.679  1.00  0.00    -0.170 NA
ATOM     25  C   UNL A   1      31.758  27.756  26.286  1.00  0.00     0.054 A 
ENDBRANCH  14  20
ENDBRANCH   8  13
ENDBRANCH   4   7
ENDBRANCH   2   3
ENDBRANCH   1   2
BRANCH   1  26
ATOM     26  C   UNL A   1      37.587  19.615  25.005  1.00  0.00     0.023 C 
BRANCH  26  27
ATOM     27  C   UNL A   1      38.917  20.158  25.510  1.00  0.00     0.116 C 
BRANCH  27  28
ATOM     28  N   UNL A   1      39.927  19.115  25.739  1.00  0.00    -0.352 N 
ATOM     29  C   UNL A   1      41.292  19.269  25.951  1.00  0.00     0.251 C 
ATOM     30  H   UNL A   1      39.594  18.189  25.743  1.00  0.00     0.163 HD
ATOM     31  O   UNL A   1      42.083  18.363  25.760  1.00  0.00    -0.269 OA
BRANCH  29  32
ATOM     32  C   UNL A   1      41.753  20.567  26.469  1.00  0.00     0.039 A 
ATOM     33  C   UNL A   1      42.475  21.500  25.717  1.00  0.00     0.014 A 
ATOM     34  C   UNL A   1      41.351  20.850  27.764  1.00  0.00     0.014 A 
ATOM     35  C   UNL A   1      42.739  22.745  26.287  1.00  0.00     0.010 A 
ATOM     36  C   UNL A   1      41.335  22.142  28.177  1.00  0.00     0.010 A 
ATOM     37  C   UNL A   1      42.158  23.046  27.525  1.00  0.00    -0.014 A 
BRANCH  37  38
ATOM     38  C   UNL A   1      42.348  24.299  28.236  1.00  0.00     0.031 A 
ATOM     39  C   UNL A   1      41.226  25.264  28.124  1.00  0.00     0.074 A 
ATOM     40  C   UNL A   1      43.324  24.389  29.172  1.00  0.00     0.049 A 
ATOM     41  N   UNL A   1      41.257  26.460  27.640  1.00  0.00    -0.248 NA
ATOM     42  C   UNL A   1      39.872  24.807  28.481  1.00  0.00     0.031 C 
ATOM     43  C   UNL A   1      44.277  23.357  29.619  1.00  0.00     0.029 A 
ATOM     44  N   UNL A   1      43.585  25.408  30.029  1.00  0.00    -0.354 N 
ATOM     45  C   UNL A   1      39.970  26.975  27.784  1.00  0.00     0.074 A 
ATOM     46  C   UNL A   1      39.131  25.862  28.140  1.00  0.00     0.031 C 
ATOM     47  C   UNL A   1      44.831  23.721  30.797  1.00  0.00     0.029 A 
ATOM     48  C   UNL A   1      44.414  25.074  31.098  1.00  0.00     0.049 A 
ATOM     49  H   UNL A   1      43.217  26.313  29.905  1.00  0.00     0.167 HD
ATOM     50  C   UNL A   1      39.747  28.320  27.804  1.00  0.00     0.037 A 
ATOM     51  C   UNL A   1      44.679  25.864  32.168  1.00  0.00     0.037 A 
ATOM     52  C   UNL A   1      40.909  29.033  27.333  1.00  0.00     0.049 A 
ATOM     53  C   UNL A   1      44.331  27.255  31.763  1.00  0.00     0.074 A 
ATOM     54  C   UNL A   1      41.577  29.092  26.127  1.00  0.00     0.029 A 
ATOM     55  N   UNL A   1      41.787  29.516  28.273  1.00  0.00    -0.354 N 
ATOM     56  N   UNL A   1      44.963  27.907  30.824  1.00  0.00    -0.248 NA
ATOM     57  C   UNL A   1      42.971  27.702  32.031  1.00  0.00     0.031 C 
ATOM     58  C   UNL A   1      42.958  29.115  26.479  1.00  0.00     0.029 A 
ATOM     59  C   UNL A   1      43.051  29.163  27.871  1.00  0.00     0.049 A 
ATOM     60  H   UNL A   1      41.553  30.020  29.086  1.00  0.00     0.167 HD
ATOM     61  C   UNL A   1      43.967  28.556  30.107  1.00  0.00     0.074 A 
ATOM     62  C   UNL A   1      42.762  28.430  30.929  1.00  0.00     0.031 C 
ATOM     63  C   UNL A   1      44.128  28.865  28.786  1.00  0.00     0.037 A 
BRANCH  50  64
ATOM     64  C   UNL A   1      38.637  29.020  28.549  1.00  0.00     0.064 A 
ATOM     65  C   UNL A   1      37.856  29.977  27.867  1.00  0.00     0.173 A 
ATOM     66  C   UNL A   1      38.495  29.012  29.953  1.00  0.00     0.173 A 
ATOM     67  F   UNL A   1      37.906  30.075  26.530  1.00  0.00    -0.203 F 
ATOM     68  C   UNL A   1      37.073  30.914  28.546  1.00  0.00     0.198 A 
ATOM     69  C   UNL A   1      37.671  29.915  30.624  1.00  0.00     0.198 A 
ATOM     70  F   UNL A   1      39.224  28.214  30.740  1.00  0.00    -0.203 F 
ATOM     71  F   UNL A   1      36.455  31.885  27.862  1.00  0.00    -0.200 F 
ATOM     72  C   UNL A   1      36.990  30.888  29.926  1.00  0.00     0.200 A 
ATOM     73  F   UNL A   1      37.613  29.881  31.962  1.00  0.00    -0.200 F 
ATOM     74  F   UNL A   1      36.295  31.825  30.583  1.00  0.00    -0.200 F 
ENDBRANCH  50  64
BRANCH  51  75
ATOM     75  C   UNL A   1      44.820  25.447  33.586  1.00  0.00     0.064 A 
ATOM     76  C   UNL A   1      43.698  25.247  34.405  1.00  0.00     0.173 A 
ATOM     77  C   UNL A   1      46.050  24.969  34.084  1.00  0.00     0.173 A 
ATOM     78  F   UNL A   1      42.483  25.631  33.987  1.00  0.00    -0.203 F 
ATOM     79  C   UNL A   1      43.797  24.589  35.639  1.00  0.00     0.198 A 
ATOM     80  C   UNL A   1      46.147  24.316  35.315  1.00  0.00     0.198 A 
ATOM     81  F   UNL A   1      47.167  25.045  33.345  1.00  0.00    -0.203 F 
ATOM     82  F   UNL A   1      42.695  24.369  36.370  1.00  0.00    -0.200 F 
ATOM     83  C   UNL A   1      45.018  24.115  36.087  1.00  0.00     0.200 A 
ATOM     84  F   UNL A   1      47.330  23.831  35.718  1.00  0.00    -0.200 F 
ATOM     85  F   UNL A   1      45.104  23.433  37.238  1.00  0.00    -0.200 F 
ENDBRANCH  51  75
BRANCH  63  86
ATOM     86  C   UNL A   1      45.488  28.665  28.169  1.00  0.00     0.064 A 
ATOM     87  C   UNL A   1      45.892  27.489  27.512  1.00  0.00     0.173 A 
ATOM     88  C   UNL A   1      46.339  29.773  28.072  1.00  0.00     0.173 A 
ATOM     89  F   UNL A   1      45.098  26.415  27.470  1.00  0.00    -0.203 F 
ATOM     90  C   UNL A   1      47.099  27.419  26.816  1.00  0.00     0.198 A 
ATOM     91  C   UNL A   1      47.527  29.714  27.349  1.00  0.00     0.198 A 
ATOM     92  F   UNL A   1      45.981  30.942  28.629  1.00  0.00    -0.203 F 
ATOM     93  F   UNL A   1      47.455  26.284  26.196  1.00  0.00    -0.200 F 
ATOM     94  C   UNL A   1      47.911  28.537  26.727  1.00  0.00     0.200 A 
ATOM     95  F   UNL A   1      48.282  30.813  27.222  1.00  0.00    -0.200 F 
ATOM     96  F   UNL A   1      49.047  28.489  26.017  1.00  0.00    -0.200 F 
ENDBRANCH  63  86
ENDBRANCH  37  38
ENDBRANCH  29  32
ENDBRANCH  27  28
ENDBRANCH  26  27
ENDBRANCH   1  26
TORSDOF 13
ENDMDL
MODEL 3
REMARK VINA RESULT:     -12.8      3.112      8.683
REMARK SMILES Cn1ccc(-c2n[nH]c(=O)n2-c2ccc(C(=O)NCCCCNC(=O)c3ccc(-c4c5nc(c(-c6c(F)c(F)c(F)c(F)c6F)c6ccc([nH]6)c(-c6c(F)c(F)c(F)c(F)c6F)c6nc(c(-c7c(F)c(F)c(F)c(F)c7F)c7ccc4[nH]7)C=C6)C=C5)cc3)cc2)n1
REMARK SMILES IDX 20 1 19 2 18 3 16 4 17 5 15 7 12 8 13 9 90 10 14 11 89 12
REMARK SMILES IDX 11 13 6 14 7 15 8 16 9 17 10 19 5 20 1 21 2 22 3 23 91 24
REMARK SMILES IDX 4 25 21 26 22 27 23 28 24 29 25 31 26 32 27 33 88 34 28 35
REMARK SMILES IDX 87 36 29 37 30 38 31 39 81 40 32 41 86 42 80 43 82 44 33 45
REMARK SMILES IDX 85 46 79 47 78 48 34 50 66 51 46 52 65 53 47 54 50 55 64 56
REMARK SMILES IDX 83 57 48 58 49 59 63 61 84 62 51 63 35 64 36 65 44 66 37 67
REMARK SMILES IDX 38 68 42 69 45 70 39 71 40 72 43 73 41 74 67 75 68 76 76 77
REMARK SMILES IDX 69 78 70 79 74 80 77 81 71 82 72 83 75 84 73 85 52 86 53 87
REMARK SMILES IDX 61 88 54 89 55 90 59 91 62 92 56 93 57 94 60 95 58 96
REMARK H PARENT 18 6 8 18 23 30 82 49 50 60
REMARK Flexibility Score: inf
ROOT
ATOM      1  C   UNL A   1      39.434  23.752  27.447  1.00  0.00     0.023 C 
ENDROOT
BRANCH   1   2
ATOM      2  C   UNL A   1      38.404  24.100  26.361  1.00  0.00     0.116 C 
BRANCH   2   3
ATOM      3  N   UNL A   1      38.191  22.982  25.461  1.00  0.00    -0.352 N 
ATOM      4  C   UNL A   1      37.064  22.390  24.941  1.00  0.00     0.251 C 
ATOM      5  O   UNL A   1      37.239  21.428  24.192  1.00  0.00    -0.269 OA
ATOM      6  H   UNL A   1      39.027  22.560  25.158  1.00  0.00     0.163 HD
BRANCH   4   7
ATOM      7  C   UNL A   1      35.671  22.874  25.186  1.00  0.00     0.039 A 
ATOM      8  C   UNL A   1      33.100  23.995  25.492  1.00  0.00     0.052 A 
ATOM      9  C   UNL A   1      33.625  23.806  24.216  1.00  0.00     0.028 A 
ATOM     10  C   UNL A   1      33.819  23.543  26.601  1.00  0.00     0.028 A 
ATOM     11  C   UNL A   1      34.917  23.280  24.070  1.00  0.00     0.016 A 
ATOM     12  C   UNL A   1      35.067  22.942  26.440  1.00  0.00     0.016 A 
BRANCH   8  13
ATOM     13  N   UNL A   1      31.831  24.554  25.689  1.00  0.00    -0.242 N 
ATOM     14  C   UNL A   1      31.522  25.827  26.067  1.00  0.00     0.189 A 
ATOM     15  N   UNL A   1      30.323  25.978  26.562  1.00  0.00    -0.150 NA
ATOM     16  N   UNL A   1      29.781  24.722  26.478  1.00  0.00    -0.226 N 
ATOM     17  C   UNL A   1      30.699  23.819  25.942  1.00  0.00     0.348 A 
ATOM     18  H   UNL A   1      28.867  24.488  26.758  1.00  0.00     0.195 HD
ATOM     19  O   UNL A   1      30.514  22.613  25.836  1.00  0.00    -0.246 OA
BRANCH  14  20
ATOM     20  C   UNL A   1      32.423  26.954  25.888  1.00  0.00     0.130 A 
ATOM     21  C   UNL A   1      34.640  29.308  27.232  1.00  0.00     0.173 C 
ATOM     22  N   UNL A   1      33.790  28.508  26.383  1.00  0.00    -0.275 N 
ATOM     23  C   UNL A   1      33.771  28.498  25.021  1.00  0.00     0.109 A 
ATOM     24  N   UNL A   1      32.935  27.629  26.936  1.00  0.00    -0.170 NA
ATOM     25  C   UNL A   1      32.923  27.475  24.665  1.00  0.00     0.054 A 
ENDBRANCH  14  20
ENDBRANCH   8  13
ENDBRANCH   4   7
ENDBRANCH   2   3
ENDBRANCH   1   2
BRANCH   1  26
ATOM     26  C   UNL A   1      40.186  22.430  27.236  1.00  0.00     0.023 C 
BRANCH  26  27
ATOM     27  C   UNL A   1      41.641  22.448  27.685  1.00  0.00     0.116 C 
BRANCH  27  28
ATOM     28  N   UNL A   1      42.598  22.506  26.570  1.00  0.00    -0.352 N 
ATOM     29  C   UNL A   1      42.913  23.591  25.760  1.00  0.00     0.251 C 
ATOM     30  H   UNL A   1      43.077  21.670  26.372  1.00  0.00     0.163 HD
ATOM     31  O   UNL A   1      43.418  23.453  24.661  1.00  0.00    -0.269 OA
BRANCH  29  32
ATOM     32  C   UNL A   1      42.659  24.935  26.304  1.00  0.00     0.039 A 
ATOM     33  C   UNL A   1      41.653  25.790  25.843  1.00  0.00     0.014 A 
ATOM     34  C   UNL A   1      43.454  25.283  27.384  1.00  0.00     0.014 A 
ATOM     35  C   UNL A   1      41.436  26.985  26.529  1.00  0.00     0.010 A 
ATOM     36  C   UNL A   1      43.035  26.270  28.214  1.00  0.00     0.010 A 
ATOM     37  C   UNL A   1      42.143  27.207  27.717  1.00  0.00    -0.014 A 
BRANCH  37  38
ATOM     38  C   UNL A   1      42.020  28.403  28.532  1.00  0.00     0.031 A 
ATOM     39  C   UNL A   1      43.020  29.464  28.249  1.00  0.00     0.074 A 
ATOM     40  C   UNL A   1      40.879  28.616  29.230  1.00  0.00     0.049 A 
ATOM     41  N   UNL A   1      43.887  29.969  29.060  1.00  0.00    -0.248 NA
ATOM     42  C   UNL A   1      43.161  29.941  26.863  1.00  0.00     0.031 C 
ATOM     43  C   UNL A   1      39.664  27.784  29.297  1.00  0.00     0.029 A 
ATOM     44  N   UNL A   1      40.512  29.713  29.941  1.00  0.00    -0.354 N 
ATOM     45  C   UNL A   1      44.571  30.949  28.343  1.00  0.00     0.074 A 
ATOM     46  C   UNL A   1      44.206  30.763  26.964  1.00  0.00     0.031 C 
ATOM     47  C   UNL A   1      38.638  28.506  29.798  1.00  0.00     0.029 A 
ATOM     48  C   UNL A   1      39.155  29.780  30.250  1.00  0.00     0.049 A 
ATOM     49  H   UNL A   1      41.154  30.406  30.216  1.00  0.00     0.167 HD
ATOM     50  C   UNL A   1      45.219  31.966  28.979  1.00  0.00     0.037 A 
ATOM     51  C   UNL A   1      38.523  30.848  30.798  1.00  0.00     0.037 A 
ATOM     52  C   UNL A   1      45.362  31.675  30.385  1.00  0.00     0.049 A 
ATOM     53  C   UNL A   1      39.580  31.693  31.418  1.00  0.00     0.074 A 
ATOM     54  C   UNL A   1      46.034  30.706  31.102  1.00  0.00     0.029 A 
ATOM     55  N   UNL A   1      44.426  32.197  31.244  1.00  0.00    -0.354 N 
ATOM     56  N   UNL A   1      40.306  31.302  32.433  1.00  0.00    -0.248 NA
ATOM     57  C   UNL A   1      40.172  32.731  30.587  1.00  0.00     0.031 C 
ATOM     58  C   UNL A   1      45.141  30.350  32.155  1.00  0.00     0.029 A 
ATOM     59  C   UNL A   1      44.023  31.182  32.076  1.00  0.00     0.049 A 
ATOM     60  H   UNL A   1      44.102  33.127  31.260  1.00  0.00     0.167 HD
ATOM     61  C   UNL A   1      41.593  31.731  32.136  1.00  0.00     0.074 A 
ATOM     62  C   UNL A   1      41.438  32.649  31.007  1.00  0.00     0.031 C 
ATOM     63  C   UNL A   1      42.689  31.076  32.621  1.00  0.00     0.037 A 
BRANCH  50  64
ATOM     64  C   UNL A   1      45.427  33.358  28.434  1.00  0.00     0.064 A 
ATOM     65  C   UNL A   1      44.298  34.120  28.064  1.00  0.00     0.173 A 
ATOM     66  C   UNL A   1      46.668  33.859  27.990  1.00  0.00     0.173 A 
ATOM     67  F   UNL A   1      43.065  33.741  28.433  1.00  0.00    -0.203 F 
ATOM     68  C   UNL A   1      44.400  35.238  27.233  1.00  0.00     0.198 A 
ATOM     69  C   UNL A   1      46.770  35.007  27.205  1.00  0.00     0.198 A 
ATOM     70  F   UNL A   1      47.818  33.208  28.199  1.00  0.00    -0.203 F 
ATOM     71  F   UNL A   1      43.290  35.850  26.802  1.00  0.00    -0.200 F 
ATOM     72  C   UNL A   1      45.637  35.675  26.795  1.00  0.00     0.200 A 
ATOM     73  F   UNL A   1      47.977  35.407  26.781  1.00  0.00    -0.200 F 
ATOM     74  F   UNL A   1      45.734  36.705  25.946  1.00  0.00    -0.200 F 
ENDBRANCH  50  64
BRANCH  51  75
ATOM     75  C   UNL A   1      37.167  31.359  30.471  1.00  0.00     0.064 A 
ATOM     76  C   UNL A   1      36.214  31.598  31.474  1.00  0.00     0.173 A 
ATOM     77  C   UNL A   1      36.876  31.885  29.196  1.00  0.00     0.173 A 
ATOM     78  F   UNL A   1      36.434  31.170  32.726  1.00  0.00    -0.203 F 
ATOM     79  C   UNL A   1      35.050  32.335  31.221  1.00  0.00     0.198 A 
ATOM     80  C   UNL A   1      35.714  32.619  28.945  1.00  0.00     0.198 A 
ATOM     81  F   UNL A   1      37.756  31.776  28.190  1.00  0.00    -0.203 F 
ATOM     82  F   UNL A   1      34.188  32.588  32.216  1.00  0.00    -0.200 F 
ATOM     83  C   UNL A   1      34.807  32.855  29.960  1.00  0.00     0.200 A 
ATOM     84  F   UNL A   1      35.511  33.145  27.728  1.00  0.00    -0.200 F 
ATOM     85  F   UNL A   1      33.724  33.611  29.732  1.00  0.00    -0.200 F 
ENDBRANCH  51  75
BRANCH  63  86
ATOM     86  C   UNL A   1      42.476  29.995  33.649  1.00  0.00     0.064 A 
ATOM     87  C   UNL A   1      42.363  28.627  33.343  1.00  0.00     0.173 A 
ATOM     88  C   UNL A   1      42.585  30.339  35.002  1.00  0.00     0.173 A 
ATOM     89  F   UNL A   1      42.352  28.202  32.077  1.00  0.00    -0.203 F 
ATOM     90  C   UNL A   1      42.333  27.656  34.344  1.00  0.00     0.198 A 
ATOM     91  C   UNL A   1      42.590  29.367  35.999  1.00  0.00     0.198 A 
ATOM     92  F   UNL A   1      42.754  31.623  35.354  1.00  0.00    -0.203 F 
ATOM     93  F   UNL A   1      42.229  26.358  34.021  1.00  0.00    -0.200 F 
ATOM     94  C   UNL A   1      42.457  28.027  35.672  1.00  0.00     0.200 A 
ATOM     95  F   UNL A   1      42.764  29.728  37.277  1.00  0.00    -0.200 F 
ATOM     96  F   UNL A   1      42.481  27.093  36.633  1.00  0.00    -0.200 F 
ENDBRANCH  63  86
ENDBRANCH  37  38
ENDBRANCH  29  32
ENDBRANCH  27  28
ENDBRANCH  26  27
ENDBRANCH   1  26
TORSDOF 13
ENDMDL
