MODEL 1
REMARK VINA RESULT:     -13.0      0.000      0.000
REMARK SMILES O=C(COc1ccccc1Br)Nc1cccc(C(=O)Nc2ccc(C(=O)NCCCCNC(=O)c3ccc(-c4c5nc(c(-c6c(F)c(F)c(F)c(F)c6F)c6ccc([nH]6)c(-c6c(F)c(F)c(F)c(F)c6F)c6nc(c(-c7c(F)c(F)c(F)c(F)c7F)c7ccc4[nH]7)C=C6)C=C5)cc3)cc2)c1
REMARK SMILES IDX 25 1 26 2 27 3 24 5 21 6 22 7 99 8 23 9 98 10 20 11 18 12
REMARK SMILES IDX 19 13 17 15 13 16 14 17 100 18 15 19 16 20 12 21 1 22 2 23
REMARK SMILES IDX 3 25 4 26 5 27 6 28 10 29 7 30 9 31 11 32 8 33 28 34 29 35
REMARK SMILES IDX 30 36 31 37 32 38 33 39 34 41 35 42 36 43 97 44 37 45 96 46
REMARK SMILES IDX 38 47 39 48 40 49 90 50 41 51 95 52 89 53 91 54 42 55 94 56
REMARK SMILES IDX 88 57 87 58 43 60 75 61 55 62 74 63 56 64 59 65 73 66 92 67
REMARK SMILES IDX 57 68 58 69 72 71 93 72 60 73 44 74 45 75 53 76 46 77 47 78
REMARK SMILES IDX 51 79 54 80 48 81 49 82 52 83 50 84 76 85 77 86 85 87 78 88
REMARK SMILES IDX 79 89 83 90 86 91 80 92 81 93 84 94 82 95 61 96 62 97 70 98
REMARK SMILES IDX 63 99 64 100 68 101 71 102 65 103 66 104 69 105 67 106
REMARK H PARENT 27 4 20 14 12 24 32 40 91 59 59 70
REMARK Flexibility Score: inf
ROOT
ATOM      1  C   UNL A   1      35.261  30.248  27.942  1.00  0.00     0.251 C 
ATOM      2  O   UNL A   1      36.007  29.369  28.377  1.00  0.00    -0.269 OA
ATOM      3  N   UNL A   1      35.577  31.549  28.256  1.00  0.00    -0.352 N 
ATOM      4  H   UNL A   1      36.380  31.637  28.819  1.00  0.00     0.163 HD
ENDROOT
BRANCH   1   5
ATOM      5  C   UNL A   1      34.125  29.868  27.053  1.00  0.00     0.039 A 
ATOM      6  C   UNL A   1      32.260  29.414  25.010  1.00  0.00     0.041 A 
ATOM      7  C   UNL A   1      33.465  28.712  25.011  1.00  0.00     0.027 A 
ATOM      8  C   UNL A   1      31.911  30.186  26.120  1.00  0.00     0.027 A 
ATOM      9  C   UNL A   1      34.406  28.967  26.013  1.00  0.00     0.016 A 
ATOM     10  C   UNL A   1      32.832  30.384  27.156  1.00  0.00     0.016 A 
BRANCH   6  11
ATOM     11  N   UNL A   1      31.494  29.396  23.833  1.00  0.00    -0.322 N 
ATOM     12  C   UNL A   1      30.923  28.320  23.171  1.00  0.00     0.255 C 
ATOM     13  O   UNL A   1      30.470  28.488  22.037  1.00  0.00    -0.269 OA
ATOM     14  H   UNL A   1      31.340  30.275  23.419  1.00  0.00     0.170 HD
BRANCH  12  15
ATOM     15  C   UNL A   1      30.731  26.989  23.829  1.00  0.00     0.042 A 
ATOM     16  C   UNL A   1      30.794  24.554  23.770  1.00  0.00     0.042 A 
ATOM     17  C   UNL A   1      30.320  24.517  25.083  1.00  0.00     0.026 A 
ATOM     18  C   UNL A   1      31.060  25.791  23.187  1.00  0.00     0.040 A 
ATOM     19  C   UNL A   1      30.113  25.705  25.789  1.00  0.00     0.003 A 
ATOM     20  C   UNL A   1      30.302  26.938  25.160  1.00  0.00     0.014 A 
BRANCH  16  21
ATOM     21  N   UNL A   1      31.048  23.332  23.121  1.00  0.00    -0.323 N 
ATOM     22  O   UNL A   1      33.386  23.246  23.030  1.00  0.00    -0.271 OA
ATOM     23  C   UNL A   1      32.282  22.733  22.902  1.00  0.00     0.262 C 
ATOM     24  H   UNL A   1      30.261  22.846  22.785  1.00  0.00     0.170 HD
BRANCH  23  25
ATOM     25  C   UNL A   1      32.154  21.283  22.456  1.00  0.00     0.329 C 
BRANCH  25  26
ATOM     26  O   UNL A   1      31.915  20.452  23.596  1.00  0.00    -0.483 OA
BRANCH  26  27
ATOM     27  C   UNL A   1      32.822  19.431  23.679  1.00  0.00     0.134 A 
ATOM     28  C   UNL A   1      32.526  18.287  22.934  1.00  0.00     0.047 A 
ATOM     29  C   UNL A   1      33.930  19.438  24.536  1.00  0.00     0.060 A 
ATOM     30  C   UNL A   1      33.337  17.159  23.036  1.00  0.00     0.004 A 
ATOM     31  C   UNL A   1      34.742  18.307  24.627  1.00  0.00     0.019 A 
ATOM     32  Br  UNL A   1      34.410  20.890  25.651  1.00  0.00    -0.047 Br
ATOM     33  C   UNL A   1      34.442  17.169  23.884  1.00  0.00     0.001 A 
ENDBRANCH  26  27
ENDBRANCH  25  26
ENDBRANCH  23  25
ENDBRANCH  16  21
ENDBRANCH  12  15
ENDBRANCH   6  11
ENDBRANCH   1   5
BRANCH   3  34
ATOM     34  C   UNL A   1      34.958  32.816  27.918  1.00  0.00     0.116 C 
BRANCH  34  35
ATOM     35  C   UNL A   1      34.242  33.406  29.130  1.00  0.00     0.023 C 
BRANCH  35  36
ATOM     36  C   UNL A   1      33.269  34.540  28.787  1.00  0.00     0.023 C 
BRANCH  36  37
ATOM     37  C   UNL A   1      33.484  35.843  29.553  1.00  0.00     0.116 C 
BRANCH  37  38
ATOM     38  N   UNL A   1      32.526  36.040  30.629  1.00  0.00    -0.352 N 
ATOM     39  C   UNL A   1      32.595  35.636  31.942  1.00  0.00     0.251 C 
ATOM     40  H   UNL A   1      31.711  36.534  30.381  1.00  0.00     0.163 HD
ATOM     41  O   UNL A   1      31.637  35.788  32.684  1.00  0.00    -0.269 OA
BRANCH  39  42
ATOM     42  C   UNL A   1      33.826  34.987  32.443  1.00  0.00     0.039 A 
ATOM     43  C   UNL A   1      33.753  33.660  32.872  1.00  0.00     0.014 A 
ATOM     44  C   UNL A   1      35.041  35.675  32.482  1.00  0.00     0.014 A 
ATOM     45  C   UNL A   1      34.916  33.002  33.278  1.00  0.00     0.010 A 
ATOM     46  C   UNL A   1      36.210  34.996  32.817  1.00  0.00     0.010 A 
ATOM     47  C   UNL A   1      36.160  33.653  33.218  1.00  0.00    -0.014 A 
BRANCH  47  48
ATOM     48  C   UNL A   1      37.411  32.929  33.561  1.00  0.00     0.031 A 
ATOM     49  C   UNL A   1      38.135  33.220  34.845  1.00  0.00     0.074 A 
ATOM     50  C   UNL A   1      37.918  32.036  32.688  1.00  0.00     0.049 A 
ATOM     51  N   UNL A   1      39.243  32.697  35.307  1.00  0.00    -0.248 NA
ATOM     52  C   UNL A   1      37.553  34.254  35.715  1.00  0.00     0.031 C 
ATOM     53  C   UNL A   1      37.342  31.711  31.382  1.00  0.00     0.029 A 
ATOM     54  N   UNL A   1      39.035  31.241  32.766  1.00  0.00    -0.354 N 
ATOM     55  C   UNL A   1      39.489  33.336  36.516  1.00  0.00     0.074 A 
ATOM     56  C   UNL A   1      38.453  34.332  36.683  1.00  0.00     0.031 C 
ATOM     57  C   UNL A   1      38.090  30.763  30.795  1.00  0.00     0.029 A 
ATOM     58  C   UNL A   1      39.217  30.440  31.665  1.00  0.00     0.049 A 
ATOM     59  H   UNL A   1      39.648  31.245  33.537  1.00  0.00     0.167 HD
ATOM     60  C   UNL A   1      40.472  33.096  37.416  1.00  0.00     0.037 A 
ATOM     61  C   UNL A   1      40.186  29.546  31.388  1.00  0.00     0.037 A 
ATOM     62  C   UNL A   1      41.496  32.096  37.250  1.00  0.00     0.049 A 
ATOM     63  C   UNL A   1      41.271  29.303  32.401  1.00  0.00     0.074 A 
ATOM     64  C   UNL A   1      42.506  31.741  38.126  1.00  0.00     0.029 A 
ATOM     65  N   UNL A   1      41.642  31.295  36.126  1.00  0.00    -0.354 N 
ATOM     66  N   UNL A   1      41.448  29.858  33.576  1.00  0.00    -0.248 NA
ATOM     67  C   UNL A   1      42.285  28.298  32.055  1.00  0.00     0.031 C 
ATOM     68  C   UNL A   1      43.296  30.763  37.512  1.00  0.00     0.029 A 
ATOM     69  C   UNL A   1      42.742  30.464  36.277  1.00  0.00     0.049 A 
ATOM     70  H   UNL A   1      41.053  31.314  35.338  1.00  0.00     0.167 HD
ATOM     71  C   UNL A   1      42.573  29.253  34.119  1.00  0.00     0.074 A 
ATOM     72  C   UNL A   1      43.024  28.272  33.154  1.00  0.00     0.031 C 
ATOM     73  C   UNL A   1      43.179  29.490  35.309  1.00  0.00     0.037 A 
BRANCH  60  74
ATOM     74  C   UNL A   1      40.483  33.925  38.669  1.00  0.00     0.064 A 
ATOM     75  C   UNL A   1      39.789  33.527  39.822  1.00  0.00     0.173 A 
ATOM     76  C   UNL A   1      41.225  35.115  38.731  1.00  0.00     0.173 A 
ATOM     77  F   UNL A   1      39.055  32.404  39.814  1.00  0.00    -0.203 F 
ATOM     78  C   UNL A   1      39.809  34.304  40.978  1.00  0.00     0.198 A 
ATOM     79  C   UNL A   1      41.271  35.872  39.899  1.00  0.00     0.198 A 
ATOM     80  F   UNL A   1      41.913  35.541  37.661  1.00  0.00    -0.203 F 
ATOM     81  F   UNL A   1      39.093  33.930  42.047  1.00  0.00    -0.200 F 
ATOM     82  C   UNL A   1      40.556  35.471  41.018  1.00  0.00     0.200 A 
ATOM     83  F   UNL A   1      42.005  36.992  39.942  1.00  0.00    -0.200 F 
ATOM     84  F   UNL A   1      40.581  36.215  42.133  1.00  0.00    -0.200 F 
ENDBRANCH  60  74
BRANCH  61  85
ATOM     85  C   UNL A   1      40.158  28.794  30.104  1.00  0.00     0.064 A 
ATOM     86  C   UNL A   1      40.795  29.295  28.961  1.00  0.00     0.173 A 
ATOM     87  C   UNL A   1      39.485  27.568  29.990  1.00  0.00     0.173 A 
ATOM     88  F   UNL A   1      41.435  30.473  29.012  1.00  0.00    -0.203 F 
ATOM     89  C   UNL A   1      40.741  28.612  27.746  1.00  0.00     0.198 A 
ATOM     90  C   UNL A   1      39.459  26.870  28.785  1.00  0.00     0.198 A 
ATOM     91  F   UNL A   1      38.864  27.043  31.056  1.00  0.00    -0.203 F 
ATOM     92  F   UNL A   1      41.314  29.140  26.657  1.00  0.00    -0.200 F 
ATOM     93  C   UNL A   1      40.078  27.397  27.662  1.00  0.00     0.200 A 
ATOM     94  F   UNL A   1      38.831  25.689  28.713  1.00  0.00    -0.200 F 
ATOM     95  F   UNL A   1      40.028  26.738  26.496  1.00  0.00    -0.200 F 
ENDBRANCH  61  85
BRANCH  73  96
ATOM     96  C   UNL A   1      44.377  28.649  35.648  1.00  0.00     0.064 A 
ATOM     97  C   UNL A   1      44.256  27.429  36.329  1.00  0.00     0.173 A 
ATOM     98  C   UNL A   1      45.664  29.060  35.266  1.00  0.00     0.173 A 
ATOM     99  F   UNL A   1      43.050  26.995  36.728  1.00  0.00    -0.203 F 
ATOM    100  C   UNL A   1      45.379  26.669  36.646  1.00  0.00     0.198 A 
ATOM    101  C   UNL A   1      46.782  28.282  35.555  1.00  0.00     0.198 A 
ATOM    102  F   UNL A   1      45.838  30.215  34.606  1.00  0.00    -0.203 F 
ATOM    103  F   UNL A   1      45.243  25.537  37.351  1.00  0.00    -0.200 F 
ATOM    104  C   UNL A   1      46.640  27.094  36.254  1.00  0.00     0.200 A 
ATOM    105  F   UNL A   1      47.998  28.685  35.160  1.00  0.00    -0.200 F 
ATOM    106  F   UNL A   1      47.720  26.361  36.558  1.00  0.00    -0.200 F 
ENDBRANCH  73  96
ENDBRANCH  47  48
ENDBRANCH  39  42
ENDBRANCH  37  38
ENDBRANCH  36  37
ENDBRANCH  35  36
ENDBRANCH  34  35
ENDBRANCH   3  34
TORSDOF 17
ENDMDL
MODEL 2
REMARK VINA RESULT:     -12.9      2.911      4.915
REMARK SMILES O=C(COc1ccccc1Br)Nc1cccc(C(=O)Nc2ccc(C(=O)NCCCCNC(=O)c3ccc(-c4c5nc(c(-c6c(F)c(F)c(F)c(F)c6F)c6ccc([nH]6)c(-c6c(F)c(F)c(F)c(F)c6F)c6nc(c(-c7c(F)c(F)c(F)c(F)c7F)c7ccc4[nH]7)C=C6)C=C5)cc3)cc2)c1
REMARK SMILES IDX 25 1 26 2 27 3 24 5 21 6 22 7 99 8 23 9 98 10 20 11 18 12
REMARK SMILES IDX 19 13 17 15 13 16 14 17 100 18 15 19 16 20 12 21 1 22 2 23
REMARK SMILES IDX 3 25 4 26 5 27 6 28 10 29 7 30 9 31 11 32 8 33 28 34 29 35
REMARK SMILES IDX 30 36 31 37 32 38 33 39 34 41 35 42 36 43 97 44 37 45 96 46
REMARK SMILES IDX 38 47 39 48 40 49 90 50 41 51 95 52 89 53 91 54 42 55 94 56
REMARK SMILES IDX 88 57 87 58 43 60 75 61 55 62 74 63 56 64 59 65 73 66 92 67
REMARK SMILES IDX 57 68 58 69 72 71 93 72 60 73 44 74 45 75 53 76 46 77 47 78
REMARK SMILES IDX 51 79 54 80 48 81 49 82 52 83 50 84 76 85 77 86 85 87 78 88
REMARK SMILES IDX 79 89 83 90 86 91 80 92 81 93 84 94 82 95 61 96 62 97 70 98
REMARK SMILES IDX 63 99 64 100 68 101 71 102 65 103 66 104 69 105 67 106
REMARK H PARENT 27 4 20 14 12 24 32 40 91 59 59 70
REMARK Flexibility Score: inf
ROOT
ATOM      1  C   UNL A   1      32.394  28.778  23.501  1.00  0.00     0.251 C 
ATOM      2  O   UNL A   1      32.710  29.041  22.340  1.00  0.00    -0.269 OA
ATOM      3  N   UNL A   1      31.628  29.706  24.167  1.00  0.00    -0.352 N 
ATOM      4  H   UNL A   1      31.420  30.506  23.633  1.00  0.00     0.163 HD
ENDROOT
BRANCH   1   5
ATOM      5  C   UNL A   1      32.784  27.461  24.084  1.00  0.00     0.039 A 
ATOM      6  C   UNL A   1      33.037  25.000  25.402  1.00  0.00     0.041 A 
ATOM      7  C   UNL A   1      32.215  25.098  24.281  1.00  0.00     0.027 A 
ATOM      8  C   UNL A   1      33.871  26.068  25.743  1.00  0.00     0.027 A 
ATOM      9  C   UNL A   1      32.066  26.336  23.646  1.00  0.00     0.016 A 
ATOM     10  C   UNL A   1      33.766  27.287  25.060  1.00  0.00     0.016 A 
BRANCH   6  11
ATOM     11  N   UNL A   1      32.909  23.859  26.210  1.00  0.00    -0.322 N 
ATOM     12  C   UNL A   1      33.622  22.670  26.175  1.00  0.00     0.255 C 
ATOM     13  O   UNL A   1      33.213  21.708  26.827  1.00  0.00    -0.269 OA
ATOM     14  H   UNL A   1      32.210  23.910  26.901  1.00  0.00     0.170 HD
BRANCH  12  15
ATOM     15  C   UNL A   1      34.936  22.549  25.467  1.00  0.00     0.042 A 
ATOM     16  C   UNL A   1      37.333  22.116  25.482  1.00  0.00     0.042 A 
ATOM     17  C   UNL A   1      37.382  22.373  24.110  1.00  0.00     0.026 A 
ATOM     18  C   UNL A   1      36.099  22.139  26.126  1.00  0.00     0.040 A 
ATOM     19  C   UNL A   1      36.208  22.654  23.406  1.00  0.00     0.003 A 
ATOM     20  C   UNL A   1      34.990  22.757  24.084  1.00  0.00     0.014 A 
BRANCH  16  21
ATOM     21  N   UNL A   1      38.531  21.776  26.136  1.00  0.00    -0.323 N 
ATOM     22  O   UNL A   1      38.980  19.616  25.348  1.00  0.00    -0.271 OA
ATOM     23  C   UNL A   1      39.301  20.635  25.948  1.00  0.00     0.262 C 
ATOM     24  H   UNL A   1      38.861  22.420  26.803  1.00  0.00     0.170 HD
BRANCH  23  25
ATOM     25  C   UNL A   1      40.677  20.750  26.589  1.00  0.00     0.329 C 
BRANCH  25  26
ATOM     26  O   UNL A   1      41.445  21.740  25.898  1.00  0.00    -0.483 OA
BRANCH  26  27
ATOM     27  C   UNL A   1      42.182  22.503  26.762  1.00  0.00     0.134 A 
ATOM     28  C   UNL A   1      41.710  22.571  28.075  1.00  0.00     0.047 A 
ATOM     29  C   UNL A   1      43.279  23.284  26.375  1.00  0.00     0.060 A 
ATOM     30  C   UNL A   1      42.336  23.405  29.000  1.00  0.00     0.004 A 
ATOM     31  C   UNL A   1      43.905  24.111  27.307  1.00  0.00     0.019 A 
ATOM     32  Br  UNL A   1      43.982  23.342  24.618  1.00  0.00    -0.047 Br
ATOM     33  C   UNL A   1      43.430  24.176  28.615  1.00  0.00     0.001 A 
ENDBRANCH  26  27
ENDBRANCH  25  26
ENDBRANCH  23  25
ENDBRANCH  16  21
ENDBRANCH  12  15
ENDBRANCH   6  11
ENDBRANCH   1   5
BRANCH   3  34
ATOM     34  C   UNL A   1      31.066  29.734  25.503  1.00  0.00     0.116 C 
BRANCH  34  35
ATOM     35  C   UNL A   1      32.047  30.365  26.487  1.00  0.00     0.023 C 
BRANCH  35  36
ATOM     36  C   UNL A   1      31.699  31.808  26.873  1.00  0.00     0.023 C 
BRANCH  36  37
ATOM     37  C   UNL A   1      32.891  32.743  27.058  1.00  0.00     0.116 C 
BRANCH  37  38
ATOM     38  N   UNL A   1      32.528  34.031  27.626  1.00  0.00    -0.352 N 
ATOM     39  C   UNL A   1      33.060  34.685  28.713  1.00  0.00     0.251 C 
ATOM     40  H   UNL A   1      31.796  34.503  27.167  1.00  0.00     0.163 HD
ATOM     41  O   UNL A   1      32.548  35.715  29.123  1.00  0.00    -0.269 OA
BRANCH  39  42
ATOM     42  C   UNL A   1      34.237  34.116  29.404  1.00  0.00     0.039 A 
ATOM     43  C   UNL A   1      34.027  33.186  30.425  1.00  0.00     0.014 A 
ATOM     44  C   UNL A   1      35.535  34.486  29.044  1.00  0.00     0.014 A 
ATOM     45  C   UNL A   1      35.123  32.579  31.041  1.00  0.00     0.010 A 
ATOM     46  C   UNL A   1      36.625  33.826  29.607  1.00  0.00     0.010 A 
ATOM     47  C   UNL A   1      36.430  32.866  30.611  1.00  0.00    -0.014 A 
BRANCH  47  48
ATOM     48  C   UNL A   1      37.595  32.154  31.198  1.00  0.00     0.031 A 
ATOM     49  C   UNL A   1      38.092  32.506  32.572  1.00  0.00     0.074 A 
ATOM     50  C   UNL A   1      38.231  31.216  30.471  1.00  0.00     0.049 A 
ATOM     51  N   UNL A   1      39.097  32.002  33.243  1.00  0.00    -0.248 NA
ATOM     52  C   UNL A   1      37.384  33.586  33.277  1.00  0.00     0.031 C 
ATOM     53  C   UNL A   1      37.883  30.827  29.103  1.00  0.00     0.029 A 
ATOM     54  N   UNL A   1      39.307  30.420  30.778  1.00  0.00    -0.354 N 
ATOM     55  C   UNL A   1      39.142  32.700  34.442  1.00  0.00     0.074 A 
ATOM     56  C   UNL A   1      38.106  33.709  34.380  1.00  0.00     0.031 C 
ATOM     57  C   UNL A   1      38.707  29.847  28.700  1.00  0.00     0.029 A 
ATOM     58  C   UNL A   1      39.665  29.563  29.765  1.00  0.00     0.049 A 
ATOM     59  H   UNL A   1      39.779  30.460  31.641  1.00  0.00     0.167 HD
ATOM     60  C   UNL A   1      39.952  32.501  35.509  1.00  0.00     0.037 A 
ATOM     61  C   UNL A   1      40.654  28.651  29.703  1.00  0.00     0.037 A 
ATOM     62  C   UNL A   1      40.976  31.489  35.570  1.00  0.00     0.049 A 
ATOM     63  C   UNL A   1      41.546  28.455  30.898  1.00  0.00     0.074 A 
ATOM     64  C   UNL A   1      41.817  31.174  36.623  1.00  0.00     0.029 A 
ATOM     65  N   UNL A   1      41.302  30.631  34.528  1.00  0.00    -0.354 N 
ATOM     66  N   UNL A   1      41.527  29.068  32.057  1.00  0.00    -0.248 NA
ATOM     67  C   UNL A   1      42.591  27.429  30.781  1.00  0.00     0.031 C 
ATOM     68  C   UNL A   1      42.687  30.162  36.202  1.00  0.00     0.029 A 
ATOM     69  C   UNL A   1      42.347  29.803  34.907  1.00  0.00     0.049 A 
ATOM     70  H   UNL A   1      40.857  30.613  33.651  1.00  0.00     0.167 HD
ATOM     71  C   UNL A   1      42.534  28.485  32.814  1.00  0.00     0.074 A 
ATOM     72  C   UNL A   1      43.130  27.454  31.991  1.00  0.00     0.031 C 
ATOM     73  C   UNL A   1      42.931  28.780  34.077  1.00  0.00     0.037 A 
BRANCH  60  74
ATOM     74  C   UNL A   1      39.761  33.393  36.703  1.00  0.00     0.064 A 
ATOM     75  C   UNL A   1      38.865  33.063  37.732  1.00  0.00     0.173 A 
ATOM     76  C   UNL A   1      40.505  34.575  36.838  1.00  0.00     0.173 A 
ATOM     77  F   UNL A   1      38.120  31.950  37.648  1.00  0.00    -0.203 F 
ATOM     78  C   UNL A   1      38.698  33.897  38.835  1.00  0.00     0.198 A 
ATOM     79  C   UNL A   1      40.360  35.390  37.959  1.00  0.00     0.198 A 
ATOM     80  F   UNL A   1      41.380  34.937  35.888  1.00  0.00    -0.203 F 
ATOM     81  F   UNL A   1      37.797  33.587  39.776  1.00  0.00    -0.200 F 
ATOM     82  C   UNL A   1      39.451  35.055  38.951  1.00  0.00     0.200 A 
ATOM     83  F   UNL A   1      41.099  36.501  38.077  1.00  0.00    -0.200 F 
ATOM     84  F   UNL A   1      39.295  35.854  40.016  1.00  0.00    -0.200 F 
ENDBRANCH  60  74
BRANCH  61  85
ATOM     85  C   UNL A   1      40.836  27.836  28.472  1.00  0.00     0.064 A 
ATOM     86  C   UNL A   1      41.700  28.253  27.451  1.00  0.00     0.173 A 
ATOM     87  C   UNL A   1      40.142  26.630  28.286  1.00  0.00     0.173 A 
ATOM     88  F   UNL A   1      42.371  29.408  27.572  1.00  0.00    -0.203 F 
ATOM     89  C   UNL A   1      41.846  27.511  26.280  1.00  0.00     0.198 A 
ATOM     90  C   UNL A   1      40.313  25.872  27.130  1.00  0.00     0.198 A 
ATOM     91  F   UNL A   1      39.307  26.183  29.235  1.00  0.00    -0.203 F 
ATOM     92  F   UNL A   1      42.639  27.960  25.299  1.00  0.00    -0.200 F 
ATOM     93  C   UNL A   1      41.157  26.318  26.123  1.00  0.00     0.200 A 
ATOM     94  F   UNL A   1      39.658  24.712  26.990  1.00  0.00    -0.200 F 
ATOM     95  F   UNL A   1      41.299  25.601  25.000  1.00  0.00    -0.200 F 
ENDBRANCH  61  85
BRANCH  73  96
ATOM     96  C   UNL A   1      44.042  27.950  34.658  1.00  0.00     0.064 A 
ATOM     97  C   UNL A   1      45.385  28.344  34.565  1.00  0.00     0.173 A 
ATOM     98  C   UNL A   1      43.755  26.756  35.336  1.00  0.00     0.173 A 
ATOM     99  F   UNL A   1      45.715  29.471  33.915  1.00  0.00    -0.203 F 
ATOM    100  C   UNL A   1      46.402  27.555  35.097  1.00  0.00     0.198 A 
ATOM    101  C   UNL A   1      44.771  25.987  35.899  1.00  0.00     0.198 A 
ATOM    102  F   UNL A   1      42.487  26.336  35.462  1.00  0.00    -0.203 F 
ATOM    103  F   UNL A   1      47.682  27.922  34.943  1.00  0.00    -0.200 F 
ATOM    104  C   UNL A   1      46.094  26.381  35.769  1.00  0.00     0.200 A 
ATOM    105  F   UNL A   1      44.470  24.862  36.561  1.00  0.00    -0.200 F 
ATOM    106  F   UNL A   1      47.073  25.625  36.283  1.00  0.00    -0.200 F 
ENDBRANCH  73  96
ENDBRANCH  47  48
ENDBRANCH  39  42
ENDBRANCH  37  38
ENDBRANCH  36  37
ENDBRANCH  35  36
ENDBRANCH  34  35
ENDBRANCH   3  34
TORSDOF 17
ENDMDL
MODEL 3
REMARK VINA RESULT:     -12.8      0.445      6.993
REMARK SMILES O=C(COc1ccccc1Br)Nc1cccc(C(=O)Nc2ccc(C(=O)NCCCCNC(=O)c3ccc(-c4c5nc(c(-c6c(F)c(F)c(F)c(F)c6F)c6ccc([nH]6)c(-c6c(F)c(F)c(F)c(F)c6F)c6nc(c(-c7c(F)c(F)c(F)c(F)c7F)c7ccc4[nH]7)C=C6)C=C5)cc3)cc2)c1
REMARK SMILES IDX 25 1 26 2 27 3 24 5 21 6 22 7 99 8 23 9 98 10 20 11 18 12
REMARK SMILES IDX 19 13 17 15 13 16 14 17 100 18 15 19 16 20 12 21 1 22 2 23
REMARK SMILES IDX 3 25 4 26 5 27 6 28 10 29 7 30 9 31 11 32 8 33 28 34 29 35
REMARK SMILES IDX 30 36 31 37 32 38 33 39 34 41 35 42 36 43 97 44 37 45 96 46
REMARK SMILES IDX 38 47 39 48 40 49 90 50 41 51 95 52 89 53 91 54 42 55 94 56
REMARK SMILES IDX 88 57 87 58 43 60 75 61 55 62 74 63 56 64 59 65 73 66 92 67
REMARK SMILES IDX 57 68 58 69 72 71 93 72 60 73 44 74 45 75 53 76 46 77 47 78
REMARK SMILES IDX 51 79 54 80 48 81 49 82 52 83 50 84 76 85 77 86 85 87 78 88
REMARK SMILES IDX 79 89 83 90 86 91 80 92 81 93 84 94 82 95 61 96 62 97 70 98
REMARK SMILES IDX 63 99 64 100 68 101 71 102 65 103 66 104 69 105 67 106
REMARK H PARENT 27 4 20 14 12 24 32 40 91 59 59 70
REMARK Flexibility Score: inf
ROOT
ATOM      1  C   UNL A   1      35.356  30.267  27.989  1.00  0.00     0.251 C 
ATOM      2  O   UNL A   1      36.076  29.366  28.423  1.00  0.00    -0.269 OA
ATOM      3  N   UNL A   1      35.710  31.558  28.305  1.00  0.00    -0.352 N 
ATOM      4  H   UNL A   1      36.515  31.623  28.868  1.00  0.00     0.163 HD
ENDROOT
BRANCH   1   5
ATOM      5  C   UNL A   1      34.210  29.921  27.100  1.00  0.00     0.039 A 
ATOM      6  C   UNL A   1      32.341  29.509  25.052  1.00  0.00     0.041 A 
ATOM      7  C   UNL A   1      33.511  28.752  25.078  1.00  0.00     0.027 A 
ATOM      8  C   UNL A   1      32.020  30.321  26.142  1.00  0.00     0.027 A 
ATOM      9  C   UNL A   1      34.456  28.984  26.082  1.00  0.00     0.016 A 
ATOM     10  C   UNL A   1      32.942  30.499  27.181  1.00  0.00     0.016 A 
BRANCH   6  11
ATOM     11  N   UNL A   1      31.582  29.500  23.870  1.00  0.00    -0.322 N 
ATOM     12  C   UNL A   1      30.999  28.432  23.205  1.00  0.00     0.255 C 
ATOM     13  O   UNL A   1      30.557  28.605  22.069  1.00  0.00    -0.269 OA
ATOM     14  H   UNL A   1      31.446  30.381  23.452  1.00  0.00     0.170 HD
BRANCH  12  15
ATOM     15  C   UNL A   1      30.780  27.106  23.865  1.00  0.00     0.042 A 
ATOM     16  C   UNL A   1      30.820  24.671  23.819  1.00  0.00     0.042 A 
ATOM     17  C   UNL A   1      30.319  24.644  25.122  1.00  0.00     0.026 A 
ATOM     18  C   UNL A   1      31.110  25.902  23.236  1.00  0.00     0.040 A 
ATOM     19  C   UNL A   1      30.109  25.837  25.819  1.00  0.00     0.003 A 
ATOM     20  C   UNL A   1      30.324  27.065  25.187  1.00  0.00     0.014 A 
BRANCH  16  21
ATOM     21  N   UNL A   1      31.076  23.443  23.181  1.00  0.00    -0.323 N 
ATOM     22  O   UNL A   1      33.414  23.321  23.164  1.00  0.00    -0.271 OA
ATOM     23  C   UNL A   1      32.306  22.824  23.002  1.00  0.00     0.262 C 
ATOM     24  H   UNL A   1      30.292  22.968  22.821  1.00  0.00     0.170 HD
BRANCH  23  25
ATOM     25  C   UNL A   1      32.170  21.375  22.556  1.00  0.00     0.329 C 
BRANCH  25  26
ATOM     26  O   UNL A   1      31.946  20.543  23.697  1.00  0.00    -0.483 OA
BRANCH  26  27
ATOM     27  C   UNL A   1      32.842  19.510  23.754  1.00  0.00     0.134 A 
ATOM     28  C   UNL A   1      32.487  18.353  23.057  1.00  0.00     0.047 A 
ATOM     29  C   UNL A   1      33.997  19.519  24.547  1.00  0.00     0.060 A 
ATOM     30  C   UNL A   1      33.286  17.214  23.141  1.00  0.00     0.004 A 
ATOM     31  C   UNL A   1      34.796  18.378  24.621  1.00  0.00     0.019 A 
ATOM     32  Br  UNL A   1      34.561  20.990  25.596  1.00  0.00    -0.047 Br
ATOM     33  C   UNL A   1      34.438  17.227  23.925  1.00  0.00     0.001 A 
ENDBRANCH  26  27
ENDBRANCH  25  26
ENDBRANCH  23  25
ENDBRANCH  16  21
ENDBRANCH  12  15
ENDBRANCH   6  11
ENDBRANCH   1   5
BRANCH   3  34
ATOM     34  C   UNL A   1      35.127  32.842  27.968  1.00  0.00     0.116 C 
BRANCH  34  35
ATOM     35  C   UNL A   1      34.375  33.423  29.163  1.00  0.00     0.023 C 
BRANCH  35  36
ATOM     36  C   UNL A   1      33.373  34.523  28.792  1.00  0.00     0.023 C 
BRANCH  36  37
ATOM     37  C   UNL A   1      33.527  35.834  29.559  1.00  0.00     0.116 C 
BRANCH  37  38
ATOM     38  N   UNL A   1      32.514  36.020  30.586  1.00  0.00    -0.352 N 
ATOM     39  C   UNL A   1      32.529  35.629  31.905  1.00  0.00     0.251 C 
ATOM     40  H   UNL A   1      31.701  36.494  30.295  1.00  0.00     0.163 HD
ATOM     41  O   UNL A   1      31.534  35.767  32.599  1.00  0.00    -0.269 OA
BRANCH  39  42
ATOM     42  C   UNL A   1      33.748  35.012  32.470  1.00  0.00     0.039 A 
ATOM     43  C   UNL A   1      33.667  33.709  32.969  1.00  0.00     0.014 A 
ATOM     44  C   UNL A   1      34.962  35.703  32.501  1.00  0.00     0.014 A 
ATOM     45  C   UNL A   1      34.820  33.078  33.438  1.00  0.00     0.010 A 
ATOM     46  C   UNL A   1      36.123  35.047  32.901  1.00  0.00     0.010 A 
ATOM     47  C   UNL A   1      36.064  33.727  33.373  1.00  0.00    -0.014 A 
BRANCH  47  48
ATOM     48  C   UNL A   1      37.308  33.027  33.785  1.00  0.00     0.031 A 
ATOM     49  C   UNL A   1      37.924  31.979  32.900  1.00  0.00     0.074 A 
ATOM     50  C   UNL A   1      37.860  33.308  34.981  1.00  0.00     0.049 A 
ATOM     51  N   UNL A   1      38.999  31.257  33.097  1.00  0.00    -0.248 NA
ATOM     52  C   UNL A   1      37.226  31.683  31.639  1.00  0.00     0.031 C 
ATOM     53  C   UNL A   1      37.324  34.260  35.955  1.00  0.00     0.029 A 
ATOM     54  N   UNL A   1      38.992  32.818  35.584  1.00  0.00    -0.354 N 
ATOM     55  C   UNL A   1      39.105  30.425  31.990  1.00  0.00     0.074 A 
ATOM     56  C   UNL A   1      37.949  30.683  31.158  1.00  0.00     0.031 C 
ATOM     57  C   UNL A   1      38.142  34.309  37.019  1.00  0.00     0.029 A 
ATOM     58  C   UNL A   1      39.238  33.366  36.819  1.00  0.00     0.049 A 
ATOM     59  H   UNL A   1      39.572  32.137  35.171  1.00  0.00     0.167 HD
ATOM     60  C   UNL A   1      40.089  29.547  31.681  1.00  0.00     0.037 A 
ATOM     61  C   UNL A   1      40.237  33.134  37.693  1.00  0.00     0.037 A 
ATOM     62  C   UNL A   1      41.243  29.301  32.509  1.00  0.00     0.049 A 
ATOM     63  C   UNL A   1      41.314  32.148  37.330  1.00  0.00     0.074 A 
ATOM     64  C   UNL A   1      42.320  28.468  32.262  1.00  0.00     0.029 A 
ATOM     65  N   UNL A   1      41.464  29.884  33.749  1.00  0.00    -0.354 N 
ATOM     66  N   UNL A   1      41.445  31.425  36.244  1.00  0.00    -0.248 NA
ATOM     67  C   UNL A   1      42.391  31.955  38.311  1.00  0.00     0.031 C 
ATOM     68  C   UNL A   1      43.167  28.506  33.374  1.00  0.00     0.029 A 
ATOM     69  C   UNL A   1      42.650  29.410  34.289  1.00  0.00     0.049 A 
ATOM     70  H   UNL A   1      40.869  30.537  34.181  1.00  0.00     0.167 HD
ATOM     71  C   UNL A   1      42.627  30.715  36.398  1.00  0.00     0.074 A 
ATOM     72  C   UNL A   1      43.188  31.111  37.673  1.00  0.00     0.031 C 
ATOM     73  C   UNL A   1      43.197  29.814  35.560  1.00  0.00     0.037 A 
BRANCH  60  74
ATOM     74  C   UNL A   1      39.965  28.791  30.389  1.00  0.00     0.064 A 
ATOM     75  C   UNL A   1      40.467  29.305  29.183  1.00  0.00     0.173 A 
ATOM     76  C   UNL A   1      39.367  27.521  30.359  1.00  0.00     0.173 A 
ATOM     77  F   UNL A   1      41.037  30.520  29.153  1.00  0.00    -0.203 F 
ATOM     78  C   UNL A   1      40.347  28.594  27.993  1.00  0.00     0.198 A 
ATOM     79  C   UNL A   1      39.280  26.797  29.173  1.00  0.00     0.198 A 
ATOM     80  F   UNL A   1      38.875  26.978  31.482  1.00  0.00    -0.203 F 
ATOM     81  F   UNL A   1      40.785  29.131  26.846  1.00  0.00    -0.200 F 
ATOM     82  C   UNL A   1      39.761  27.337  27.989  1.00  0.00     0.200 A 
ATOM     83  F   UNL A   1      38.726  25.577  29.173  1.00  0.00    -0.200 F 
ATOM     84  F   UNL A   1      39.652  26.650  26.844  1.00  0.00    -0.200 F 
ENDBRANCH  60  74
BRANCH  61  85
ATOM     85  C   UNL A   1      40.279  33.869  38.986  1.00  0.00     0.064 A 
ATOM     86  C   UNL A   1      39.545  33.423  40.094  1.00  0.00     0.173 A 
ATOM     87  C   UNL A   1      41.042  35.036  39.138  1.00  0.00     0.173 A 
ATOM     88  F   UNL A   1      38.784  32.323  39.994  1.00  0.00    -0.203 F 
ATOM     89  C   UNL A   1      39.552  34.128  41.296  1.00  0.00     0.198 A 
ATOM     90  C   UNL A   1      41.075  35.723  40.349  1.00  0.00     0.198 A 
ATOM     91  F   UNL A   1      41.767  35.502  38.110  1.00  0.00    -0.203 F 
ATOM     92  F   UNL A   1      38.801  33.708  42.321  1.00  0.00    -0.200 F 
ATOM     93  C   UNL A   1      40.322  35.274  41.424  1.00  0.00     0.200 A 
ATOM     94  F   UNL A   1      41.833  36.821  40.473  1.00  0.00    -0.200 F 
ATOM     95  F   UNL A   1      40.333  35.951  42.580  1.00  0.00    -0.200 F 
ENDBRANCH  61  85
BRANCH  73  96
ATOM     96  C   UNL A   1      44.512  29.220  35.981  1.00  0.00     0.064 A 
ATOM     97  C   UNL A   1      44.584  28.028  36.716  1.00  0.00     0.173 A 
ATOM     98  C   UNL A   1      45.718  29.844  35.624  1.00  0.00     0.173 A 
ATOM     99  F   UNL A   1      43.461  27.399  37.094  1.00  0.00    -0.203 F 
ATOM    100  C   UNL A   1      45.812  27.501  37.109  1.00  0.00     0.198 A 
ATOM    101  C   UNL A   1      46.946  29.296  35.988  1.00  0.00     0.198 A 
ATOM    102  F   UNL A   1      45.708  30.982  34.914  1.00  0.00    -0.203 F 
ATOM    103  F   UNL A   1      45.853  26.394  37.863  1.00  0.00    -0.200 F 
ATOM    104  C   UNL A   1      46.991  28.132  36.739  1.00  0.00     0.200 A 
ATOM    105  F   UNL A   1      48.084  29.897  35.616  1.00  0.00    -0.200 F 
ATOM    106  F   UNL A   1      48.171  27.622  37.116  1.00  0.00    -0.200 F 
ENDBRANCH  73  96
ENDBRANCH  47  48
ENDBRANCH  39  42
ENDBRANCH  37  38
ENDBRANCH  36  37
ENDBRANCH  35  36
ENDBRANCH  34  35
ENDBRANCH   3  34
TORSDOF 17
ENDMDL
