MODEL 1
REMARK VINA RESULT:     -12.9      0.000      0.000
REMARK SMILES O=C(NCCCCNC(=O)c1c(-c2ccc(Cl)cc2)noc1CO[C@@H]1CCCCO1)c1ccc(-c2c3nc(c(-c4c(F)c(F)c(F)c(F)c4F)c4ccc([nH]4)c(-c4c(F)c(F)c(F)c(F)c4F)c4nc(c(-c5c(F)c(F)c(F)c(F)c5F)c5ccc2[nH]5)C=C4)C=C3)cc1
REMARK SMILES IDX 6 1 5 2 4 3 3 4 1 5 2 6 31 8 32 9 93 10 33 11 92 12 34 13
REMARK SMILES IDX 35 14 36 15 86 16 37 17 91 18 85 19 87 20 38 21 90 22 84 23
REMARK SMILES IDX 83 24 39 26 71 27 51 28 70 29 52 30 55 31 69 32 88 33 53 34
REMARK SMILES IDX 54 35 68 37 89 38 56 39 40 40 41 41 49 42 42 43 43 44 47 45
REMARK SMILES IDX 50 46 44 47 45 48 48 49 46 50 72 51 73 52 81 53 74 54 75 55
REMARK SMILES IDX 79 56 82 57 76 58 77 59 80 60 78 61 57 62 58 63 66 64 59 65
REMARK SMILES IDX 60 66 64 67 67 68 61 69 62 70 65 71 63 72 7 73 8 74 9 75
REMARK SMILES IDX 10 77 11 78 12 79 22 80 20 81 21 82 13 83 14 84 19 85 15 86
REMARK SMILES IDX 18 87 16 88 17 89 23 90 24 91 25 92 26 93 30 94 27 95 29 96
REMARK SMILES IDX 28 97
REMARK H PARENT 3 7 87 25 55 36 8 76
REMARK Flexibility Score: inf
ROOT
ATOM      1  C   UNL A   1      31.507  30.491  25.458  1.00  0.00     0.023 C 
ENDROOT
BRANCH   1   2
ATOM      2  C   UNL A   1      31.370  31.528  26.578  1.00  0.00     0.023 C 
BRANCH   2   3
ATOM      3  C   UNL A   1      32.605  32.372  26.884  1.00  0.00     0.116 C 
BRANCH   3   4
ATOM      4  N   UNL A   1      32.296  33.702  27.372  1.00  0.00    -0.352 N 
ATOM      5  O   UNL A   1      32.496  35.534  28.665  1.00  0.00    -0.269 OA
ATOM      6  C   UNL A   1      32.950  34.445  28.326  1.00  0.00     0.251 C 
ATOM      7  H   UNL A   1      31.509  34.132  26.964  1.00  0.00     0.163 HD
BRANCH   6   8
ATOM      8  C   UNL A   1      34.173  33.926  28.983  1.00  0.00     0.039 A 
ATOM      9  C   UNL A   1      35.442  34.434  28.691  1.00  0.00     0.014 A 
ATOM     10  C   UNL A   1      34.031  32.920  29.947  1.00  0.00     0.014 A 
ATOM     11  C   UNL A   1      36.571  33.874  29.291  1.00  0.00     0.010 A 
ATOM     12  C   UNL A   1      35.159  32.376  30.568  1.00  0.00     0.010 A 
ATOM     13  C   UNL A   1      36.439  32.830  30.221  1.00  0.00    -0.014 A 
BRANCH  13  14
ATOM     14  C   UNL A   1      37.651  32.216  30.811  1.00  0.00     0.031 A 
ATOM     15  C   UNL A   1      38.077  32.570  32.205  1.00  0.00     0.074 A 
ATOM     16  C   UNL A   1      38.346  31.305  30.107  1.00  0.00     0.049 A 
ATOM     17  N   UNL A   1      39.068  32.089  32.913  1.00  0.00    -0.248 NA
ATOM     18  C   UNL A   1      37.291  33.604  32.895  1.00  0.00     0.031 C 
ATOM     19  C   UNL A   1      38.050  30.890  28.737  1.00  0.00     0.029 A 
ATOM     20  N   UNL A   1      39.437  30.552  30.461  1.00  0.00    -0.354 N 
ATOM     21  C   UNL A   1      39.037  32.770  34.120  1.00  0.00     0.074 A 
ATOM     22  C   UNL A   1      37.926  33.696  34.056  1.00  0.00     0.031 C 
ATOM     23  C   UNL A   1      38.917  29.928  28.377  1.00  0.00     0.029 A 
ATOM     24  C   UNL A   1      39.823  29.662  29.492  1.00  0.00     0.049 A 
ATOM     25  H   UNL A   1      39.896  30.641  31.327  1.00  0.00     0.167 HD
ATOM     26  C   UNL A   1      39.864  32.641  35.184  1.00  0.00     0.037 A 
ATOM     27  C   UNL A   1      40.783  28.719  29.512  1.00  0.00     0.037 A 
ATOM     28  C   UNL A   1      40.967  31.722  35.264  1.00  0.00     0.049 A 
ATOM     29  C   UNL A   1      41.618  28.524  30.742  1.00  0.00     0.074 A 
ATOM     30  C   UNL A   1      41.893  31.563  36.280  1.00  0.00     0.029 A 
ATOM     31  N   UNL A   1      41.278  30.789  34.288  1.00  0.00    -0.354 N 
ATOM     32  N   UNL A   1      41.591  29.189  31.869  1.00  0.00    -0.248 NA
ATOM     33  C   UNL A   1      42.607  27.436  30.706  1.00  0.00     0.031 C 
ATOM     34  C   UNL A   1      42.759  30.521  35.925  1.00  0.00     0.029 A 
ATOM     35  C   UNL A   1      42.367  30.033  34.690  1.00  0.00     0.049 A 
ATOM     36  H   UNL A   1      40.797  30.680  33.436  1.00  0.00     0.167 HD
ATOM     37  C   UNL A   1      42.558  28.607  32.676  1.00  0.00     0.074 A 
ATOM     38  C   UNL A   1      43.146  27.523  31.915  1.00  0.00     0.031 C 
ATOM     39  C   UNL A   1      42.927  28.949  33.932  1.00  0.00     0.037 A 
BRANCH  26  40
ATOM     40  C   UNL A   1      39.608  33.532  36.356  1.00  0.00     0.064 A 
ATOM     41  C   UNL A   1      38.802  33.109  37.420  1.00  0.00     0.173 A 
ATOM     42  C   UNL A   1      40.194  34.803  36.428  1.00  0.00     0.173 A 
ATOM     43  F   UNL A   1      38.210  31.905  37.382  1.00  0.00    -0.203 F 
ATOM     44  C   UNL A   1      38.586  33.934  38.520  1.00  0.00     0.198 A 
ATOM     45  C   UNL A   1      39.979  35.624  37.532  1.00  0.00     0.198 A 
ATOM     46  F   UNL A   1      40.965  35.249  35.426  1.00  0.00    -0.203 F 
ATOM     47  F   UNL A   1      37.798  33.519  39.522  1.00  0.00    -0.200 F 
ATOM     48  C   UNL A   1      39.176  35.188  38.576  1.00  0.00     0.200 A 
ATOM     49  F   UNL A   1      40.543  36.838  37.582  1.00  0.00    -0.200 F 
ATOM     50  F   UNL A   1      38.962  35.983  39.634  1.00  0.00    -0.200 F 
ENDBRANCH  26  40
BRANCH  27  51
ATOM     51  C   UNL A   1      40.966  27.848  28.331  1.00  0.00     0.064 A 
ATOM     52  C   UNL A   1      41.830  28.225  27.296  1.00  0.00     0.173 A 
ATOM     53  C   UNL A   1      40.299  26.623  28.227  1.00  0.00     0.173 A 
ATOM     54  F   UNL A   1      42.476  29.398  27.356  1.00  0.00    -0.203 F 
ATOM     55  C   UNL A   1      42.023  27.400  26.192  1.00  0.00     0.198 A 
ATOM     56  C   UNL A   1      40.494  25.797  27.124  1.00  0.00     0.198 A 
ATOM     57  F   UNL A   1      39.457  26.233  29.196  1.00  0.00    -0.203 F 
ATOM     58  F   UNL A   1      42.849  27.781  25.209  1.00  0.00    -0.200 F 
ATOM     59  C   UNL A   1      41.356  26.185  26.108  1.00  0.00     0.200 A 
ATOM     60  F   UNL A   1      39.847  24.627  27.041  1.00  0.00    -0.200 F 
ATOM     61  F   UNL A   1      41.540  25.392  25.044  1.00  0.00    -0.200 F 
ENDBRANCH  27  51
BRANCH  39  62
ATOM     62  C   UNL A   1      44.012  28.140  34.564  1.00  0.00     0.064 A 
ATOM     63  C   UNL A   1      43.714  26.989  35.305  1.00  0.00     0.173 A 
ATOM     64  C   UNL A   1      45.358  28.498  34.402  1.00  0.00     0.173 A 
ATOM     65  F   UNL A   1      42.438  26.619  35.491  1.00  0.00    -0.203 F 
ATOM     66  C   UNL A   1      44.730  26.222  35.867  1.00  0.00     0.198 A 
ATOM     67  C   UNL A   1      46.371  27.727  34.965  1.00  0.00     0.198 A 
ATOM     68  F   UNL A   1      45.685  29.598  33.708  1.00  0.00    -0.203 F 
ATOM     69  F   UNL A   1      44.425  25.129  36.581  1.00  0.00    -0.200 F 
ATOM     70  C   UNL A   1      46.056  26.590  35.695  1.00  0.00     0.200 A 
ATOM     71  F   UNL A   1      47.652  28.088  34.806  1.00  0.00    -0.200 F 
ATOM     72  F   UNL A   1      47.034  25.853  36.242  1.00  0.00    -0.200 F 
ENDBRANCH  39  62
ENDBRANCH  13  14
ENDBRANCH   6   8
ENDBRANCH   3   4
ENDBRANCH   2   3
ENDBRANCH   1   2
BRANCH   1  73
ATOM     73  C   UNL A   1      32.709  29.552  25.538  1.00  0.00     0.116 C 
BRANCH  73  74
ATOM     74  N   UNL A   1      33.420  29.427  24.279  1.00  0.00    -0.352 N 
ATOM     75  C   UNL A   1      33.285  28.524  23.257  1.00  0.00     0.257 C 
ATOM     76  H   UNL A   1      34.116  30.107  24.133  1.00  0.00     0.163 HD
ATOM     77  O   UNL A   1      34.081  28.586  22.323  1.00  0.00    -0.269 OA
BRANCH  75  78
ATOM     78  C   UNL A   1      32.240  27.534  23.299  1.00  0.00     0.113 A 
ATOM     79  C   UNL A   1      32.346  26.144  23.608  1.00  0.00     0.127 A 
ATOM     80  C   UNL A   1      30.928  27.691  22.898  1.00  0.00     0.175 A 
ATOM     81  N   UNL A   1      31.151  25.545  23.476  1.00  0.00    -0.079 NA
ATOM     82  O   UNL A   1      30.271  26.513  23.043  1.00  0.00    -0.357 OA
BRANCH  79  83
ATOM     83  C   UNL A   1      33.525  25.378  24.018  1.00  0.00     0.005 A 
ATOM     84  C   UNL A   1      34.145  24.474  23.144  1.00  0.00     0.012 A 
ATOM     85  C   UNL A   1      34.050  25.537  25.311  1.00  0.00     0.012 A 
ATOM     86  C   UNL A   1      35.254  23.729  23.561  1.00  0.00     0.021 A 
ATOM     87  C   UNL A   1      35.159  24.793  25.727  1.00  0.00     0.021 A 
ATOM     88  C   UNL A   1      35.753  23.890  24.851  1.00  0.00     0.041 A 
ATOM     89  Cl  UNL A   1      37.113  22.968  25.362  1.00  0.00    -0.084 Cl
ENDBRANCH  79  83
BRANCH  80  90
ATOM     90  C   UNL A   1      30.147  28.828  22.364  1.00  0.00     0.242 C 
BRANCH  90  91
ATOM     91  O   UNL A   1      28.993  29.104  23.148  1.00  0.00    -0.345 OA
BRANCH  91  92
ATOM     92  C   UNL A   1      27.832  29.589  22.479  1.00  0.00     0.250 C 
ATOM     93  C   UNL A   1      28.093  30.445  21.234  1.00  0.00     0.062 C 
ATOM     94  O   UNL A   1      27.047  30.355  23.403  1.00  0.00    -0.353 OA
ATOM     95  C   UNL A   1      28.792  31.751  21.596  1.00  0.00     0.008 C 
ATOM     96  C   UNL A   1      27.719  31.533  23.854  1.00  0.00     0.163 C 
ATOM     97  C   UNL A   1      28.021  32.472  22.694  1.00  0.00     0.029 C 
ENDBRANCH  91  92
ENDBRANCH  90  91
ENDBRANCH  80  90
ENDBRANCH  75  78
ENDBRANCH  73  74
ENDBRANCH   1  73
TORSDOF 15
ENDMDL
MODEL 2
REMARK VINA RESULT:     -12.6      5.664     11.250
REMARK SMILES O=C(NCCCCNC(=O)c1c(-c2ccc(Cl)cc2)noc1CO[C@@H]1CCCCO1)c1ccc(-c2c3nc(c(-c4c(F)c(F)c(F)c(F)c4F)c4ccc([nH]4)c(-c4c(F)c(F)c(F)c(F)c4F)c4nc(c(-c5c(F)c(F)c(F)c(F)c5F)c5ccc2[nH]5)C=C4)C=C3)cc1
REMARK SMILES IDX 6 1 5 2 4 3 3 4 1 5 2 6 31 8 32 9 93 10 33 11 92 12 34 13
REMARK SMILES IDX 35 14 36 15 86 16 37 17 91 18 85 19 87 20 38 21 90 22 84 23
REMARK SMILES IDX 83 24 39 26 71 27 51 28 70 29 52 30 55 31 69 32 88 33 53 34
REMARK SMILES IDX 54 35 68 37 89 38 56 39 40 40 41 41 49 42 42 43 43 44 47 45
REMARK SMILES IDX 50 46 44 47 45 48 48 49 46 50 72 51 73 52 81 53 74 54 75 55
REMARK SMILES IDX 79 56 82 57 76 58 77 59 80 60 78 61 57 62 58 63 66 64 59 65
REMARK SMILES IDX 60 66 64 67 67 68 61 69 62 70 65 71 63 72 7 73 8 74 9 75
REMARK SMILES IDX 10 77 11 78 12 79 22 80 20 81 21 82 13 83 14 84 19 85 15 86
REMARK SMILES IDX 18 87 16 88 17 89 23 90 24 91 25 92 26 93 30 94 27 95 29 96
REMARK SMILES IDX 28 97
REMARK H PARENT 3 7 87 25 55 36 8 76
REMARK Flexibility Score: inf
ROOT
ATOM      1  C   UNL A   1      36.488  20.350  25.002  1.00  0.00     0.023 C 
ENDROOT
BRANCH   1   2
ATOM      2  C   UNL A   1      37.929  19.949  24.666  1.00  0.00     0.023 C 
BRANCH   2   3
ATOM      3  C   UNL A   1      38.975  20.175  25.756  1.00  0.00     0.116 C 
BRANCH   3   4
ATOM      4  N   UNL A   1      40.043  19.195  25.751  1.00  0.00    -0.352 N 
ATOM      5  O   UNL A   1      42.157  18.433  25.884  1.00  0.00    -0.269 OA
ATOM      6  C   UNL A   1      41.381  19.377  26.008  1.00  0.00     0.251 C 
ATOM      7  H   UNL A   1      39.773  18.273  25.534  1.00  0.00     0.163 HD
BRANCH   6   8
ATOM      8  C   UNL A   1      41.905  20.709  26.389  1.00  0.00     0.039 A 
ATOM      9  C   UNL A   1      42.231  21.026  27.711  1.00  0.00     0.014 A 
ATOM     10  C   UNL A   1      42.107  21.656  25.376  1.00  0.00     0.014 A 
ATOM     11  C   UNL A   1      42.666  22.313  28.032  1.00  0.00     0.010 A 
ATOM     12  C   UNL A   1      42.567  22.938  25.693  1.00  0.00     0.010 A 
ATOM     13  C   UNL A   1      42.821  23.283  27.028  1.00  0.00    -0.014 A 
BRANCH  13  14
ATOM     14  C   UNL A   1      43.236  24.656  27.393  1.00  0.00     0.031 A 
ATOM     15  C   UNL A   1      44.617  25.143  27.065  1.00  0.00     0.074 A 
ATOM     16  C   UNL A   1      42.356  25.484  27.985  1.00  0.00     0.049 A 
ATOM     17  N   UNL A   1      45.139  26.329  27.246  1.00  0.00    -0.248 NA
ATOM     18  C   UNL A   1      45.534  24.167  26.456  1.00  0.00     0.031 C 
ATOM     19  C   UNL A   1      40.993  25.128  28.377  1.00  0.00     0.029 A 
ATOM     20  N   UNL A   1      42.477  26.803  28.341  1.00  0.00    -0.354 N 
ATOM     21  C   UNL A   1      46.447  26.241  26.793  1.00  0.00     0.074 A 
ATOM     22  C   UNL A   1      46.641  24.886  26.321  1.00  0.00     0.031 C 
ATOM     23  C   UNL A   1      40.390  26.215  28.887  1.00  0.00     0.029 A 
ATOM     24  C   UNL A   1      41.324  27.338  28.855  1.00  0.00     0.049 A 
ATOM     25  H   UNL A   1      43.311  27.316  28.237  1.00  0.00     0.167 HD
ATOM     26  C   UNL A   1      47.402  27.201  26.777  1.00  0.00     0.037 A 
ATOM     27  C   UNL A   1      41.044  28.599  29.231  1.00  0.00     0.037 A 
ATOM     28  C   UNL A   1      47.221  28.551  27.236  1.00  0.00     0.049 A 
ATOM     29  C   UNL A   1      42.088  29.669  29.106  1.00  0.00     0.074 A 
ATOM     30  C   UNL A   1      48.150  29.574  27.311  1.00  0.00     0.029 A 
ATOM     31  N   UNL A   1      46.016  29.069  27.682  1.00  0.00    -0.354 N 
ATOM     32  N   UNL A   1      43.326  29.567  28.695  1.00  0.00    -0.248 NA
ATOM     33  C   UNL A   1      41.687  31.032  29.484  1.00  0.00     0.031 C 
ATOM     34  C   UNL A   1      47.503  30.720  27.791  1.00  0.00     0.029 A 
ATOM     35  C   UNL A   1      46.171  30.406  28.009  1.00  0.00     0.049 A 
ATOM     36  H   UNL A   1      45.175  28.563  27.755  1.00  0.00     0.167 HD
ATOM     37  C   UNL A   1      43.856  30.846  28.767  1.00  0.00     0.074 A 
ATOM     38  C   UNL A   1      42.800  31.714  29.248  1.00  0.00     0.031 C 
ATOM     39  C   UNL A   1      45.110  31.259  28.468  1.00  0.00     0.037 A 
BRANCH  26  40
ATOM     40  C   UNL A   1      48.745  26.814  26.249  1.00  0.00     0.064 A 
ATOM     41  C   UNL A   1      49.691  26.192  27.074  1.00  0.00     0.173 A 
ATOM     42  C   UNL A   1      49.077  27.040  24.907  1.00  0.00     0.173 A 
ATOM     43  F   UNL A   1      49.418  25.972  28.369  1.00  0.00    -0.203 F 
ATOM     44  C   UNL A   1      50.932  25.812  26.571  1.00  0.00     0.198 A 
ATOM     45  C   UNL A   1      50.317  26.654  24.406  1.00  0.00     0.198 A 
ATOM     46  F   UNL A   1      48.202  27.640  24.087  1.00  0.00    -0.203 F 
ATOM     47  F   UNL A   1      51.832  25.232  27.378  1.00  0.00    -0.200 F 
ATOM     48  C   UNL A   1      51.243  26.040  25.238  1.00  0.00     0.200 A 
ATOM     49  F   UNL A   1      50.620  26.882  23.120  1.00  0.00    -0.200 F 
ATOM     50  F   UNL A   1      52.440  25.678  24.757  1.00  0.00    -0.200 F 
ENDBRANCH  26  40
BRANCH  27  51
ATOM     51  C   UNL A   1      39.686  28.925  29.716  1.00  0.00     0.064 A 
ATOM     52  C   UNL A   1      39.380  28.846  31.080  1.00  0.00     0.173 A 
ATOM     53  C   UNL A   1      38.683  29.337  28.832  1.00  0.00     0.173 A 
ATOM     54  F   UNL A   1      40.312  28.443  31.954  1.00  0.00    -0.203 F 
ATOM     55  C   UNL A   1      38.109  29.171  31.546  1.00  0.00     0.198 A 
ATOM     56  C   UNL A   1      37.413  29.664  29.299  1.00  0.00     0.198 A 
ATOM     57  F   UNL A   1      38.938  29.416  27.518  1.00  0.00    -0.203 F 
ATOM     58  F   UNL A   1      37.834  29.083  32.854  1.00  0.00    -0.200 F 
ATOM     59  C   UNL A   1      37.127  29.582  30.654  1.00  0.00     0.200 A 
ATOM     60  F   UNL A   1      36.464  30.057  28.438  1.00  0.00    -0.200 F 
ATOM     61  F   UNL A   1      35.903  29.893  31.103  1.00  0.00    -0.200 F 
ENDBRANCH  27  51
BRANCH  39  62
ATOM     62  C   UNL A   1      45.407  32.712  28.645  1.00  0.00     0.064 A 
ATOM     63  C   UNL A   1      45.821  33.217  29.885  1.00  0.00     0.173 A 
ATOM     64  C   UNL A   1      45.310  33.599  27.564  1.00  0.00     0.173 A 
ATOM     65  F   UNL A   1      45.917  32.401  30.946  1.00  0.00    -0.203 F 
ATOM     66  C   UNL A   1      46.126  34.565  30.038  1.00  0.00     0.198 A 
ATOM     67  C   UNL A   1      45.617  34.947  27.721  1.00  0.00     0.198 A 
ATOM     68  F   UNL A   1      44.908  33.157  26.363  1.00  0.00    -0.203 F 
ATOM     69  F   UNL A   1      46.511  35.032  31.234  1.00  0.00    -0.200 F 
ATOM     70  C   UNL A   1      46.026  35.428  28.957  1.00  0.00     0.200 A 
ATOM     71  F   UNL A   1      45.512  35.783  26.679  1.00  0.00    -0.200 F 
ATOM     72  F   UNL A   1      46.315  36.729  29.107  1.00  0.00    -0.200 F 
ENDBRANCH  39  62
ENDBRANCH  13  14
ENDBRANCH   6   8
ENDBRANCH   3   4
ENDBRANCH   2   3
ENDBRANCH   1   2
BRANCH   1  73
ATOM     73  C   UNL A   1      36.237  21.832  25.274  1.00  0.00     0.116 C 
BRANCH  73  74
ATOM     74  N   UNL A   1      35.592  22.074  26.552  1.00  0.00    -0.352 N 
ATOM     75  C   UNL A   1      34.293  22.386  26.859  1.00  0.00     0.257 C 
ATOM     76  H   UNL A   1      36.189  22.002  27.331  1.00  0.00     0.163 HD
ATOM     77  O   UNL A   1      34.020  22.630  28.031  1.00  0.00    -0.269 OA
BRANCH  75  78
ATOM     78  C   UNL A   1      33.295  22.430  25.821  1.00  0.00     0.113 A 
ATOM     79  C   UNL A   1      32.588  23.564  25.318  1.00  0.00     0.127 A 
ATOM     80  C   UNL A   1      32.699  21.354  25.194  1.00  0.00     0.175 A 
ATOM     81  N   UNL A   1      31.692  23.181  24.393  1.00  0.00    -0.079 NA
ATOM     82  O   UNL A   1      31.771  21.807  24.314  1.00  0.00    -0.357 OA
BRANCH  79  83
ATOM     83  C   UNL A   1      32.731  24.975  25.679  1.00  0.00     0.005 A 
ATOM     84  C   UNL A   1      33.897  25.691  25.371  1.00  0.00     0.012 A 
ATOM     85  C   UNL A   1      31.691  25.635  26.353  1.00  0.00     0.012 A 
ATOM     86  C   UNL A   1      34.028  27.032  25.749  1.00  0.00     0.021 A 
ATOM     87  C   UNL A   1      31.822  26.976  26.730  1.00  0.00     0.021 A 
ATOM     88  C   UNL A   1      32.991  27.667  26.429  1.00  0.00     0.041 A 
ATOM     89  Cl  UNL A   1      33.160  29.314  26.897  1.00  0.00    -0.084 Cl
ENDBRANCH  79  83
BRANCH  80  90
ATOM     90  C   UNL A   1      32.861  19.887  25.296  1.00  0.00     0.242 C 
BRANCH  90  91
ATOM     91  O   UNL A   1      33.025  19.274  24.023  1.00  0.00    -0.345 OA
BRANCH  91  92
ATOM     92  C   UNL A   1      32.340  18.048  23.780  1.00  0.00     0.250 C 
ATOM     93  C   UNL A   1      32.184  17.124  24.994  1.00  0.00     0.062 C 
ATOM     94  O   UNL A   1      33.025  17.329  22.744  1.00  0.00    -0.353 OA
ATOM     95  C   UNL A   1      33.536  16.615  25.481  1.00  0.00     0.008 C 
ATOM     96  C   UNL A   1      34.344  16.934  23.126  1.00  0.00     0.163 C 
ATOM     97  C   UNL A   1      34.311  15.995  24.325  1.00  0.00     0.029 C 
ENDBRANCH  91  92
ENDBRANCH  90  91
ENDBRANCH  80  90
ENDBRANCH  75  78
ENDBRANCH  73  74
ENDBRANCH   1  73
TORSDOF 15
ENDMDL
MODEL 3
REMARK VINA RESULT:     -12.4      1.522      2.320
REMARK SMILES O=C(NCCCCNC(=O)c1c(-c2ccc(Cl)cc2)noc1CO[C@@H]1CCCCO1)c1ccc(-c2c3nc(c(-c4c(F)c(F)c(F)c(F)c4F)c4ccc([nH]4)c(-c4c(F)c(F)c(F)c(F)c4F)c4nc(c(-c5c(F)c(F)c(F)c(F)c5F)c5ccc2[nH]5)C=C4)C=C3)cc1
REMARK SMILES IDX 6 1 5 2 4 3 3 4 1 5 2 6 31 8 32 9 93 10 33 11 92 12 34 13
REMARK SMILES IDX 35 14 36 15 86 16 37 17 91 18 85 19 87 20 38 21 90 22 84 23
REMARK SMILES IDX 83 24 39 26 71 27 51 28 70 29 52 30 55 31 69 32 88 33 53 34
REMARK SMILES IDX 54 35 68 37 89 38 56 39 40 40 41 41 49 42 42 43 43 44 47 45
REMARK SMILES IDX 50 46 44 47 45 48 48 49 46 50 72 51 73 52 81 53 74 54 75 55
REMARK SMILES IDX 79 56 82 57 76 58 77 59 80 60 78 61 57 62 58 63 66 64 59 65
REMARK SMILES IDX 60 66 64 67 67 68 61 69 62 70 65 71 63 72 7 73 8 74 9 75
REMARK SMILES IDX 10 77 11 78 12 79 22 80 20 81 21 82 13 83 14 84 19 85 15 86
REMARK SMILES IDX 18 87 16 88 17 89 23 90 24 91 25 92 26 93 30 94 27 95 29 96
REMARK SMILES IDX 28 97
REMARK H PARENT 3 7 87 25 55 36 8 76
REMARK Flexibility Score: inf
ROOT
ATOM      1  C   UNL A   1      31.950  28.321  27.535  1.00  0.00     0.023 C 
ENDROOT
BRANCH   1   2
ATOM      2  C   UNL A   1      31.605  29.703  26.970  1.00  0.00     0.023 C 
BRANCH   2   3
ATOM      3  C   UNL A   1      32.774  30.552  26.476  1.00  0.00     0.116 C 
BRANCH   3   4
ATOM      4  N   UNL A   1      32.655  31.958  26.809  1.00  0.00    -0.352 N 
ATOM      5  O   UNL A   1      33.183  33.901  27.817  1.00  0.00    -0.269 OA
ATOM      6  C   UNL A   1      33.486  32.734  27.582  1.00  0.00     0.251 C 
ATOM      7  H   UNL A   1      31.873  32.420  26.431  1.00  0.00     0.163 HD
BRANCH   6   8
ATOM      8  C   UNL A   1      34.720  32.166  28.174  1.00  0.00     0.039 A 
ATOM      9  C   UNL A   1      34.762  30.868  28.693  1.00  0.00     0.014 A 
ATOM     10  C   UNL A   1      35.879  32.953  28.174  1.00  0.00     0.014 A 
ATOM     11  C   UNL A   1      35.930  30.396  29.294  1.00  0.00     0.010 A 
ATOM     12  C   UNL A   1      37.057  32.471  28.752  1.00  0.00     0.010 A 
ATOM     13  C   UNL A   1      37.080  31.200  29.343  1.00  0.00    -0.014 A 
BRANCH  13  14
ATOM     14  C   UNL A   1      38.295  30.700  30.027  1.00  0.00     0.031 A 
ATOM     15  C   UNL A   1      38.564  31.068  31.456  1.00  0.00     0.074 A 
ATOM     16  C   UNL A   1      39.137  29.879  29.375  1.00  0.00     0.049 A 
ATOM     17  N   UNL A   1      39.536  30.676  32.241  1.00  0.00    -0.248 NA
ATOM     18  C   UNL A   1      37.621  32.003  32.088  1.00  0.00     0.031 C 
ATOM     19  C   UNL A   1      39.002  29.462  27.980  1.00  0.00     0.029 A 
ATOM     20  N   UNL A   1      40.266  29.233  29.813  1.00  0.00    -0.354 N 
ATOM     21  C   UNL A   1      39.334  31.326  33.449  1.00  0.00     0.074 A 
ATOM     22  C   UNL A   1      38.143  32.136  33.300  1.00  0.00     0.031 C 
ATOM     23  C   UNL A   1      39.990  28.601  27.686  1.00  0.00     0.029 A 
ATOM     24  C   UNL A   1      40.822  28.406  28.871  1.00  0.00     0.049 A 
ATOM     25  H   UNL A   1      40.639  29.351  30.716  1.00  0.00     0.167 HD
ATOM     26  C   UNL A   1      40.078  31.260  34.578  1.00  0.00     0.037 A 
ATOM     27  C   UNL A   1      41.867  27.565  28.962  1.00  0.00     0.037 A 
ATOM     28  C   UNL A   1      41.258  30.456  34.742  1.00  0.00     0.049 A 
ATOM     29  C   UNL A   1      42.613  27.431  30.258  1.00  0.00     0.074 A 
ATOM     30  C   UNL A   1      42.107  30.373  35.832  1.00  0.00     0.029 A 
ATOM     31  N   UNL A   1      41.744  29.580  33.786  1.00  0.00    -0.354 N 
ATOM     32  N   UNL A   1      42.423  28.067  31.385  1.00  0.00    -0.248 NA
ATOM     33  C   UNL A   1      43.707  26.450  30.294  1.00  0.00     0.031 C 
ATOM     34  C   UNL A   1      43.103  29.431  35.541  1.00  0.00     0.029 A 
ATOM     35  C   UNL A   1      42.867  28.930  34.271  1.00  0.00     0.049 A 
ATOM     36  H   UNL A   1      41.351  29.439  32.895  1.00  0.00     0.167 HD
ATOM     37  C   UNL A   1      43.372  27.570  32.265  1.00  0.00     0.074 A 
ATOM     38  C   UNL A   1      44.131  26.567  31.545  1.00  0.00     0.031 C 
ATOM     39  C   UNL A   1      43.598  27.924  33.552  1.00  0.00     0.037 A 
BRANCH  26  40
ATOM     40  C   UNL A   1      39.634  32.098  35.733  1.00  0.00     0.064 A 
ATOM     41  C   UNL A   1      40.178  33.370  35.952  1.00  0.00     0.173 A 
ATOM     42  C   UNL A   1      38.641  31.638  36.609  1.00  0.00     0.173 A 
ATOM     43  F   UNL A   1      41.142  33.839  35.146  1.00  0.00    -0.203 F 
ATOM     44  C   UNL A   1      39.744  34.155  37.016  1.00  0.00     0.198 A 
ATOM     45  C   UNL A   1      38.206  32.428  37.669  1.00  0.00     0.198 A 
ATOM     46  F   UNL A   1      38.100  30.423  36.439  1.00  0.00    -0.203 F 
ATOM     47  F   UNL A   1      40.287  35.364  37.220  1.00  0.00    -0.200 F 
ATOM     48  C   UNL A   1      38.757  33.686  37.871  1.00  0.00     0.200 A 
ATOM     49  F   UNL A   1      37.258  31.971  38.499  1.00  0.00    -0.200 F 
ATOM     50  F   UNL A   1      38.344  34.442  38.897  1.00  0.00    -0.200 F 
ENDBRANCH  26  40
BRANCH  27  51
ATOM     51  C   UNL A   1      42.238  26.740  27.792  1.00  0.00     0.064 A 
ATOM     52  C   UNL A   1      43.208  27.185  26.887  1.00  0.00     0.173 A 
ATOM     53  C   UNL A   1      41.645  25.492  27.572  1.00  0.00     0.173 A 
ATOM     54  F   UNL A   1      43.788  28.382  27.060  1.00  0.00    -0.203 F 
ATOM     55  C   UNL A   1      43.576  26.405  25.794  1.00  0.00     0.198 A 
ATOM     56  C   UNL A   1      42.016  24.711  26.480  1.00  0.00     0.198 A 
ATOM     57  F   UNL A   1      40.706  25.037  28.414  1.00  0.00    -0.203 F 
ATOM     58  F   UNL A   1      44.503  26.851  24.936  1.00  0.00    -0.200 F 
ATOM     59  C   UNL A   1      42.981  25.167  25.594  1.00  0.00     0.200 A 
ATOM     60  F   UNL A   1      41.437  23.518  26.285  1.00  0.00    -0.200 F 
ATOM     61  F   UNL A   1      43.334  24.416  24.541  1.00  0.00    -0.200 F 
ENDBRANCH  27  51
BRANCH  39  62
ATOM     62  C   UNL A   1      44.703  27.217  34.266  1.00  0.00     0.064 A 
ATOM     63  C   UNL A   1      44.463  26.030  34.972  1.00  0.00     0.173 A 
ATOM     64  C   UNL A   1      46.015  27.708  34.218  1.00  0.00     0.173 A 
ATOM     65  F   UNL A   1      43.219  25.533  35.049  1.00  0.00    -0.203 F 
ATOM     66  C   UNL A   1      45.500  25.359  35.610  1.00  0.00     0.198 A 
ATOM     67  C   UNL A   1      47.051  27.033  34.857  1.00  0.00     0.198 A 
ATOM     68  F   UNL A   1      46.286  28.846  33.561  1.00  0.00    -0.203 F 
ATOM     69  F   UNL A   1      45.249  24.231  36.288  1.00  0.00    -0.200 F 
ATOM     70  C   UNL A   1      46.793  25.859  35.551  1.00  0.00     0.200 A 
ATOM     71  F   UNL A   1      48.298  27.521  34.808  1.00  0.00    -0.200 F 
ATOM     72  F   UNL A   1      47.791  25.215  36.171  1.00  0.00    -0.200 F 
ENDBRANCH  39  62
ENDBRANCH  13  14
ENDBRANCH   6   8
ENDBRANCH   3   4
ENDBRANCH   2   3
ENDBRANCH   1   2
BRANCH   1  73
ATOM     73  C   UNL A   1      32.266  27.226  26.519  1.00  0.00     0.116 C 
BRANCH  73  74
ATOM     74  N   UNL A   1      31.395  26.071  26.636  1.00  0.00    -0.352 N 
ATOM     75  C   UNL A   1      30.754  25.328  25.679  1.00  0.00     0.257 C 
ATOM     76  H   UNL A   1      31.239  25.769  27.559  1.00  0.00     0.163 HD
ATOM     77  O   UNL A   1      29.993  24.439  26.052  1.00  0.00    -0.269 OA
BRANCH  75  78
ATOM     78  C   UNL A   1      30.972  25.604  24.282  1.00  0.00     0.113 A 
ATOM     79  C   UNL A   1      32.049  25.174  23.450  1.00  0.00     0.127 A 
ATOM     80  C   UNL A   1      30.257  26.476  23.485  1.00  0.00     0.175 A 
ATOM     81  N   UNL A   1      31.925  25.696  22.219  1.00  0.00    -0.079 NA
ATOM     82  O   UNL A   1      30.804  26.498  22.243  1.00  0.00    -0.357 OA
BRANCH  79  83
ATOM     83  C   UNL A   1      33.175  24.297  23.780  1.00  0.00     0.005 A 
ATOM     84  C   UNL A   1      33.124  22.919  23.526  1.00  0.00     0.012 A 
ATOM     85  C   UNL A   1      34.333  24.835  24.367  1.00  0.00     0.012 A 
ATOM     86  C   UNL A   1      34.199  22.092  23.873  1.00  0.00     0.021 A 
ATOM     87  C   UNL A   1      35.407  24.008  24.713  1.00  0.00     0.021 A 
ATOM     88  C   UNL A   1      35.333  22.640  24.467  1.00  0.00     0.041 A 
ATOM     89  Cl  UNL A   1      36.649  21.619  24.897  1.00  0.00    -0.084 Cl
ENDBRANCH  79  83
BRANCH  80  90
ATOM     90  C   UNL A   1      29.083  27.347  23.711  1.00  0.00     0.242 C 
BRANCH  90  91
ATOM     91  O   UNL A   1      28.893  28.280  22.654  1.00  0.00    -0.345 OA
BRANCH  91  92
ATOM     92  C   UNL A   1      29.740  29.426  22.618  1.00  0.00     0.250 C 
ATOM     93  C   UNL A   1      29.503  30.462  23.723  1.00  0.00     0.062 C 
ATOM     94  O   UNL A   1      29.593  30.074  21.346  1.00  0.00    -0.353 OA
ATOM     95  C   UNL A   1      28.128  31.107  23.593  1.00  0.00     0.008 C 
ATOM     96  C   UNL A   1      28.277  30.593  21.140  1.00  0.00     0.163 C 
ATOM     97  C   UNL A   1      27.934  31.650  22.183  1.00  0.00     0.029 C 
ENDBRANCH  91  92
ENDBRANCH  90  91
ENDBRANCH  80  90
ENDBRANCH  75  78
ENDBRANCH  73  74
ENDBRANCH   1  73
TORSDOF 15
ENDMDL
