MODEL 1
REMARK VINA RESULT:     -13.8      0.000      0.000
REMARK SMILES COc1ccccc1OC1CCN(c2cccc(C(=O)NCCCCNC(=O)c3ccc(-c4c5nc(c(-c6c(F)c(F)c(F)c(F)c6F)c6ccc([nH]6)c(-c6c(F)c(F)c(F)c(F)c6F)c6nc(c(-c7c(F)c(F)c(F)c(F)c7F)c7ccc4[nH]7)C=C6)C=C5)cc3)n2)CC1
REMARK SMILES IDX 22 1 21 2 19 3 20 4 18 6 14 7 15 8 92 9 16 10 17 11 13 12
REMARK SMILES IDX 10 13 11 14 94 15 12 16 93 17 9 18 8 19 3 20 4 21 5 22 7 23
REMARK SMILES IDX 6 24 2 25 1 26 23 27 24 28 25 29 26 30 27 31 28 33 29 34
REMARK SMILES IDX 30 35 91 36 31 37 90 38 32 39 33 40 34 41 84 42 35 43 89 44
REMARK SMILES IDX 83 45 85 46 36 47 88 48 82 49 81 50 37 52 69 53 49 54 68 55
REMARK SMILES IDX 50 56 53 57 67 58 86 59 51 60 52 61 66 63 87 64 54 65 38 66
REMARK SMILES IDX 39 67 47 68 40 69 41 70 45 71 48 72 42 73 43 74 46 75 44 76
REMARK SMILES IDX 70 77 71 78 79 79 72 80 73 81 77 82 80 83 74 84 75 85 78 86
REMARK SMILES IDX 76 87 55 88 56 89 64 90 57 91 58 92 62 93 65 94 59 95 60 96
REMARK SMILES IDX 63 97 61 98
REMARK H PARENT 21 5 26 32 85 51 53 62
REMARK Flexibility Score: inf
ROOT
ATOM      1  C   UNL A   1      33.137  29.770  26.424  1.00  0.00     0.116 C 
ENDROOT
BRANCH   1   2
ATOM      2  N   UNL A   1      33.457  29.735  25.022  1.00  0.00    -0.351 N 
ATOM      3  C   UNL A   1      33.030  28.951  23.980  1.00  0.00     0.269 C 
ATOM      4  O   UNL A   1      33.608  29.164  22.909  1.00  0.00    -0.268 OA
ATOM      5  H   UNL A   1      34.119  30.412  24.754  1.00  0.00     0.163 HD
BRANCH   3   6
ATOM      6  C   UNL A   1      31.918  27.929  24.048  1.00  0.00     0.130 A 
ATOM      7  C   UNL A   1      31.577  25.627  24.127  1.00  0.00     0.129 A 
ATOM      8  C   UNL A   1      30.223  25.777  23.897  1.00  0.00     0.047 A 
ATOM      9  N   UNL A   1      32.403  26.677  24.213  1.00  0.00    -0.226 NA
ATOM     10  C   UNL A   1      29.698  27.057  23.813  1.00  0.00     0.006 A 
ATOM     11  C   UNL A   1      30.556  28.153  23.901  1.00  0.00     0.034 A 
BRANCH   7  12
ATOM     12  N   UNL A   1      32.144  24.383  24.222  1.00  0.00    -0.356 N 
ATOM     13  C   UNL A   1      32.414  20.613  24.464  1.00  0.00     0.177 C 
ATOM     14  C   UNL A   1      32.240  21.487  22.734  1.00  0.00     0.066 C 
ATOM     15  C   UNL A   1      32.150  21.702  26.054  1.00  0.00     0.066 C 
ATOM     16  C   UNL A   1      32.305  23.427  22.652  1.00  0.00     0.122 C 
ATOM     17  C   UNL A   1      32.244  23.635  25.896  1.00  0.00     0.122 C 
BRANCH  13  18
ATOM     18  O   UNL A   1      33.792  20.140  24.539  1.00  0.00    -0.486 OA
BRANCH  18  19
ATOM     19  C   UNL A   1      33.776  18.762  24.616  1.00  0.00     0.161 A 
ATOM     20  C   UNL A   1      34.987  18.055  24.659  1.00  0.00     0.160 A 
ATOM     21  C   UNL A   1      34.969  16.665  24.736  1.00  0.00     0.050 A 
ATOM     22  C   UNL A   1      33.746  15.993  24.811  1.00  0.00     0.004 A 
ATOM     23  C   UNL A   1      32.557  18.100  24.680  1.00  0.00     0.050 A 
ATOM     24  C   UNL A   1      32.545  16.709  24.790  1.00  0.00     0.004 A 
BRANCH  20  25
ATOM     25  O   UNL A   1      36.067  18.916  24.669  1.00  0.00    -0.493 OA
ATOM     26  C   UNL A   1      37.503  20.080  24.804  1.00  0.00     0.278 C 
ENDBRANCH  20  25
ENDBRANCH  18  19
ENDBRANCH  13  18
ENDBRANCH   7  12
ENDBRANCH   3   6
ENDBRANCH   1   2
BRANCH   1  27
ATOM     27  C   UNL A   1      31.721  30.307  26.626  1.00  0.00     0.023 C 
BRANCH  27  28
ATOM     28  C   UNL A   1      31.643  31.834  26.541  1.00  0.00     0.023 C 
BRANCH  28  29
ATOM     29  C   UNL A   1      32.777  32.564  27.250  1.00  0.00     0.116 C 
BRANCH  29  30
ATOM     30  N   UNL A   1      32.441  33.933  27.619  1.00  0.00    -0.352 N 
ATOM     31  C   UNL A   1      33.029  34.722  28.575  1.00  0.00     0.251 C 
ATOM     32  H   UNL A   1      31.697  34.343  27.120  1.00  0.00     0.163 HD
ATOM     33  O   UNL A   1      32.562  35.817  28.863  1.00  0.00    -0.269 OA
BRANCH  31  34
ATOM     34  C   UNL A   1      34.214  34.201  29.275  1.00  0.00     0.039 A 
ATOM     35  C   UNL A   1      34.033  33.339  30.356  1.00  0.00     0.014 A 
ATOM     36  C   UNL A   1      35.495  34.506  28.807  1.00  0.00     0.014 A 
ATOM     37  C   UNL A   1      35.145  32.738  30.939  1.00  0.00     0.010 A 
ATOM     38  C   UNL A   1      36.591  33.830  29.324  1.00  0.00     0.010 A 
ATOM     39  C   UNL A   1      36.429  32.952  30.406  1.00  0.00    -0.014 A 
BRANCH  39  40
ATOM     40  C   UNL A   1      37.611  32.272  30.985  1.00  0.00     0.031 A 
ATOM     41  C   UNL A   1      38.080  32.624  32.369  1.00  0.00     0.074 A 
ATOM     42  C   UNL A   1      38.279  31.363  30.252  1.00  0.00     0.049 A 
ATOM     43  N   UNL A   1      39.069  32.118  33.061  1.00  0.00    -0.248 NA
ATOM     44  C   UNL A   1      37.365  33.710  33.055  1.00  0.00     0.031 C 
ATOM     45  C   UNL A   1      37.956  30.984  28.876  1.00  0.00     0.029 A 
ATOM     46  N   UNL A   1      39.363  30.583  30.566  1.00  0.00    -0.354 N 
ATOM     47  C   UNL A   1      39.098  32.831  34.253  1.00  0.00     0.074 A 
ATOM     48  C   UNL A   1      38.079  33.851  34.160  1.00  0.00     0.031 C 
ATOM     49  C   UNL A   1      38.787  30.006  28.483  1.00  0.00     0.029 A 
ATOM     50  C   UNL A   1      39.723  29.715  29.565  1.00  0.00     0.049 A 
ATOM     51  H   UNL A   1      39.837  30.640  31.427  1.00  0.00     0.167 HD
ATOM     52  C   UNL A   1      39.881  32.632  35.339  1.00  0.00     0.037 A 
ATOM     53  C   UNL A   1      40.691  28.781  29.532  1.00  0.00     0.037 A 
ATOM     54  C   UNL A   1      40.886  31.605  35.427  1.00  0.00     0.049 A 
ATOM     55  C   UNL A   1      41.554  28.584  30.748  1.00  0.00     0.074 A 
ATOM     56  C   UNL A   1      41.693  31.274  36.501  1.00  0.00     0.029 A 
ATOM     57  N   UNL A   1      41.232  30.749  34.389  1.00  0.00    -0.354 N 
ATOM     58  N   UNL A   1      41.513  29.198  31.906  1.00  0.00    -0.248 NA
ATOM     59  C   UNL A   1      42.592  27.550  30.654  1.00  0.00     0.031 C 
ATOM     60  C   UNL A   1      42.571  30.265  36.092  1.00  0.00     0.029 A 
ATOM     61  C   UNL A   1      42.263  29.912  34.787  1.00  0.00     0.049 A 
ATOM     62  H   UNL A   1      40.807  30.738  33.501  1.00  0.00     0.167 HD
ATOM     63  C   UNL A   1      42.493  28.603  32.691  1.00  0.00     0.074 A 
ATOM     64  C   UNL A   1      43.097  27.565  31.879  1.00  0.00     0.031 C 
ATOM     65  C   UNL A   1      42.859  28.887  33.966  1.00  0.00     0.037 A 
BRANCH  52  66
ATOM     66  C   UNL A   1      39.688  33.560  36.507  1.00  0.00     0.064 A 
ATOM     67  C   UNL A   1      38.868  33.226  37.597  1.00  0.00     0.173 A 
ATOM     68  C   UNL A   1      40.329  34.809  36.533  1.00  0.00     0.173 A 
ATOM     69  F   UNL A   1      38.220  32.050  37.618  1.00  0.00    -0.203 F 
ATOM     70  C   UNL A   1      38.657  34.122  38.641  1.00  0.00     0.198 A 
ATOM     71  C   UNL A   1      40.148  35.687  37.601  1.00  0.00     0.198 A 
ATOM     72  F   UNL A   1      41.129  35.182  35.524  1.00  0.00    -0.203 F 
ATOM     73  F   UNL A   1      37.808  33.808  39.630  1.00  0.00    -0.200 F 
ATOM     74  C   UNL A   1      39.301  35.350  38.644  1.00  0.00     0.200 A 
ATOM     75  F   UNL A   1      40.784  36.866  37.609  1.00  0.00    -0.200 F 
ATOM     76  F   UNL A   1      39.096  36.212  39.650  1.00  0.00    -0.200 F 
ENDBRANCH  52  66
BRANCH  53  77
ATOM     77  C   UNL A   1      40.856  27.923  28.329  1.00  0.00     0.064 A 
ATOM     78  C   UNL A   1      41.660  28.338  27.257  1.00  0.00     0.173 A 
ATOM     79  C   UNL A   1      40.223  26.677  28.225  1.00  0.00     0.173 A 
ATOM     80  F   UNL A   1      42.271  29.531  27.302  1.00  0.00    -0.203 F 
ATOM     81  C   UNL A   1      41.807  27.550  26.119  1.00  0.00     0.198 A 
ATOM     82  C   UNL A   1      40.396  25.875  27.098  1.00  0.00     0.198 A 
ATOM     83  F   UNL A   1      39.450  26.229  29.225  1.00  0.00    -0.203 F 
ATOM     84  F   UNL A   1      42.543  27.992  25.090  1.00  0.00    -0.200 F 
ATOM     85  C   UNL A   1      41.180  26.315  26.043  1.00  0.00     0.200 A 
ATOM     86  F   UNL A   1      39.802  24.675  27.036  1.00  0.00    -0.200 F 
ATOM     87  F   UNL A   1      41.327  25.552  24.951  1.00  0.00    -0.200 F 
ENDBRANCH  53  77
BRANCH  65  88
ATOM     88  C   UNL A   1      43.934  28.030  34.575  1.00  0.00     0.064 A 
ATOM     89  C   UNL A   1      45.291  28.390  34.524  1.00  0.00     0.173 A 
ATOM     90  C   UNL A   1      43.602  26.828  35.220  1.00  0.00     0.173 A 
ATOM     91  F   UNL A   1      45.666  29.523  33.909  1.00  0.00    -0.203 F 
ATOM     92  C   UNL A   1      46.274  27.556  35.049  1.00  0.00     0.198 A 
ATOM     93  C   UNL A   1      44.584  26.018  35.782  1.00  0.00     0.198 A 
ATOM     94  F   UNL A   1      42.321  26.439  35.309  1.00  0.00    -0.203 F 
ATOM     95  F   UNL A   1      47.567  27.884  34.919  1.00  0.00    -0.200 F 
ATOM     96  C   UNL A   1      45.920  26.374  35.682  1.00  0.00     0.200 A 
ATOM     97  F   UNL A   1      44.238  24.886  36.410  1.00  0.00    -0.200 F 
ATOM     98  F   UNL A   1      46.868  25.571  36.185  1.00  0.00    -0.200 F 
ENDBRANCH  65  88
ENDBRANCH  39  40
ENDBRANCH  31  34
ENDBRANCH  29  30
ENDBRANCH  28  29
ENDBRANCH  27  28
ENDBRANCH   1  27
TORSDOF 15
ENDMDL
MODEL 2
REMARK VINA RESULT:     -13.5      0.631      7.228
REMARK SMILES COc1ccccc1OC1CCN(c2cccc(C(=O)NCCCCNC(=O)c3ccc(-c4c5nc(c(-c6c(F)c(F)c(F)c(F)c6F)c6ccc([nH]6)c(-c6c(F)c(F)c(F)c(F)c6F)c6nc(c(-c7c(F)c(F)c(F)c(F)c7F)c7ccc4[nH]7)C=C6)C=C5)cc3)n2)CC1
REMARK SMILES IDX 22 1 21 2 19 3 20 4 18 6 14 7 15 8 92 9 16 10 17 11 13 12
REMARK SMILES IDX 10 13 11 14 94 15 12 16 93 17 9 18 8 19 3 20 4 21 5 22 7 23
REMARK SMILES IDX 6 24 2 25 1 26 23 27 24 28 25 29 26 30 27 31 28 33 29 34
REMARK SMILES IDX 30 35 91 36 31 37 90 38 32 39 33 40 34 41 84 42 35 43 89 44
REMARK SMILES IDX 83 45 85 46 36 47 88 48 82 49 81 50 37 52 69 53 49 54 68 55
REMARK SMILES IDX 50 56 53 57 67 58 86 59 51 60 52 61 66 63 87 64 54 65 38 66
REMARK SMILES IDX 39 67 47 68 40 69 41 70 45 71 48 72 42 73 43 74 46 75 44 76
REMARK SMILES IDX 70 77 71 78 79 79 72 80 73 81 77 82 80 83 74 84 75 85 78 86
REMARK SMILES IDX 76 87 55 88 56 89 64 90 57 91 58 92 62 93 65 94 59 95 60 96
REMARK SMILES IDX 63 97 61 98
REMARK H PARENT 21 5 26 32 85 51 53 62
REMARK Flexibility Score: inf
ROOT
ATOM      1  C   UNL A   1      33.182  29.784  26.548  1.00  0.00     0.116 C 
ENDROOT
BRANCH   1   2
ATOM      2  N   UNL A   1      33.577  29.703  25.167  1.00  0.00    -0.351 N 
ATOM      3  C   UNL A   1      33.194  28.895  24.126  1.00  0.00     0.269 C 
ATOM      4  O   UNL A   1      33.832  29.069  23.082  1.00  0.00    -0.268 OA
ATOM      5  H   UNL A   1      34.263  30.363  24.916  1.00  0.00     0.163 HD
BRANCH   3   6
ATOM      6  C   UNL A   1      32.063  27.893  24.162  1.00  0.00     0.130 A 
ATOM      7  C   UNL A   1      31.681  25.595  24.182  1.00  0.00     0.129 A 
ATOM      8  C   UNL A   1      30.331  25.775  23.948  1.00  0.00     0.047 A 
ATOM      9  N   UNL A   1      32.524  26.629  24.300  1.00  0.00    -0.226 NA
ATOM     10  C   UNL A   1      29.830  27.067  23.893  1.00  0.00     0.006 A 
ATOM     11  C   UNL A   1      30.706  28.144  24.013  1.00  0.00     0.034 A 
BRANCH   7  12
ATOM     12  N   UNL A   1      32.225  24.340  24.250  1.00  0.00    -0.356 N 
ATOM     13  C   UNL A   1      32.426  20.567  24.506  1.00  0.00     0.177 C 
ATOM     14  C   UNL A   1      32.156  21.432  22.785  1.00  0.00     0.066 C 
ATOM     15  C   UNL A   1      32.294  21.673  26.101  1.00  0.00     0.066 C 
ATOM     16  C   UNL A   1      32.260  23.369  22.682  1.00  0.00     0.122 C 
ATOM     17  C   UNL A   1      32.421  23.601  25.920  1.00  0.00     0.122 C 
BRANCH  13  18
ATOM     18  O   UNL A   1      33.795  20.063  24.493  1.00  0.00    -0.486 OA
BRANCH  18  19
ATOM     19  C   UNL A   1      33.756  18.690  24.624  1.00  0.00     0.161 A 
ATOM     20  C   UNL A   1      34.954  17.961  24.671  1.00  0.00     0.160 A 
ATOM     21  C   UNL A   1      34.912  16.575  24.802  1.00  0.00     0.050 A 
ATOM     22  C   UNL A   1      33.678  15.931  24.925  1.00  0.00     0.004 A 
ATOM     23  C   UNL A   1      32.526  18.054  24.735  1.00  0.00     0.050 A 
ATOM     24  C   UNL A   1      32.490  16.669  24.899  1.00  0.00     0.004 A 
BRANCH  20  25
ATOM     25  O   UNL A   1      36.050  18.801  24.628  1.00  0.00    -0.493 OA
ATOM     26  C   UNL A   1      37.559  19.876  24.673  1.00  0.00     0.278 C 
ENDBRANCH  20  25
ENDBRANCH  18  19
ENDBRANCH  13  18
ENDBRANCH   7  12
ENDBRANCH   3   6
ENDBRANCH   1   2
BRANCH   1  27
ATOM     27  C   UNL A   1      31.745  30.292  26.655  1.00  0.00     0.023 C 
BRANCH  27  28
ATOM     28  C   UNL A   1      31.641  31.817  26.562  1.00  0.00     0.023 C 
BRANCH  28  29
ATOM     29  C   UNL A   1      32.779  32.568  27.243  1.00  0.00     0.116 C 
BRANCH  29  30
ATOM     30  N   UNL A   1      32.454  33.955  27.547  1.00  0.00    -0.352 N 
ATOM     31  C   UNL A   1      32.984  34.755  28.527  1.00  0.00     0.251 C 
ATOM     32  H   UNL A   1      31.767  34.371  26.976  1.00  0.00     0.163 HD
ATOM     33  O   UNL A   1      32.527  35.870  28.748  1.00  0.00    -0.269 OA
BRANCH  31  34
ATOM     34  C   UNL A   1      34.090  34.222  29.338  1.00  0.00     0.039 A 
ATOM     35  C   UNL A   1      33.797  33.359  30.393  1.00  0.00     0.014 A 
ATOM     36  C   UNL A   1      35.413  34.516  28.998  1.00  0.00     0.014 A 
ATOM     37  C   UNL A   1      34.842  32.746  31.080  1.00  0.00     0.010 A 
ATOM     38  C   UNL A   1      36.447  33.829  29.617  1.00  0.00     0.010 A 
ATOM     39  C   UNL A   1      36.174  32.950  30.676  1.00  0.00    -0.014 A 
BRANCH  39  40
ATOM     40  C   UNL A   1      37.288  32.259  31.365  1.00  0.00     0.031 A 
ATOM     41  C   UNL A   1      38.013  31.133  30.684  1.00  0.00     0.074 A 
ATOM     42  C   UNL A   1      37.623  32.625  32.616  1.00  0.00     0.049 A 
ATOM     43  N   UNL A   1      39.033  30.430  31.106  1.00  0.00    -0.248 NA
ATOM     44  C   UNL A   1      37.508  30.721  29.365  1.00  0.00     0.031 C 
ATOM     45  C   UNL A   1      36.952  33.661  33.402  1.00  0.00     0.029 A 
ATOM     46  N   UNL A   1      38.620  32.174  33.442  1.00  0.00    -0.354 N 
ATOM     47  C   UNL A   1      39.280  29.490  30.114  1.00  0.00     0.074 A 
ATOM     48  C   UNL A   1      38.260  29.664  29.105  1.00  0.00     0.031 C 
ATOM     49  C   UNL A   1      37.589  33.805  34.575  1.00  0.00     0.029 A 
ATOM     50  C   UNL A   1      38.690  32.848  34.637  1.00  0.00     0.049 A 
ATOM     51  H   UNL A   1      39.229  31.438  33.202  1.00  0.00     0.167 HD
ATOM     52  C   UNL A   1      40.285  28.586  30.035  1.00  0.00     0.037 A 
ATOM     53  C   UNL A   1      39.554  32.716  35.659  1.00  0.00     0.037 A 
ATOM     54  C   UNL A   1      41.303  28.429  31.040  1.00  0.00     0.049 A 
ATOM     55  C   UNL A   1      40.658  31.698  35.553  1.00  0.00     0.074 A 
ATOM     56  C   UNL A   1      42.403  27.590  31.034  1.00  0.00     0.029 A 
ATOM     57  N   UNL A   1      41.337  29.122  32.243  1.00  0.00    -0.354 N 
ATOM     58  N   UNL A   1      40.942  30.879  34.570  1.00  0.00    -0.248 NA
ATOM     59  C   UNL A   1      41.571  31.600  36.697  1.00  0.00     0.031 C 
ATOM     60  C   UNL A   1      43.062  27.725  32.260  1.00  0.00     0.029 A 
ATOM     61  C   UNL A   1      42.420  28.704  33.002  1.00  0.00     0.049 A 
ATOM     62  H   UNL A   1      40.688  29.809  32.518  1.00  0.00     0.167 HD
ATOM     63  C   UNL A   1      42.085  30.192  34.960  1.00  0.00     0.074 A 
ATOM     64  C   UNL A   1      42.451  30.710  36.263  1.00  0.00     0.031 C 
ATOM     65  C   UNL A   1      42.770  29.224  34.301  1.00  0.00     0.037 A 
BRANCH  52  66
ATOM     66  C   UNL A   1      40.312  27.690  28.828  1.00  0.00     0.064 A 
ATOM     67  C   UNL A   1      39.620  26.468  28.792  1.00  0.00     0.173 A 
ATOM     68  C   UNL A   1      41.048  28.055  27.690  1.00  0.00     0.173 A 
ATOM     69  F   UNL A   1      38.911  26.062  29.857  1.00  0.00    -0.203 F 
ATOM     70  C   UNL A   1      39.705  25.625  27.687  1.00  0.00     0.198 A 
ATOM     71  C   UNL A   1      41.096  27.228  26.569  1.00  0.00     0.198 A 
ATOM     72  F   UNL A   1      41.724  29.213  27.663  1.00  0.00    -0.203 F 
ATOM     73  F   UNL A   1      39.098  24.430  27.709  1.00  0.00    -0.200 F 
ATOM     74  C   UNL A   1      40.438  26.009  26.574  1.00  0.00     0.200 A 
ATOM     75  F   UNL A   1      41.793  27.607  25.490  1.00  0.00    -0.200 F 
ATOM     76  F   UNL A   1      40.519  25.196  25.512  1.00  0.00    -0.200 F 
ENDBRANCH  52  66
BRANCH  53  77
ATOM     77  C   UNL A   1      39.447  33.607  36.844  1.00  0.00     0.064 A 
ATOM     78  C   UNL A   1      38.690  33.225  37.962  1.00  0.00     0.173 A 
ATOM     79  C   UNL A   1      40.096  34.848  36.889  1.00  0.00     0.173 A 
ATOM     80  F   UNL A   1      38.036  32.056  37.959  1.00  0.00    -0.203 F 
ATOM     81  C   UNL A   1      38.570  34.061  39.069  1.00  0.00     0.198 A 
ATOM     82  C   UNL A   1      40.000  35.670  38.011  1.00  0.00     0.198 A 
ATOM     83  F   UNL A   1      40.839  35.257  35.850  1.00  0.00    -0.203 F 
ATOM     84  F   UNL A   1      37.802  33.692  40.104  1.00  0.00    -0.200 F 
ATOM     85  C   UNL A   1      39.230  35.280  39.096  1.00  0.00     0.200 A 
ATOM     86  F   UNL A   1      40.654  36.839  38.039  1.00  0.00    -0.200 F 
ATOM     87  F   UNL A   1      39.120  36.081  40.165  1.00  0.00    -0.200 F 
ENDBRANCH  53  77
BRANCH  65  88
ATOM     88  C   UNL A   1      44.012  28.696  34.963  1.00  0.00     0.064 A 
ATOM     89  C   UNL A   1      43.985  27.576  35.810  1.00  0.00     0.173 A 
ATOM     90  C   UNL A   1      45.251  29.320  34.745  1.00  0.00     0.173 A 
ATOM     91  F   UNL A   1      42.827  26.948  36.063  1.00  0.00    -0.203 F 
ATOM     92  C   UNL A   1      45.140  27.136  36.453  1.00  0.00     0.198 A 
ATOM     93  C   UNL A   1      46.410  28.851  35.356  1.00  0.00     0.198 A 
ATOM     94  F   UNL A   1      45.338  30.387  33.937  1.00  0.00    -0.203 F 
ATOM     95  F   UNL A   1      45.073  26.114  37.318  1.00  0.00    -0.200 F 
ATOM     96  C   UNL A   1      46.351  27.770  36.222  1.00  0.00     0.200 A 
ATOM     97  F   UNL A   1      47.583  29.453  35.117  1.00  0.00    -0.200 F 
ATOM     98  F   UNL A   1      47.460  27.346  36.843  1.00  0.00    -0.200 F 
ENDBRANCH  65  88
ENDBRANCH  39  40
ENDBRANCH  31  34
ENDBRANCH  29  30
ENDBRANCH  28  29
ENDBRANCH  27  28
ENDBRANCH   1  27
TORSDOF 15
ENDMDL
MODEL 3
REMARK VINA RESULT:     -13.3      4.967     11.138
REMARK SMILES COc1ccccc1OC1CCN(c2cccc(C(=O)NCCCCNC(=O)c3ccc(-c4c5nc(c(-c6c(F)c(F)c(F)c(F)c6F)c6ccc([nH]6)c(-c6c(F)c(F)c(F)c(F)c6F)c6nc(c(-c7c(F)c(F)c(F)c(F)c7F)c7ccc4[nH]7)C=C6)C=C5)cc3)n2)CC1
REMARK SMILES IDX 22 1 21 2 19 3 20 4 18 6 14 7 15 8 92 9 16 10 17 11 13 12
REMARK SMILES IDX 10 13 11 14 94 15 12 16 93 17 9 18 8 19 3 20 4 21 5 22 7 23
REMARK SMILES IDX 6 24 2 25 1 26 23 27 24 28 25 29 26 30 27 31 28 33 29 34
REMARK SMILES IDX 30 35 91 36 31 37 90 38 32 39 33 40 34 41 84 42 35 43 89 44
REMARK SMILES IDX 83 45 85 46 36 47 88 48 82 49 81 50 37 52 69 53 49 54 68 55
REMARK SMILES IDX 50 56 53 57 67 58 86 59 51 60 52 61 66 63 87 64 54 65 38 66
REMARK SMILES IDX 39 67 47 68 40 69 41 70 45 71 48 72 42 73 43 74 46 75 44 76
REMARK SMILES IDX 70 77 71 78 79 79 72 80 73 81 77 82 80 83 74 84 75 85 78 86
REMARK SMILES IDX 76 87 55 88 56 89 64 90 57 91 58 92 62 93 65 94 59 95 60 96
REMARK SMILES IDX 63 97 61 98
REMARK H PARENT 21 5 26 32 85 51 53 62
REMARK Flexibility Score: inf
ROOT
ATOM      1  C   UNL A   1      37.081  22.497  25.406  1.00  0.00     0.116 C 
ENDROOT
BRANCH   1   2
ATOM      2  N   UNL A   1      36.178  22.017  26.418  1.00  0.00    -0.351 N 
ATOM      3  C   UNL A   1      34.824  21.801  26.444  1.00  0.00     0.269 C 
ATOM      4  O   UNL A   1      34.381  21.457  27.545  1.00  0.00    -0.268 OA
ATOM      5  H   UNL A   1      36.624  21.798  27.268  1.00  0.00     0.163 HD
BRANCH   3   6
ATOM      6  C   UNL A   1      33.896  21.904  25.255  1.00  0.00     0.130 A 
ATOM      7  C   UNL A   1      32.473  23.413  24.195  1.00  0.00     0.129 A 
ATOM      8  C   UNL A   1      31.941  22.417  23.399  1.00  0.00     0.047 A 
ATOM      9  N   UNL A   1      33.436  23.166  25.092  1.00  0.00    -0.226 NA
ATOM     10  C   UNL A   1      32.463  21.136  23.494  1.00  0.00     0.006 A 
ATOM     11  C   UNL A   1      33.465  20.876  24.428  1.00  0.00     0.034 A 
BRANCH   7  12
ATOM     12  N   UNL A   1      31.995  24.696  24.136  1.00  0.00    -0.356 N 
ATOM     13  C   UNL A   1      29.955  27.676  22.995  1.00  0.00     0.177 C 
ATOM     14  C   UNL A   1      29.230  26.412  24.284  1.00  0.00     0.066 C 
ATOM     15  C   UNL A   1      31.619  27.201  22.105  1.00  0.00     0.066 C 
ATOM     16  C   UNL A   1      30.388  25.017  24.984  1.00  0.00     0.122 C 
ATOM     17  C   UNL A   1      32.730  25.807  22.873  1.00  0.00     0.122 C 
BRANCH  13  18
ATOM     18  O   UNL A   1      30.247  28.892  23.745  1.00  0.00    -0.486 OA
BRANCH  18  19
ATOM     19  C   UNL A   1      29.476  29.916  23.234  1.00  0.00     0.161 A 
ATOM     20  C   UNL A   1      29.486  31.173  23.857  1.00  0.00     0.160 A 
ATOM     21  C   UNL A   1      28.707  32.204  23.340  1.00  0.00     0.050 A 
ATOM     22  C   UNL A   1      27.954  31.986  22.183  1.00  0.00     0.004 A 
ATOM     23  C   UNL A   1      28.722  29.690  22.089  1.00  0.00     0.050 A 
ATOM     24  C   UNL A   1      27.967  30.736  21.557  1.00  0.00     0.004 A 
BRANCH  20  25
ATOM     25  O   UNL A   1      30.367  31.193  24.921  1.00  0.00    -0.493 OA
ATOM     26  C   UNL A   1      31.453  31.237  26.422  1.00  0.00     0.278 C 
ENDBRANCH  20  25
ENDBRANCH  18  19
ENDBRANCH  13  18
ENDBRANCH   7  12
ENDBRANCH   3   6
ENDBRANCH   1   2
BRANCH   1  27
ATOM     27  C   UNL A   1      38.528  22.280  25.845  1.00  0.00     0.023 C 
BRANCH  27  28
ATOM     28  C   UNL A   1      39.094  20.931  25.391  1.00  0.00     0.023 C 
BRANCH  28  29
ATOM     29  C   UNL A   1      39.685  20.086  26.513  1.00  0.00     0.116 C 
BRANCH  29  30
ATOM     30  N   UNL A   1      40.731  19.177  26.062  1.00  0.00    -0.352 N 
ATOM     31  C   UNL A   1      42.070  19.434  25.913  1.00  0.00     0.251 C 
ATOM     32  H   UNL A   1      40.439  18.265  25.834  1.00  0.00     0.163 HD
ATOM     33  O   UNL A   1      42.818  18.607  25.406  1.00  0.00    -0.269 OA
BRANCH  31  34
ATOM     34  C   UNL A   1      42.580  20.746  26.342  1.00  0.00     0.039 A 
ATOM     35  C   UNL A   1      42.885  21.699  25.371  1.00  0.00     0.014 A 
ATOM     36  C   UNL A   1      42.676  21.050  27.702  1.00  0.00     0.014 A 
ATOM     37  C   UNL A   1      43.240  22.985  25.771  1.00  0.00     0.010 A 
ATOM     38  C   UNL A   1      42.932  22.356  28.094  1.00  0.00     0.010 A 
ATOM     39  C   UNL A   1      43.233  23.333  27.134  1.00  0.00    -0.014 A 
BRANCH  39  40
ATOM     40  C   UNL A   1      43.556  24.713  27.564  1.00  0.00     0.031 A 
ATOM     41  C   UNL A   1      44.984  25.179  27.596  1.00  0.00     0.074 A 
ATOM     42  C   UNL A   1      42.564  25.535  27.956  1.00  0.00     0.049 A 
ATOM     43  N   UNL A   1      45.464  26.356  27.907  1.00  0.00    -0.248 NA
ATOM     44  C   UNL A   1      46.014  24.183  27.263  1.00  0.00     0.031 C 
ATOM     45  C   UNL A   1      41.147  25.176  28.027  1.00  0.00     0.029 A 
ATOM     46  N   UNL A   1      42.596  26.845  28.358  1.00  0.00    -0.354 N 
ATOM     47  C   UNL A   1      46.845  26.235  27.819  1.00  0.00     0.074 A 
ATOM     48  C   UNL A   1      47.129  24.855  27.498  1.00  0.00     0.031 C 
ATOM     49  C   UNL A   1      40.438  26.255  28.394  1.00  0.00     0.029 A 
ATOM     50  C   UNL A   1      41.354  27.370  28.619  1.00  0.00     0.049 A 
ATOM     51  H   UNL A   1      43.429  27.362  28.451  1.00  0.00     0.167 HD
ATOM     52  C   UNL A   1      47.789  27.195  27.961  1.00  0.00     0.037 A 
ATOM     53  C   UNL A   1      40.996  28.613  28.984  1.00  0.00     0.037 A 
ATOM     54  C   UNL A   1      47.496  28.570  28.269  1.00  0.00     0.049 A 
ATOM     55  C   UNL A   1      42.064  29.662  29.144  1.00  0.00     0.074 A 
ATOM     56  C   UNL A   1      48.368  29.638  28.373  1.00  0.00     0.029 A 
ATOM     57  N   UNL A   1      46.226  29.065  28.537  1.00  0.00    -0.354 N 
ATOM     58  N   UNL A   1      43.359  29.563  28.966  1.00  0.00    -0.248 NA
ATOM     59  C   UNL A   1      41.613  31.001  29.542  1.00  0.00     0.031 C 
ATOM     60  C   UNL A   1      47.637  30.763  28.771  1.00  0.00     0.029 A 
ATOM     61  C   UNL A   1      46.297  30.416  28.840  1.00  0.00     0.049 A 
ATOM     62  H   UNL A   1      45.397  28.534  28.516  1.00  0.00     0.167 HD
ATOM     63  C   UNL A   1      43.875  30.832  29.196  1.00  0.00     0.074 A 
ATOM     64  C   UNL A   1      42.747  31.686  29.506  1.00  0.00     0.031 C 
ATOM     65  C   UNL A   1      45.164  31.253  29.153  1.00  0.00     0.037 A 
BRANCH  52  66
ATOM     66  C   UNL A   1      49.225  26.777  27.802  1.00  0.00     0.064 A 
ATOM     67  C   UNL A   1      49.818  26.615  26.538  1.00  0.00     0.173 A 
ATOM     68  C   UNL A   1      50.021  26.528  28.931  1.00  0.00     0.173 A 
ATOM     69  F   UNL A   1      49.101  26.828  25.424  1.00  0.00    -0.203 F 
ATOM     70  C   UNL A   1      51.132  26.173  26.411  1.00  0.00     0.198 A 
ATOM     71  C   UNL A   1      51.348  26.125  28.800  1.00  0.00     0.198 A 
ATOM     72  F   UNL A   1      49.512  26.670  30.163  1.00  0.00    -0.203 F 
ATOM     73  F   UNL A   1      51.648  25.952  25.194  1.00  0.00    -0.200 F 
ATOM     74  C   UNL A   1      51.898  25.933  27.542  1.00  0.00     0.200 A 
ATOM     75  F   UNL A   1      52.091  25.908  29.894  1.00  0.00    -0.200 F 
ATOM     76  F   UNL A   1      53.162  25.505  27.417  1.00  0.00    -0.200 F 
ENDBRANCH  52  66
BRANCH  53  77
ATOM     77  C   UNL A   1      39.559  28.951  29.166  1.00  0.00     0.064 A 
ATOM     78  C   UNL A   1      38.776  29.360  28.077  1.00  0.00     0.173 A 
ATOM     79  C   UNL A   1      38.940  28.870  30.420  1.00  0.00     0.173 A 
ATOM     80  F   UNL A   1      39.327  29.471  26.860  1.00  0.00    -0.203 F 
ATOM     81  C   UNL A   1      37.434  29.696  28.240  1.00  0.00     0.198 A 
ATOM     82  C   UNL A   1      37.589  29.176  30.577  1.00  0.00     0.198 A 
ATOM     83  F   UNL A   1      39.642  28.477  31.493  1.00  0.00    -0.203 F 
ATOM     84  F   UNL A   1      36.721  30.128  27.191  1.00  0.00    -0.200 F 
ATOM     85  C   UNL A   1      36.840  29.597  29.488  1.00  0.00     0.200 A 
ATOM     86  F   UNL A   1      37.014  29.063  31.782  1.00  0.00    -0.200 F 
ATOM     87  F   UNL A   1      35.546  29.912  29.645  1.00  0.00    -0.200 F 
ENDBRANCH  53  77
BRANCH  65  88
ATOM     88  C   UNL A   1      45.414  32.715  29.404  1.00  0.00     0.064 A 
ATOM     89  C   UNL A   1      45.641  33.219  30.695  1.00  0.00     0.173 A 
ATOM     90  C   UNL A   1      45.427  33.625  28.335  1.00  0.00     0.173 A 
ATOM     91  F   UNL A   1      45.628  32.396  31.754  1.00  0.00    -0.203 F 
ATOM     92  C   UNL A   1      45.819  34.584  30.910  1.00  0.00     0.198 A 
ATOM     93  C   UNL A   1      45.648  34.982  28.550  1.00  0.00     0.198 A 
ATOM     94  F   UNL A   1      45.227  33.198  27.080  1.00  0.00    -0.203 F 
ATOM     95  F   UNL A   1      45.955  35.050  32.159  1.00  0.00    -0.200 F 
ATOM     96  C   UNL A   1      45.827  35.463  29.837  1.00  0.00     0.200 A 
ATOM     97  F   UNL A   1      45.675  35.827  27.510  1.00  0.00    -0.200 F 
ATOM     98  F   UNL A   1      45.996  36.776  30.047  1.00  0.00    -0.200 F 
ENDBRANCH  65  88
ENDBRANCH  39  40
ENDBRANCH  31  34
ENDBRANCH  29  30
ENDBRANCH  28  29
ENDBRANCH  27  28
ENDBRANCH   1  27
TORSDOF 15
ENDMDL
