MODEL 1
REMARK VINA RESULT:     -11.5      0.000      0.000
REMARK SMILES C[C@@H]([N@@H+](C)[C@@H]1COC[C@@H]1C(=O)NCCCCNC(=O)c1ccc(-c2c3nc(c(-c4c(F)c(F)c(F)c(F)c4F)c4ccc([nH]4)c(-c4c(F)c(F)c(F)c(F)c4F)c4nc(c(-c5c(F)c(F)c(F)c(F)c5F)c5ccc2[nH]5)C=C4)C=C3)cc1)C1(C)CC1
REMARK SMILES IDX 14 1 13 2 12 3 10 4 11 5 9 7 5 8 6 9 7 10 8 11 3 12 4 13
REMARK SMILES IDX 2 15 1 16 83 17 84 18 85 19 86 20 15 21 16 22 17 23 18 24
REMARK SMILES IDX 19 26 20 27 21 28 82 29 22 30 81 31 23 32 24 33 25 34 75 35
REMARK SMILES IDX 26 36 80 37 74 38 76 39 27 40 79 41 73 42 72 43 28 45 60 46
REMARK SMILES IDX 40 47 59 48 41 49 44 50 58 51 77 52 42 53 43 54 57 56 78 57
REMARK SMILES IDX 45 58 29 59 30 60 38 61 31 62 32 63 36 64 39 65 33 66 34 67
REMARK SMILES IDX 37 68 35 69 61 70 62 71 70 72 63 73 64 74 68 75 71 76 65 77
REMARK SMILES IDX 66 78 69 79 67 80 46 81 47 82 55 83 48 84 49 85 53 86 56 87
REMARK SMILES IDX 50 88 51 89 54 90 52 91
REMARK H PARENT 12 6 3 14 17 25 76 44 44 55
REMARK Flexibility Score: inf
ROOT
ATOM      1  C   UNL A   1      31.748  30.367  26.790  1.00  0.00     0.023 C 
ENDROOT
BRANCH   1   2
ATOM      2  C   UNL A   1      33.030  29.624  26.440  1.00  0.00     0.116 C 
BRANCH   2   3
ATOM      3  N   UNL A   1      33.307  29.698  25.017  1.00  0.00    -0.356 N 
ATOM      4  C   UNL A   1      32.711  29.048  23.975  1.00  0.00     0.231 C 
ATOM      5  O   UNL A   1      33.220  29.188  22.861  1.00  0.00    -0.274 OA
ATOM      6  H   UNL A   1      34.035  30.310  24.766  1.00  0.00     0.163 HD
BRANCH   4   7
ATOM      7  C   UNL A   1      31.436  28.243  24.196  1.00  0.00     0.164 C 
ATOM      8  C   UNL A   1      31.302  27.015  23.286  1.00  0.00     0.225 C 
ATOM      9  C   UNL A   1      30.654  27.655  22.043  1.00  0.00     0.226 C 
ATOM     10  O   UNL A   1      29.695  28.586  22.563  1.00  0.00    -0.374 OA
ATOM     11  C   UNL A   1      30.244  29.115  23.780  1.00  0.00     0.180 C 
BRANCH   8  12
ATOM     12  N   UNL A   1      32.520  26.162  23.174  1.00  0.00    -0.330 N 
ATOM     13  C   UNL A   1      32.868  25.996  21.754  1.00  0.00     0.333 C 
ATOM     14  H   UNL A   1      33.253  26.663  23.678  1.00  0.00     0.348 HD
BRANCH  12  15
ATOM     15  C   UNL A   1      32.455  24.834  23.870  1.00  0.00     0.186 C 
ATOM     16  C   UNL A   1      31.068  24.136  23.814  1.00  0.00     0.076 C 
BRANCH  15  17
ATOM     17  C   UNL A   1      32.956  24.867  25.378  1.00  0.00     0.019 C 
ATOM     18  C   UNL A   1      31.957  24.640  26.501  1.00  0.00     0.018 C 
ATOM     19  C   UNL A   1      34.394  24.476  25.751  1.00  0.00     0.013 C 
ATOM     20  C   UNL A   1      34.021  25.918  25.673  1.00  0.00     0.013 C 
ENDBRANCH  15  17
ENDBRANCH  12  15
ENDBRANCH   8  12
ENDBRANCH   4   7
ENDBRANCH   2   3
ENDBRANCH   1   2
BRANCH   1  21
ATOM     21  C   UNL A   1      31.768  31.867  26.522  1.00  0.00     0.023 C 
BRANCH  21  22
ATOM     22  C   UNL A   1      32.871  32.607  27.254  1.00  0.00     0.116 C 
BRANCH  22  23
ATOM     23  N   UNL A   1      32.514  33.986  27.563  1.00  0.00    -0.352 N 
ATOM     24  C   UNL A   1      33.038  34.812  28.527  1.00  0.00     0.251 C 
ATOM     25  H   UNL A   1      31.803  34.378  27.007  1.00  0.00     0.163 HD
ATOM     26  O   UNL A   1      32.531  35.906  28.754  1.00  0.00    -0.269 OA
BRANCH  24  27
ATOM     27  C   UNL A   1      34.197  34.351  29.317  1.00  0.00     0.039 A 
ATOM     28  C   UNL A   1      33.976  33.716  30.541  1.00  0.00     0.014 A 
ATOM     29  C   UNL A   1      35.495  34.506  28.823  1.00  0.00     0.014 A 
ATOM     30  C   UNL A   1      35.057  33.175  31.238  1.00  0.00     0.010 A 
ATOM     31  C   UNL A   1      36.553  33.884  29.468  1.00  0.00     0.010 A 
ATOM     32  C   UNL A   1      36.347  33.221  30.687  1.00  0.00    -0.014 A 
BRANCH  32  33
ATOM     33  C   UNL A   1      37.512  32.610  31.371  1.00  0.00     0.031 A 
ATOM     34  C   UNL A   1      38.242  31.472  30.714  1.00  0.00     0.074 A 
ATOM     35  C   UNL A   1      37.849  33.012  32.611  1.00  0.00     0.049 A 
ATOM     36  N   UNL A   1      39.196  30.713  31.189  1.00  0.00    -0.248 NA
ATOM     37  C   UNL A   1      37.813  31.115  29.352  1.00  0.00     0.031 C 
ATOM     38  C   UNL A   1      37.180  34.070  33.371  1.00  0.00     0.029 A 
ATOM     39  N   UNL A   1      38.829  32.563  33.460  1.00  0.00    -0.354 N 
ATOM     40  C   UNL A   1      39.459  29.776  30.198  1.00  0.00     0.074 A 
ATOM     41  C   UNL A   1      38.528  30.025  29.120  1.00  0.00     0.031 C 
ATOM     42  C   UNL A   1      37.783  34.203  34.563  1.00  0.00     0.029 A 
ATOM     43  C   UNL A   1      38.850  33.213  34.670  1.00  0.00     0.049 A 
ATOM     44  H   UNL A   1      39.459  31.844  33.224  1.00  0.00     0.167 HD
ATOM     45  C   UNL A   1      40.410  28.814  30.179  1.00  0.00     0.037 A 
ATOM     46  C   UNL A   1      39.636  33.022  35.746  1.00  0.00     0.037 A 
ATOM     47  C   UNL A   1      41.357  28.599  31.240  1.00  0.00     0.049 A 
ATOM     48  C   UNL A   1      40.695  31.953  35.695  1.00  0.00     0.074 A 
ATOM     49  C   UNL A   1      42.402  27.696  31.295  1.00  0.00     0.029 A 
ATOM     50  N   UNL A   1      41.373  29.307  32.434  1.00  0.00    -0.354 N 
ATOM     51  N   UNL A   1      40.978  31.114  34.728  1.00  0.00    -0.248 NA
ATOM     52  C   UNL A   1      41.547  31.808  36.883  1.00  0.00     0.031 C 
ATOM     53  C   UNL A   1      43.025  27.826  32.541  1.00  0.00     0.029 A 
ATOM     54  C   UNL A   1      42.401  28.847  33.240  1.00  0.00     0.049 A 
ATOM     55  H   UNL A   1      40.747  30.027  32.674  1.00  0.00     0.167 HD
ATOM     56  C   UNL A   1      42.058  30.367  35.174  1.00  0.00     0.074 A 
ATOM     57  C   UNL A   1      42.386  30.858  36.497  1.00  0.00     0.031 C 
ATOM     58  C   UNL A   1      42.720  29.364  34.547  1.00  0.00     0.037 A 
BRANCH  45  59
ATOM     59  C   UNL A   1      40.475  27.927  28.970  1.00  0.00     0.064 A 
ATOM     60  C   UNL A   1      39.734  26.737  28.887  1.00  0.00     0.173 A 
ATOM     61  C   UNL A   1      41.270  28.279  27.868  1.00  0.00     0.173 A 
ATOM     62  F   UNL A   1      38.969  26.346  29.918  1.00  0.00    -0.203 F 
ATOM     63  C   UNL A   1      39.811  25.920  27.763  1.00  0.00     0.198 A 
ATOM     64  C   UNL A   1      41.319  27.476  26.732  1.00  0.00     0.198 A 
ATOM     65  F   UNL A   1      41.997  29.407  27.892  1.00  0.00    -0.203 F 
ATOM     66  F   UNL A   1      39.137  24.762  27.733  1.00  0.00    -0.200 F 
ATOM     67  C   UNL A   1      40.597  26.293  26.685  1.00  0.00     0.200 A 
ATOM     68  F   UNL A   1      42.069  27.844  25.685  1.00  0.00    -0.200 F 
ATOM     69  F   UNL A   1      40.665  25.507  25.601  1.00  0.00    -0.200 F 
ENDBRANCH  45  59
BRANCH  46  70
ATOM     70  C   UNL A   1      39.473  33.879  36.949  1.00  0.00     0.064 A 
ATOM     71  C   UNL A   1      38.715  33.444  38.044  1.00  0.00     0.173 A 
ATOM     72  C   UNL A   1      40.070  35.146  37.032  1.00  0.00     0.173 A 
ATOM     73  F   UNL A   1      38.110  32.247  38.004  1.00  0.00    -0.203 F 
ATOM     74  C   UNL A   1      38.540  34.250  39.167  1.00  0.00     0.198 A 
ATOM     75  C   UNL A   1      39.918  35.940  38.167  1.00  0.00     0.198 A 
ATOM     76  F   UNL A   1      40.811  35.607  36.014  1.00  0.00    -0.203 F 
ATOM     77  F   UNL A   1      37.773  33.826  40.180  1.00  0.00    -0.200 F 
ATOM     78  C   UNL A   1      39.147  35.495  39.230  1.00  0.00     0.200 A 
ATOM     79  F   UNL A   1      40.519  37.137  38.231  1.00  0.00    -0.200 F 
ATOM     80  F   UNL A   1      38.983  36.268  40.311  1.00  0.00    -0.200 F 
ENDBRANCH  46  70
BRANCH  58  81
ATOM     81  C   UNL A   1      43.896  28.764  35.260  1.00  0.00     0.064 A 
ATOM     82  C   UNL A   1      43.752  27.683  36.141  1.00  0.00     0.173 A 
ATOM     83  C   UNL A   1      45.191  29.247  35.015  1.00  0.00     0.173 A 
ATOM     84  F   UNL A   1      42.533  27.195  36.418  1.00  0.00    -0.203 F 
ATOM     85  C   UNL A   1      44.859  27.123  36.771  1.00  0.00     0.198 A 
ATOM     86  C   UNL A   1      46.299  28.664  35.622  1.00  0.00     0.198 A 
ATOM     87  F   UNL A   1      45.382  30.274  34.174  1.00  0.00    -0.203 F 
ATOM     88  F   UNL A   1      44.695  26.120  37.645  1.00  0.00    -0.200 F 
ATOM     89  C   UNL A   1      46.132  27.608  36.505  1.00  0.00     0.200 A 
ATOM     90  F   UNL A   1      47.528  29.124  35.353  1.00  0.00    -0.200 F 
ATOM     91  F   UNL A   1      47.198  27.059  37.104  1.00  0.00    -0.200 F 
ENDBRANCH  58  81
ENDBRANCH  32  33
ENDBRANCH  24  27
ENDBRANCH  22  23
ENDBRANCH  21  22
ENDBRANCH   1  21
TORSDOF 14
ENDMDL
MODEL 2
REMARK VINA RESULT:     -11.5      5.995     11.301
REMARK SMILES C[C@@H]([N@@H+](C)[C@@H]1COC[C@@H]1C(=O)NCCCCNC(=O)c1ccc(-c2c3nc(c(-c4c(F)c(F)c(F)c(F)c4F)c4ccc([nH]4)c(-c4c(F)c(F)c(F)c(F)c4F)c4nc(c(-c5c(F)c(F)c(F)c(F)c5F)c5ccc2[nH]5)C=C4)C=C3)cc1)C1(C)CC1
REMARK SMILES IDX 14 1 13 2 12 3 10 4 11 5 9 7 5 8 6 9 7 10 8 11 3 12 4 13
REMARK SMILES IDX 2 15 1 16 83 17 84 18 85 19 86 20 15 21 16 22 17 23 18 24
REMARK SMILES IDX 19 26 20 27 21 28 82 29 22 30 81 31 23 32 24 33 25 34 75 35
REMARK SMILES IDX 26 36 80 37 74 38 76 39 27 40 79 41 73 42 72 43 28 45 60 46
REMARK SMILES IDX 40 47 59 48 41 49 44 50 58 51 77 52 42 53 43 54 57 56 78 57
REMARK SMILES IDX 45 58 29 59 30 60 38 61 31 62 32 63 36 64 39 65 33 66 34 67
REMARK SMILES IDX 37 68 35 69 61 70 62 71 70 72 63 73 64 74 68 75 71 76 65 77
REMARK SMILES IDX 66 78 69 79 67 80 46 81 47 82 55 83 48 84 49 85 53 86 56 87
REMARK SMILES IDX 50 88 51 89 54 90 52 91
REMARK H PARENT 12 6 3 14 17 25 76 44 44 55
REMARK Flexibility Score: inf
ROOT
ATOM      1  C   UNL A   1      37.242  21.237  24.430  1.00  0.00     0.023 C 
ENDROOT
BRANCH   1   2
ATOM      2  C   UNL A   1      36.921  22.369  25.396  1.00  0.00     0.116 C 
BRANCH   2   3
ATOM      3  N   UNL A   1      35.988  21.935  26.419  1.00  0.00    -0.356 N 
ATOM      4  C   UNL A   1      34.652  21.666  26.329  1.00  0.00     0.231 C 
ATOM      5  O   UNL A   1      34.053  21.436  27.381  1.00  0.00    -0.274 OA
ATOM      6  H   UNL A   1      36.378  21.817  27.315  1.00  0.00     0.163 HD
BRANCH   4   7
ATOM      7  C   UNL A   1      33.971  21.597  24.967  1.00  0.00     0.164 C 
ATOM      8  C   UNL A   1      32.521  22.098  24.964  1.00  0.00     0.225 C 
ATOM      9  C   UNL A   1      31.778  20.812  25.376  1.00  0.00     0.226 C 
ATOM     10  O   UNL A   1      32.441  19.758  24.665  1.00  0.00    -0.374 OA
ATOM     11  C   UNL A   1      33.828  20.118  24.581  1.00  0.00     0.180 C 
BRANCH   8  12
ATOM     12  N   UNL A   1      32.286  23.390  25.671  1.00  0.00    -0.330 N 
ATOM     13  C   UNL A   1      31.251  23.200  26.700  1.00  0.00     0.333 C 
ATOM     14  H   UNL A   1      33.181  23.640  26.091  1.00  0.00     0.348 HD
BRANCH  12  15
ATOM     15  C   UNL A   1      31.963  24.565  24.796  1.00  0.00     0.186 C 
ATOM     16  C   UNL A   1      31.002  24.254  23.616  1.00  0.00     0.076 C 
BRANCH  15  17
ATOM     17  C   UNL A   1      33.241  25.326  24.235  1.00  0.00     0.019 C 
ATOM     18  C   UNL A   1      33.653  25.123  22.785  1.00  0.00     0.018 C 
ATOM     19  C   UNL A   1      33.683  26.679  24.812  1.00  0.00     0.013 C 
ATOM     20  C   UNL A   1      34.400  25.437  25.219  1.00  0.00     0.013 C 
ENDBRANCH  15  17
ENDBRANCH  12  15
ENDBRANCH   8  12
ENDBRANCH   4   7
ENDBRANCH   2   3
ENDBRANCH   1   2
BRANCH   1  21
ATOM     21  C   UNL A   1      37.943  20.032  25.045  1.00  0.00     0.023 C 
BRANCH  21  22
ATOM     22  C   UNL A   1      39.190  20.383  25.835  1.00  0.00     0.116 C 
BRANCH  22  23
ATOM     23  N   UNL A   1      40.128  19.271  25.927  1.00  0.00    -0.352 N 
ATOM     24  C   UNL A   1      41.485  19.310  26.126  1.00  0.00     0.251 C 
ATOM     25  H   UNL A   1      39.736  18.373  25.834  1.00  0.00     0.163 HD
ATOM     26  O   UNL A   1      42.159  18.288  26.040  1.00  0.00    -0.269 OA
BRANCH  24  27
ATOM     27  C   UNL A   1      42.135  20.606  26.407  1.00  0.00     0.039 A 
ATOM     28  C   UNL A   1      42.556  21.401  25.339  1.00  0.00     0.014 A 
ATOM     29  C   UNL A   1      42.282  21.051  27.723  1.00  0.00     0.014 A 
ATOM     30  C   UNL A   1      43.064  22.677  25.591  1.00  0.00     0.010 A 
ATOM     31  C   UNL A   1      42.696  22.353  27.965  1.00  0.00     0.010 A 
ATOM     32  C   UNL A   1      43.101  23.175  26.903  1.00  0.00    -0.014 A 
BRANCH  32  33
ATOM     33  C   UNL A   1      43.582  24.544  27.205  1.00  0.00     0.031 A 
ATOM     34  C   UNL A   1      42.619  25.566  27.742  1.00  0.00     0.074 A 
ATOM     35  C   UNL A   1      44.850  24.890  26.912  1.00  0.00     0.049 A 
ATOM     36  N   UNL A   1      42.795  26.845  27.949  1.00  0.00    -0.248 NA
ATOM     37  C   UNL A   1      41.260  25.090  28.049  1.00  0.00     0.031 C 
ATOM     38  C   UNL A   1      45.861  23.999  26.339  1.00  0.00     0.029 A 
ATOM     39  N   UNL A   1      45.500  26.092  27.038  1.00  0.00    -0.354 N 
ATOM     40  C   UNL A   1      41.567  27.328  28.383  1.00  0.00     0.074 A 
ATOM     41  C   UNL A   1      40.639  26.219  28.354  1.00  0.00     0.031 C 
ATOM     42  C   UNL A   1      47.008  24.680  26.182  1.00  0.00     0.029 A 
ATOM     43  C   UNL A   1      46.803  26.061  26.602  1.00  0.00     0.049 A 
ATOM     44  H   UNL A   1      45.074  26.899  27.405  1.00  0.00     0.167 HD
ATOM     45  C   UNL A   1      41.251  28.578  28.794  1.00  0.00     0.037 A 
ATOM     46  C   UNL A   1      47.721  27.044  26.541  1.00  0.00     0.037 A 
ATOM     47  C   UNL A   1      42.190  29.665  28.855  1.00  0.00     0.049 A 
ATOM     48  C   UNL A   1      47.347  28.423  27.016  1.00  0.00     0.074 A 
ATOM     49  C   UNL A   1      41.991  30.953  29.317  1.00  0.00     0.029 A 
ATOM     50  N   UNL A   1      43.514  29.585  28.445  1.00  0.00    -0.354 N 
ATOM     51  N   UNL A   1      46.202  28.855  27.484  1.00  0.00    -0.248 NA
ATOM     52  C   UNL A   1      48.397  29.449  26.959  1.00  0.00     0.031 C 
ATOM     53  C   UNL A   1      43.182  31.666  29.146  1.00  0.00     0.029 A 
ATOM     54  C   UNL A   1      44.139  30.807  28.628  1.00  0.00     0.049 A 
ATOM     55  H   UNL A   1      43.944  28.780  28.079  1.00  0.00     0.167 HD
ATOM     56  C   UNL A   1      46.400  30.189  27.808  1.00  0.00     0.074 A 
ATOM     57  C   UNL A   1      47.780  30.494  27.492  1.00  0.00     0.031 C 
ATOM     58  C   UNL A   1      45.519  31.083  28.322  1.00  0.00     0.037 A 
BRANCH  45  59
ATOM     59  C   UNL A   1      39.832  28.832  29.213  1.00  0.00     0.064 A 
ATOM     60  C   UNL A   1      39.410  28.647  30.539  1.00  0.00     0.173 A 
ATOM     61  C   UNL A   1      38.885  29.289  28.283  1.00  0.00     0.173 A 
ATOM     62  F   UNL A   1      40.271  28.198  31.464  1.00  0.00    -0.203 F 
ATOM     63  C   UNL A   1      38.088  28.879  30.911  1.00  0.00     0.198 A 
ATOM     64  C   UNL A   1      37.572  29.551  28.666  1.00  0.00     0.198 A 
ATOM     65  F   UNL A   1      39.234  29.486  27.003  1.00  0.00    -0.203 F 
ATOM     66  F   UNL A   1      37.698  28.641  32.171  1.00  0.00    -0.200 F 
ATOM     67  C   UNL A   1      37.173  29.337  29.977  1.00  0.00     0.200 A 
ATOM     68  F   UNL A   1      36.691  30.007  27.765  1.00  0.00    -0.200 F 
ATOM     69  F   UNL A   1      35.903  29.565  30.338  1.00  0.00    -0.200 F 
ENDBRANCH  45  59
BRANCH  46  70
ATOM     70  C   UNL A   1      49.090  26.753  26.041  1.00  0.00     0.064 A 
ATOM     71  C   UNL A   1      50.073  26.238  26.896  1.00  0.00     0.173 A 
ATOM     72  C   UNL A   1      49.444  26.978  24.702  1.00  0.00     0.173 A 
ATOM     73  F   UNL A   1      49.787  26.022  28.189  1.00  0.00    -0.203 F 
ATOM     74  C   UNL A   1      51.365  25.981  26.441  1.00  0.00     0.198 A 
ATOM     75  C   UNL A   1      50.728  26.695  24.240  1.00  0.00     0.198 A 
ATOM     76  F   UNL A   1      48.539  27.463  23.840  1.00  0.00    -0.203 F 
ATOM     77  F   UNL A   1      52.296  25.533  27.292  1.00  0.00    -0.200 F 
ATOM     78  C   UNL A   1      51.690  26.205  25.111  1.00  0.00     0.200 A 
ATOM     79  F   UNL A   1      51.034  26.898  22.951  1.00  0.00    -0.200 F 
ATOM     80  F   UNL A   1      52.930  25.954  24.672  1.00  0.00    -0.200 F 
ENDBRANCH  46  70
BRANCH  58  81
ATOM     81  C   UNL A   1      46.033  32.461  28.620  1.00  0.00     0.064 A 
ATOM     82  C   UNL A   1      45.957  33.497  27.679  1.00  0.00     0.173 A 
ATOM     83  C   UNL A   1      46.560  32.757  29.886  1.00  0.00     0.173 A 
ATOM     84  F   UNL A   1      45.473  33.259  26.451  1.00  0.00    -0.203 F 
ATOM     85  C   UNL A   1      46.413  34.775  27.987  1.00  0.00     0.198 A 
ATOM     86  C   UNL A   1      46.986  34.044  30.201  1.00  0.00     0.198 A 
ATOM     87  F   UNL A   1      46.647  31.802  30.825  1.00  0.00    -0.203 F 
ATOM     88  F   UNL A   1      46.373  35.740  27.057  1.00  0.00    -0.200 F 
ATOM     89  C   UNL A   1      46.919  35.050  29.249  1.00  0.00     0.200 A 
ATOM     90  F   UNL A   1      47.461  34.311  31.425  1.00  0.00    -0.200 F 
ATOM     91  F   UNL A   1      47.348  36.285  29.546  1.00  0.00    -0.200 F 
ENDBRANCH  58  81
ENDBRANCH  32  33
ENDBRANCH  24  27
ENDBRANCH  22  23
ENDBRANCH  21  22
ENDBRANCH   1  21
TORSDOF 14
ENDMDL
MODEL 3
REMARK VINA RESULT:     -11.4      2.090      3.668
REMARK SMILES C[C@@H]([N@@H+](C)[C@@H]1COC[C@@H]1C(=O)NCCCCNC(=O)c1ccc(-c2c3nc(c(-c4c(F)c(F)c(F)c(F)c4F)c4ccc([nH]4)c(-c4c(F)c(F)c(F)c(F)c4F)c4nc(c(-c5c(F)c(F)c(F)c(F)c5F)c5ccc2[nH]5)C=C4)C=C3)cc1)C1(C)CC1
REMARK SMILES IDX 14 1 13 2 12 3 10 4 11 5 9 7 5 8 6 9 7 10 8 11 3 12 4 13
REMARK SMILES IDX 2 15 1 16 83 17 84 18 85 19 86 20 15 21 16 22 17 23 18 24
REMARK SMILES IDX 19 26 20 27 21 28 82 29 22 30 81 31 23 32 24 33 25 34 75 35
REMARK SMILES IDX 26 36 80 37 74 38 76 39 27 40 79 41 73 42 72 43 28 45 60 46
REMARK SMILES IDX 40 47 59 48 41 49 44 50 58 51 77 52 42 53 43 54 57 56 78 57
REMARK SMILES IDX 45 58 29 59 30 60 38 61 31 62 32 63 36 64 39 65 33 66 34 67
REMARK SMILES IDX 37 68 35 69 61 70 62 71 70 72 63 73 64 74 68 75 71 76 65 77
REMARK SMILES IDX 66 78 69 79 67 80 46 81 47 82 55 83 48 84 49 85 53 86 56 87
REMARK SMILES IDX 50 88 51 89 54 90 52 91
REMARK H PARENT 12 6 3 14 17 25 76 44 44 55
REMARK Flexibility Score: inf
ROOT
ATOM      1  C   UNL A   1      32.745  27.789  23.207  1.00  0.00     0.023 C 
ENDROOT
BRANCH   1   2
ATOM      2  C   UNL A   1      33.237  26.355  23.068  1.00  0.00     0.116 C 
BRANCH   2   3
ATOM      3  N   UNL A   1      32.129  25.435  22.896  1.00  0.00    -0.356 N 
ATOM      4  C   UNL A   1      31.589  24.541  23.776  1.00  0.00     0.231 C 
ATOM      5  O   UNL A   1      30.725  23.776  23.341  1.00  0.00    -0.274 OA
ATOM      6  H   UNL A   1      31.701  25.458  22.010  1.00  0.00     0.163 HD
BRANCH   4   7
ATOM      7  C   UNL A   1      32.007  24.554  25.241  1.00  0.00     0.164 C 
ATOM      8  C   UNL A   1      32.209  23.160  25.849  1.00  0.00     0.225 C 
ATOM      9  C   UNL A   1      30.769  22.832  26.287  1.00  0.00     0.226 C 
ATOM     10  O   UNL A   1      30.257  24.059  26.825  1.00  0.00    -0.374 OA
ATOM     11  C   UNL A   1      30.845  25.125  26.064  1.00  0.00     0.180 C 
BRANCH   8  12
ATOM     12  N   UNL A   1      33.005  22.207  25.022  1.00  0.00    -0.330 N 
ATOM     13  C   UNL A   1      32.229  20.972  24.821  1.00  0.00     0.333 C 
ATOM     14  H   UNL A   1      33.171  22.686  24.136  1.00  0.00     0.348 HD
BRANCH  12  15
ATOM     15  C   UNL A   1      34.384  21.898  25.524  1.00  0.00     0.186 C 
ATOM     16  C   UNL A   1      34.522  21.864  27.071  1.00  0.00     0.076 C 
BRANCH  15  17
ATOM     17  C   UNL A   1      35.517  22.838  24.924  1.00  0.00     0.019 C 
ATOM     18  C   UNL A   1      36.211  23.842  25.831  1.00  0.00     0.018 C 
ATOM     19  C   UNL A   1      36.381  22.390  23.735  1.00  0.00     0.013 C 
ATOM     20  C   UNL A   1      35.250  23.335  23.507  1.00  0.00     0.013 C 
ENDBRANCH  15  17
ENDBRANCH  12  15
ENDBRANCH   8  12
ENDBRANCH   4   7
ENDBRANCH   2   3
ENDBRANCH   1   2
BRANCH   1  21
ATOM     21  C   UNL A   1      32.324  28.202  24.612  1.00  0.00     0.023 C 
BRANCH  21  22
ATOM     22  C   UNL A   1      33.324  29.101  25.313  1.00  0.00     0.116 C 
BRANCH  22  23
ATOM     23  N   UNL A   1      32.713  30.311  25.849  1.00  0.00    -0.352 N 
ATOM     24  C   UNL A   1      33.144  31.104  26.883  1.00  0.00     0.251 C 
ATOM     25  H   UNL A   1      31.880  30.599  25.410  1.00  0.00     0.163 HD
ATOM     26  O   UNL A   1      32.441  32.016  27.305  1.00  0.00    -0.269 OA
BRANCH  24  27
ATOM     27  C   UNL A   1      34.451  30.822  27.510  1.00  0.00     0.039 A 
ATOM     28  C   UNL A   1      35.374  31.859  27.655  1.00  0.00     0.014 A 
ATOM     29  C   UNL A   1      34.740  29.543  27.995  1.00  0.00     0.014 A 
ATOM     30  C   UNL A   1      36.562  31.629  28.349  1.00  0.00     0.010 A 
ATOM     31  C   UNL A   1      35.874  29.343  28.767  1.00  0.00     0.010 A 
ATOM     32  C   UNL A   1      36.802  30.381  28.943  1.00  0.00    -0.014 A 
BRANCH  32  33
ATOM     33  C   UNL A   1      38.027  30.114  29.735  1.00  0.00     0.031 A 
ATOM     34  C   UNL A   1      39.071  29.179  29.190  1.00  0.00     0.074 A 
ATOM     35  C   UNL A   1      38.153  30.633  30.971  1.00  0.00     0.049 A 
ATOM     36  N   UNL A   1      40.146  28.708  29.768  1.00  0.00    -0.248 NA
ATOM     37  C   UNL A   1      38.854  28.676  27.824  1.00  0.00     0.031 C 
ATOM     38  C   UNL A   1      37.181  31.510  31.626  1.00  0.00     0.029 A 
ATOM     39  N   UNL A   1      39.146  30.482  31.906  1.00  0.00    -0.354 N 
ATOM     40  C   UNL A   1      40.715  27.836  28.848  1.00  0.00     0.074 A 
ATOM     41  C   UNL A   1      39.838  27.799  27.699  1.00  0.00     0.031 C 
ATOM     42  C   UNL A   1      37.636  31.835  32.847  1.00  0.00     0.029 A 
ATOM     43  C   UNL A   1      38.907  31.157  33.077  1.00  0.00     0.049 A 
ATOM     44  H   UNL A   1      39.954  29.940  31.751  1.00  0.00     0.167 HD
ATOM     45  C   UNL A   1      41.877  27.151  28.944  1.00  0.00     0.037 A 
ATOM     46  C   UNL A   1      39.629  31.212  34.212  1.00  0.00     0.037 A 
ATOM     47  C   UNL A   1      42.762  27.224  30.076  1.00  0.00     0.049 A 
ATOM     48  C   UNL A   1      40.926  30.450  34.289  1.00  0.00     0.074 A 
ATOM     49  C   UNL A   1      43.995  26.623  30.249  1.00  0.00     0.029 A 
ATOM     50  N   UNL A   1      42.505  27.954  31.229  1.00  0.00    -0.354 N 
ATOM     51  N   UNL A   1      41.487  29.679  33.390  1.00  0.00    -0.248 NA
ATOM     52  C   UNL A   1      41.691  30.572  35.537  1.00  0.00     0.031 C 
ATOM     53  C   UNL A   1      44.465  26.953  31.525  1.00  0.00     0.029 A 
ATOM     54  C   UNL A   1      43.550  27.803  32.125  1.00  0.00     0.049 A 
ATOM     55  H   UNL A   1      41.700  28.497  31.387  1.00  0.00     0.167 HD
ATOM     56  C   UNL A   1      42.683  29.251  33.946  1.00  0.00     0.074 A 
ATOM     57  C   UNL A   1      42.772  29.856  35.259  1.00  0.00     0.031 C 
ATOM     58  C   UNL A   1      43.625  28.430  33.420  1.00  0.00     0.037 A 
BRANCH  45  59
ATOM     59  C   UNL A   1      42.259  26.267  27.793  1.00  0.00     0.064 A 
ATOM     60  C   UNL A   1      41.694  24.994  27.620  1.00  0.00     0.173 A 
ATOM     61  C   UNL A   1      43.185  26.707  26.834  1.00  0.00     0.173 A 
ATOM     62  F   UNL A   1      40.814  24.520  28.516  1.00  0.00    -0.203 F 
ATOM     63  C   UNL A   1      42.065  24.183  26.551  1.00  0.00     0.198 A 
ATOM     64  C   UNL A   1      43.529  25.906  25.748  1.00  0.00     0.198 A 
ATOM     65  F   UNL A   1      43.754  27.917  26.947  1.00  0.00    -0.203 F 
ATOM     66  F   UNL A   1      41.552  22.949  26.441  1.00  0.00    -0.200 F 
ATOM     67  C   UNL A   1      42.975  24.641  25.613  1.00  0.00     0.200 A 
ATOM     68  F   UNL A   1      44.399  26.355  24.834  1.00  0.00    -0.200 F 
ATOM     69  F   UNL A   1      43.326  23.861  24.582  1.00  0.00    -0.200 F 
ENDBRANCH  45  59
BRANCH  46  70
ATOM     70  C   UNL A   1      39.161  32.041  35.353  1.00  0.00     0.064 A 
ATOM     71  C   UNL A   1      39.462  33.408  35.418  1.00  0.00     0.173 A 
ATOM     72  C   UNL A   1      38.405  31.490  36.398  1.00  0.00     0.173 A 
ATOM     73  F   UNL A   1      40.198  33.978  34.452  1.00  0.00    -0.203 F 
ATOM     74  C   UNL A   1      39.045  34.189  36.494  1.00  0.00     0.198 A 
ATOM     75  C   UNL A   1      37.964  32.277  37.460  1.00  0.00     0.198 A 
ATOM     76  F   UNL A   1      38.084  30.188  36.380  1.00  0.00    -0.203 F 
ATOM     77  F   UNL A   1      39.385  35.483  36.553  1.00  0.00    -0.200 F 
ATOM     78  C   UNL A   1      38.291  33.624  37.512  1.00  0.00     0.200 A 
ATOM     79  F   UNL A   1      37.222  31.730  38.434  1.00  0.00    -0.200 F 
ATOM     80  F   UNL A   1      37.886  34.374  38.544  1.00  0.00    -0.200 F 
ENDBRANCH  46  70
BRANCH  58  81
ATOM     81  C   UNL A   1      44.855  28.178  34.241  1.00  0.00     0.064 A 
ATOM     82  C   UNL A   1      45.970  29.025  34.179  1.00  0.00     0.173 A 
ATOM     83  C   UNL A   1      44.895  27.101  35.140  1.00  0.00     0.173 A 
ATOM     84  F   UNL A   1      45.985  30.060  33.325  1.00  0.00    -0.203 F 
ATOM     85  C   UNL A   1      47.091  28.790  34.970  1.00  0.00     0.198 A 
ATOM     86  C   UNL A   1      46.004  26.887  35.952  1.00  0.00     0.198 A 
ATOM     87  F   UNL A   1      43.850  26.266  35.242  1.00  0.00    -0.203 F 
ATOM     88  F   UNL A   1      48.164  29.586  34.863  1.00  0.00    -0.200 F 
ATOM     89  C   UNL A   1      47.103  27.726  35.862  1.00  0.00     0.200 A 
ATOM     90  F   UNL A   1      46.009  25.868  36.822  1.00  0.00    -0.200 F 
ATOM     91  F   UNL A   1      48.180  27.508  36.630  1.00  0.00    -0.200 F 
ENDBRANCH  58  81
ENDBRANCH  32  33
ENDBRANCH  24  27
ENDBRANCH  22  23
ENDBRANCH  21  22
ENDBRANCH   1  21
TORSDOF 14
ENDMDL
