MODEL 1
REMARK VINA RESULT:     -10.8      0.000      0.000
REMARK SMILES NS(=O)(=O)c1ccc(-n2nc(C(=O)NCCCCCCCCCCC(=O)NCCCCNC(=O)c3ccc(-c4c5nc(c(-c6c(F)c(F)c(F)c(F)c6F)c6ccc([nH]6)c(-c6c(F)c(F)c(F)c(F)c6F)c6nc(c(-c7c(F)c(F)c(F)c(F)c7F)c7ccc4[nH]7)C=C6)C=C5)cc3)cc2-c2ccccc2)cc1
REMARK SMILES IDX 21 1 20 2 19 3 18 4 17 5 16 6 15 7 14 8 12 9 13 10 11 12
REMARK SMILES IDX 9 13 10 14 99 15 98 16 8 17 5 18 6 19 107 20 7 21 106 22
REMARK SMILES IDX 2 23 3 24 4 25 1 26 100 29 101 30 105 31 102 32 104 33
REMARK SMILES IDX 103 34 22 35 23 36 24 37 25 38 26 39 27 40 28 42 29 43 30 44
REMARK SMILES IDX 31 45 32 46 33 47 34 49 35 50 36 51 97 52 37 53 96 54 38 55
REMARK SMILES IDX 39 56 40 57 90 58 41 59 95 60 89 61 91 62 42 63 94 64 88 65
REMARK SMILES IDX 87 66 43 68 75 69 55 70 74 71 56 72 59 73 73 74 92 75 57 76
REMARK SMILES IDX 58 77 72 79 93 80 60 81 44 82 45 83 53 84 46 85 47 86 51 87
REMARK SMILES IDX 54 88 48 89 49 90 52 91 50 92 76 93 77 94 85 95 78 96 79 97
REMARK SMILES IDX 83 98 86 99 80 100 81 101 84 102 82 103 61 104 62 105 70 106
REMARK SMILES IDX 63 107 64 108 68 109 71 110 65 111 66 112 69 113 67 114
REMARK H PARENT 14 11 1 27 1 28 27 41 32 48 91 67 59 78
REMARK Flexibility Score: inf
ROOT
ATOM      1  C   UNL A   1      32.693  25.563  26.534  1.00  0.00     0.000 C 
ENDROOT
BRANCH   1   2
ATOM      2  C   UNL A   1      31.221  25.204  26.492  1.00  0.00     0.000 C 
BRANCH   2   3
ATOM      3  C   UNL A   1      30.696  25.173  25.057  1.00  0.00     0.000 C 
BRANCH   3   4
ATOM      4  C   UNL A   1      29.661  26.276  24.776  1.00  0.00     0.000 C 
BRANCH   4   5
ATOM      5  C   UNL A   1      29.387  26.467  23.278  1.00  0.00     0.002 C 
BRANCH   5   6
ATOM      6  C   UNL A   1      30.158  27.654  22.694  1.00  0.00     0.021 C 
BRANCH   6   7
ATOM      7  C   UNL A   1      31.653  27.355  22.667  1.00  0.00     0.116 C 
BRANCH   7   8
ATOM      8  N   UNL A   1      32.020  26.808  21.393  1.00  0.00    -0.351 N 
ATOM      9  C   UNL A   1      32.672  25.655  21.049  1.00  0.00     0.271 C 
ATOM     10  O   UNL A   1      32.898  25.508  19.846  1.00  0.00    -0.267 OA
ATOM     11  H   UNL A   1      31.753  27.364  20.625  1.00  0.00     0.163 HD
BRANCH   9  12
ATOM     12  C   UNL A   1      33.021  24.636  22.060  1.00  0.00     0.151 A 
ATOM     13  N   UNL A   1      34.283  23.661  23.494  1.00  0.00    -0.232 N 
ATOM     14  N   UNL A   1      34.085  24.833  22.861  1.00  0.00    -0.162 NA
ATOM     15  C   UNL A   1      33.287  22.746  23.236  1.00  0.00     0.075 A 
ATOM     16  C   UNL A   1      32.416  23.404  22.402  1.00  0.00     0.065 A 
BRANCH  13  17
ATOM     17  C   UNL A   1      35.378  23.493  24.358  1.00  0.00     0.065 A 
ATOM     18  C   UNL A   1      37.652  23.447  25.913  1.00  0.00     0.082 A 
ATOM     19  C   UNL A   1      36.498  24.061  26.407  1.00  0.00     0.024 A 
ATOM     20  C   UNL A   1      37.662  22.821  24.659  1.00  0.00     0.024 A 
ATOM     21  C   UNL A   1      35.357  24.100  25.618  1.00  0.00     0.030 A 
ATOM     22  C   UNL A   1      36.504  22.811  23.887  1.00  0.00     0.030 A 
BRANCH  18  23
ATOM     23  S   UNL A   1      39.167  23.544  26.810  1.00  0.00     0.238 S 
ATOM     24  O   UNL A   1      39.760  22.238  26.862  1.00  0.00    -0.207 OA
ATOM     25  O   UNL A   1      38.944  24.363  27.989  1.00  0.00    -0.207 OA
BRANCH  23  26
ATOM     26  N   UNL A   1      40.173  24.445  25.807  1.00  0.00    -0.225 NA
ATOM     27  H   UNL A   1      39.613  24.897  25.083  1.00  0.00     0.137 HD
ATOM     28  H   UNL A   1      40.859  23.829  25.372  1.00  0.00     0.137 HD
ENDBRANCH  23  26
ENDBRANCH  18  23
ENDBRANCH  13  17
BRANCH  15  29
ATOM     29  C   UNL A   1      33.095  21.443  23.853  1.00  0.00     0.000 A 
ATOM     30  C   UNL A   1      33.331  21.267  25.220  1.00  0.00     0.010 A 
ATOM     31  C   UNL A   1      32.602  20.375  23.092  1.00  0.00     0.010 A 
ATOM     32  C   UNL A   1      33.094  20.030  25.817  1.00  0.00     0.001 A 
ATOM     33  C   UNL A   1      32.368  19.138  23.691  1.00  0.00     0.001 A 
ATOM     34  C   UNL A   1      32.616  18.966  25.053  1.00  0.00     0.000 A 
ENDBRANCH  15  29
ENDBRANCH   9  12
ENDBRANCH   7   8
ENDBRANCH   6   7
ENDBRANCH   5   6
ENDBRANCH   4   5
ENDBRANCH   3   4
ENDBRANCH   2   3
ENDBRANCH   1   2
BRANCH   1  35
ATOM     35  C   UNL A   1      32.935  26.997  26.060  1.00  0.00     0.001 C 
BRANCH  35  36
ATOM     36  C   UNL A   1      32.067  28.036  26.739  1.00  0.00     0.010 C 
BRANCH  36  37
ATOM     37  C   UNL A   1      31.885  29.330  25.953  1.00  0.00     0.100 C 
BRANCH  37  38
ATOM     38  C   UNL A   1      32.267  30.611  26.676  1.00  0.00     0.219 C 
ATOM     39  O   UNL A   1      31.447  31.529  26.767  1.00  0.00    -0.275 OA
ATOM     40  N   UNL A   1      33.471  30.802  27.286  1.00  0.00    -0.356 N 
ATOM     41  H   UNL A   1      33.559  31.681  27.720  1.00  0.00     0.163 HD
BRANCH  40  42
ATOM     42  C   UNL A   1      34.651  29.964  27.424  1.00  0.00     0.116 C 
BRANCH  42  43
ATOM     43  C   UNL A   1      35.927  30.781  27.729  1.00  0.00     0.023 C 
BRANCH  43  44
ATOM     44  C   UNL A   1      35.765  32.281  27.975  1.00  0.00     0.023 C 
BRANCH  44  45
ATOM     45  C   UNL A   1      36.705  32.840  29.022  1.00  0.00     0.116 C 
BRANCH  45  46
ATOM     46  N   UNL A   1      36.258  32.647  30.407  1.00  0.00    -0.352 N 
ATOM     47  C   UNL A   1      36.679  31.644  31.277  1.00  0.00     0.251 C 
ATOM     48  H   UNL A   1      35.596  33.288  30.754  1.00  0.00     0.163 HD
ATOM     49  O   UNL A   1      36.006  31.274  32.228  1.00  0.00    -0.269 OA
BRANCH  47  50
ATOM     50  C   UNL A   1      38.037  31.113  31.067  1.00  0.00     0.039 A 
ATOM     51  C   UNL A   1      39.229  31.737  31.451  1.00  0.00     0.014 A 
ATOM     52  C   UNL A   1      38.052  29.840  30.535  1.00  0.00     0.014 A 
ATOM     53  C   UNL A   1      40.422  31.018  31.296  1.00  0.00     0.010 A 
ATOM     54  C   UNL A   1      39.101  29.080  30.918  1.00  0.00     0.010 A 
ATOM     55  C   UNL A   1      40.340  29.661  30.972  1.00  0.00    -0.014 A 
BRANCH  55  56
ATOM     56  C   UNL A   1      41.423  28.691  30.984  1.00  0.00     0.031 A 
ATOM     57  C   UNL A   1      41.784  28.311  32.370  1.00  0.00     0.074 A 
ATOM     58  C   UNL A   1      41.842  28.063  29.851  1.00  0.00     0.049 A 
ATOM     59  N   UNL A   1      42.790  28.762  33.039  1.00  0.00    -0.248 NA
ATOM     60  C   UNL A   1      40.805  27.590  33.206  1.00  0.00     0.031 C 
ATOM     61  C   UNL A   1      41.345  28.195  28.470  1.00  0.00     0.029 A 
ATOM     62  N   UNL A   1      42.831  27.126  29.700  1.00  0.00    -0.354 N 
ATOM     63  C   UNL A   1      42.728  28.132  34.274  1.00  0.00     0.074 A 
ATOM     64  C   UNL A   1      41.377  27.668  34.411  1.00  0.00     0.031 C 
ATOM     65  C   UNL A   1      41.877  27.229  27.678  1.00  0.00     0.029 A 
ATOM     66  C   UNL A   1      42.870  26.500  28.438  1.00  0.00     0.049 A 
ATOM     67  H   UNL A   1      43.467  26.907  30.419  1.00  0.00     0.167 HD
ATOM     68  C   UNL A   1      43.883  27.744  34.883  1.00  0.00     0.037 A 
ATOM     69  C   UNL A   1      43.705  25.484  28.067  1.00  0.00     0.037 A 
ATOM     70  C   UNL A   1      45.007  28.410  34.262  1.00  0.00     0.049 A 
ATOM     71  C   UNL A   1      44.855  25.527  29.014  1.00  0.00     0.074 A 
ATOM     72  C   UNL A   1      45.406  29.724  34.119  1.00  0.00     0.029 A 
ATOM     73  N   UNL A   1      45.649  27.708  33.270  1.00  0.00    -0.354 N 
ATOM     74  N   UNL A   1      45.681  26.537  29.068  1.00  0.00    -0.248 NA
ATOM     75  C   UNL A   1      44.703  24.758  30.239  1.00  0.00     0.031 C 
ATOM     76  C   UNL A   1      45.906  29.819  32.785  1.00  0.00     0.029 A 
ATOM     77  C   UNL A   1      45.911  28.544  32.218  1.00  0.00     0.049 A 
ATOM     78  H   UNL A   1      45.883  26.752  33.310  1.00  0.00     0.167 HD
ATOM     79  C   UNL A   1      45.804  26.811  30.422  1.00  0.00     0.074 A 
ATOM     80  C   UNL A   1      45.179  25.666  31.095  1.00  0.00     0.031 C 
ATOM     81  C   UNL A   1      46.087  28.074  30.861  1.00  0.00     0.037 A 
BRANCH  68  82
ATOM     82  C   UNL A   1      44.056  26.454  35.656  1.00  0.00     0.064 A 
ATOM     83  C   UNL A   1      44.688  26.510  36.916  1.00  0.00     0.173 A 
ATOM     84  C   UNL A   1      43.924  25.158  35.109  1.00  0.00     0.173 A 
ATOM     85  F   UNL A   1      44.880  27.687  37.530  1.00  0.00    -0.203 F 
ATOM     86  C   UNL A   1      45.225  25.374  37.529  1.00  0.00     0.198 A 
ATOM     87  C   UNL A   1      44.419  24.020  35.747  1.00  0.00     0.198 A 
ATOM     88  F   UNL A   1      43.414  24.933  33.895  1.00  0.00    -0.203 F 
ATOM     89  F   UNL A   1      45.930  25.500  38.661  1.00  0.00    -0.200 F 
ATOM     90  C   UNL A   1      45.097  24.131  36.939  1.00  0.00     0.200 A 
ATOM     91  F   UNL A   1      44.302  22.827  35.145  1.00  0.00    -0.200 F 
ATOM     92  F   UNL A   1      45.663  23.050  37.492  1.00  0.00    -0.200 F 
ENDBRANCH  68  82
BRANCH  69  93
ATOM     93  C   UNL A   1      43.404  24.260  27.265  1.00  0.00     0.064 A 
ATOM     94  C   UNL A   1      43.934  24.058  25.972  1.00  0.00     0.173 A 
ATOM     95  C   UNL A   1      42.841  23.125  27.877  1.00  0.00     0.173 A 
ATOM     96  F   UNL A   1      44.547  25.063  25.329  1.00  0.00    -0.203 F 
ATOM     97  C   UNL A   1      43.912  22.800  25.346  1.00  0.00     0.198 A 
ATOM     98  C   UNL A   1      42.825  21.871  27.256  1.00  0.00     0.198 A 
ATOM     99  F   UNL A   1      42.384  23.189  29.135  1.00  0.00    -0.203 F 
ATOM    100  F   UNL A   1      44.470  22.637  24.138  1.00  0.00    -0.200 F 
ATOM    101  C   UNL A   1      43.367  21.705  25.995  1.00  0.00     0.200 A 
ATOM    102  F   UNL A   1      42.336  20.810  27.916  1.00  0.00    -0.200 F 
ATOM    103  F   UNL A   1      43.400  20.490  25.430  1.00  0.00    -0.200 F 
ENDBRANCH  69  93
BRANCH  81 104
ATOM    104  C   UNL A   1      46.473  29.110  29.835  1.00  0.00     0.064 A 
ATOM    105  C   UNL A   1      47.726  29.182  29.198  1.00  0.00     0.173 A 
ATOM    106  C   UNL A   1      45.468  29.958  29.358  1.00  0.00     0.173 A 
ATOM    107  F   UNL A   1      48.717  28.348  29.532  1.00  0.00    -0.203 F 
ATOM    108  C   UNL A   1      47.962  30.077  28.151  1.00  0.00     0.198 A 
ATOM    109  C   UNL A   1      45.694  30.827  28.295  1.00  0.00     0.198 A 
ATOM    110  F   UNL A   1      44.237  29.896  29.889  1.00  0.00    -0.203 F 
ATOM    111  F   UNL A   1      49.165  30.120  27.557  1.00  0.00    -0.200 F 
ATOM    112  C   UNL A   1      46.942  30.894  27.696  1.00  0.00     0.200 A 
ATOM    113  F   UNL A   1      44.687  31.576  27.825  1.00  0.00    -0.200 F 
ATOM    114  F   UNL A   1      47.150  31.724  26.665  1.00  0.00    -0.200 F 
ENDBRANCH  81 104
ENDBRANCH  55  56
ENDBRANCH  47  50
ENDBRANCH  45  46
ENDBRANCH  44  45
ENDBRANCH  43  44
ENDBRANCH  42  43
ENDBRANCH  40  42
ENDBRANCH  37  38
ENDBRANCH  36  37
ENDBRANCH  35  36
ENDBRANCH   1  35
TORSDOF 26
ENDMDL
MODEL 2
REMARK VINA RESULT:     -10.4      2.148      3.422
REMARK SMILES NS(=O)(=O)c1ccc(-n2nc(C(=O)NCCCCCCCCCCC(=O)NCCCCNC(=O)c3ccc(-c4c5nc(c(-c6c(F)c(F)c(F)c(F)c6F)c6ccc([nH]6)c(-c6c(F)c(F)c(F)c(F)c6F)c6nc(c(-c7c(F)c(F)c(F)c(F)c7F)c7ccc4[nH]7)C=C6)C=C5)cc3)cc2-c2ccccc2)cc1
REMARK SMILES IDX 21 1 20 2 19 3 18 4 17 5 16 6 15 7 14 8 12 9 13 10 11 12
REMARK SMILES IDX 9 13 10 14 99 15 98 16 8 17 5 18 6 19 107 20 7 21 106 22
REMARK SMILES IDX 2 23 3 24 4 25 1 26 100 29 101 30 105 31 102 32 104 33
REMARK SMILES IDX 103 34 22 35 23 36 24 37 25 38 26 39 27 40 28 42 29 43 30 44
REMARK SMILES IDX 31 45 32 46 33 47 34 49 35 50 36 51 97 52 37 53 96 54 38 55
REMARK SMILES IDX 39 56 40 57 90 58 41 59 95 60 89 61 91 62 42 63 94 64 88 65
REMARK SMILES IDX 87 66 43 68 75 69 55 70 74 71 56 72 59 73 73 74 92 75 57 76
REMARK SMILES IDX 58 77 72 79 93 80 60 81 44 82 45 83 53 84 46 85 47 86 51 87
REMARK SMILES IDX 54 88 48 89 49 90 52 91 50 92 76 93 77 94 85 95 78 96 79 97
REMARK SMILES IDX 83 98 86 99 80 100 81 101 84 102 82 103 61 104 62 105 70 106
REMARK SMILES IDX 63 107 64 108 68 109 71 110 65 111 66 112 69 113 67 114
REMARK H PARENT 14 11 1 27 1 28 27 41 32 48 91 67 59 78
REMARK Flexibility Score: inf
ROOT
ATOM      1  C   UNL A   1      33.129  24.738  26.350  1.00  0.00     0.000 C 
ENDROOT
BRANCH   1   2
ATOM      2  C   UNL A   1      31.674  24.564  26.735  1.00  0.00     0.000 C 
BRANCH   2   3
ATOM      3  C   UNL A   1      30.760  24.649  25.513  1.00  0.00     0.000 C 
BRANCH   3   4
ATOM      4  C   UNL A   1      29.882  25.912  25.510  1.00  0.00     0.000 C 
BRANCH   4   5
ATOM      5  C   UNL A   1      29.353  26.265  24.113  1.00  0.00     0.002 C 
BRANCH   5   6
ATOM      6  C   UNL A   1      30.086  27.462  23.501  1.00  0.00     0.021 C 
BRANCH   6   7
ATOM      7  C   UNL A   1      31.523  27.084  23.153  1.00  0.00     0.116 C 
BRANCH   7   8
ATOM      8  N   UNL A   1      31.602  26.680  21.779  1.00  0.00    -0.351 N 
ATOM      9  C   UNL A   1      32.310  25.685  21.160  1.00  0.00     0.271 C 
ATOM     10  O   UNL A   1      32.211  25.645  19.931  1.00  0.00    -0.267 OA
ATOM     11  H   UNL A   1      31.045  27.217  21.169  1.00  0.00     0.163 HD
BRANCH   9  12
ATOM     12  C   UNL A   1      33.088  24.697  21.934  1.00  0.00     0.151 A 
ATOM     13  N   UNL A   1      33.373  22.931  23.116  1.00  0.00    -0.232 N 
ATOM     14  N   UNL A   1      32.538  23.503  22.228  1.00  0.00    -0.162 NA
ATOM     15  C   UNL A   1      34.528  23.657  23.301  1.00  0.00     0.075 A 
ATOM     16  C   UNL A   1      34.399  24.737  22.462  1.00  0.00     0.065 A 
BRANCH  13  17
ATOM     17  C   UNL A   1      33.054  21.693  23.699  1.00  0.00     0.065 A 
ATOM     18  C   UNL A   1      32.757  19.186  24.804  1.00  0.00     0.082 A 
ATOM     19  C   UNL A   1      32.995  20.279  25.642  1.00  0.00     0.024 A 
ATOM     20  C   UNL A   1      32.627  19.348  23.419  1.00  0.00     0.024 A 
ATOM     21  C   UNL A   1      33.162  21.539  25.085  1.00  0.00     0.030 A 
ATOM     22  C   UNL A   1      32.740  20.618  22.862  1.00  0.00     0.030 A 
BRANCH  18  23
ATOM     23  S   UNL A   1      32.727  17.550  25.461  1.00  0.00     0.238 S 
ATOM     24  O   UNL A   1      32.297  17.608  26.829  1.00  0.00    -0.207 OA
ATOM     25  O   UNL A   1      33.939  16.869  25.037  1.00  0.00    -0.207 OA
BRANCH  23  26
ATOM     26  N   UNL A   1      31.466  16.805  24.633  1.00  0.00    -0.225 NA
ATOM     27  H   UNL A   1      31.734  16.669  23.658  1.00  0.00     0.137 HD
ATOM     28  H   UNL A   1      30.635  17.395  24.679  1.00  0.00     0.137 HD
ENDBRANCH  23  26
ENDBRANCH  18  23
ENDBRANCH  13  17
BRANCH  15  29
ATOM     29  C   UNL A   1      35.705  23.275  24.066  1.00  0.00     0.000 A 
ATOM     30  C   UNL A   1      36.326  22.043  23.840  1.00  0.00     0.010 A 
ATOM     31  C   UNL A   1      36.265  24.176  24.981  1.00  0.00     0.010 A 
ATOM     32  C   UNL A   1      37.484  21.706  24.538  1.00  0.00     0.001 A 
ATOM     33  C   UNL A   1      37.423  23.835  25.679  1.00  0.00     0.001 A 
ATOM     34  C   UNL A   1      38.030  22.599  25.458  1.00  0.00     0.000 A 
ENDBRANCH  15  29
ENDBRANCH   9  12
ENDBRANCH   7   8
ENDBRANCH   6   7
ENDBRANCH   5   6
ENDBRANCH   4   5
ENDBRANCH   3   4
ENDBRANCH   2   3
ENDBRANCH   1   2
BRANCH   1  35
ATOM     35  C   UNL A   1      33.335  25.980  25.482  1.00  0.00     0.001 C 
BRANCH  35  36
ATOM     36  C   UNL A   1      33.875  27.183  26.227  1.00  0.00     0.010 C 
BRANCH  36  37
ATOM     37  C   UNL A   1      33.103  28.478  25.995  1.00  0.00     0.100 C 
BRANCH  37  38
ATOM     38  C   UNL A   1      32.280  28.986  27.167  1.00  0.00     0.219 C 
ATOM     39  O   UNL A   1      31.611  28.191  27.833  1.00  0.00    -0.275 OA
ATOM     40  N   UNL A   1      32.268  30.288  27.571  1.00  0.00    -0.356 N 
ATOM     41  H   UNL A   1      31.692  30.453  28.353  1.00  0.00     0.163 HD
BRANCH  40  42
ATOM     42  C   UNL A   1      32.934  31.481  27.077  1.00  0.00     0.116 C 
BRANCH  42  43
ATOM     43  C   UNL A   1      34.242  31.790  27.841  1.00  0.00     0.023 C 
BRANCH  43  44
ATOM     44  C   UNL A   1      34.718  33.242  27.872  1.00  0.00     0.023 C 
BRANCH  44  45
ATOM     45  C   UNL A   1      36.121  33.421  28.411  1.00  0.00     0.116 C 
BRANCH  45  46
ATOM     46  N   UNL A   1      36.206  34.243  29.625  1.00  0.00    -0.352 N 
ATOM     47  C   UNL A   1      36.474  33.786  30.913  1.00  0.00     0.251 C 
ATOM     48  H   UNL A   1      36.059  35.211  29.518  1.00  0.00     0.163 HD
ATOM     49  O   UNL A   1      36.134  34.402  31.913  1.00  0.00    -0.269 OA
BRANCH  47  50
ATOM     50  C   UNL A   1      37.295  32.568  31.025  1.00  0.00     0.039 A 
ATOM     51  C   UNL A   1      36.890  31.273  30.684  1.00  0.00     0.014 A 
ATOM     52  C   UNL A   1      38.596  32.816  31.409  1.00  0.00     0.014 A 
ATOM     53  C   UNL A   1      37.852  30.255  30.725  1.00  0.00     0.010 A 
ATOM     54  C   UNL A   1      39.507  31.950  30.916  1.00  0.00     0.010 A 
ATOM     55  C   UNL A   1      39.192  30.617  30.896  1.00  0.00    -0.014 A 
BRANCH  55  56
ATOM     56  C   UNL A   1      40.356  29.759  30.745  1.00  0.00     0.031 A 
ATOM     57  C   UNL A   1      40.985  29.479  32.056  1.00  0.00     0.074 A 
ATOM     58  C   UNL A   1      40.640  29.126  29.574  1.00  0.00     0.049 A 
ATOM     59  N   UNL A   1      42.038  30.056  32.528  1.00  0.00    -0.248 NA
ATOM     60  C   UNL A   1      40.244  28.703  33.070  1.00  0.00     0.031 C 
ATOM     61  C   UNL A   1      39.904  29.147  28.297  1.00  0.00     0.029 A 
ATOM     62  N   UNL A   1      41.680  28.285  29.279  1.00  0.00    -0.354 N 
ATOM     63  C   UNL A   1      42.254  29.478  33.771  1.00  0.00     0.074 A 
ATOM     64  C   UNL A   1      41.001  28.890  34.154  1.00  0.00     0.031 C 
ATOM     65  C   UNL A   1      40.391  28.204  27.450  1.00  0.00     0.029 A 
ATOM     66  C   UNL A   1      41.569  27.610  28.046  1.00  0.00     0.049 A 
ATOM     67  H   UNL A   1      42.448  28.162  29.882  1.00  0.00     0.167 HD
ATOM     68  C   UNL A   1      43.529  29.233  34.181  1.00  0.00     0.037 A 
ATOM     69  C   UNL A   1      42.431  26.665  27.563  1.00  0.00     0.037 A 
ATOM     70  C   UNL A   1      44.456  29.978  33.356  1.00  0.00     0.049 A 
ATOM     71  C   UNL A   1      43.713  26.863  28.294  1.00  0.00     0.074 A 
ATOM     72  C   UNL A   1      44.685  31.317  33.111  1.00  0.00     0.029 A 
ATOM     73  N   UNL A   1      44.989  29.298  32.287  1.00  0.00    -0.354 N 
ATOM     74  N   UNL A   1      44.427  27.951  28.176  1.00  0.00    -0.248 NA
ATOM     75  C   UNL A   1      43.854  26.138  29.547  1.00  0.00     0.031 C 
ATOM     76  C   UNL A   1      44.939  31.401  31.708  1.00  0.00     0.029 A 
ATOM     77  C   UNL A   1      44.980  30.109  31.183  1.00  0.00     0.049 A 
ATOM     78  H   UNL A   1      45.324  28.373  32.311  1.00  0.00     0.167 HD
ATOM     79  C   UNL A   1      44.749  28.295  29.480  1.00  0.00     0.074 A 
ATOM     80  C   UNL A   1      44.370  27.126  30.283  1.00  0.00     0.031 C 
ATOM     81  C   UNL A   1      44.970  29.598  29.829  1.00  0.00     0.037 A 
BRANCH  68  82
ATOM     82  C   UNL A   1      43.966  28.001  34.946  1.00  0.00     0.064 A 
ATOM     83  C   UNL A   1      43.640  26.735  34.417  1.00  0.00     0.173 A 
ATOM     84  C   UNL A   1      44.398  27.996  36.292  1.00  0.00     0.173 A 
ATOM     85  F   UNL A   1      43.207  26.616  33.154  1.00  0.00    -0.203 F 
ATOM     86  C   UNL A   1      43.657  25.577  35.199  1.00  0.00     0.198 A 
ATOM     87  C   UNL A   1      44.459  26.830  37.055  1.00  0.00     0.198 A 
ATOM     88  F   UNL A   1      44.678  29.115  36.967  1.00  0.00    -0.203 F 
ATOM     89  F   UNL A   1      43.214  24.422  34.685  1.00  0.00    -0.200 F 
ATOM     90  C   UNL A   1      44.059  25.627  36.520  1.00  0.00     0.200 A 
ATOM     91  F   UNL A   1      44.832  26.907  38.341  1.00  0.00    -0.200 F 
ATOM     92  F   UNL A   1      44.018  24.531  37.290  1.00  0.00    -0.200 F 
ENDBRANCH  68  82
BRANCH  69  93
ATOM     93  C   UNL A   1      42.126  25.383  26.858  1.00  0.00     0.064 A 
ATOM     94  C   UNL A   1      42.898  24.920  25.772  1.00  0.00     0.173 A 
ATOM     95  C   UNL A   1      41.260  24.438  27.438  1.00  0.00     0.173 A 
ATOM     96  F   UNL A   1      43.798  25.727  25.189  1.00  0.00    -0.203 F 
ATOM     97  C   UNL A   1      42.816  23.595  25.310  1.00  0.00     0.198 A 
ATOM     98  C   UNL A   1      41.183  23.116  26.982  1.00  0.00     0.198 A 
ATOM     99  F   UNL A   1      40.543  24.751  28.526  1.00  0.00    -0.203 F 
ATOM    100  F   UNL A   1      43.603  23.178  24.307  1.00  0.00    -0.200 F 
ATOM    101  C   UNL A   1      41.966  22.692  25.925  1.00  0.00     0.200 A 
ATOM    102  F   UNL A   1      40.390  22.242  27.618  1.00  0.00    -0.200 F 
ATOM    103  F   UNL A   1      41.929  21.410  25.531  1.00  0.00    -0.200 F 
ENDBRANCH  69  93
BRANCH  81 104
ATOM    104  C   UNL A   1      45.065  30.621  28.724  1.00  0.00     0.064 A 
ATOM    105  C   UNL A   1      44.064  31.559  28.409  1.00  0.00     0.173 A 
ATOM    106  C   UNL A   1      46.296  30.761  28.074  1.00  0.00     0.173 A 
ATOM    107  F   UNL A   1      42.888  31.551  29.046  1.00  0.00    -0.203 F 
ATOM    108  C   UNL A   1      44.282  32.570  27.471  1.00  0.00     0.198 A 
ATOM    109  C   UNL A   1      46.523  31.788  27.163  1.00  0.00     0.198 A 
ATOM    110  F   UNL A   1      47.306  29.931  28.375  1.00  0.00    -0.203 F 
ATOM    111  F   UNL A   1      43.312  33.456  27.193  1.00  0.00    -0.200 F 
ATOM    112  C   UNL A   1      45.515  32.688  26.853  1.00  0.00     0.200 A 
ATOM    113  F   UNL A   1      47.736  31.927  26.610  1.00  0.00    -0.200 F 
ATOM    114  F   UNL A   1      45.744  33.682  25.984  1.00  0.00    -0.200 F 
ENDBRANCH  81 104
ENDBRANCH  55  56
ENDBRANCH  47  50
ENDBRANCH  45  46
ENDBRANCH  44  45
ENDBRANCH  43  44
ENDBRANCH  42  43
ENDBRANCH  40  42
ENDBRANCH  37  38
ENDBRANCH  36  37
ENDBRANCH  35  36
ENDBRANCH   1  35
TORSDOF 26
ENDMDL
MODEL 3
REMARK VINA RESULT:     -10.2      4.101      6.174
REMARK SMILES NS(=O)(=O)c1ccc(-n2nc(C(=O)NCCCCCCCCCCC(=O)NCCCCNC(=O)c3ccc(-c4c5nc(c(-c6c(F)c(F)c(F)c(F)c6F)c6ccc([nH]6)c(-c6c(F)c(F)c(F)c(F)c6F)c6nc(c(-c7c(F)c(F)c(F)c(F)c7F)c7ccc4[nH]7)C=C6)C=C5)cc3)cc2-c2ccccc2)cc1
REMARK SMILES IDX 21 1 20 2 19 3 18 4 17 5 16 6 15 7 14 8 12 9 13 10 11 12
REMARK SMILES IDX 9 13 10 14 99 15 98 16 8 17 5 18 6 19 107 20 7 21 106 22
REMARK SMILES IDX 2 23 3 24 4 25 1 26 100 29 101 30 105 31 102 32 104 33
REMARK SMILES IDX 103 34 22 35 23 36 24 37 25 38 26 39 27 40 28 42 29 43 30 44
REMARK SMILES IDX 31 45 32 46 33 47 34 49 35 50 36 51 97 52 37 53 96 54 38 55
REMARK SMILES IDX 39 56 40 57 90 58 41 59 95 60 89 61 91 62 42 63 94 64 88 65
REMARK SMILES IDX 87 66 43 68 75 69 55 70 74 71 56 72 59 73 73 74 92 75 57 76
REMARK SMILES IDX 58 77 72 79 93 80 60 81 44 82 45 83 53 84 46 85 47 86 51 87
REMARK SMILES IDX 54 88 48 89 49 90 52 91 50 92 76 93 77 94 85 95 78 96 79 97
REMARK SMILES IDX 83 98 86 99 80 100 81 101 84 102 82 103 61 104 62 105 70 106
REMARK SMILES IDX 63 107 64 108 68 109 71 110 65 111 66 112 69 113 67 114
REMARK H PARENT 14 11 1 27 1 28 27 41 32 48 91 67 59 78
REMARK Flexibility Score: inf
ROOT
ATOM      1  C   UNL A   1      33.344  25.089  26.445  1.00  0.00     0.000 C 
ENDROOT
BRANCH   1   2
ATOM      2  C   UNL A   1      31.904  24.828  26.837  1.00  0.00     0.000 C 
BRANCH   2   3
ATOM      3  C   UNL A   1      31.006  24.700  25.607  1.00  0.00     0.000 C 
BRANCH   3   4
ATOM      4  C   UNL A   1      30.265  26.006  25.270  1.00  0.00     0.000 C 
BRANCH   4   5
ATOM      5  C   UNL A   1      29.835  26.083  23.798  1.00  0.00     0.002 C 
BRANCH   5   6
ATOM      6  C   UNL A   1      30.334  27.358  23.115  1.00  0.00     0.021 C 
BRANCH   6   7
ATOM      7  C   UNL A   1      31.842  27.287  22.892  1.00  0.00     0.116 C 
BRANCH   7   8
ATOM      8  N   UNL A   1      32.120  26.720  21.604  1.00  0.00    -0.351 N 
ATOM      9  C   UNL A   1      32.761  25.570  21.233  1.00  0.00     0.271 C 
ATOM     10  O   UNL A   1      32.898  25.403  20.018  1.00  0.00    -0.267 OA
ATOM     11  H   UNL A   1      31.788  27.258  20.849  1.00  0.00     0.163 HD
BRANCH   9  12
ATOM     12  C   UNL A   1      33.200  24.575  22.233  1.00  0.00     0.151 A 
ATOM     13  N   UNL A   1      34.624  23.511  23.432  1.00  0.00    -0.232 N 
ATOM     14  N   UNL A   1      34.442  24.657  22.749  1.00  0.00    -0.162 NA
ATOM     15  C   UNL A   1      33.482  22.745  23.496  1.00  0.00     0.075 A 
ATOM     16  C   UNL A   1      32.534  23.475  22.821  1.00  0.00     0.065 A 
BRANCH  13  17
ATOM     17  C   UNL A   1      35.861  23.231  24.038  1.00  0.00     0.065 A 
ATOM     18  C   UNL A   1      38.108  22.515  25.462  1.00  0.00     0.082 A 
ATOM     19  C   UNL A   1      37.685  21.708  24.402  1.00  0.00     0.024 A 
ATOM     20  C   UNL A   1      37.434  23.699  25.788  1.00  0.00     0.024 A 
ATOM     21  C   UNL A   1      36.543  22.060  23.695  1.00  0.00     0.030 A 
ATOM     22  C   UNL A   1      36.320  24.082  25.047  1.00  0.00     0.030 A 
BRANCH  18  23
ATOM     23  S   UNL A   1      39.441  21.999  26.496  1.00  0.00     0.238 S 
ATOM     24  O   UNL A   1      39.397  20.571  26.630  1.00  0.00    -0.207 OA
ATOM     25  O   UNL A   1      39.509  22.903  27.632  1.00  0.00    -0.207 OA
BRANCH  23  26
ATOM     26  N   UNL A   1      40.812  22.314  25.573  1.00  0.00    -0.225 NA
ATOM     27  H   UNL A   1      41.258  23.168  25.909  1.00  0.00     0.137 HD
ATOM     28  H   UNL A   1      40.544  22.431  24.596  1.00  0.00     0.137 HD
ENDBRANCH  23  26
ENDBRANCH  18  23
ENDBRANCH  13  17
BRANCH  15  29
ATOM     29  C   UNL A   1      33.269  21.528  24.265  1.00  0.00     0.000 A 
ATOM     30  C   UNL A   1      32.798  20.370  23.639  1.00  0.00     0.010 A 
ATOM     31  C   UNL A   1      33.606  21.494  25.624  1.00  0.00     0.010 A 
ATOM     32  C   UNL A   1      32.647  19.193  24.370  1.00  0.00     0.001 A 
ATOM     33  C   UNL A   1      33.453  20.315  26.353  1.00  0.00     0.001 A 
ATOM     34  C   UNL A   1      32.971  19.166  25.725  1.00  0.00     0.000 A 
ENDBRANCH  15  29
ENDBRANCH   9  12
ENDBRANCH   7   8
ENDBRANCH   6   7
ENDBRANCH   5   6
ENDBRANCH   4   5
ENDBRANCH   3   4
ENDBRANCH   2   3
ENDBRANCH   1   2
BRANCH   1  35
ATOM     35  C   UNL A   1      33.484  26.394  25.658  1.00  0.00     0.001 C 
BRANCH  35  36
ATOM     36  C   UNL A   1      33.854  27.596  26.500  1.00  0.00     0.010 C 
BRANCH  36  37
ATOM     37  C   UNL A   1      33.700  28.941  25.797  1.00  0.00     0.100 C 
BRANCH  37  38
ATOM     38  C   UNL A   1      32.967  30.022  26.574  1.00  0.00     0.219 C 
ATOM     39  O   UNL A   1      31.757  30.188  26.396  1.00  0.00    -0.275 OA
ATOM     40  N   UNL A   1      33.563  30.811  27.512  1.00  0.00    -0.356 N 
ATOM     41  H   UNL A   1      32.950  31.456  27.933  1.00  0.00     0.163 HD
BRANCH  40  42
ATOM     42  C   UNL A   1      34.925  30.891  28.013  1.00  0.00     0.116 C 
BRANCH  42  43
ATOM     43  C   UNL A   1      35.108  32.013  29.060  1.00  0.00     0.023 C 
BRANCH  43  44
ATOM     44  C   UNL A   1      34.187  33.229  28.963  1.00  0.00     0.023 C 
BRANCH  44  45
ATOM     45  C   UNL A   1      34.512  34.330  29.949  1.00  0.00     0.116 C 
BRANCH  45  46
ATOM     46  N   UNL A   1      33.689  34.321  31.165  1.00  0.00    -0.352 N 
ATOM     47  C   UNL A   1      34.029  33.744  32.387  1.00  0.00     0.251 C 
ATOM     48  H   UNL A   1      32.811  34.765  31.112  1.00  0.00     0.163 HD
ATOM     49  O   UNL A   1      33.190  33.399  33.207  1.00  0.00    -0.269 OA
BRANCH  47  50
ATOM     50  C   UNL A   1      35.465  33.665  32.705  1.00  0.00     0.039 A 
ATOM     51  C   UNL A   1      36.320  34.753  32.911  1.00  0.00     0.014 A 
ATOM     52  C   UNL A   1      35.913  32.375  32.902  1.00  0.00     0.014 A 
ATOM     53  C   UNL A   1      37.626  34.486  33.343  1.00  0.00     0.010 A 
ATOM     54  C   UNL A   1      36.928  32.258  33.786  1.00  0.00     0.010 A 
ATOM     55  C   UNL A   1      37.937  33.183  33.743  1.00  0.00    -0.014 A 
BRANCH  55  56
ATOM     56  C   UNL A   1      39.142  32.741  34.425  1.00  0.00     0.031 A 
ATOM     57  C   UNL A   1      39.308  33.437  35.722  1.00  0.00     0.074 A 
ATOM     58  C   UNL A   1      39.853  31.657  34.007  1.00  0.00     0.049 A 
ATOM     59  N   UNL A   1      40.092  34.435  35.949  1.00  0.00    -0.248 NA
ATOM     60  C   UNL A   1      38.325  33.212  36.800  1.00  0.00     0.031 C 
ATOM     61  C   UNL A   1      39.595  30.751  32.874  1.00  0.00     0.029 A 
ATOM     62  N   UNL A   1      40.990  31.113  34.542  1.00  0.00    -0.354 N 
ATOM     63  C   UNL A   1      39.914  34.751  37.289  1.00  0.00     0.074 A 
ATOM     64  C   UNL A   1      38.653  34.177  37.664  1.00  0.00     0.031 C 
ATOM     65  C   UNL A   1      40.408  29.666  32.937  1.00  0.00     0.029 A 
ATOM     66  C   UNL A   1      41.354  29.857  34.016  1.00  0.00     0.049 A 
ATOM     67  H   UNL A   1      41.515  31.565  35.242  1.00  0.00     0.167 HD
ATOM     68  C   UNL A   1      40.990  35.133  38.033  1.00  0.00     0.037 A 
ATOM     69  C   UNL A   1      42.395  29.077  34.436  1.00  0.00     0.037 A 
ATOM     70  C   UNL A   1      42.084  35.491  37.156  1.00  0.00     0.049 A 
ATOM     71  C   UNL A   1      43.335  29.989  35.145  1.00  0.00     0.074 A 
ATOM     72  C   UNL A   1      42.284  36.454  36.188  1.00  0.00     0.029 A 
ATOM     73  N   UNL A   1      42.997  34.496  36.899  1.00  0.00    -0.354 N 
ATOM     74  N   UNL A   1      43.965  30.958  34.536  1.00  0.00    -0.248 NA
ATOM     75  C   UNL A   1      43.094  30.176  36.567  1.00  0.00     0.031 C 
ATOM     76  C   UNL A   1      42.993  35.788  35.141  1.00  0.00     0.029 A 
ATOM     77  C   UNL A   1      43.304  34.496  35.564  1.00  0.00     0.049 A 
ATOM     78  H   UNL A   1      43.371  33.880  37.569  1.00  0.00     0.167 HD
ATOM     79  C   UNL A   1      43.798  32.054  35.370  1.00  0.00     0.074 A 
ATOM     80  C   UNL A   1      43.256  31.501  36.617  1.00  0.00     0.031 C 
ATOM     81  C   UNL A   1      43.791  33.326  34.867  1.00  0.00     0.037 A 
BRANCH  68  82
ATOM     82  C   UNL A   1      41.229  34.728  39.472  1.00  0.00     0.064 A 
ATOM     83  C   UNL A   1      41.569  35.733  40.401  1.00  0.00     0.173 A 
ATOM     84  C   UNL A   1      41.444  33.404  39.915  1.00  0.00     0.173 A 
ATOM     85  F   UNL A   1      41.418  37.029  40.089  1.00  0.00    -0.203 F 
ATOM     86  C   UNL A   1      42.163  35.437  41.632  1.00  0.00     0.198 A 
ATOM     87  C   UNL A   1      41.993  33.110  41.163  1.00  0.00     0.198 A 
ATOM     88  F   UNL A   1      41.241  32.338  39.135  1.00  0.00    -0.203 F 
ATOM     89  F   UNL A   1      42.587  36.432  42.422  1.00  0.00    -0.200 F 
ATOM     90  C   UNL A   1      42.382  34.125  42.008  1.00  0.00     0.200 A 
ATOM     91  F   UNL A   1      42.216  31.830  41.498  1.00  0.00    -0.200 F 
ATOM     92  F   UNL A   1      43.006  33.838  43.158  1.00  0.00    -0.200 F 
ENDBRANCH  68  82
BRANCH  69  93
ATOM     93  C   UNL A   1      42.442  27.598  34.641  1.00  0.00     0.064 A 
ATOM     94  C   UNL A   1      43.288  26.759  33.882  1.00  0.00     0.173 A 
ATOM     95  C   UNL A   1      41.888  27.019  35.797  1.00  0.00     0.173 A 
ATOM     96  F   UNL A   1      43.913  27.236  32.795  1.00  0.00    -0.203 F 
ATOM     97  C   UNL A   1      43.566  25.437  34.267  1.00  0.00     0.198 A 
ATOM     98  C   UNL A   1      42.170  25.703  36.184  1.00  0.00     0.198 A 
ATOM     99  F   UNL A   1      41.138  27.752  36.631  1.00  0.00    -0.203 F 
ATOM    100  F   UNL A   1      44.414  24.687  33.547  1.00  0.00    -0.200 F 
ATOM    101  C   UNL A   1      43.015  24.915  35.425  1.00  0.00     0.200 A 
ATOM    102  F   UNL A   1      41.667  25.227  37.332  1.00  0.00    -0.200 F 
ATOM    103  F   UNL A   1      43.327  23.676  35.832  1.00  0.00    -0.200 F 
ENDBRANCH  69  93
BRANCH  81 104
ATOM    104  C   UNL A   1      44.182  33.517  33.423  1.00  0.00     0.064 A 
ATOM    105  C   UNL A   1      45.498  33.448  32.930  1.00  0.00     0.173 A 
ATOM    106  C   UNL A   1      43.153  33.605  32.478  1.00  0.00     0.173 A 
ATOM    107  F   UNL A   1      46.535  33.276  33.758  1.00  0.00    -0.203 F 
ATOM    108  C   UNL A   1      45.768  33.489  31.560  1.00  0.00     0.198 A 
ATOM    109  C   UNL A   1      43.421  33.613  31.112  1.00  0.00     0.198 A 
ATOM    110  F   UNL A   1      41.876  33.618  32.885  1.00  0.00    -0.203 F 
ATOM    111  F   UNL A   1      47.033  33.414  31.117  1.00  0.00    -0.200 F 
ATOM    112  C   UNL A   1      44.727  33.564  30.652  1.00  0.00     0.200 A 
ATOM    113  F   UNL A   1      42.404  33.633  30.239  1.00  0.00    -0.200 F 
ATOM    114  F   UNL A   1      44.976  33.561  29.335  1.00  0.00    -0.200 F 
ENDBRANCH  81 104
ENDBRANCH  55  56
ENDBRANCH  47  50
ENDBRANCH  45  46
ENDBRANCH  44  45
ENDBRANCH  43  44
ENDBRANCH  42  43
ENDBRANCH  40  42
ENDBRANCH  37  38
ENDBRANCH  36  37
ENDBRANCH  35  36
ENDBRANCH   1  35
TORSDOF 26
ENDMDL
