MODEL 1
REMARK VINA RESULT:     -13.2      0.000      0.000
REMARK SMILES CC(C)Nc1ncc(C(=O)N2CCC[C@H](c3cccc(C(=O)NCCCCNC(=O)c4ccc(-c5c6nc(c(-c7c(F)c(F)c(F)c(F)c7F)c7ccc([nH]7)c(-c7c(F)c(F)c(F)c(F)c7F)c7nc(c(-c8c(F)c(F)c(F)c(F)c8F)c8ccc5[nH]8)C=C7)C=C6)cc4)c3)C2)cn1
REMARK SMILES IDX 24 1 23 2 21 3 22 4 20 6 16 7 17 8 94 9 18 10 19 11 15 12
REMARK SMILES IDX 11 13 12 14 95 15 13 16 14 17 9 18 10 19 8 20 5 21 6 22
REMARK SMILES IDX 97 23 7 24 96 25 4 26 2 28 1 29 3 30 25 31 26 32 27 33 28 34
REMARK SMILES IDX 29 35 30 37 31 38 32 39 93 40 33 41 92 42 34 43 35 44 36 45
REMARK SMILES IDX 86 46 37 47 91 48 85 49 87 50 38 51 90 52 84 53 83 54 39 56
REMARK SMILES IDX 71 57 51 58 70 59 52 60 55 61 69 62 88 63 53 64 54 65 68 67
REMARK SMILES IDX 89 68 56 69 40 70 41 71 49 72 42 73 43 74 47 75 50 76 44 77
REMARK SMILES IDX 45 78 48 79 46 80 72 81 73 82 81 83 74 84 75 85 79 86 82 87
REMARK SMILES IDX 76 88 77 89 80 90 78 91 57 92 58 93 66 94 59 95 60 96 64 97
REMARK SMILES IDX 67 98 61 99 62 100 65 101 63 102
REMARK H PARENT 23 5 4 27 28 36 87 55 55 66
REMARK Flexibility Score: inf
ROOT
ATOM      1  C   UNL A   1      33.244  30.096  26.780  1.00  0.00     0.116 C 
ENDROOT
BRANCH   1   2
ATOM      2  N   UNL A   1      33.652  29.737  25.429  1.00  0.00    -0.352 N 
ATOM      3  C   UNL A   1      33.706  28.521  24.775  1.00  0.00     0.251 C 
ATOM      4  O   UNL A   1      34.107  28.501  23.612  1.00  0.00    -0.269 OA
ATOM      5  H   UNL A   1      33.944  30.501  24.880  1.00  0.00     0.163 HD
BRANCH   3   6
ATOM      6  C   UNL A   1      33.366  27.239  25.454  1.00  0.00     0.040 A 
ATOM      7  C   UNL A   1      33.850  24.866  25.822  1.00  0.00    -0.042 A 
ATOM      8  C   UNL A   1      32.554  24.718  26.334  1.00  0.00     0.004 A 
ATOM      9  C   UNL A   1      34.262  26.172  25.511  1.00  0.00     0.018 A 
ATOM     10  C   UNL A   1      31.703  25.823  26.474  1.00  0.00     0.001 A 
ATOM     11  C   UNL A   1      32.093  27.074  25.998  1.00  0.00     0.014 A 
BRANCH   7  12
ATOM     12  C   UNL A   1      34.732  23.679  25.409  1.00  0.00     0.039 C 
ATOM     13  N   UNL A   1      33.786  23.005  23.218  1.00  0.00    -0.338 N 
ATOM     14  C   UNL A   1      33.186  21.790  23.758  1.00  0.00     0.120 C 
ATOM     15  C   UNL A   1      34.985  23.507  23.892  1.00  0.00     0.128 C 
ATOM     16  C   UNL A   1      32.982  21.860  25.264  1.00  0.00     0.022 C 
ATOM     17  C   UNL A   1      34.270  22.305  25.953  1.00  0.00     0.012 C 
BRANCH  13  18
ATOM     18  C   UNL A   1      33.110  23.702  22.228  1.00  0.00     0.257 C 
ATOM     19  O   UNL A   1      33.360  23.575  21.033  1.00  0.00    -0.269 OA
BRANCH  18  20
ATOM     20  C   UNL A   1      32.153  24.744  22.632  1.00  0.00     0.076 A 
ATOM     21  C   UNL A   1      30.189  26.579  23.070  1.00  0.00     0.222 A 
ATOM     22  N   UNL A   1      31.296  26.980  22.431  1.00  0.00    -0.221 NA
ATOM     23  N   UNL A   1      30.001  25.331  23.526  1.00  0.00    -0.221 NA
ATOM     24  C   UNL A   1      32.255  26.053  22.225  1.00  0.00     0.130 A 
ATOM     25  C   UNL A   1      30.977  24.428  23.270  1.00  0.00     0.130 A 
BRANCH  21  26
ATOM     26  N   UNL A   1      29.225  27.534  23.216  1.00  0.00    -0.352 N 
ATOM     27  H   UNL A   1      28.384  27.295  23.668  1.00  0.00     0.163 HD
BRANCH  26  28
ATOM     28  C   UNL A   1      29.395  28.882  22.728  1.00  0.00     0.076 C 
ATOM     29  C   UNL A   1      28.010  29.437  22.396  1.00  0.00     0.030 C 
ATOM     30  C   UNL A   1      30.080  29.736  23.789  1.00  0.00     0.030 C 
ENDBRANCH  26  28
ENDBRANCH  21  26
ENDBRANCH  18  20
ENDBRANCH  13  18
ENDBRANCH   7  12
ENDBRANCH   3   6
ENDBRANCH   1   2
BRANCH   1  31
ATOM     31  C   UNL A   1      31.791  30.528  26.919  1.00  0.00     0.023 C 
BRANCH  31  32
ATOM     32  C   UNL A   1      31.522  32.020  26.818  1.00  0.00     0.023 C 
BRANCH  32  33
ATOM     33  C   UNL A   1      32.727  32.926  27.023  1.00  0.00     0.116 C 
BRANCH  33  34
ATOM     34  N   UNL A   1      32.407  34.211  27.625  1.00  0.00    -0.352 N 
ATOM     35  C   UNL A   1      33.013  34.865  28.674  1.00  0.00     0.251 C 
ATOM     36  H   UNL A   1      31.642  34.682  27.223  1.00  0.00     0.163 HD
ATOM     37  O   UNL A   1      32.546  35.912  29.097  1.00  0.00    -0.269 OA
BRANCH  35  38
ATOM     38  C   UNL A   1      34.212  34.278  29.313  1.00  0.00     0.039 A 
ATOM     39  C   UNL A   1      34.040  33.363  30.354  1.00  0.00     0.014 A 
ATOM     40  C   UNL A   1      35.498  34.612  28.882  1.00  0.00     0.014 A 
ATOM     41  C   UNL A   1      35.155  32.737  30.916  1.00  0.00     0.010 A 
ATOM     42  C   UNL A   1      36.596  33.913  29.370  1.00  0.00     0.010 A 
ATOM     43  C   UNL A   1      36.441  32.983  30.406  1.00  0.00    -0.014 A 
BRANCH  43  44
ATOM     44  C   UNL A   1      37.632  32.304  30.977  1.00  0.00     0.031 A 
ATOM     45  C   UNL A   1      38.113  32.659  32.358  1.00  0.00     0.074 A 
ATOM     46  C   UNL A   1      38.296  31.389  30.245  1.00  0.00     0.049 A 
ATOM     47  N   UNL A   1      39.117  32.166  33.039  1.00  0.00    -0.248 NA
ATOM     48  C   UNL A   1      37.389  33.734  33.055  1.00  0.00     0.031 C 
ATOM     49  C   UNL A   1      37.965  30.998  28.875  1.00  0.00     0.029 A 
ATOM     50  N   UNL A   1      39.385  30.614  30.557  1.00  0.00    -0.354 N 
ATOM     51  C   UNL A   1      39.142  32.871  34.236  1.00  0.00     0.074 A 
ATOM     52  C   UNL A   1      38.111  33.881  34.153  1.00  0.00     0.031 C 
ATOM     53  C   UNL A   1      38.799  30.021  28.482  1.00  0.00     0.029 A 
ATOM     54  C   UNL A   1      39.741  29.740  29.560  1.00  0.00     0.049 A 
ATOM     55  H   UNL A   1      39.865  30.679  31.414  1.00  0.00     0.167 HD
ATOM     56  C   UNL A   1      39.925  32.671  35.323  1.00  0.00     0.037 A 
ATOM     57  C   UNL A   1      40.710  28.804  29.530  1.00  0.00     0.037 A 
ATOM     58  C   UNL A   1      40.946  31.661  35.406  1.00  0.00     0.049 A 
ATOM     59  C   UNL A   1      41.579  28.610  30.744  1.00  0.00     0.074 A 
ATOM     60  C   UNL A   1      41.777  31.351  36.468  1.00  0.00     0.029 A 
ATOM     61  N   UNL A   1      41.276  30.791  34.374  1.00  0.00    -0.354 N 
ATOM     62  N   UNL A   1      41.546  29.232  31.897  1.00  0.00    -0.248 NA
ATOM     63  C   UNL A   1      42.610  27.569  30.653  1.00  0.00     0.031 C 
ATOM     64  C   UNL A   1      42.642  30.329  36.064  1.00  0.00     0.029 A 
ATOM     65  C   UNL A   1      42.309  29.956  34.772  1.00  0.00     0.049 A 
ATOM     66  H   UNL A   1      40.841  30.770  33.491  1.00  0.00     0.167 HD
ATOM     67  C   UNL A   1      42.519  28.630  32.684  1.00  0.00     0.074 A 
ATOM     68  C   UNL A   1      43.115  27.584  31.878  1.00  0.00     0.031 C 
ATOM     69  C   UNL A   1      42.883  28.911  33.961  1.00  0.00     0.037 A 
BRANCH  56  70
ATOM     70  C   UNL A   1      39.696  33.569  36.508  1.00  0.00     0.064 A 
ATOM     71  C   UNL A   1      38.846  33.195  37.562  1.00  0.00     0.173 A 
ATOM     72  C   UNL A   1      40.321  34.822  36.589  1.00  0.00     0.173 A 
ATOM     73  F   UNL A   1      38.210  32.014  37.530  1.00  0.00    -0.203 F 
ATOM     74  C   UNL A   1      38.596  34.057  38.626  1.00  0.00     0.198 A 
ATOM     75  C   UNL A   1      40.099  35.667  37.674  1.00  0.00     0.198 A 
ATOM     76  F   UNL A   1      41.147  35.232  35.614  1.00  0.00    -0.203 F 
ATOM     77  F   UNL A   1      37.724  33.705  39.581  1.00  0.00    -0.200 F 
ATOM     78  C   UNL A   1      39.227  35.290  38.684  1.00  0.00     0.200 A 
ATOM     79  F   UNL A   1      40.719  36.853  37.736  1.00  0.00    -0.200 F 
ATOM     80  F   UNL A   1      38.983  36.121  39.707  1.00  0.00    -0.200 F 
ENDBRANCH  56  70
BRANCH  57  81
ATOM     81  C   UNL A   1      40.866  27.933  28.336  1.00  0.00     0.064 A 
ATOM     82  C   UNL A   1      40.229  26.684  28.273  1.00  0.00     0.173 A 
ATOM     83  C   UNL A   1      41.654  28.317  27.242  1.00  0.00     0.173 A 
ATOM     84  F   UNL A   1      39.479  26.264  29.302  1.00  0.00    -0.203 F 
ATOM     85  C   UNL A   1      40.394  25.844  27.174  1.00  0.00     0.198 A 
ATOM     86  C   UNL A   1      41.795  27.489  26.130  1.00  0.00     0.198 A 
ATOM     87  F   UNL A   1      42.280  29.503  27.249  1.00  0.00    -0.203 F 
ATOM     88  F   UNL A   1      39.813  24.636  27.162  1.00  0.00    -0.200 F 
ATOM     89  C   UNL A   1      41.174  26.249  26.101  1.00  0.00     0.200 A 
ATOM     90  F   UNL A   1      42.537  27.890  25.088  1.00  0.00    -0.200 F 
ATOM     91  F   UNL A   1      41.330  25.443  25.042  1.00  0.00    -0.200 F 
ENDBRANCH  57  81
BRANCH  69  92
ATOM     92  C   UNL A   1      43.934  28.035  34.583  1.00  0.00     0.064 A 
ATOM     93  C   UNL A   1      45.295  28.375  34.564  1.00  0.00     0.173 A 
ATOM     94  C   UNL A   1      43.567  26.837  35.217  1.00  0.00     0.173 A 
ATOM     95  F   UNL A   1      45.701  29.502  33.959  1.00  0.00    -0.203 F 
ATOM     96  C   UNL A   1      46.252  27.527  35.114  1.00  0.00     0.198 A 
ATOM     97  C   UNL A   1      44.523  26.010  35.800  1.00  0.00     0.198 A 
ATOM     98  F   UNL A   1      42.278  26.469  35.275  1.00  0.00    -0.203 F 
ATOM     99  F   UNL A   1      47.553  27.838  35.020  1.00  0.00    -0.200 F 
ATOM    100  C   UNL A   1      45.865  26.349  35.736  1.00  0.00     0.200 A 
ATOM    101  F   UNL A   1      44.145  24.882  36.416  1.00  0.00    -0.200 F 
ATOM    102  F   UNL A   1      46.789  25.534  36.264  1.00  0.00    -0.200 F 
ENDBRANCH  69  92
ENDBRANCH  43  44
ENDBRANCH  35  38
ENDBRANCH  33  34
ENDBRANCH  32  33
ENDBRANCH  31  32
ENDBRANCH   1  31
TORSDOF 16
ENDMDL
MODEL 2
REMARK VINA RESULT:     -12.7      0.965      2.053
REMARK SMILES CC(C)Nc1ncc(C(=O)N2CCC[C@H](c3cccc(C(=O)NCCCCNC(=O)c4ccc(-c5c6nc(c(-c7c(F)c(F)c(F)c(F)c7F)c7ccc([nH]7)c(-c7c(F)c(F)c(F)c(F)c7F)c7nc(c(-c8c(F)c(F)c(F)c(F)c8F)c8ccc5[nH]8)C=C7)C=C6)cc4)c3)C2)cn1
REMARK SMILES IDX 24 1 23 2 21 3 22 4 20 6 16 7 17 8 94 9 18 10 19 11 15 12
REMARK SMILES IDX 11 13 12 14 95 15 13 16 14 17 9 18 10 19 8 20 5 21 6 22
REMARK SMILES IDX 97 23 7 24 96 25 4 26 2 28 1 29 3 30 25 31 26 32 27 33 28 34
REMARK SMILES IDX 29 35 30 37 31 38 32 39 93 40 33 41 92 42 34 43 35 44 36 45
REMARK SMILES IDX 86 46 37 47 91 48 85 49 87 50 38 51 90 52 84 53 83 54 39 56
REMARK SMILES IDX 71 57 51 58 70 59 52 60 55 61 69 62 88 63 53 64 54 65 68 67
REMARK SMILES IDX 89 68 56 69 40 70 41 71 49 72 42 73 43 74 47 75 50 76 44 77
REMARK SMILES IDX 45 78 48 79 46 80 72 81 73 82 81 83 74 84 75 85 79 86 82 87
REMARK SMILES IDX 76 88 77 89 80 90 78 91 57 92 58 93 66 94 59 95 60 96 64 97
REMARK SMILES IDX 67 98 61 99 62 100 65 101 63 102
REMARK H PARENT 23 5 4 27 28 36 87 55 55 66
REMARK Flexibility Score: inf
ROOT
ATOM      1  C   UNL A   1      31.762  29.858  27.158  1.00  0.00     0.116 C 
ENDROOT
BRANCH   1   2
ATOM      2  N   UNL A   1      33.168  29.708  27.501  1.00  0.00    -0.352 N 
ATOM      3  C   UNL A   1      34.198  29.019  26.889  1.00  0.00     0.251 C 
ATOM      4  O   UNL A   1      35.313  29.055  27.407  1.00  0.00    -0.269 OA
ATOM      5  H   UNL A   1      33.436  30.186  28.320  1.00  0.00     0.163 HD
BRANCH   3   6
ATOM      6  C   UNL A   1      33.982  28.184  25.674  1.00  0.00     0.040 A 
ATOM      7  C   UNL A   1      34.019  25.978  24.610  1.00  0.00    -0.042 A 
ATOM      8  C   UNL A   1      34.023  26.619  23.364  1.00  0.00     0.004 A 
ATOM      9  C   UNL A   1      33.869  26.796  25.741  1.00  0.00     0.018 A 
ATOM     10  C   UNL A   1      33.932  28.014  23.270  1.00  0.00     0.001 A 
ATOM     11  C   UNL A   1      33.953  28.799  24.423  1.00  0.00     0.014 A 
BRANCH   7  12
ATOM     12  C   UNL A   1      34.367  24.494  24.794  1.00  0.00     0.039 C 
ATOM     13  N   UNL A   1      32.220  23.344  24.331  1.00  0.00    -0.338 N 
ATOM     14  C   UNL A   1      32.007  23.003  25.733  1.00  0.00     0.120 C 
ATOM     15  C   UNL A   1      33.608  23.493  23.890  1.00  0.00     0.128 C 
ATOM     16  C   UNL A   1      32.791  23.901  26.678  1.00  0.00     0.022 C 
ATOM     17  C   UNL A   1      34.253  23.974  26.247  1.00  0.00     0.012 C 
BRANCH  13  18
ATOM     18  C   UNL A   1      31.124  23.673  23.548  1.00  0.00     0.257 C 
ATOM     19  O   UNL A   1      30.549  22.861  22.829  1.00  0.00    -0.269 OA
BRANCH  18  20
ATOM     20  C   UNL A   1      30.721  25.086  23.463  1.00  0.00     0.076 A 
ATOM     21  C   UNL A   1      30.339  27.780  23.353  1.00  0.00     0.222 A 
ATOM     22  N   UNL A   1      30.182  27.168  24.535  1.00  0.00    -0.221 NA
ATOM     23  N   UNL A   1      30.653  27.139  22.217  1.00  0.00    -0.221 NA
ATOM     24  C   UNL A   1      30.376  25.834  24.565  1.00  0.00     0.130 A 
ATOM     25  C   UNL A   1      30.868  25.805  22.302  1.00  0.00     0.130 A 
BRANCH  21  26
ATOM     26  N   UNL A   1      30.180  29.135  23.375  1.00  0.00    -0.352 N 
ATOM     27  H   UNL A   1      30.871  29.688  23.807  1.00  0.00     0.163 HD
BRANCH  26  28
ATOM     28  C   UNL A   1      29.033  29.787  22.789  1.00  0.00     0.076 C 
ATOM     29  C   UNL A   1      27.829  28.862  22.968  1.00  0.00     0.030 C 
ATOM     30  C   UNL A   1      28.791  31.127  23.473  1.00  0.00     0.030 C 
ENDBRANCH  26  28
ENDBRANCH  21  26
ENDBRANCH  18  20
ENDBRANCH  13  18
ENDBRANCH   7  12
ENDBRANCH   3   6
ENDBRANCH   1   2
BRANCH   1  31
ATOM     31  C   UNL A   1      31.458  30.965  26.159  1.00  0.00     0.023 C 
BRANCH  31  32
ATOM     32  C   UNL A   1      31.333  32.368  26.730  1.00  0.00     0.023 C 
BRANCH  32  33
ATOM     33  C   UNL A   1      32.644  33.075  27.042  1.00  0.00     0.116 C 
BRANCH  33  34
ATOM     34  N   UNL A   1      32.485  34.318  27.781  1.00  0.00    -0.352 N 
ATOM     35  C   UNL A   1      33.211  34.808  28.844  1.00  0.00     0.251 C 
ATOM     36  H   UNL A   1      31.748  34.895  27.476  1.00  0.00     0.163 HD
ATOM     37  O   UNL A   1      32.873  35.846  29.392  1.00  0.00    -0.269 OA
BRANCH  35  38
ATOM     38  C   UNL A   1      34.382  34.053  29.346  1.00  0.00     0.039 A 
ATOM     39  C   UNL A   1      35.661  34.459  28.957  1.00  0.00     0.014 A 
ATOM     40  C   UNL A   1      34.226  32.965  30.207  1.00  0.00     0.014 A 
ATOM     41  C   UNL A   1      36.781  33.811  29.482  1.00  0.00     0.010 A 
ATOM     42  C   UNL A   1      35.340  32.391  30.809  1.00  0.00     0.010 A 
ATOM     43  C   UNL A   1      36.630  32.793  30.438  1.00  0.00    -0.014 A 
BRANCH  43  44
ATOM     44  C   UNL A   1      37.814  32.115  31.025  1.00  0.00     0.031 A 
ATOM     45  C   UNL A   1      38.257  32.446  32.424  1.00  0.00     0.074 A 
ATOM     46  C   UNL A   1      38.506  31.222  30.291  1.00  0.00     0.049 A 
ATOM     47  N   UNL A   1      39.249  31.950  33.121  1.00  0.00    -0.248 NA
ATOM     48  C   UNL A   1      37.504  33.499  33.124  1.00  0.00     0.031 C 
ATOM     49  C   UNL A   1      38.214  30.855  28.906  1.00  0.00     0.029 A 
ATOM     50  N   UNL A   1      39.596  30.452  30.615  1.00  0.00    -0.354 N 
ATOM     51  C   UNL A   1      39.236  32.631  34.331  1.00  0.00     0.074 A 
ATOM     52  C   UNL A   1      38.197  33.632  34.243  1.00  0.00     0.031 C 
ATOM     53  C   UNL A   1      39.067  29.895  28.514  1.00  0.00     0.029 A 
ATOM     54  C   UNL A   1      39.986  29.602  29.610  1.00  0.00     0.049 A 
ATOM     55  H   UNL A   1      40.054  30.504  31.485  1.00  0.00     0.167 HD
ATOM     56  C   UNL A   1      39.995  32.417  35.434  1.00  0.00     0.037 A 
ATOM     57  C   UNL A   1      40.965  28.677  29.585  1.00  0.00     0.037 A 
ATOM     58  C   UNL A   1      41.024  31.416  35.521  1.00  0.00     0.049 A 
ATOM     59  C   UNL A   1      41.806  28.468  30.816  1.00  0.00     0.074 A 
ATOM     60  C   UNL A   1      41.832  31.093  36.598  1.00  0.00     0.029 A 
ATOM     61  N   UNL A   1      41.389  30.571  34.481  1.00  0.00    -0.354 N 
ATOM     62  N   UNL A   1      41.737  29.065  31.981  1.00  0.00    -0.248 NA
ATOM     63  C   UNL A   1      42.850  27.439  30.730  1.00  0.00     0.031 C 
ATOM     64  C   UNL A   1      42.718  30.088  36.195  1.00  0.00     0.029 A 
ATOM     65  C   UNL A   1      42.421  29.738  34.887  1.00  0.00     0.049 A 
ATOM     66  H   UNL A   1      40.977  30.564  33.587  1.00  0.00     0.167 HD
ATOM     67  C   UNL A   1      42.697  28.457  32.780  1.00  0.00     0.074 A 
ATOM     68  C   UNL A   1      43.325  27.435  31.967  1.00  0.00     0.031 C 
ATOM     69  C   UNL A   1      43.026  28.717  34.070  1.00  0.00     0.037 A 
BRANCH  56  70
ATOM     70  C   UNL A   1      39.726  33.289  36.630  1.00  0.00     0.064 A 
ATOM     71  C   UNL A   1      38.757  32.946  37.587  1.00  0.00     0.173 A 
ATOM     72  C   UNL A   1      40.435  34.483  36.819  1.00  0.00     0.173 A 
ATOM     73  F   UNL A   1      38.039  31.821  37.449  1.00  0.00    -0.203 F 
ATOM     74  C   UNL A   1      38.476  33.788  38.661  1.00  0.00     0.198 A 
ATOM     75  C   UNL A   1      40.178  35.305  37.915  1.00  0.00     0.198 A 
ATOM     76  F   UNL A   1      41.376  34.860  35.940  1.00  0.00    -0.203 F 
ATOM     77  F   UNL A   1      37.496  33.473  39.518  1.00  0.00    -0.200 F 
ATOM     78  C   UNL A   1      39.191  34.963  38.826  1.00  0.00     0.200 A 
ATOM     79  F   UNL A   1      40.879  36.435  38.082  1.00  0.00    -0.200 F 
ATOM     80  F   UNL A   1      38.918  35.775  39.858  1.00  0.00    -0.200 F 
ENDBRANCH  56  70
BRANCH  57  81
ATOM     81  C   UNL A   1      41.161  27.832  28.378  1.00  0.00     0.064 A 
ATOM     82  C   UNL A   1      42.059  28.219  27.372  1.00  0.00     0.173 A 
ATOM     83  C   UNL A   1      40.457  26.634  28.196  1.00  0.00     0.173 A 
ATOM     84  F   UNL A   1      42.743  29.366  27.491  1.00  0.00    -0.203 F 
ATOM     85  C   UNL A   1      42.227  27.453  26.221  1.00  0.00     0.198 A 
ATOM     86  C   UNL A   1      40.647  25.853  27.057  1.00  0.00     0.198 A 
ATOM     87  F   UNL A   1      39.591  26.216  29.130  1.00  0.00    -0.203 F 
ATOM     88  F   UNL A   1      43.055  27.872  25.254  1.00  0.00    -0.200 F 
ATOM     89  C   UNL A   1      41.524  26.268  26.066  1.00  0.00     0.200 A 
ATOM     90  F   UNL A   1      39.977  24.700  26.919  1.00  0.00    -0.200 F 
ATOM     91  F   UNL A   1      41.687  25.529  24.961  1.00  0.00    -0.200 F 
ENDBRANCH  57  81
BRANCH  69  92
ATOM     92  C   UNL A   1      44.071  27.839  34.701  1.00  0.00     0.064 A 
ATOM     93  C   UNL A   1      43.748  26.623  35.320  1.00  0.00     0.173 A 
ATOM     94  C   UNL A   1      45.422  28.222  34.674  1.00  0.00     0.173 A 
ATOM     95  F   UNL A   1      42.471  26.216  35.385  1.00  0.00    -0.203 F 
ATOM     96  C   UNL A   1      44.730  25.847  35.930  1.00  0.00     0.198 A 
ATOM     97  C   UNL A   1      46.406  27.425  35.251  1.00  0.00     0.198 A 
ATOM     98  F   UNL A   1      45.788  29.370  34.085  1.00  0.00    -0.203 F 
ATOM     99  F   UNL A   1      44.388  24.724  36.578  1.00  0.00    -0.200 F 
ATOM    100  C   UNL A   1      46.058  26.245  35.890  1.00  0.00     0.200 A 
ATOM    101  F   UNL A   1      47.690  27.803  35.196  1.00  0.00    -0.200 F 
ATOM    102  F   UNL A   1      47.001  25.496  36.479  1.00  0.00    -0.200 F 
ENDBRANCH  69  92
ENDBRANCH  43  44
ENDBRANCH  35  38
ENDBRANCH  33  34
ENDBRANCH  32  33
ENDBRANCH  31  32
ENDBRANCH   1  31
TORSDOF 16
ENDMDL
MODEL 3
REMARK VINA RESULT:     -12.3      0.803      7.045
REMARK SMILES CC(C)Nc1ncc(C(=O)N2CCC[C@H](c3cccc(C(=O)NCCCCNC(=O)c4ccc(-c5c6nc(c(-c7c(F)c(F)c(F)c(F)c7F)c7ccc([nH]7)c(-c7c(F)c(F)c(F)c(F)c7F)c7nc(c(-c8c(F)c(F)c(F)c(F)c8F)c8ccc5[nH]8)C=C7)C=C6)cc4)c3)C2)cn1
REMARK SMILES IDX 24 1 23 2 21 3 22 4 20 6 16 7 17 8 94 9 18 10 19 11 15 12
REMARK SMILES IDX 11 13 12 14 95 15 13 16 14 17 9 18 10 19 8 20 5 21 6 22
REMARK SMILES IDX 97 23 7 24 96 25 4 26 2 28 1 29 3 30 25 31 26 32 27 33 28 34
REMARK SMILES IDX 29 35 30 37 31 38 32 39 93 40 33 41 92 42 34 43 35 44 36 45
REMARK SMILES IDX 86 46 37 47 91 48 85 49 87 50 38 51 90 52 84 53 83 54 39 56
REMARK SMILES IDX 71 57 51 58 70 59 52 60 55 61 69 62 88 63 53 64 54 65 68 67
REMARK SMILES IDX 89 68 56 69 40 70 41 71 49 72 42 73 43 74 47 75 50 76 44 77
REMARK SMILES IDX 45 78 48 79 46 80 72 81 73 82 81 83 74 84 75 85 79 86 82 87
REMARK SMILES IDX 76 88 77 89 80 90 78 91 57 92 58 93 66 94 59 95 60 96 64 97
REMARK SMILES IDX 67 98 61 99 62 100 65 101 63 102
REMARK H PARENT 23 5 4 27 28 36 87 55 55 66
REMARK Flexibility Score: inf
ROOT
ATOM      1  C   UNL A   1      34.061  29.828  27.399  1.00  0.00     0.116 C 
ENDROOT
BRANCH   1   2
ATOM      2  N   UNL A   1      34.052  29.679  25.951  1.00  0.00    -0.352 N 
ATOM      3  C   UNL A   1      33.685  28.626  25.134  1.00  0.00     0.251 C 
ATOM      4  O   UNL A   1      33.787  28.769  23.916  1.00  0.00    -0.269 OA
ATOM      5  H   UNL A   1      34.364  30.476  25.462  1.00  0.00     0.163 HD
BRANCH   3   6
ATOM      6  C   UNL A   1      33.246  27.312  25.682  1.00  0.00     0.040 A 
ATOM      7  C   UNL A   1      33.615  24.901  25.902  1.00  0.00    -0.042 A 
ATOM      8  C   UNL A   1      32.277  24.769  26.296  1.00  0.00     0.004 A 
ATOM      9  C   UNL A   1      34.096  26.209  25.728  1.00  0.00     0.018 A 
ATOM     10  C   UNL A   1      31.456  25.894  26.453  1.00  0.00     0.001 A 
ATOM     11  C   UNL A   1      31.928  27.160  26.108  1.00  0.00     0.014 A 
BRANCH   7  12
ATOM     12  C   UNL A   1      34.486  23.713  25.469  1.00  0.00     0.039 C 
ATOM     13  N   UNL A   1      33.641  23.186  23.199  1.00  0.00    -0.338 N 
ATOM     14  C   UNL A   1      32.982  21.961  23.639  1.00  0.00     0.120 C 
ATOM     15  C   UNL A   1      34.815  23.616  23.960  1.00  0.00     0.128 C 
ATOM     16  C   UNL A   1      32.700  21.956  25.135  1.00  0.00     0.022 C 
ATOM     17  C   UNL A   1      33.961  22.326  25.912  1.00  0.00     0.012 C 
BRANCH  13  18
ATOM     18  C   UNL A   1      33.037  23.954  22.216  1.00  0.00     0.257 C 
ATOM     19  O   UNL A   1      33.351  23.891  21.031  1.00  0.00    -0.269 OA
BRANCH  18  20
ATOM     20  C   UNL A   1      32.078  24.993  22.627  1.00  0.00     0.076 A 
ATOM     21  C   UNL A   1      30.127  26.841  23.065  1.00  0.00     0.222 A 
ATOM     22  N   UNL A   1      31.270  27.253  22.498  1.00  0.00    -0.221 NA
ATOM     23  N   UNL A   1      29.897  25.576  23.447  1.00  0.00    -0.221 NA
ATOM     24  C   UNL A   1      32.221  26.319  22.291  1.00  0.00     0.130 A 
ATOM     25  C   UNL A   1      30.869  24.668  23.192  1.00  0.00     0.130 A 
BRANCH  21  26
ATOM     26  N   UNL A   1      29.173  27.806  23.213  1.00  0.00    -0.352 N 
ATOM     27  H   UNL A   1      28.331  27.576  23.668  1.00  0.00     0.163 HD
BRANCH  26  28
ATOM     28  C   UNL A   1      29.355  29.152  22.722  1.00  0.00     0.076 C 
ATOM     29  C   UNL A   1      27.997  29.659  22.237  1.00  0.00     0.030 C 
ATOM     30  C   UNL A   1      29.899  30.041  23.835  1.00  0.00     0.030 C 
ENDBRANCH  26  28
ENDBRANCH  21  26
ENDBRANCH  18  20
ENDBRANCH  13  18
ENDBRANCH   7  12
ENDBRANCH   3   6
ENDBRANCH   1   2
BRANCH   1  31
ATOM     31  C   UNL A   1      34.275  31.249  27.898  1.00  0.00     0.023 C 
BRANCH  31  32
ATOM     32  C   UNL A   1      33.055  32.155  27.885  1.00  0.00     0.023 C 
BRANCH  32  33
ATOM     33  C   UNL A   1      33.247  33.513  27.225  1.00  0.00     0.116 C 
BRANCH  33  34
ATOM     34  N   UNL A   1      32.738  34.629  28.008  1.00  0.00    -0.352 N 
ATOM     35  C   UNL A   1      33.140  35.094  29.240  1.00  0.00     0.251 C 
ATOM     36  H   UNL A   1      31.995  35.126  27.595  1.00  0.00     0.163 HD
ATOM     37  O   UNL A   1      32.531  36.005  29.781  1.00  0.00    -0.269 OA
BRANCH  35  38
ATOM     38  C   UNL A   1      34.291  34.464  29.925  1.00  0.00     0.039 A 
ATOM     39  C   UNL A   1      34.054  33.696  31.068  1.00  0.00     0.014 A 
ATOM     40  C   UNL A   1      35.591  34.611  29.439  1.00  0.00     0.014 A 
ATOM     41  C   UNL A   1      35.115  33.027  31.683  1.00  0.00     0.010 A 
ATOM     42  C   UNL A   1      36.626  33.862  29.988  1.00  0.00     0.010 A 
ATOM     43  C   UNL A   1      36.405  33.078  31.129  1.00  0.00    -0.014 A 
BRANCH  43  44
ATOM     44  C   UNL A   1      37.536  32.349  31.757  1.00  0.00     0.031 A 
ATOM     45  C   UNL A   1      38.219  31.233  31.016  1.00  0.00     0.074 A 
ATOM     46  C   UNL A   1      37.931  32.673  33.004  1.00  0.00     0.049 A 
ATOM     47  N   UNL A   1      39.235  30.491  31.383  1.00  0.00    -0.248 NA
ATOM     48  C   UNL A   1      37.668  30.879  29.698  1.00  0.00     0.031 C 
ATOM     49  C   UNL A   1      37.316  33.696  33.849  1.00  0.00     0.029 A 
ATOM     50  N   UNL A   1      38.954  32.178  33.774  1.00  0.00    -0.354 N 
ATOM     51  C   UNL A   1      39.438  29.590  30.345  1.00  0.00     0.074 A 
ATOM     52  C   UNL A   1      38.390  29.818  29.376  1.00  0.00     0.031 C 
ATOM     53  C   UNL A   1      38.003  33.790  34.998  1.00  0.00     0.029 A 
ATOM     54  C   UNL A   1      39.087  32.813  34.984  1.00  0.00     0.049 A 
ATOM     55  H   UNL A   1      39.537  31.439  33.486  1.00  0.00     0.167 HD
ATOM     56  C   UNL A   1      40.430  28.680  30.193  1.00  0.00     0.037 A 
ATOM     57  C   UNL A   1      39.996  32.636  35.963  1.00  0.00     0.037 A 
ATOM     58  C   UNL A   1      41.475  28.460  31.156  1.00  0.00     0.049 A 
ATOM     59  C   UNL A   1      41.080  31.608  35.779  1.00  0.00     0.074 A 
ATOM     60  C   UNL A   1      42.546  27.585  31.089  1.00  0.00     0.029 A 
ATOM     61  N   UNL A   1      41.578  29.125  32.370  1.00  0.00    -0.354 N 
ATOM     62  N   UNL A   1      41.307  30.813  34.762  1.00  0.00    -0.248 NA
ATOM     63  C   UNL A   1      42.045  31.469  36.876  1.00  0.00     0.031 C 
ATOM     64  C   UNL A   1      43.269  27.686  32.284  1.00  0.00     0.029 A 
ATOM     65  C   UNL A   1      42.687  28.669  33.069  1.00  0.00     0.049 A 
ATOM     66  H   UNL A   1      40.956  29.818  32.690  1.00  0.00     0.167 HD
ATOM     67  C   UNL A   1      42.463  30.110  35.076  1.00  0.00     0.074 A 
ATOM     68  C   UNL A   1      42.896  30.586  36.375  1.00  0.00     0.031 C 
ATOM     69  C   UNL A   1      43.111  29.162  34.354  1.00  0.00     0.037 A 
BRANCH  56  70
ATOM     70  C   UNL A   1      40.421  27.862  28.930  1.00  0.00     0.064 A 
ATOM     71  C   UNL A   1      39.695  26.664  28.835  1.00  0.00     0.173 A 
ATOM     72  C   UNL A   1      41.152  28.272  27.806  1.00  0.00     0.173 A 
ATOM     73  F   UNL A   1      38.989  26.216  29.885  1.00  0.00    -0.203 F 
ATOM     74  C   UNL A   1      39.739  25.885  27.681  1.00  0.00     0.198 A 
ATOM     75  C   UNL A   1      41.164  27.511  26.640  1.00  0.00     0.198 A 
ATOM     76  F   UNL A   1      41.861  29.412  27.837  1.00  0.00    -0.203 F 
ATOM     77  F   UNL A   1      39.097  24.710  27.643  1.00  0.00    -0.200 F 
ATOM     78  C   UNL A   1      40.469  26.312  26.583  1.00  0.00     0.200 A 
ATOM     79  F   UNL A   1      41.858  27.931  25.573  1.00  0.00    -0.200 F 
ATOM     80  F   UNL A   1      40.513  25.561  25.473  1.00  0.00    -0.200 F 
ENDBRANCH  56  70
BRANCH  57  81
ATOM     81  C   UNL A   1      39.961  33.496  37.175  1.00  0.00     0.064 A 
ATOM     82  C   UNL A   1      40.785  34.627  37.273  1.00  0.00     0.173 A 
ATOM     83  C   UNL A   1      39.119  33.209  38.258  1.00  0.00     0.173 A 
ATOM     84  F   UNL A   1      41.621  34.934  36.270  1.00  0.00    -0.203 F 
ATOM     85  C   UNL A   1      40.787  35.423  38.417  1.00  0.00     0.198 A 
ATOM     86  C   UNL A   1      39.100  34.022  39.390  1.00  0.00     0.198 A 
ATOM     87  F   UNL A   1      38.307  32.143  38.213  1.00  0.00    -0.203 F 
ATOM     88  F   UNL A   1      41.620  36.469  38.503  1.00  0.00    -0.200 F 
ATOM     89  C   UNL A   1      39.940  35.122  39.473  1.00  0.00     0.200 A 
ATOM     90  F   UNL A   1      38.269  33.737  40.402  1.00  0.00    -0.200 F 
ATOM     91  F   UNL A   1      39.938  35.888  40.572  1.00  0.00    -0.200 F 
ENDBRANCH  57  81
BRANCH  69  92
ATOM     92  C   UNL A   1      44.392  28.622  34.926  1.00  0.00     0.064 A 
ATOM     93  C   UNL A   1      45.635  29.216  34.664  1.00  0.00     0.173 A 
ATOM     94  C   UNL A   1      44.369  27.492  35.760  1.00  0.00     0.173 A 
ATOM     95  F   UNL A   1      45.714  30.290  33.864  1.00  0.00    -0.203 F 
ATOM     96  C   UNL A   1      46.810  28.674  35.176  1.00  0.00     0.198 A 
ATOM     97  C   UNL A   1      45.543  26.975  36.301  1.00  0.00     0.198 A 
ATOM     98  F   UNL A   1      43.207  26.890  36.053  1.00  0.00    -0.203 F 
ATOM     99  F   UNL A   1      47.993  29.217  34.854  1.00  0.00    -0.200 F 
ATOM    100  C   UNL A   1      46.763  27.558  35.998  1.00  0.00     0.200 A 
ATOM    101  F   UNL A   1      45.492  25.907  37.110  1.00  0.00    -0.200 F 
ATOM    102  F   UNL A   1      47.897  27.037  36.489  1.00  0.00    -0.200 F 
ENDBRANCH  69  92
ENDBRANCH  43  44
ENDBRANCH  35  38
ENDBRANCH  33  34
ENDBRANCH  32  33
ENDBRANCH  31  32
ENDBRANCH   1  31
TORSDOF 16
ENDMDL
