MODEL 1
REMARK VINA RESULT:     -11.6      0.000      0.000
REMARK SMILES CC[N@H+]([C@@H]1CSCC(C)(C)C1)[C@@H]1COC[C@@H]1C(=O)NCCCCNC(=O)c1ccc(-c2c3nc(c(-c4c(F)c(F)c(F)c(F)c4F)c4ccc([nH]4)c(-c4c(F)c(F)c(F)c(F)c4F)c4nc(c(-c5c(F)c(F)c(F)c(F)c5F)c5ccc2[nH]5)C=C4)C=C3)cc1
REMARK SMILES IDX 21 1 20 2 19 3 17 4 18 5 16 7 12 8 13 9 14 10 15 11 3 12
REMARK SMILES IDX 2 14 1 15 4 16 5 17 11 18 6 19 8 20 7 21 9 22 10 23 22 24
REMARK SMILES IDX 23 25 24 26 25 27 26 29 27 30 28 31 89 32 29 33 88 34 30 35
REMARK SMILES IDX 31 36 32 37 82 38 33 39 87 40 81 41 83 42 34 43 86 44 80 45
REMARK SMILES IDX 79 46 35 48 67 49 47 50 66 51 48 52 51 53 65 54 84 55 49 56
REMARK SMILES IDX 50 57 64 59 85 60 52 61 36 62 37 63 45 64 38 65 39 66 43 67
REMARK SMILES IDX 46 68 40 69 41 70 44 71 42 72 68 73 69 74 77 75 70 76 71 77
REMARK SMILES IDX 75 78 78 79 72 80 73 81 76 82 74 83 53 84 54 85 62 86 55 87
REMARK SMILES IDX 56 88 60 89 63 90 57 91 58 92 61 93 59 94
REMARK H PARENT 19 6 3 13 24 28 83 47 51 58
REMARK Flexibility Score: inf
ROOT
ATOM      1  C   UNL A   1      34.266  29.219  27.215  1.00  0.00     0.023 C 
ENDROOT
BRANCH   1   2
ATOM      2  C   UNL A   1      33.878  28.439  25.952  1.00  0.00     0.116 C 
BRANCH   2   3
ATOM      3  N   UNL A   1      32.664  28.980  25.355  1.00  0.00    -0.356 N 
ATOM      4  C   UNL A   1      31.538  28.411  24.829  1.00  0.00     0.231 C 
ATOM      5  O   UNL A   1      30.732  29.195  24.320  1.00  0.00    -0.274 OA
ATOM      6  H   UNL A   1      32.652  29.964  25.324  1.00  0.00     0.163 HD
BRANCH   4   7
ATOM      7  C   UNL A   1      31.254  26.912  24.932  1.00  0.00     0.164 C 
ATOM      8  C   UNL A   1      31.754  26.034  23.763  1.00  0.00     0.225 C 
ATOM      9  C   UNL A   1      30.693  26.369  22.700  1.00  0.00     0.226 C 
ATOM     10  O   UNL A   1      29.445  26.457  23.407  1.00  0.00    -0.374 OA
ATOM     11  C   UNL A   1      29.743  26.688  24.794  1.00  0.00     0.180 C 
BRANCH   8  12
ATOM     12  N   UNL A   1      33.181  26.069  23.376  1.00  0.00    -0.327 N 
ATOM     13  H   UNL A   1      33.583  26.703  24.066  1.00  0.00     0.348 HD
BRANCH  12  14
ATOM     14  C   UNL A   1      33.442  26.728  22.088  1.00  0.00     0.259 C 
ATOM     15  C   UNL A   1      34.001  28.145  22.174  1.00  0.00     0.071 C 
ENDBRANCH  12  14
BRANCH  12  16
ATOM     16  C   UNL A   1      33.971  24.819  23.628  1.00  0.00     0.194 C 
ATOM     17  C   UNL A   1      33.378  23.485  23.084  1.00  0.00     0.134 C 
ATOM     18  C   UNL A   1      34.851  24.789  24.909  1.00  0.00     0.073 C 
ATOM     19  S   UNL A   1      33.785  21.929  23.913  1.00  0.00    -0.155 SA
ATOM     20  C   UNL A   1      35.487  23.485  25.450  1.00  0.00    -0.021 C 
ATOM     21  C   UNL A   1      35.450  22.315  24.470  1.00  0.00     0.076 C 
ATOM     22  C   UNL A   1      34.782  23.134  26.775  1.00  0.00     0.012 C 
ATOM     23  C   UNL A   1      36.980  23.750  25.781  1.00  0.00     0.012 C 
ENDBRANCH  12  16
ENDBRANCH   8  12
ENDBRANCH   4   7
ENDBRANCH   2   3
ENDBRANCH   1   2
BRANCH   1  24
ATOM     24  C   UNL A   1      33.355  30.357  27.647  1.00  0.00     0.023 C 
BRANCH  24  25
ATOM     25  C   UNL A   1      34.028  31.724  27.613  1.00  0.00     0.116 C 
BRANCH  25  26
ATOM     26  N   UNL A   1      33.113  32.861  27.671  1.00  0.00    -0.352 N 
ATOM     27  C   UNL A   1      33.243  34.065  28.345  1.00  0.00     0.251 C 
ATOM     28  H   UNL A   1      32.281  32.758  27.154  1.00  0.00     0.163 HD
ATOM     29  O   UNL A   1      32.411  34.952  28.218  1.00  0.00    -0.269 OA
BRANCH  27  30
ATOM     30  C   UNL A   1      34.333  34.193  29.332  1.00  0.00     0.039 A 
ATOM     31  C   UNL A   1      34.111  33.686  30.614  1.00  0.00     0.014 A 
ATOM     32  C   UNL A   1      35.611  34.548  28.916  1.00  0.00     0.014 A 
ATOM     33  C   UNL A   1      35.204  33.347  31.410  1.00  0.00     0.010 A 
ATOM     34  C   UNL A   1      36.694  34.090  29.650  1.00  0.00     0.010 A 
ATOM     35  C   UNL A   1      36.501  33.442  30.882  1.00  0.00    -0.014 A 
BRANCH  35  36
ATOM     36  C   UNL A   1      37.667  32.812  31.555  1.00  0.00     0.031 A 
ATOM     37  C   UNL A   1      38.370  31.660  30.898  1.00  0.00     0.074 A 
ATOM     38  C   UNL A   1      38.001  33.183  32.809  1.00  0.00     0.049 A 
ATOM     39  N   UNL A   1      39.273  30.852  31.387  1.00  0.00    -0.248 NA
ATOM     40  C   UNL A   1      37.954  31.336  29.525  1.00  0.00     0.031 C 
ATOM     41  C   UNL A   1      37.342  34.228  33.598  1.00  0.00     0.029 A 
ATOM     42  N   UNL A   1      38.977  32.708  33.653  1.00  0.00    -0.354 N 
ATOM     43  C   UNL A   1      39.490  29.897  30.405  1.00  0.00     0.074 A 
ATOM     44  C   UNL A   1      38.586  30.193  29.316  1.00  0.00     0.031 C 
ATOM     45  C   UNL A   1      37.956  34.343  34.787  1.00  0.00     0.029 A 
ATOM     46  C   UNL A   1      39.023  33.352  34.867  1.00  0.00     0.049 A 
ATOM     47  H   UNL A   1      39.586  31.974  33.410  1.00  0.00     0.167 HD
ATOM     48  C   UNL A   1      40.384  28.880  30.399  1.00  0.00     0.037 A 
ATOM     49  C   UNL A   1      39.836  33.163  35.923  1.00  0.00     0.037 A 
ATOM     50  C   UNL A   1      41.334  28.638  31.449  1.00  0.00     0.049 A 
ATOM     51  C   UNL A   1      40.885  32.088  35.853  1.00  0.00     0.074 A 
ATOM     52  C   UNL A   1      42.337  27.688  31.506  1.00  0.00     0.029 A 
ATOM     53  N   UNL A   1      41.410  29.375  32.623  1.00  0.00    -0.354 N 
ATOM     54  N   UNL A   1      41.120  31.227  34.894  1.00  0.00    -0.248 NA
ATOM     55  C   UNL A   1      41.786  31.961  37.008  1.00  0.00     0.031 C 
ATOM     56  C   UNL A   1      43.012  27.840  32.722  1.00  0.00     0.029 A 
ATOM     57  C   UNL A   1      42.448  28.903  33.408  1.00  0.00     0.049 A 
ATOM     58  H   UNL A   1      40.815  30.122  32.862  1.00  0.00     0.167 HD
ATOM     59  C   UNL A   1      42.208  30.476  35.314  1.00  0.00     0.074 A 
ATOM     60  C   UNL A   1      42.596  30.990  36.612  1.00  0.00     0.031 C 
ATOM     61  C   UNL A   1      42.830  29.451  34.684  1.00  0.00     0.037 A 
BRANCH  48  62
ATOM     62  C   UNL A   1      40.383  27.974  29.204  1.00  0.00     0.064 A 
ATOM     63  C   UNL A   1      41.132  28.271  28.056  1.00  0.00     0.173 A 
ATOM     64  C   UNL A   1      39.617  26.799  29.203  1.00  0.00     0.173 A 
ATOM     65  F   UNL A   1      41.864  29.394  28.001  1.00  0.00    -0.203 F 
ATOM     66  C   UNL A   1      41.082  27.448  26.935  1.00  0.00     0.198 A 
ATOM     67  C   UNL A   1      39.595  25.960  28.093  1.00  0.00     0.198 A 
ATOM     68  F   UNL A   1      38.883  26.467  30.276  1.00  0.00    -0.203 F 
ATOM     69  F   UNL A   1      41.754  27.788  25.826  1.00  0.00    -0.200 F 
ATOM     70  C   UNL A   1      40.319  26.291  26.956  1.00  0.00     0.200 A 
ATOM     71  F   UNL A   1      38.863  24.838  28.115  1.00  0.00    -0.200 F 
ATOM     72  F   UNL A   1      40.268  25.501  25.875  1.00  0.00    -0.200 F 
ENDBRANCH  48  62
BRANCH  49  73
ATOM     73  C   UNL A   1      39.728  34.042  37.117  1.00  0.00     0.064 A 
ATOM     74  C   UNL A   1      38.949  33.655  38.218  1.00  0.00     0.173 A 
ATOM     75  C   UNL A   1      40.386  35.278  37.186  1.00  0.00     0.173 A 
ATOM     76  F   UNL A   1      38.285  32.490  38.190  1.00  0.00    -0.203 F 
ATOM     77  C   UNL A   1      38.816  34.480  39.333  1.00  0.00     0.198 A 
ATOM     78  C   UNL A   1      40.271  36.092  38.312  1.00  0.00     0.198 A 
ATOM     79  F   UNL A   1      41.148  35.691  36.163  1.00  0.00    -0.203 F 
ATOM     80  F   UNL A   1      38.031  34.103  40.352  1.00  0.00    -0.200 F 
ATOM     81  C   UNL A   1      39.480  35.696  39.381  1.00  0.00     0.200 A 
ATOM     82  F   UNL A   1      40.922  37.262  38.360  1.00  0.00    -0.200 F 
ATOM     83  F   UNL A   1      39.351  36.490  40.453  1.00  0.00    -0.200 F 
ENDBRANCH  49  73
BRANCH  61  84
ATOM     84  C   UNL A   1      44.021  28.847  35.364  1.00  0.00     0.064 A 
ATOM     85  C   UNL A   1      45.318  29.318  35.123  1.00  0.00     0.173 A 
ATOM     86  C   UNL A   1      43.850  27.827  36.310  1.00  0.00     0.173 A 
ATOM     87  F   UNL A   1      45.529  30.283  34.215  1.00  0.00    -0.203 F 
ATOM     88  C   UNL A   1      46.409  28.777  35.798  1.00  0.00     0.198 A 
ATOM     89  C   UNL A   1      44.940  27.303  37.000  1.00  0.00     0.198 A 
ATOM     90  F   UNL A   1      42.625  27.348  36.576  1.00  0.00    -0.203 F 
ATOM     91  F   UNL A   1      47.646  29.219  35.533  1.00  0.00    -0.200 F 
ATOM     92  C   UNL A   1      46.218  27.777  36.742  1.00  0.00     0.200 A 
ATOM     93  F   UNL A   1      44.754  26.345  37.916  1.00  0.00    -0.200 F 
ATOM     94  F   UNL A   1      47.267  27.266  37.398  1.00  0.00    -0.200 F 
ENDBRANCH  61  84
ENDBRANCH  35  36
ENDBRANCH  27  30
ENDBRANCH  25  26
ENDBRANCH  24  25
ENDBRANCH   1  24
TORSDOF 14
ENDMDL
MODEL 2
REMARK VINA RESULT:     -11.6      3.405      8.411
REMARK SMILES CC[N@H+]([C@@H]1CSCC(C)(C)C1)[C@@H]1COC[C@@H]1C(=O)NCCCCNC(=O)c1ccc(-c2c3nc(c(-c4c(F)c(F)c(F)c(F)c4F)c4ccc([nH]4)c(-c4c(F)c(F)c(F)c(F)c4F)c4nc(c(-c5c(F)c(F)c(F)c(F)c5F)c5ccc2[nH]5)C=C4)C=C3)cc1
REMARK SMILES IDX 21 1 20 2 19 3 17 4 18 5 16 7 12 8 13 9 14 10 15 11 3 12
REMARK SMILES IDX 2 14 1 15 4 16 5 17 11 18 6 19 8 20 7 21 9 22 10 23 22 24
REMARK SMILES IDX 23 25 24 26 25 27 26 29 27 30 28 31 89 32 29 33 88 34 30 35
REMARK SMILES IDX 31 36 32 37 82 38 33 39 87 40 81 41 83 42 34 43 86 44 80 45
REMARK SMILES IDX 79 46 35 48 67 49 47 50 66 51 48 52 51 53 65 54 84 55 49 56
REMARK SMILES IDX 50 57 64 59 85 60 52 61 36 62 37 63 45 64 38 65 39 66 43 67
REMARK SMILES IDX 46 68 40 69 41 70 44 71 42 72 68 73 69 74 77 75 70 76 71 77
REMARK SMILES IDX 75 78 78 79 72 80 73 81 76 82 74 83 53 84 54 85 62 86 55 87
REMARK SMILES IDX 56 88 60 89 63 90 57 91 58 92 61 93 59 94
REMARK H PARENT 19 6 3 13 24 28 83 47 51 58
REMARK Flexibility Score: inf
ROOT
ATOM      1  C   UNL A   1      39.233  22.110  26.481  1.00  0.00     0.023 C 
ENDROOT
BRANCH   1   2
ATOM      2  C   UNL A   1      38.118  21.952  25.439  1.00  0.00     0.116 C 
BRANCH   2   3
ATOM      3  N   UNL A   1      36.803  22.026  26.065  1.00  0.00    -0.356 N 
ATOM      4  C   UNL A   1      35.744  22.879  25.935  1.00  0.00     0.231 C 
ATOM      5  O   UNL A   1      34.802  22.682  26.708  1.00  0.00    -0.274 OA
ATOM      6  H   UNL A   1      36.645  21.309  26.721  1.00  0.00     0.163 HD
BRANCH   4   7
ATOM      7  C   UNL A   1      35.690  23.957  24.851  1.00  0.00     0.164 C 
ATOM      8  C   UNL A   1      34.374  24.060  24.048  1.00  0.00     0.225 C 
ATOM      9  C   UNL A   1      34.528  22.843  23.118  1.00  0.00     0.226 C 
ATOM     10  O   UNL A   1      35.915  22.811  22.743  1.00  0.00    -0.374 OA
ATOM     11  C   UNL A   1      36.651  23.565  23.721  1.00  0.00     0.180 C 
BRANCH   8  12
ATOM     12  N   UNL A   1      33.092  24.249  24.759  1.00  0.00    -0.327 N 
ATOM     13  H   UNL A   1      33.345  24.058  25.728  1.00  0.00     0.348 HD
BRANCH  12  14
ATOM     14  C   UNL A   1      32.071  23.238  24.448  1.00  0.00     0.259 C 
ATOM     15  C   UNL A   1      31.502  22.486  25.646  1.00  0.00     0.071 C 
ENDBRANCH  12  14
BRANCH  12  16
ATOM     16  C   UNL A   1      32.587  25.659  24.860  1.00  0.00     0.194 C 
ATOM     17  C   UNL A   1      32.553  26.494  23.546  1.00  0.00     0.134 C 
ATOM     18  C   UNL A   1      32.805  26.389  26.216  1.00  0.00     0.073 C 
ATOM     19  S   UNL A   1      32.697  28.296  23.635  1.00  0.00    -0.155 SA
ATOM     20  C   UNL A   1      32.604  27.915  26.379  1.00  0.00    -0.021 C 
ATOM     21  C   UNL A   1      31.880  28.582  25.211  1.00  0.00     0.076 C 
ATOM     22  C   UNL A   1      33.989  28.547  26.619  1.00  0.00     0.012 C 
ATOM     23  C   UNL A   1      31.752  28.181  27.649  1.00  0.00     0.012 C 
ENDBRANCH  12  16
ENDBRANCH   8  12
ENDBRANCH   4   7
ENDBRANCH   2   3
ENDBRANCH   1   2
BRANCH   1  24
ATOM     24  C   UNL A   1      40.653  21.783  26.048  1.00  0.00     0.023 C 
BRANCH  24  25
ATOM     25  C   UNL A   1      41.687  22.791  26.534  1.00  0.00     0.116 C 
BRANCH  25  26
ATOM     26  N   UNL A   1      42.673  23.192  25.534  1.00  0.00    -0.352 N 
ATOM     27  C   UNL A   1      43.130  24.458  25.203  1.00  0.00     0.251 C 
ATOM     28  H   UNL A   1      43.072  22.455  25.018  1.00  0.00     0.163 HD
ATOM     29  O   UNL A   1      44.029  24.611  24.389  1.00  0.00    -0.269 OA
BRANCH  27  30
ATOM     30  C   UNL A   1      42.406  25.622  25.751  1.00  0.00     0.039 A 
ATOM     31  C   UNL A   1      41.149  25.397  26.316  1.00  0.00     0.014 A 
ATOM     32  C   UNL A   1      43.069  26.829  25.942  1.00  0.00     0.014 A 
ATOM     33  C   UNL A   1      40.646  26.311  27.241  1.00  0.00     0.010 A 
ATOM     34  C   UNL A   1      42.633  27.667  26.957  1.00  0.00     0.010 A 
ATOM     35  C   UNL A   1      41.441  27.391  27.649  1.00  0.00    -0.014 A 
BRANCH  35  36
ATOM     36  C   UNL A   1      41.097  28.210  28.841  1.00  0.00     0.031 A 
ATOM     37  C   UNL A   1      41.872  28.031  30.114  1.00  0.00     0.074 A 
ATOM     38  C   UNL A   1      40.005  29.004  28.819  1.00  0.00     0.049 A 
ATOM     39  N   UNL A   1      41.621  28.495  31.311  1.00  0.00    -0.248 NA
ATOM     40  C   UNL A   1      43.056  27.161  30.044  1.00  0.00     0.031 C 
ATOM     41  C   UNL A   1      39.111  29.199  27.674  1.00  0.00     0.029 A 
ATOM     42  N   UNL A   1      39.450  29.789  29.801  1.00  0.00    -0.354 N 
ATOM     43  C   UNL A   1      42.580  27.931  32.138  1.00  0.00     0.074 A 
ATOM     44  C   UNL A   1      43.383  27.049  31.320  1.00  0.00     0.031 C 
ATOM     45  C   UNL A   1      38.150  30.077  28.004  1.00  0.00     0.029 A 
ATOM     46  C   UNL A   1      38.329  30.474  29.396  1.00  0.00     0.049 A 
ATOM     47  H   UNL A   1      39.821  29.854  30.711  1.00  0.00     0.167 HD
ATOM     48  C   UNL A   1      42.791  28.150  33.457  1.00  0.00     0.037 A 
ATOM     49  C   UNL A   1      37.536  31.327  30.073  1.00  0.00     0.037 A 
ATOM     50  C   UNL A   1      42.041  29.087  34.247  1.00  0.00     0.049 A 
ATOM     51  C   UNL A   1      37.850  31.627  31.513  1.00  0.00     0.074 A 
ATOM     52  C   UNL A   1      42.226  29.446  35.569  1.00  0.00     0.029 A 
ATOM     53  N   UNL A   1      40.971  29.833  33.773  1.00  0.00    -0.354 N 
ATOM     54  N   UNL A   1      38.796  31.131  32.271  1.00  0.00    -0.248 NA
ATOM     55  C   UNL A   1      36.991  32.609  32.190  1.00  0.00     0.031 C 
ATOM     56  C   UNL A   1      41.257  30.400  35.901  1.00  0.00     0.029 A 
ATOM     57  C   UNL A   1      40.489  30.655  34.776  1.00  0.00     0.049 A 
ATOM     58  H   UNL A   1      40.608  29.784  32.859  1.00  0.00     0.167 HD
ATOM     59  C   UNL A   1      38.666  31.758  33.502  1.00  0.00     0.074 A 
ATOM     60  C   UNL A   1      37.555  32.680  33.387  1.00  0.00     0.031 C 
ATOM     61  C   UNL A   1      39.399  31.584  34.628  1.00  0.00     0.037 A 
BRANCH  48  62
ATOM     62  C   UNL A   1      43.895  27.375  34.112  1.00  0.00     0.064 A 
ATOM     63  C   UNL A   1      45.211  27.859  34.149  1.00  0.00     0.173 A 
ATOM     64  C   UNL A   1      43.636  26.129  34.703  1.00  0.00     0.173 A 
ATOM     65  F   UNL A   1      45.513  29.036  33.580  1.00  0.00    -0.203 F 
ATOM     66  C   UNL A   1      46.236  27.106  34.716  1.00  0.00     0.198 A 
ATOM     67  C   UNL A   1      44.657  25.394  35.298  1.00  0.00     0.198 A 
ATOM     68  F   UNL A   1      42.394  25.621  34.697  1.00  0.00    -0.203 F 
ATOM     69  F   UNL A   1      47.496  27.559  34.679  1.00  0.00    -0.200 F 
ATOM     70  C   UNL A   1      45.957  25.878  35.294  1.00  0.00     0.200 A 
ATOM     71  F   UNL A   1      44.386  24.209  35.864  1.00  0.00    -0.200 F 
ATOM     72  F   UNL A   1      46.945  25.152  35.836  1.00  0.00    -0.200 F 
ENDBRANCH  48  62
BRANCH  49  73
ATOM     73  C   UNL A   1      36.401  31.999  29.386  1.00  0.00     0.064 A 
ATOM     74  C   UNL A   1      36.442  33.377  29.126  1.00  0.00     0.173 A 
ATOM     75  C   UNL A   1      35.260  31.293  28.984  1.00  0.00     0.173 A 
ATOM     76  F   UNL A   1      37.505  34.099  29.511  1.00  0.00    -0.203 F 
ATOM     77  C   UNL A   1      35.375  34.026  28.509  1.00  0.00     0.198 A 
ATOM     78  C   UNL A   1      34.203  31.940  28.345  1.00  0.00     0.198 A 
ATOM     79  F   UNL A   1      35.175  29.973  29.203  1.00  0.00    -0.203 F 
ATOM     80  F   UNL A   1      35.424  35.351  28.311  1.00  0.00    -0.200 F 
ATOM     81  C   UNL A   1      34.258  33.306  28.115  1.00  0.00     0.200 A 
ATOM     82  F   UNL A   1      33.129  31.239  27.955  1.00  0.00    -0.200 F 
ATOM     83  F   UNL A   1      33.231  33.931  27.521  1.00  0.00    -0.200 F 
ENDBRANCH  49  73
BRANCH  61  84
ATOM     84  C   UNL A   1      39.055  32.438  35.810  1.00  0.00     0.064 A 
ATOM     85  C   UNL A   1      38.263  31.952  36.859  1.00  0.00     0.173 A 
ATOM     86  C   UNL A   1      39.575  33.735  35.917  1.00  0.00     0.173 A 
ATOM     87  F   UNL A   1      37.733  30.722  36.790  1.00  0.00    -0.203 F 
ATOM     88  C   UNL A   1      37.992  32.743  37.972  1.00  0.00     0.198 A 
ATOM     89  C   UNL A   1      39.322  34.515  37.041  1.00  0.00     0.198 A 
ATOM     90  F   UNL A   1      40.342  34.240  34.939  1.00  0.00    -0.203 F 
ATOM     91  F   UNL A   1      37.208  32.273  38.951  1.00  0.00    -0.200 F 
ATOM     92  C   UNL A   1      38.528  34.020  38.066  1.00  0.00     0.200 A 
ATOM     93  F   UNL A   1      39.846  35.743  37.136  1.00  0.00    -0.200 F 
ATOM     94  F   UNL A   1      38.275  34.775  39.143  1.00  0.00    -0.200 F 
ENDBRANCH  61  84
ENDBRANCH  35  36
ENDBRANCH  27  30
ENDBRANCH  25  26
ENDBRANCH  24  25
ENDBRANCH   1  24
TORSDOF 14
ENDMDL
MODEL 3
REMARK VINA RESULT:     -11.6      1.511      7.628
REMARK SMILES CC[N@H+]([C@@H]1CSCC(C)(C)C1)[C@@H]1COC[C@@H]1C(=O)NCCCCNC(=O)c1ccc(-c2c3nc(c(-c4c(F)c(F)c(F)c(F)c4F)c4ccc([nH]4)c(-c4c(F)c(F)c(F)c(F)c4F)c4nc(c(-c5c(F)c(F)c(F)c(F)c5F)c5ccc2[nH]5)C=C4)C=C3)cc1
REMARK SMILES IDX 21 1 20 2 19 3 17 4 18 5 16 7 12 8 13 9 14 10 15 11 3 12
REMARK SMILES IDX 2 14 1 15 4 16 5 17 11 18 6 19 8 20 7 21 9 22 10 23 22 24
REMARK SMILES IDX 23 25 24 26 25 27 26 29 27 30 28 31 89 32 29 33 88 34 30 35
REMARK SMILES IDX 31 36 32 37 82 38 33 39 87 40 81 41 83 42 34 43 86 44 80 45
REMARK SMILES IDX 79 46 35 48 67 49 47 50 66 51 48 52 51 53 65 54 84 55 49 56
REMARK SMILES IDX 50 57 64 59 85 60 52 61 36 62 37 63 45 64 38 65 39 66 43 67
REMARK SMILES IDX 46 68 40 69 41 70 44 71 42 72 68 73 69 74 77 75 70 76 71 77
REMARK SMILES IDX 75 78 78 79 72 80 73 81 76 82 74 83 53 84 54 85 62 86 55 87
REMARK SMILES IDX 56 88 60 89 63 90 57 91 58 92 61 93 59 94
REMARK H PARENT 19 6 3 13 24 28 83 47 51 58
REMARK Flexibility Score: inf
ROOT
ATOM      1  C   UNL A   1      35.023  32.012  27.990  1.00  0.00     0.023 C 
ENDROOT
BRANCH   1   2
ATOM      2  C   UNL A   1      34.866  30.500  27.781  1.00  0.00     0.116 C 
BRANCH   2   3
ATOM      3  N   UNL A   1      34.222  30.211  26.505  1.00  0.00    -0.356 N 
ATOM      4  C   UNL A   1      33.609  29.106  25.988  1.00  0.00     0.231 C 
ATOM      5  O   UNL A   1      33.246  29.198  24.812  1.00  0.00    -0.274 OA
ATOM      6  H   UNL A   1      34.232  30.976  25.885  1.00  0.00     0.163 HD
BRANCH   4   7
ATOM      7  C   UNL A   1      33.316  27.863  26.831  1.00  0.00     0.164 C 
ATOM      8  C   UNL A   1      32.625  26.687  26.106  1.00  0.00     0.225 C 
ATOM      9  C   UNL A   1      31.185  27.224  26.028  1.00  0.00     0.226 C 
ATOM     10  O   UNL A   1      30.949  27.890  27.279  1.00  0.00    -0.374 OA
ATOM     11  C   UNL A   1      32.227  28.210  27.854  1.00  0.00     0.180 C 
BRANCH   8  12
ATOM     12  N   UNL A   1      33.235  26.116  24.886  1.00  0.00    -0.327 N 
ATOM     13  H   UNL A   1      34.075  26.683  24.771  1.00  0.00     0.348 HD
BRANCH  12  14
ATOM     14  C   UNL A   1      32.467  26.357  23.655  1.00  0.00     0.259 C 
ATOM     15  C   UNL A   1      33.297  26.603  22.399  1.00  0.00     0.071 C 
ENDBRANCH  12  14
BRANCH  12  16
ATOM     16  C   UNL A   1      33.823  24.742  25.014  1.00  0.00     0.194 C 
ATOM     17  C   UNL A   1      33.337  23.873  26.212  1.00  0.00     0.134 C 
ATOM     18  C   UNL A   1      35.266  24.540  24.470  1.00  0.00     0.073 C 
ATOM     19  S   UNL A   1      34.434  22.604  26.892  1.00  0.00    -0.155 SA
ATOM     20  C   UNL A   1      36.104  23.277  24.785  1.00  0.00    -0.021 C 
ATOM     21  C   UNL A   1      35.303  22.128  25.393  1.00  0.00     0.076 C 
ATOM     22  C   UNL A   1      37.266  23.704  25.705  1.00  0.00     0.012 C 
ATOM     23  C   UNL A   1      36.733  22.744  23.470  1.00  0.00     0.012 C 
ENDBRANCH  12  16
ENDBRANCH   8  12
ENDBRANCH   4   7
ENDBRANCH   2   3
ENDBRANCH   1   2
BRANCH   1  24
ATOM     24  C   UNL A   1      34.310  32.637  29.177  1.00  0.00     0.023 C 
BRANCH  24  25
ATOM     25  C   UNL A   1      34.456  34.153  29.247  1.00  0.00     0.116 C 
BRANCH  25  26
ATOM     26  N   UNL A   1      33.317  34.853  29.836  1.00  0.00    -0.352 N 
ATOM     27  C   UNL A   1      33.139  35.318  31.130  1.00  0.00     0.251 C 
ATOM     28  H   UNL A   1      32.564  35.021  29.224  1.00  0.00     0.163 HD
ATOM     29  O   UNL A   1      32.148  35.964  31.437  1.00  0.00    -0.269 OA
BRANCH  27  30
ATOM     30  C   UNL A   1      34.105  34.888  32.160  1.00  0.00     0.039 A 
ATOM     31  C   UNL A   1      33.870  33.671  32.803  1.00  0.00     0.014 A 
ATOM     32  C   UNL A   1      35.332  35.532  32.275  1.00  0.00     0.014 A 
ATOM     33  C   UNL A   1      34.937  33.002  33.402  1.00  0.00     0.010 A 
ATOM     34  C   UNL A   1      36.415  34.808  32.751  1.00  0.00     0.010 A 
ATOM     35  C   UNL A   1      36.236  33.516  33.276  1.00  0.00    -0.014 A 
BRANCH  35  36
ATOM     36  C   UNL A   1      37.435  32.705  33.613  1.00  0.00     0.031 A 
ATOM     37  C   UNL A   1      38.172  32.966  34.894  1.00  0.00     0.074 A 
ATOM     38  C   UNL A   1      37.936  31.838  32.708  1.00  0.00     0.049 A 
ATOM     39  N   UNL A   1      39.334  32.515  35.290  1.00  0.00    -0.248 NA
ATOM     40  C   UNL A   1      37.545  33.913  35.829  1.00  0.00     0.031 C 
ATOM     41  C   UNL A   1      37.368  31.555  31.387  1.00  0.00     0.029 A 
ATOM     42  N   UNL A   1      39.054  31.040  32.758  1.00  0.00    -0.354 N 
ATOM     43  C   UNL A   1      39.597  33.163  36.487  1.00  0.00     0.074 A 
ATOM     44  C   UNL A   1      38.503  34.078  36.726  1.00  0.00     0.031 C 
ATOM     45  C   UNL A   1      38.114  30.621  30.772  1.00  0.00     0.029 A 
ATOM     46  C   UNL A   1      39.237  30.270  31.633  1.00  0.00     0.049 A 
ATOM     47  H   UNL A   1      39.668  31.022  33.527  1.00  0.00     0.167 HD
ATOM     48  C   UNL A   1      40.644  32.990  37.328  1.00  0.00     0.037 A 
ATOM     49  C   UNL A   1      40.203  29.381  31.332  1.00  0.00     0.037 A 
ATOM     50  C   UNL A   1      41.687  32.024  37.125  1.00  0.00     0.049 A 
ATOM     51  C   UNL A   1      41.305  29.138  32.327  1.00  0.00     0.074 A 
ATOM     52  C   UNL A   1      42.748  31.710  37.954  1.00  0.00     0.029 A 
ATOM     53  N   UNL A   1      41.784  31.195  36.016  1.00  0.00    -0.354 N 
ATOM     54  N   UNL A   1      41.513  29.715  33.484  1.00  0.00    -0.248 NA
ATOM     55  C   UNL A   1      42.302  28.116  31.977  1.00  0.00     0.031 C 
ATOM     56  C   UNL A   1      43.497  30.700  37.340  1.00  0.00     0.029 A 
ATOM     57  C   UNL A   1      42.885  30.366  36.142  1.00  0.00     0.049 A 
ATOM     58  H   UNL A   1      41.163  31.197  35.252  1.00  0.00     0.167 HD
ATOM     59  C   UNL A   1      42.644  29.111  34.014  1.00  0.00     0.074 A 
ATOM     60  C   UNL A   1      43.073  28.113  33.055  1.00  0.00     0.031 C 
ATOM     61  C   UNL A   1      43.274  29.361  35.186  1.00  0.00     0.037 A 
BRANCH  48  62
ATOM     62  C   UNL A   1      40.689  33.855  38.552  1.00  0.00     0.064 A 
ATOM     63  C   UNL A   1      40.015  33.497  39.729  1.00  0.00     0.173 A 
ATOM     64  C   UNL A   1      41.408  35.059  38.547  1.00  0.00     0.173 A 
ATOM     65  F   UNL A   1      39.297  32.365  39.777  1.00  0.00    -0.203 F 
ATOM     66  C   UNL A   1      40.023  34.333  40.842  1.00  0.00     0.198 A 
ATOM     67  C   UNL A   1      41.442  35.877  39.672  1.00  0.00     0.198 A 
ATOM     68  F   UNL A   1      42.072  35.447  37.447  1.00  0.00    -0.203 F 
ATOM     69  F   UNL A   1      39.316  34.002  41.931  1.00  0.00    -0.200 F 
ATOM     70  C   UNL A   1      40.741  35.519  40.815  1.00  0.00     0.200 A 
ATOM     71  F   UNL A   1      42.142  37.020  39.649  1.00  0.00    -0.200 F 
ATOM     72  F   UNL A   1      40.745  36.325  41.885  1.00  0.00    -0.200 F 
ENDBRANCH  48  62
BRANCH  49  73
ATOM     73  C   UNL A   1      40.147  28.617  30.058  1.00  0.00     0.064 A 
ATOM     74  C   UNL A   1      39.494  27.377  30.000  1.00  0.00     0.173 A 
ATOM     75  C   UNL A   1      40.742  29.097  28.884  1.00  0.00     0.173 A 
ATOM     76  F   UNL A   1      38.927  26.868  31.104  1.00  0.00    -0.203 F 
ATOM     77  C   UNL A   1      39.457  26.636  28.821  1.00  0.00     0.198 A 
ATOM     78  C   UNL A   1      40.683  28.366  27.698  1.00  0.00     0.198 A 
ATOM     79  F   UNL A   1      41.372  30.280  28.885  1.00  0.00    -0.203 F 
ATOM     80  F   UNL A   1      38.862  25.435  28.805  1.00  0.00    -0.200 F 
ATOM     81  C   UNL A   1      40.048  27.133  27.669  1.00  0.00     0.200 A 
ATOM     82  F   UNL A   1      41.246  28.853  26.584  1.00  0.00    -0.200 F 
ATOM     83  F   UNL A   1      40.012  26.420  26.535  1.00  0.00    -0.200 F 
ENDBRANCH  49  73
BRANCH  61  84
ATOM     84  C   UNL A   1      44.463  28.514  35.522  1.00  0.00     0.064 A 
ATOM     85  C   UNL A   1      44.329  27.310  36.226  1.00  0.00     0.173 A 
ATOM     86  C   UNL A   1      45.740  28.887  35.081  1.00  0.00     0.173 A 
ATOM     87  F   UNL A   1      43.128  26.923  36.680  1.00  0.00    -0.203 F 
ATOM     88  C   UNL A   1      45.439  26.512  36.490  1.00  0.00     0.198 A 
ATOM     89  C   UNL A   1      46.845  28.076  35.326  1.00  0.00     0.198 A 
ATOM     90  F   UNL A   1      45.915  30.029  34.400  1.00  0.00    -0.203 F 
ATOM     91  F   UNL A   1      45.297  25.379  37.190  1.00  0.00    -0.200 F 
ATOM     92  C   UNL A   1      46.694  26.891  36.032  1.00  0.00     0.200 A 
ATOM     93  F   UNL A   1      48.053  28.437  34.876  1.00  0.00    -0.200 F 
ATOM     94  F   UNL A   1      47.758  26.116  36.277  1.00  0.00    -0.200 F 
ENDBRANCH  61  84
ENDBRANCH  35  36
ENDBRANCH  27  30
ENDBRANCH  25  26
ENDBRANCH  24  25
ENDBRANCH   1  24
TORSDOF 14
ENDMDL
