MODEL 1
REMARK VINA RESULT:     -12.3      0.000      0.000
REMARK SMILES COc1cc(OC(F)(F)F)cc2c1O[C@@H](C(F)(F)F)C(C(=O)NCCCCNC(=O)c1ccc(-c3c4nc(c(-c5c(F)c(F)c(F)c(F)c5F)c5ccc([nH]5)c(-c5c(F)c(F)c(F)c(F)c5F)c5nc(c(-c6c(F)c(F)c(F)c(F)c6F)c6ccc3[nH]6)C=C5)C=C4)cc1)=C2
REMARK SMILES IDX 25 1 24 2 23 3 21 4 22 5 20 7 3 8 4 9 13 10 5 11 12 12 14 13
REMARK SMILES IDX 11 14 94 15 15 16 2 17 1 18 6 19 7 20 8 21 9 22 10 23 16 24
REMARK SMILES IDX 17 25 18 26 19 27 26 28 27 29 28 30 29 31 30 33 31 34 32 35
REMARK SMILES IDX 93 36 33 37 92 38 34 39 35 40 36 41 86 42 37 43 91 44 85 45
REMARK SMILES IDX 87 46 38 47 90 48 84 49 83 50 39 52 71 53 51 54 70 55 52 56
REMARK SMILES IDX 55 57 69 58 88 59 53 60 54 61 68 63 89 64 56 65 40 66 41 67
REMARK SMILES IDX 49 68 42 69 43 70 47 71 50 72 44 73 45 74 48 75 46 76 72 77
REMARK SMILES IDX 73 78 81 79 74 80 75 81 79 82 82 83 76 84 77 85 80 86 78 87
REMARK SMILES IDX 57 88 58 89 66 90 59 91 60 92 64 93 67 94 61 95 62 96 65 97
REMARK SMILES IDX 63 98
REMARK H PARENT 23 6 28 32 87 51 55 62
REMARK Flexibility Score: inf
ROOT
ATOM      1  C   UNL A   1      39.370  22.691  26.412  1.00  0.00     0.023 C 
ENDROOT
BRANCH   1   2
ATOM      2  C   UNL A   1      38.133  23.534  26.079  1.00  0.00     0.116 C 
BRANCH   2   3
ATOM      3  N   UNL A   1      37.751  23.329  24.693  1.00  0.00    -0.352 N 
ATOM      4  C   UNL A   1      36.544  23.317  24.069  1.00  0.00     0.251 C 
ATOM      5  O   UNL A   1      36.504  22.935  22.902  1.00  0.00    -0.270 OA
ATOM      6  H   UNL A   1      38.511  23.166  24.090  1.00  0.00     0.163 HD
BRANCH   4   7
ATOM      7  C   UNL A   1      35.294  23.807  24.710  1.00  0.00     0.067 C 
ATOM      8  C   UNL A   1      31.614  24.855  26.467  1.00  0.00     0.165 A 
ATOM      9  C   UNL A   1      31.020  26.081  26.135  1.00  0.00     0.097 A 
ATOM     10  C   UNL A   1      32.850  24.495  25.914  1.00  0.00     0.170 A 
ATOM     11  C   UNL A   1      31.673  26.975  25.290  1.00  0.00     0.134 A 
ATOM     12  C   UNL A   1      33.510  25.392  25.079  1.00  0.00     0.025 A 
ATOM     13  O   UNL A   1      33.323  23.233  26.125  1.00  0.00    -0.471 OA
ATOM     14  C   UNL A   1      32.925  26.629  24.777  1.00  0.00     0.059 A 
ATOM     15  C   UNL A   1      34.758  25.006  24.441  1.00  0.00     0.026 C 
ATOM     16  C   UNL A   1      34.720  22.945  25.829  1.00  0.00     0.314 C 
BRANCH   8  17
ATOM     17  O   UNL A   1      30.858  24.054  27.285  1.00  0.00    -0.493 OA
ATOM     18  C   UNL A   1      30.123  23.046  26.594  1.00  0.00     0.278 C 
ENDBRANCH   8  17
BRANCH  11  19
ATOM     19  O   UNL A   1      31.213  28.189  24.870  1.00  0.00    -0.406 OA
BRANCH  19  20
ATOM     20  C   UNL A   1      31.698  29.348  25.526  1.00  0.00     0.573 C 
ATOM     21  F   UNL A   1      31.664  29.202  26.867  1.00  0.00    -0.132 F 
ATOM     22  F   UNL A   1      32.957  29.634  25.131  1.00  0.00    -0.132 F 
ATOM     23  F   UNL A   1      30.907  30.392  25.197  1.00  0.00    -0.132 F 
ENDBRANCH  19  20
ENDBRANCH  11  19
BRANCH  16  24
ATOM     24  C   UNL A   1      34.834  21.413  25.656  1.00  0.00     0.429 C 
ATOM     25  F   UNL A   1      36.071  20.944  25.936  1.00  0.00    -0.167 F 
ATOM     26  F   UNL A   1      34.004  20.766  26.519  1.00  0.00    -0.167 F 
ATOM     27  F   UNL A   1      34.498  21.005  24.411  1.00  0.00    -0.167 F 
ENDBRANCH  16  24
ENDBRANCH   4   7
ENDBRANCH   2   3
ENDBRANCH   1   2
BRANCH   1  28
ATOM     28  C   UNL A   1      39.445  21.358  25.661  1.00  0.00     0.023 C 
BRANCH  28  29
ATOM     29  C   UNL A   1      39.692  20.143  26.546  1.00  0.00     0.116 C 
BRANCH  29  30
ATOM     30  N   UNL A   1      40.743  19.272  26.043  1.00  0.00    -0.352 N 
ATOM     31  C   UNL A   1      42.087  19.531  25.928  1.00  0.00     0.251 C 
ATOM     32  H   UNL A   1      40.453  18.380  25.745  1.00  0.00     0.163 HD
ATOM     33  O   UNL A   1      42.832  18.728  25.385  1.00  0.00    -0.269 OA
BRANCH  31  34
ATOM     34  C   UNL A   1      42.617  20.816  26.429  1.00  0.00     0.039 A 
ATOM     35  C   UNL A   1      43.147  21.725  25.511  1.00  0.00     0.014 A 
ATOM     36  C   UNL A   1      42.558  21.133  27.789  1.00  0.00     0.014 A 
ATOM     37  C   UNL A   1      43.561  22.984  25.949  1.00  0.00     0.010 A 
ATOM     38  C   UNL A   1      42.909  22.409  28.214  1.00  0.00     0.010 A 
ATOM     39  C   UNL A   1      43.412  23.346  27.298  1.00  0.00    -0.014 A 
BRANCH  39  40
ATOM     40  C   UNL A   1      43.773  24.705  27.770  1.00  0.00     0.031 A 
ATOM     41  C   UNL A   1      42.695  25.700  28.090  1.00  0.00     0.074 A 
ATOM     42  C   UNL A   1      45.070  25.062  27.835  1.00  0.00     0.049 A 
ATOM     43  N   UNL A   1      42.807  26.956  28.444  1.00  0.00    -0.248 NA
ATOM     44  C   UNL A   1      41.306  25.231  27.970  1.00  0.00     0.031 C 
ATOM     45  C   UNL A   1      46.203  24.199  27.494  1.00  0.00     0.029 A 
ATOM     46  N   UNL A   1      45.654  26.249  28.196  1.00  0.00    -0.354 N 
ATOM     47  C   UNL A   1      41.508  27.429  28.568  1.00  0.00     0.074 A 
ATOM     48  C   UNL A   1      40.624  26.341  28.207  1.00  0.00     0.031 C 
ATOM     49  C   UNL A   1      47.345  24.880  27.679  1.00  0.00     0.029 A 
ATOM     50  C   UNL A   1      47.025  26.235  28.118  1.00  0.00     0.049 A 
ATOM     51  H   UNL A   1      45.138  27.038  28.484  1.00  0.00     0.167 HD
ATOM     52  C   UNL A   1      41.091  28.653  28.968  1.00  0.00     0.037 A 
ATOM     53  C   UNL A   1      47.920  27.208  28.369  1.00  0.00     0.037 A 
ATOM     54  C   UNL A   1      41.975  29.720  29.360  1.00  0.00     0.049 A 
ATOM     55  C   UNL A   1      47.430  28.555  28.828  1.00  0.00     0.074 A 
ATOM     56  C   UNL A   1      41.652  30.970  29.855  1.00  0.00     0.029 A 
ATOM     57  N   UNL A   1      43.359  29.657  29.301  1.00  0.00    -0.354 N 
ATOM     58  N   UNL A   1      46.200  28.967  29.019  1.00  0.00    -0.248 NA
ATOM     59  C   UNL A   1      48.454  29.570  29.114  1.00  0.00     0.031 C 
ATOM     60  C   UNL A   1      42.839  31.681  30.056  1.00  0.00     0.029 A 
ATOM     61  C   UNL A   1      43.905  30.857  29.731  1.00  0.00     0.049 A 
ATOM     62  H   UNL A   1      43.878  28.877  28.999  1.00  0.00     0.167 HD
ATOM     63  C   UNL A   1      46.303  30.274  29.473  1.00  0.00     0.074 A 
ATOM     64  C   UNL A   1      47.715  30.584  29.541  1.00  0.00     0.031 C 
ATOM     65  C   UNL A   1      45.314  31.142  29.802  1.00  0.00     0.037 A 
BRANCH  52  66
ATOM     66  C   UNL A   1      39.613  28.905  29.009  1.00  0.00     0.064 A 
ATOM     67  C   UNL A   1      38.875  28.766  30.194  1.00  0.00     0.173 A 
ATOM     68  C   UNL A   1      38.931  29.324  27.856  1.00  0.00     0.173 A 
ATOM     69  F   UNL A   1      39.478  28.356  31.320  1.00  0.00    -0.203 F 
ATOM     70  C   UNL A   1      37.505  29.013  30.219  1.00  0.00     0.198 A 
ATOM     71  C   UNL A   1      37.566  29.597  27.891  1.00  0.00     0.198 A 
ATOM     72  F   UNL A   1      39.589  29.477  26.698  1.00  0.00    -0.203 F 
ATOM     73  F   UNL A   1      36.813  28.827  31.352  1.00  0.00    -0.200 F 
ATOM     74  C   UNL A   1      36.853  29.434  29.070  1.00  0.00     0.200 A 
ATOM     75  F   UNL A   1      36.939  30.016  26.783  1.00  0.00    -0.200 F 
ATOM     76  F   UNL A   1      35.536  29.678  29.097  1.00  0.00    -0.200 F 
ENDBRANCH  52  66
BRANCH  53  77
ATOM     77  C   UNL A   1      49.374  26.939  28.218  1.00  0.00     0.064 A 
ATOM     78  C   UNL A   1      50.014  27.125  26.985  1.00  0.00     0.173 A 
ATOM     79  C   UNL A   1      50.148  26.486  29.296  1.00  0.00     0.173 A 
ATOM     80  F   UNL A   1      49.311  27.537  25.921  1.00  0.00    -0.203 F 
ATOM     81  C   UNL A   1      51.371  26.845  26.830  1.00  0.00     0.198 A 
ATOM     82  C   UNL A   1      51.510  26.234  29.146  1.00  0.00     0.198 A 
ATOM     83  F   UNL A   1      49.583  26.300  30.497  1.00  0.00    -0.203 F 
ATOM     84  F   UNL A   1      51.947  26.987  25.629  1.00  0.00    -0.200 F 
ATOM     85  C   UNL A   1      52.119  26.405  27.911  1.00  0.00     0.200 A 
ATOM     86  F   UNL A   1      52.233  25.821  30.196  1.00  0.00    -0.200 F 
ATOM     87  F   UNL A   1      53.423  26.138  27.762  1.00  0.00    -0.200 F 
ENDBRANCH  53  77
BRANCH  65  88
ATOM     88  C   UNL A   1      45.726  32.496  30.300  1.00  0.00     0.064 A 
ATOM     89  C   UNL A   1      45.881  33.583  29.429  1.00  0.00     0.173 A 
ATOM     90  C   UNL A   1      45.929  32.715  31.671  1.00  0.00     0.173 A 
ATOM     91  F   UNL A   1      45.713  33.419  28.107  1.00  0.00    -0.203 F 
ATOM     92  C   UNL A   1      46.246  34.838  29.910  1.00  0.00     0.198 A 
ATOM     93  C   UNL A   1      46.267  33.977  32.151  1.00  0.00     0.198 A 
ATOM     94  F   UNL A   1      45.788  31.707  32.545  1.00  0.00    -0.203 F 
ATOM     95  F   UNL A   1      46.431  35.853  29.055  1.00  0.00    -0.200 F 
ATOM     96  C   UNL A   1      46.432  35.035  31.270  1.00  0.00     0.200 A 
ATOM     97  F   UNL A   1      46.433  34.169  33.467  1.00  0.00    -0.200 F 
ATOM     98  F   UNL A   1      46.776  36.244  31.732  1.00  0.00    -0.200 F 
ENDBRANCH  65  88
ENDBRANCH  39  40
ENDBRANCH  31  34
ENDBRANCH  29  30
ENDBRANCH  28  29
ENDBRANCH   1  28
TORSDOF 15
ENDMDL
MODEL 2
REMARK VINA RESULT:     -12.2      0.364      7.132
REMARK SMILES COc1cc(OC(F)(F)F)cc2c1O[C@@H](C(F)(F)F)C(C(=O)NCCCCNC(=O)c1ccc(-c3c4nc(c(-c5c(F)c(F)c(F)c(F)c5F)c5ccc([nH]5)c(-c5c(F)c(F)c(F)c(F)c5F)c5nc(c(-c6c(F)c(F)c(F)c(F)c6F)c6ccc3[nH]6)C=C5)C=C4)cc1)=C2
REMARK SMILES IDX 25 1 24 2 23 3 21 4 22 5 20 7 3 8 4 9 13 10 5 11 12 12 14 13
REMARK SMILES IDX 11 14 94 15 15 16 2 17 1 18 6 19 7 20 8 21 9 22 10 23 16 24
REMARK SMILES IDX 17 25 18 26 19 27 26 28 27 29 28 30 29 31 30 33 31 34 32 35
REMARK SMILES IDX 93 36 33 37 92 38 34 39 35 40 36 41 86 42 37 43 91 44 85 45
REMARK SMILES IDX 87 46 38 47 90 48 84 49 83 50 39 52 71 53 51 54 70 55 52 56
REMARK SMILES IDX 55 57 69 58 88 59 53 60 54 61 68 63 89 64 56 65 40 66 41 67
REMARK SMILES IDX 49 68 42 69 43 70 47 71 50 72 44 73 45 74 48 75 46 76 72 77
REMARK SMILES IDX 73 78 81 79 74 80 75 81 79 82 82 83 76 84 77 85 80 86 78 87
REMARK SMILES IDX 57 88 58 89 66 90 59 91 60 92 64 93 67 94 61 95 62 96 65 97
REMARK SMILES IDX 63 98
REMARK H PARENT 23 6 28 32 87 51 55 62
REMARK Flexibility Score: inf
ROOT
ATOM      1  C   UNL A   1      39.414  22.578  26.432  1.00  0.00     0.023 C 
ENDROOT
BRANCH   1   2
ATOM      2  C   UNL A   1      38.178  23.426  26.110  1.00  0.00     0.116 C 
BRANCH   2   3
ATOM      3  N   UNL A   1      37.789  23.229  24.725  1.00  0.00    -0.352 N 
ATOM      4  C   UNL A   1      36.579  23.229  24.105  1.00  0.00     0.251 C 
ATOM      5  O   UNL A   1      36.533  22.853  22.936  1.00  0.00    -0.270 OA
ATOM      6  H   UNL A   1      38.546  23.064  24.118  1.00  0.00     0.163 HD
BRANCH   4   7
ATOM      7  C   UNL A   1      35.336  23.726  24.753  1.00  0.00     0.067 C 
ATOM      8  C   UNL A   1      31.666  24.794  26.519  1.00  0.00     0.165 A 
ATOM      9  C   UNL A   1      31.096  26.039  26.216  1.00  0.00     0.097 A 
ATOM     10  C   UNL A   1      32.898  24.426  25.963  1.00  0.00     0.170 A 
ATOM     11  C   UNL A   1      31.769  26.942  25.397  1.00  0.00     0.134 A 
ATOM     12  C   UNL A   1      33.579  25.333  25.154  1.00  0.00     0.025 A 
ATOM     13  O   UNL A   1      33.347  23.151  26.144  1.00  0.00    -0.471 OA
ATOM     14  C   UNL A   1      33.018  26.586  24.881  1.00  0.00     0.059 A 
ATOM     15  C   UNL A   1      34.822  24.940  24.512  1.00  0.00     0.026 C 
ATOM     16  C   UNL A   1      34.741  22.846  25.846  1.00  0.00     0.314 C 
BRANCH   8  17
ATOM     17  O   UNL A   1      30.892  23.986  27.313  1.00  0.00    -0.493 OA
ATOM     18  C   UNL A   1      30.154  23.000  26.594  1.00  0.00     0.278 C 
ENDBRANCH   8  17
BRANCH  11  19
ATOM     19  O   UNL A   1      31.333  28.174  25.007  1.00  0.00    -0.406 OA
BRANCH  19  20
ATOM     20  C   UNL A   1      31.786  29.303  25.735  1.00  0.00     0.573 C 
ATOM     21  F   UNL A   1      31.565  29.154  27.057  1.00  0.00    -0.132 F 
ATOM     22  F   UNL A   1      33.101  29.521  25.514  1.00  0.00    -0.132 F 
ATOM     23  F   UNL A   1      31.103  30.390  25.314  1.00  0.00    -0.132 F 
ENDBRANCH  19  20
ENDBRANCH  11  19
BRANCH  16  24
ATOM     24  C   UNL A   1      34.829  21.316  25.635  1.00  0.00     0.429 C 
ATOM     25  F   UNL A   1      33.980  20.627  26.430  1.00  0.00    -0.167 F 
ATOM     26  F   UNL A   1      34.476  20.983  24.363  1.00  0.00    -0.167 F 
ATOM     27  F   UNL A   1      36.078  20.838  25.831  1.00  0.00    -0.167 F 
ENDBRANCH  16  24
ENDBRANCH   4   7
ENDBRANCH   2   3
ENDBRANCH   1   2
BRANCH   1  28
ATOM     28  C   UNL A   1      39.467  21.235  25.698  1.00  0.00     0.023 C 
BRANCH  28  29
ATOM     29  C   UNL A   1      39.848  20.047  26.572  1.00  0.00     0.116 C 
BRANCH  29  30
ATOM     30  N   UNL A   1      40.932  19.251  26.016  1.00  0.00    -0.352 N 
ATOM     31  C   UNL A   1      42.241  19.612  25.812  1.00  0.00     0.251 C 
ATOM     32  H   UNL A   1      40.695  18.334  25.749  1.00  0.00     0.163 HD
ATOM     33  O   UNL A   1      43.012  18.858  25.234  1.00  0.00    -0.269 OA
BRANCH  31  34
ATOM     34  C   UNL A   1      42.698  20.943  26.260  1.00  0.00     0.039 A 
ATOM     35  C   UNL A   1      43.063  21.886  25.295  1.00  0.00     0.014 A 
ATOM     36  C   UNL A   1      42.733  21.269  27.619  1.00  0.00     0.014 A 
ATOM     37  C   UNL A   1      43.401  23.180  25.691  1.00  0.00     0.010 A 
ATOM     38  C   UNL A   1      43.007  22.575  28.006  1.00  0.00     0.010 A 
ATOM     39  C   UNL A   1      43.341  23.543  27.047  1.00  0.00    -0.014 A 
BRANCH  39  40
ATOM     40  C   UNL A   1      43.622  24.933  27.480  1.00  0.00     0.031 A 
ATOM     41  C   UNL A   1      45.041  25.396  27.646  1.00  0.00     0.074 A 
ATOM     42  C   UNL A   1      42.599  25.749  27.796  1.00  0.00     0.049 A 
ATOM     43  N   UNL A   1      45.491  26.545  28.085  1.00  0.00    -0.248 NA
ATOM     44  C   UNL A   1      46.096  24.431  27.299  1.00  0.00     0.031 C 
ATOM     45  C   UNL A   1      41.180  25.392  27.729  1.00  0.00     0.029 A 
ATOM     46  N   UNL A   1      42.594  27.043  28.251  1.00  0.00    -0.354 N 
ATOM     47  C   UNL A   1      46.874  26.432  28.086  1.00  0.00     0.074 A 
ATOM     48  C   UNL A   1      47.191  25.089  27.648  1.00  0.00     0.031 C 
ATOM     49  C   UNL A   1      40.443  26.446  28.112  1.00  0.00     0.029 A 
ATOM     50  C   UNL A   1      41.335  27.540  28.483  1.00  0.00     0.049 A 
ATOM     51  H   UNL A   1      43.416  27.565  28.399  1.00  0.00     0.167 HD
ATOM     52  C   UNL A   1      47.796  27.371  28.402  1.00  0.00     0.037 A 
ATOM     53  C   UNL A   1      40.947  28.743  28.947  1.00  0.00     0.037 A 
ATOM     54  C   UNL A   1      47.475  28.717  28.802  1.00  0.00     0.049 A 
ATOM     55  C   UNL A   1      41.993  29.775  29.274  1.00  0.00     0.074 A 
ATOM     56  C   UNL A   1      48.336  29.766  29.067  1.00  0.00     0.029 A 
ATOM     57  N   UNL A   1      46.188  29.196  28.991  1.00  0.00    -0.354 N 
ATOM     58  N   UNL A   1      43.298  29.684  29.195  1.00  0.00    -0.248 NA
ATOM     59  C   UNL A   1      41.510  31.079  29.750  1.00  0.00     0.031 C 
ATOM     60  C   UNL A   1      47.571  30.869  29.460  1.00  0.00     0.029 A 
ATOM     61  C   UNL A   1      46.232  30.522  29.393  1.00  0.00     0.049 A 
ATOM     62  H   UNL A   1      45.364  28.672  28.862  1.00  0.00     0.167 HD
ATOM     63  C   UNL A   1      43.791  30.922  29.581  1.00  0.00     0.074 A 
ATOM     64  C   UNL A   1      42.643  31.753  29.882  1.00  0.00     0.031 C 
ATOM     65  C   UNL A   1      45.079  31.335  29.679  1.00  0.00     0.037 A 
BRANCH  52  66
ATOM     66  C   UNL A   1      49.242  26.980  28.321  1.00  0.00     0.064 A 
ATOM     67  C   UNL A   1      49.953  26.553  29.453  1.00  0.00     0.173 A 
ATOM     68  C   UNL A   1      49.916  26.999  27.091  1.00  0.00     0.173 A 
ATOM     69  F   UNL A   1      49.358  26.530  30.655  1.00  0.00    -0.203 F 
ATOM     70  C   UNL A   1      51.292  26.184  29.361  1.00  0.00     0.198 A 
ATOM     71  C   UNL A   1      51.248  26.602  26.998  1.00  0.00     0.198 A 
ATOM     72  F   UNL A   1      49.282  27.394  25.977  1.00  0.00    -0.203 F 
ATOM     73  F   UNL A   1      51.964  25.826  30.464  1.00  0.00    -0.200 F 
ATOM     74  C   UNL A   1      51.936  26.202  28.133  1.00  0.00     0.200 A 
ATOM     75  F   UNL A   1      51.865  26.609  25.808  1.00  0.00    -0.200 F 
ATOM     76  F   UNL A   1      53.223  25.840  28.045  1.00  0.00    -0.200 F 
ENDBRANCH  52  66
BRANCH  53  77
ATOM     77  C   UNL A   1      39.502  29.050  29.103  1.00  0.00     0.064 A 
ATOM     78  C   UNL A   1      38.877  28.943  30.353  1.00  0.00     0.173 A 
ATOM     79  C   UNL A   1      38.717  29.446  28.011  1.00  0.00     0.173 A 
ATOM     80  F   UNL A   1      39.582  28.548  31.423  1.00  0.00    -0.203 F 
ATOM     81  C   UNL A   1      37.515  29.200  30.501  1.00  0.00     0.198 A 
ATOM     82  C   UNL A   1      37.361  29.729  28.166  1.00  0.00     0.198 A 
ATOM     83  F   UNL A   1      39.270  29.570  26.796  1.00  0.00    -0.203 F 
ATOM     84  F   UNL A   1      36.933  29.045  31.698  1.00  0.00    -0.200 F 
ATOM     85  C   UNL A   1      36.760  29.598  29.409  1.00  0.00     0.200 A 
ATOM     86  F   UNL A   1      36.637  30.127  27.111  1.00  0.00    -0.200 F 
ATOM     87  F   UNL A   1      35.450  29.846  29.551  1.00  0.00    -0.200 F 
ENDBRANCH  53  77
BRANCH  65  88
ATOM     88  C   UNL A   1      45.314  32.757  30.094  1.00  0.00     0.064 A 
ATOM     89  C   UNL A   1      45.352  33.799  29.156  1.00  0.00     0.173 A 
ATOM     90  C   UNL A   1      45.463  33.084  31.450  1.00  0.00     0.173 A 
ATOM     91  F   UNL A   1      45.231  33.534  27.847  1.00  0.00    -0.203 F 
ATOM     92  C   UNL A   1      45.553  35.116  29.560  1.00  0.00     0.198 A 
ATOM     93  C   UNL A   1      45.636  34.405  31.852  1.00  0.00     0.198 A 
ATOM     94  F   UNL A   1      45.428  32.123  32.386  1.00  0.00    -0.203 F 
ATOM     95  F   UNL A   1      45.630  36.091  28.645  1.00  0.00    -0.200 F 
ATOM     96  C   UNL A   1      45.688  35.419  30.908  1.00  0.00     0.200 A 
ATOM     97  F   UNL A   1      45.752  34.697  33.155  1.00  0.00    -0.200 F 
ATOM     98  F   UNL A   1      45.874  36.687  31.295  1.00  0.00    -0.200 F 
ENDBRANCH  65  88
ENDBRANCH  39  40
ENDBRANCH  31  34
ENDBRANCH  29  30
ENDBRANCH  28  29
ENDBRANCH   1  28
TORSDOF 15
ENDMDL
MODEL 3
REMARK VINA RESULT:     -12.2      0.111      1.651
REMARK SMILES COc1cc(OC(F)(F)F)cc2c1O[C@@H](C(F)(F)F)C(C(=O)NCCCCNC(=O)c1ccc(-c3c4nc(c(-c5c(F)c(F)c(F)c(F)c5F)c5ccc([nH]5)c(-c5c(F)c(F)c(F)c(F)c5F)c5nc(c(-c6c(F)c(F)c(F)c(F)c6F)c6ccc3[nH]6)C=C5)C=C4)cc1)=C2
REMARK SMILES IDX 25 1 24 2 23 3 21 4 22 5 20 7 3 8 4 9 13 10 5 11 12 12 14 13
REMARK SMILES IDX 11 14 94 15 15 16 2 17 1 18 6 19 7 20 8 21 9 22 10 23 16 24
REMARK SMILES IDX 17 25 18 26 19 27 26 28 27 29 28 30 29 31 30 33 31 34 32 35
REMARK SMILES IDX 93 36 33 37 92 38 34 39 35 40 36 41 86 42 37 43 91 44 85 45
REMARK SMILES IDX 87 46 38 47 90 48 84 49 83 50 39 52 71 53 51 54 70 55 52 56
REMARK SMILES IDX 55 57 69 58 88 59 53 60 54 61 68 63 89 64 56 65 40 66 41 67
REMARK SMILES IDX 49 68 42 69 43 70 47 71 50 72 44 73 45 74 48 75 46 76 72 77
REMARK SMILES IDX 73 78 81 79 74 80 75 81 79 82 82 83 76 84 77 85 80 86 78 87
REMARK SMILES IDX 57 88 58 89 66 90 59 91 60 92 64 93 67 94 61 95 62 96 65 97
REMARK SMILES IDX 63 98
REMARK H PARENT 23 6 28 32 87 51 55 62
REMARK Flexibility Score: inf
ROOT
ATOM      1  C   UNL A   1      39.351  22.727  26.448  1.00  0.00     0.023 C 
ENDROOT
BRANCH   1   2
ATOM      2  C   UNL A   1      38.141  23.599  26.090  1.00  0.00     0.116 C 
BRANCH   2   3
ATOM      3  N   UNL A   1      37.747  23.360  24.713  1.00  0.00    -0.352 N 
ATOM      4  C   UNL A   1      36.535  23.333  24.099  1.00  0.00     0.251 C 
ATOM      5  O   UNL A   1      36.485  22.922  22.943  1.00  0.00    -0.270 OA
ATOM      6  H   UNL A   1      38.502  23.182  24.107  1.00  0.00     0.163 HD
BRANCH   4   7
ATOM      7  C   UNL A   1      35.291  23.839  24.739  1.00  0.00     0.067 C 
ATOM      8  C   UNL A   1      31.621  24.935  26.488  1.00  0.00     0.165 A 
ATOM      9  C   UNL A   1      31.050  26.174  26.164  1.00  0.00     0.097 A 
ATOM     10  C   UNL A   1      32.853  24.558  25.938  1.00  0.00     0.170 A 
ATOM     11  C   UNL A   1      31.721  27.063  25.329  1.00  0.00     0.134 A 
ATOM     12  C   UNL A   1      33.532  25.451  25.113  1.00  0.00     0.025 A 
ATOM     13  O   UNL A   1      33.304  23.287  26.141  1.00  0.00    -0.471 OA
ATOM     14  C   UNL A   1      32.969  26.700  24.819  1.00  0.00     0.059 A 
ATOM     15  C   UNL A   1      34.776  25.049  24.477  1.00  0.00     0.026 C 
ATOM     16  C   UNL A   1      34.697  22.978  25.848  1.00  0.00     0.314 C 
BRANCH   8  17
ATOM     17  O   UNL A   1      30.848  24.140  27.297  1.00  0.00    -0.493 OA
ATOM     18  C   UNL A   1      30.126  23.128  26.598  1.00  0.00     0.278 C 
ENDBRANCH   8  17
BRANCH  11  19
ATOM     19  O   UNL A   1      31.283  28.288  24.917  1.00  0.00    -0.406 OA
BRANCH  19  20
ATOM     20  C   UNL A   1      31.682  29.424  25.665  1.00  0.00     0.573 C 
ATOM     21  F   UNL A   1      30.977  30.518  25.307  1.00  0.00    -0.132 F 
ATOM     22  F   UNL A   1      31.539  29.202  26.989  1.00  0.00    -0.132 F 
ATOM     23  F   UNL A   1      32.988  29.665  25.418  1.00  0.00    -0.132 F 
ENDBRANCH  19  20
ENDBRANCH  11  19
BRANCH  16  24
ATOM     24  C   UNL A   1      34.787  21.445  25.664  1.00  0.00     0.429 C 
ATOM     25  F   UNL A   1      34.491  21.050  24.406  1.00  0.00    -0.167 F 
ATOM     26  F   UNL A   1      36.055  21.005  25.888  1.00  0.00    -0.167 F 
ATOM     27  F   UNL A   1      33.983  20.773  26.520  1.00  0.00    -0.167 F 
ENDBRANCH  16  24
ENDBRANCH   4   7
ENDBRANCH   2   3
ENDBRANCH   1   2
BRANCH   1  28
ATOM     28  C   UNL A   1      39.381  21.369  25.739  1.00  0.00     0.023 C 
BRANCH  28  29
ATOM     29  C   UNL A   1      39.717  20.188  26.640  1.00  0.00     0.116 C 
BRANCH  29  30
ATOM     30  N   UNL A   1      40.754  19.327  26.092  1.00  0.00    -0.352 N 
ATOM     31  C   UNL A   1      42.092  19.593  25.933  1.00  0.00     0.251 C 
ATOM     32  H   UNL A   1      40.457  18.436  25.796  1.00  0.00     0.163 HD
ATOM     33  O   UNL A   1      42.820  18.798  25.357  1.00  0.00    -0.269 OA
BRANCH  31  34
ATOM     34  C   UNL A   1      42.633  20.876  26.427  1.00  0.00     0.039 A 
ATOM     35  C   UNL A   1      43.072  21.820  25.497  1.00  0.00     0.014 A 
ATOM     36  C   UNL A   1      42.674  21.156  27.796  1.00  0.00     0.014 A 
ATOM     37  C   UNL A   1      43.494  23.075  25.937  1.00  0.00     0.010 A 
ATOM     38  C   UNL A   1      43.031  22.428  28.227  1.00  0.00     0.010 A 
ATOM     39  C   UNL A   1      43.443  23.399  27.302  1.00  0.00    -0.014 A 
BRANCH  39  40
ATOM     40  C   UNL A   1      43.812  24.753  27.782  1.00  0.00     0.031 A 
ATOM     41  C   UNL A   1      42.740  25.753  28.107  1.00  0.00     0.074 A 
ATOM     42  C   UNL A   1      45.111  25.101  27.851  1.00  0.00     0.049 A 
ATOM     43  N   UNL A   1      42.860  27.006  28.468  1.00  0.00    -0.248 NA
ATOM     44  C   UNL A   1      41.348  25.294  27.983  1.00  0.00     0.031 C 
ATOM     45  C   UNL A   1      46.239  24.233  27.506  1.00  0.00     0.029 A 
ATOM     46  N   UNL A   1      45.702  26.282  28.219  1.00  0.00    -0.354 N 
ATOM     47  C   UNL A   1      41.564  27.487  28.594  1.00  0.00     0.074 A 
ATOM     48  C   UNL A   1      40.673  26.407  28.226  1.00  0.00     0.031 C 
ATOM     49  C   UNL A   1      47.385  24.905  27.696  1.00  0.00     0.029 A 
ATOM     50  C   UNL A   1      47.073  26.260  28.143  1.00  0.00     0.049 A 
ATOM     51  H   UNL A   1      45.192  27.073  28.511  1.00  0.00     0.167 HD
ATOM     52  C   UNL A   1      41.155  28.711  29.000  1.00  0.00     0.037 A 
ATOM     53  C   UNL A   1      47.975  27.225  28.399  1.00  0.00     0.037 A 
ATOM     54  C   UNL A   1      42.045  29.770  29.400  1.00  0.00     0.049 A 
ATOM     55  C   UNL A   1      47.493  28.573  28.866  1.00  0.00     0.074 A 
ATOM     56  C   UNL A   1      41.730  31.020  29.901  1.00  0.00     0.029 A 
ATOM     57  N   UNL A   1      43.429  29.698  29.342  1.00  0.00    -0.354 N 
ATOM     58  N   UNL A   1      46.266  28.992  29.058  1.00  0.00    -0.248 NA
ATOM     59  C   UNL A   1      48.523  29.579  29.159  1.00  0.00     0.031 C 
ATOM     60  C   UNL A   1      42.922  31.721  30.108  1.00  0.00     0.029 A 
ATOM     61  C   UNL A   1      43.982  30.892  29.779  1.00  0.00     0.049 A 
ATOM     62  H   UNL A   1      43.943  28.917  29.035  1.00  0.00     0.167 HD
ATOM     63  C   UNL A   1      46.376  30.295  29.520  1.00  0.00     0.074 A 
ATOM     64  C   UNL A   1      47.791  30.595  29.592  1.00  0.00     0.031 C 
ATOM     65  C   UNL A   1      45.393  31.168  29.853  1.00  0.00     0.037 A 
BRANCH  52  66
ATOM     66  C   UNL A   1      39.678  28.972  29.041  1.00  0.00     0.064 A 
ATOM     67  C   UNL A   1      38.959  29.315  27.886  1.00  0.00     0.173 A 
ATOM     68  C   UNL A   1      38.967  28.844  30.244  1.00  0.00     0.173 A 
ATOM     69  F   UNL A   1      39.595  29.462  26.714  1.00  0.00    -0.203 F 
ATOM     70  C   UNL A   1      37.587  29.545  27.938  1.00  0.00     0.198 A 
ATOM     71  C   UNL A   1      37.590  29.047  30.287  1.00  0.00     0.198 A 
ATOM     72  F   UNL A   1      39.605  28.514  31.376  1.00  0.00    -0.203 F 
ATOM     73  F   UNL A   1      36.929  29.918  26.831  1.00  0.00    -0.200 F 
ATOM     74  C   UNL A   1      36.902  29.404  29.136  1.00  0.00     0.200 A 
ATOM     75  F   UNL A   1      36.928  28.900  31.443  1.00  0.00    -0.200 F 
ATOM     76  F   UNL A   1      35.581  29.620  29.183  1.00  0.00    -0.200 F 
ENDBRANCH  52  66
BRANCH  53  77
ATOM     77  C   UNL A   1      49.427  26.948  28.249  1.00  0.00     0.064 A 
ATOM     78  C   UNL A   1      50.061  27.096  27.007  1.00  0.00     0.173 A 
ATOM     79  C   UNL A   1      50.206  26.523  29.335  1.00  0.00     0.173 A 
ATOM     80  F   UNL A   1      49.353  27.480  25.936  1.00  0.00    -0.203 F 
ATOM     81  C   UNL A   1      51.416  26.808  26.853  1.00  0.00     0.198 A 
ATOM     82  C   UNL A   1      51.566  26.262  29.184  1.00  0.00     0.198 A 
ATOM     83  F   UNL A   1      49.647  26.373  30.544  1.00  0.00    -0.203 F 
ATOM     84  F   UNL A   1      51.986  26.913  25.645  1.00  0.00    -0.200 F 
ATOM     85  C   UNL A   1      52.168  26.397  27.942  1.00  0.00     0.200 A 
ATOM     86  F   UNL A   1      52.293  25.878  30.242  1.00  0.00    -0.200 F 
ATOM     87  F   UNL A   1      53.471  26.121  27.793  1.00  0.00    -0.200 F 
ENDBRANCH  53  77
BRANCH  65  88
ATOM     88  C   UNL A   1      45.814  32.516  30.360  1.00  0.00     0.064 A 
ATOM     89  C   UNL A   1      46.064  32.743  31.721  1.00  0.00     0.173 A 
ATOM     90  C   UNL A   1      46.008  33.580  29.467  1.00  0.00     0.173 A 
ATOM     91  F   UNL A   1      45.878  31.760  32.615  1.00  0.00    -0.203 F 
ATOM     92  C   UNL A   1      46.473  33.995  32.173  1.00  0.00     0.198 A 
ATOM     93  C   UNL A   1      46.443  34.823  29.919  1.00  0.00     0.198 A 
ATOM     94  F   UNL A   1      45.786  33.411  28.155  1.00  0.00    -0.203 F 
ATOM     95  F   UNL A   1      46.664  34.202  33.482  1.00  0.00    -0.200 F 
ATOM     96  C   UNL A   1      46.668  35.031  31.271  1.00  0.00     0.200 A 
ATOM     97  F   UNL A   1      46.643  35.819  29.046  1.00  0.00    -0.200 F 
ATOM     98  F   UNL A   1      47.068  36.233  31.707  1.00  0.00    -0.200 F 
ENDBRANCH  65  88
ENDBRANCH  39  40
ENDBRANCH  31  34
ENDBRANCH  29  30
ENDBRANCH  28  29
ENDBRANCH   1  28
TORSDOF 15
ENDMDL
