MODEL 1
REMARK VINA RESULT:     -11.4      0.000      0.000
REMARK SMILES Cc1cc(Br)cc([N+](=O)[O-])c1OCCC[C@@](C)([NH3+])C(=O)NCCCCNC(=O)c1ccc(-c2c3nc(c(-c4c(F)c(F)c(F)c(F)c4F)c4ccc([nH]4)c(-c4c(F)c(F)c(F)c(F)c4F)c4nc(c(-c5c(F)c(F)c(F)c(F)c5F)c5ccc2[nH]5)C=C4)C=C3)cc1
REMARK SMILES IDX 19 1 20 2 21 3 16 5 17 6 15 7 14 8 13 9 12 10 11 11 1 12
REMARK SMILES IDX 2 13 3 14 4 15 7 16 5 17 6 18 8 19 9 20 10 21 18 22 22 26
REMARK SMILES IDX 23 27 24 28 25 29 26 30 27 31 28 33 29 34 30 35 91 36 31 37
REMARK SMILES IDX 90 38 32 39 33 40 34 41 84 42 35 43 89 44 83 45 85 46 36 47
REMARK SMILES IDX 88 48 82 49 81 50 37 52 69 53 49 54 68 55 50 56 53 57 67 58
REMARK SMILES IDX 86 59 51 60 52 61 66 63 87 64 54 65 38 66 39 67 47 68 40 69
REMARK SMILES IDX 41 70 45 71 48 72 42 73 43 74 46 75 44 76 70 77 71 78 79 79
REMARK SMILES IDX 72 80 73 81 77 82 80 83 74 84 75 85 78 86 76 87 55 88 56 89
REMARK SMILES IDX 64 90 57 91 58 92 62 93 65 94 59 95 60 96 63 97 61 98
REMARK H PARENT 21 4 18 23 18 24 18 25 26 32 85 51 53 62
REMARK Flexibility Score: inf
ROOT
ATOM      1  C   UNL A   1      28.888  31.088  23.537  1.00  0.00     0.280 C 
ATOM      2  O   UNL A   1      27.963  31.907  23.591  1.00  0.00    -0.268 OA
ATOM      3  N   UNL A   1      29.883  31.312  24.437  1.00  0.00    -0.351 N 
ATOM      4  H   UNL A   1      29.900  32.234  24.781  1.00  0.00     0.163 HD
ENDROOT
BRANCH   1   5
ATOM      5  C   UNL A   1      28.839  29.890  22.532  1.00  0.00     0.171 C 
ATOM      6  C   UNL A   1      30.057  30.063  21.614  1.00  0.00     0.090 C 
BRANCH   5   7
ATOM      7  C   UNL A   1      28.841  28.470  23.207  1.00  0.00     0.082 C 
BRANCH   7   8
ATOM      8  C   UNL A   1      29.862  27.391  22.786  1.00  0.00     0.049 C 
BRANCH   8   9
ATOM      9  C   UNL A   1      30.402  26.434  23.885  1.00  0.00     0.230 C 
BRANCH   9  10
ATOM     10  O   UNL A   1      31.756  26.042  23.596  1.00  0.00    -0.487 OA
BRANCH  10  11
ATOM     11  C   UNL A   1      32.765  26.589  24.362  1.00  0.00     0.200 A 
ATOM     12  C   UNL A   1      33.589  28.046  22.438  1.00  0.00     0.049 C 
ATOM     13  C   UNL A   1      33.454  27.718  23.880  1.00  0.00    -0.001 A 
ATOM     14  C   UNL A   1      34.036  28.636  24.767  1.00  0.00     0.023 A 
ATOM     15  C   UNL A   1      34.021  28.405  26.132  1.00  0.00     0.025 A 
ATOM     16  C   UNL A   1      32.860  26.317  25.740  1.00  0.00     0.312 A 
ATOM     17  Br  UNL A   1      34.742  29.703  27.297  1.00  0.00    -0.051 Br
ATOM     18  C   UNL A   1      33.485  27.224  26.624  1.00  0.00     0.105 A 
BRANCH  16  19
ATOM     19  N   UNL A   1      32.394  25.051  26.303  1.00  0.00     0.066 N 
ATOM     20  O   UNL A   1      31.314  25.064  26.914  1.00  0.00    -0.258 OA
ATOM     21  O   UNL A   1      33.135  24.064  26.223  1.00  0.00    -0.258 OA
ENDBRANCH  16  19
ENDBRANCH  10  11
ENDBRANCH   9  10
ENDBRANCH   8   9
ENDBRANCH   7   8
ENDBRANCH   5   7
BRANCH   5  22
ATOM     22  N   UNL A   1      27.667  29.939  21.622  1.00  0.00    -0.345 N 
ATOM     23  H   UNL A   1      27.032  30.677  21.925  1.00  0.00     0.345 HD
ATOM     24  H   UNL A   1      27.181  29.043  21.644  1.00  0.00     0.345 HD
ATOM     25  H   UNL A   1      27.982  30.132  20.671  1.00  0.00     0.345 HD
ENDBRANCH   5  22
ENDBRANCH   1   5
BRANCH   3  26
ATOM     26  C   UNL A   1      30.922  30.466  24.991  1.00  0.00     0.116 C 
BRANCH  26  27
ATOM     27  C   UNL A   1      31.414  30.969  26.350  1.00  0.00     0.023 C 
BRANCH  27  28
ATOM     28  C   UNL A   1      31.360  32.488  26.555  1.00  0.00     0.023 C 
BRANCH  28  29
ATOM     29  C   UNL A   1      32.596  33.115  27.192  1.00  0.00     0.116 C 
BRANCH  29  30
ATOM     30  N   UNL A   1      32.342  34.423  27.771  1.00  0.00    -0.352 N 
ATOM     31  C   UNL A   1      33.017  35.091  28.759  1.00  0.00     0.251 C 
ATOM     32  H   UNL A   1      31.566  34.902  27.398  1.00  0.00     0.163 HD
ATOM     33  O   UNL A   1      32.590  36.170  29.164  1.00  0.00    -0.269 OA
BRANCH  31  34
ATOM     34  C   UNL A   1      34.227  34.505  29.371  1.00  0.00     0.039 A 
ATOM     35  C   UNL A   1      34.068  33.695  30.498  1.00  0.00     0.014 A 
ATOM     36  C   UNL A   1      35.505  34.747  28.859  1.00  0.00     0.014 A 
ATOM     37  C   UNL A   1      35.181  33.090  31.080  1.00  0.00     0.010 A 
ATOM     38  C   UNL A   1      36.606  34.079  29.392  1.00  0.00     0.010 A 
ATOM     39  C   UNL A   1      36.456  33.249  30.514  1.00  0.00    -0.014 A 
BRANCH  39  40
ATOM     40  C   UNL A   1      37.628  32.546  31.094  1.00  0.00     0.031 A 
ATOM     41  C   UNL A   1      38.136  32.904  32.463  1.00  0.00     0.074 A 
ATOM     42  C   UNL A   1      38.246  31.591  30.372  1.00  0.00     0.049 A 
ATOM     43  N   UNL A   1      39.119  32.370  33.146  1.00  0.00    -0.248 NA
ATOM     44  C   UNL A   1      37.473  34.025  33.146  1.00  0.00     0.031 C 
ATOM     45  C   UNL A   1      37.886  31.200  29.008  1.00  0.00     0.029 A 
ATOM     46  N   UNL A   1      39.301  30.771  30.685  1.00  0.00    -0.354 N 
ATOM     47  C   UNL A   1      39.190  33.090  34.331  1.00  0.00     0.074 A 
ATOM     48  C   UNL A   1      38.199  34.140  34.248  1.00  0.00     0.031 C 
ATOM     49  C   UNL A   1      38.676  30.188  28.618  1.00  0.00     0.029 A 
ATOM     50  C   UNL A   1      39.619  29.880  29.689  1.00  0.00     0.049 A 
ATOM     51  H   UNL A   1      39.783  30.816  31.542  1.00  0.00     0.167 HD
ATOM     52  C   UNL A   1      39.990  32.876  35.404  1.00  0.00     0.037 A 
ATOM     53  C   UNL A   1      40.560  28.919  29.649  1.00  0.00     0.037 A 
ATOM     54  C   UNL A   1      40.967  31.820  35.486  1.00  0.00     0.049 A 
ATOM     55  C   UNL A   1      41.429  28.696  30.857  1.00  0.00     0.074 A 
ATOM     56  C   UNL A   1      41.791  31.487  36.546  1.00  0.00     0.029 A 
ATOM     57  N   UNL A   1      41.253  30.929  34.461  1.00  0.00    -0.354 N 
ATOM     58  N   UNL A   1      41.431  29.329  32.005  1.00  0.00    -0.248 NA
ATOM     59  C   UNL A   1      42.418  27.613  30.767  1.00  0.00     0.031 C 
ATOM     60  C   UNL A   1      42.613  30.429  36.144  1.00  0.00     0.029 A 
ATOM     61  C   UNL A   1      42.257  30.059  34.858  1.00  0.00     0.049 A 
ATOM     62  H   UNL A   1      40.809  30.917  33.583  1.00  0.00     0.167 HD
ATOM     63  C   UNL A   1      42.393  28.701  32.786  1.00  0.00     0.074 A 
ATOM     64  C   UNL A   1      42.939  27.625  31.985  1.00  0.00     0.031 C 
ATOM     65  C   UNL A   1      42.788  28.989  34.051  1.00  0.00     0.037 A 
BRANCH  52  66
ATOM     66  C   UNL A   1      39.839  33.802  36.579  1.00  0.00     0.064 A 
ATOM     67  C   UNL A   1      38.984  33.497  37.652  1.00  0.00     0.173 A 
ATOM     68  C   UNL A   1      40.581  34.989  36.653  1.00  0.00     0.173 A 
ATOM     69  F   UNL A   1      38.242  32.380  37.627  1.00  0.00    -0.203 F 
ATOM     70  C   UNL A   1      38.855  34.363  38.734  1.00  0.00     0.198 A 
ATOM     71  C   UNL A   1      40.475  35.836  37.753  1.00  0.00     0.198 A 
ATOM     72  F   UNL A   1      41.417  35.327  35.660  1.00  0.00    -0.203 F 
ATOM     73  F   UNL A   1      37.991  34.077  39.719  1.00  0.00    -0.200 F 
ATOM     74  C   UNL A   1      39.605  35.527  38.789  1.00  0.00     0.200 A 
ATOM     75  F   UNL A   1      41.213  36.952  37.812  1.00  0.00    -0.200 F 
ATOM     76  F   UNL A   1      39.486  36.354  39.836  1.00  0.00    -0.200 F 
ENDBRANCH  52  66
BRANCH  53  77
ATOM     77  C   UNL A   1      40.700  28.064  28.439  1.00  0.00     0.064 A 
ATOM     78  C   UNL A   1      40.038  26.832  28.345  1.00  0.00     0.173 A 
ATOM     79  C   UNL A   1      41.504  28.456  27.359  1.00  0.00     0.173 A 
ATOM     80  F   UNL A   1      39.271  26.405  29.359  1.00  0.00    -0.203 F 
ATOM     81  C   UNL A   1      40.195  26.013  27.229  1.00  0.00     0.198 A 
ATOM     82  C   UNL A   1      41.634  27.651  26.229  1.00  0.00     0.198 A 
ATOM     83  F   UNL A   1      42.153  29.629  27.394  1.00  0.00    -0.203 F 
ATOM     84  F   UNL A   1      39.591  24.817  27.188  1.00  0.00    -0.200 F 
ATOM     85  C   UNL A   1      40.988  26.426  26.170  1.00  0.00     0.200 A 
ATOM     86  F   UNL A   1      42.388  28.062  25.200  1.00  0.00    -0.200 F 
ATOM     87  F   UNL A   1      41.137  25.640  25.094  1.00  0.00    -0.200 F 
ENDBRANCH  53  77
BRANCH  65  88
ATOM     88  C   UNL A   1      43.832  28.098  34.662  1.00  0.00     0.064 A 
ATOM     89  C   UNL A   1      45.201  28.394  34.580  1.00  0.00     0.173 A 
ATOM     90  C   UNL A   1      43.453  26.934  35.350  1.00  0.00     0.173 A 
ATOM     91  F   UNL A   1      45.617  29.487  33.922  1.00  0.00    -0.203 F 
ATOM     92  C   UNL A   1      46.153  27.538  35.126  1.00  0.00     0.198 A 
ATOM     93  C   UNL A   1      44.407  26.099  35.926  1.00  0.00     0.198 A 
ATOM     94  F   UNL A   1      42.157  26.608  35.466  1.00  0.00    -0.203 F 
ATOM     95  F   UNL A   1      47.458  27.807  34.976  1.00  0.00    -0.200 F 
ATOM     96  C   UNL A   1      45.756  26.395  35.804  1.00  0.00     0.200 A 
ATOM     97  F   UNL A   1      44.019  25.005  36.595  1.00  0.00    -0.200 F 
ATOM     98  F   UNL A   1      46.673  25.572  36.328  1.00  0.00    -0.200 F 
ENDBRANCH  65  88
ENDBRANCH  39  40
ENDBRANCH  31  34
ENDBRANCH  29  30
ENDBRANCH  28  29
ENDBRANCH  27  28
ENDBRANCH  26  27
ENDBRANCH   3  26
TORSDOF 18
ENDMDL
MODEL 2
REMARK VINA RESULT:     -11.1      1.382      7.386
REMARK SMILES Cc1cc(Br)cc([N+](=O)[O-])c1OCCC[C@@](C)([NH3+])C(=O)NCCCCNC(=O)c1ccc(-c2c3nc(c(-c4c(F)c(F)c(F)c(F)c4F)c4ccc([nH]4)c(-c4c(F)c(F)c(F)c(F)c4F)c4nc(c(-c5c(F)c(F)c(F)c(F)c5F)c5ccc2[nH]5)C=C4)C=C3)cc1
REMARK SMILES IDX 19 1 20 2 21 3 16 5 17 6 15 7 14 8 13 9 12 10 11 11 1 12
REMARK SMILES IDX 2 13 3 14 4 15 7 16 5 17 6 18 8 19 9 20 10 21 18 22 22 26
REMARK SMILES IDX 23 27 24 28 25 29 26 30 27 31 28 33 29 34 30 35 91 36 31 37
REMARK SMILES IDX 90 38 32 39 33 40 34 41 84 42 35 43 89 44 83 45 85 46 36 47
REMARK SMILES IDX 88 48 82 49 81 50 37 52 69 53 49 54 68 55 50 56 53 57 67 58
REMARK SMILES IDX 86 59 51 60 52 61 66 63 87 64 54 65 38 66 39 67 47 68 40 69
REMARK SMILES IDX 41 70 45 71 48 72 42 73 43 74 46 75 44 76 70 77 71 78 79 79
REMARK SMILES IDX 72 80 73 81 77 82 80 83 74 84 75 85 78 86 76 87 55 88 56 89
REMARK SMILES IDX 64 90 57 91 58 92 62 93 65 94 59 95 60 96 63 97 61 98
REMARK H PARENT 21 4 18 23 18 24 18 25 26 32 85 51 53 62
REMARK Flexibility Score: inf
ROOT
ATOM      1  C   UNL A   1      29.144  30.844  23.662  1.00  0.00     0.280 C 
ATOM      2  O   UNL A   1      28.249  31.696  23.720  1.00  0.00    -0.268 OA
ATOM      3  N   UNL A   1      30.182  31.070  24.512  1.00  0.00    -0.351 N 
ATOM      4  H   UNL A   1      30.242  32.003  24.819  1.00  0.00     0.163 HD
ENDROOT
BRANCH   1   5
ATOM      5  C   UNL A   1      29.017  29.612  22.707  1.00  0.00     0.171 C 
ATOM      6  C   UNL A   1      30.216  29.695  21.752  1.00  0.00     0.090 C 
BRANCH   5   7
ATOM      7  C   UNL A   1      28.975  28.220  23.438  1.00  0.00     0.082 C 
BRANCH   7   8
ATOM      8  C   UNL A   1      30.179  27.255  23.379  1.00  0.00     0.049 C 
BRANCH   8   9
ATOM      9  C   UNL A   1      30.302  26.180  24.495  1.00  0.00     0.230 C 
BRANCH   9  10
ATOM     10  O   UNL A   1      30.505  24.876  23.923  1.00  0.00    -0.487 OA
BRANCH  10  11
ATOM     11  C   UNL A   1      31.701  24.238  24.174  1.00  0.00     0.200 A 
ATOM     12  C   UNL A   1      32.683  24.956  21.932  1.00  0.00     0.049 C 
ATOM     13  C   UNL A   1      32.805  24.503  23.341  1.00  0.00    -0.001 A 
ATOM     14  C   UNL A   1      34.116  24.382  23.827  1.00  0.00     0.023 A 
ATOM     15  C   UNL A   1      34.353  23.914  25.108  1.00  0.00     0.025 A 
ATOM     16  C   UNL A   1      31.967  23.658  25.429  1.00  0.00     0.312 A 
ATOM     17  Br  UNL A   1      36.126  23.842  25.753  1.00  0.00    -0.051 Br
ATOM     18  C   UNL A   1      33.290  23.498  25.897  1.00  0.00     0.105 A 
BRANCH  16  19
ATOM     19  N   UNL A   1      30.895  23.121  26.265  1.00  0.00     0.066 N 
ATOM     20  O   UNL A   1      30.349  22.073  25.887  1.00  0.00    -0.258 OA
ATOM     21  O   UNL A   1      30.530  23.780  27.247  1.00  0.00    -0.258 OA
ENDBRANCH  16  19
ENDBRANCH  10  11
ENDBRANCH   9  10
ENDBRANCH   8   9
ENDBRANCH   7   8
ENDBRANCH   5   7
BRANCH   5  22
ATOM     22  N   UNL A   1      27.823  29.677  21.826  1.00  0.00    -0.345 N 
ATOM     23  H   UNL A   1      27.190  28.911  22.055  1.00  0.00     0.345 HD
ATOM     24  H   UNL A   1      28.114  29.598  20.852  1.00  0.00     0.345 HD
ATOM     25  H   UNL A   1      27.343  30.567  21.967  1.00  0.00     0.345 HD
ENDBRANCH   5  22
ENDBRANCH   1   5
BRANCH   3  26
ATOM     26  C   UNL A   1      31.215  30.210  25.057  1.00  0.00     0.116 C 
BRANCH  26  27
ATOM     27  C   UNL A   1      31.659  30.655  26.453  1.00  0.00     0.023 C 
BRANCH  27  28
ATOM     28  C   UNL A   1      31.442  32.138  26.778  1.00  0.00     0.023 C 
BRANCH  28  29
ATOM     29  C   UNL A   1      32.704  32.943  27.074  1.00  0.00     0.116 C 
BRANCH  29  30
ATOM     30  N   UNL A   1      32.428  34.274  27.585  1.00  0.00    -0.352 N 
ATOM     31  C   UNL A   1      33.025  34.962  28.609  1.00  0.00     0.251 C 
ATOM     32  H   UNL A   1      31.701  34.756  27.126  1.00  0.00     0.163 HD
ATOM     33  O   UNL A   1      32.587  36.063  28.938  1.00  0.00    -0.269 OA
BRANCH  31  34
ATOM     34  C   UNL A   1      34.159  34.373  29.350  1.00  0.00     0.039 A 
ATOM     35  C   UNL A   1      33.880  33.639  30.505  1.00  0.00     0.014 A 
ATOM     36  C   UNL A   1      35.482  34.540  28.930  1.00  0.00     0.014 A 
ATOM     37  C   UNL A   1      34.919  33.032  31.209  1.00  0.00     0.010 A 
ATOM     38  C   UNL A   1      36.510  33.868  29.588  1.00  0.00     0.010 A 
ATOM     39  C   UNL A   1      36.240  33.113  30.739  1.00  0.00    -0.014 A 
BRANCH  39  40
ATOM     40  C   UNL A   1      37.334  32.407  31.452  1.00  0.00     0.031 A 
ATOM     41  C   UNL A   1      38.046  31.248  30.809  1.00  0.00     0.074 A 
ATOM     42  C   UNL A   1      37.674  32.802  32.694  1.00  0.00     0.049 A 
ATOM     43  N   UNL A   1      39.049  30.539  31.263  1.00  0.00    -0.248 NA
ATOM     44  C   UNL A   1      37.550  30.811  29.495  1.00  0.00     0.031 C 
ATOM     45  C   UNL A   1      37.015  33.870  33.448  1.00  0.00     0.029 A 
ATOM     46  N   UNL A   1      38.661  32.359  33.539  1.00  0.00    -0.354 N 
ATOM     47  C   UNL A   1      39.300  29.576  30.295  1.00  0.00     0.074 A 
ATOM     48  C   UNL A   1      38.304  29.747  29.260  1.00  0.00     0.031 C 
ATOM     49  C   UNL A   1      37.642  34.029  34.624  1.00  0.00     0.029 A 
ATOM     50  C   UNL A   1      38.724  33.055  34.722  1.00  0.00     0.049 A 
ATOM     51  H   UNL A   1      39.265  31.615  33.318  1.00  0.00     0.167 HD
ATOM     52  C   UNL A   1      40.290  28.652  30.257  1.00  0.00     0.037 A 
ATOM     53  C   UNL A   1      39.566  32.925  35.764  1.00  0.00     0.037 A 
ATOM     54  C   UNL A   1      41.288  28.494  31.285  1.00  0.00     0.049 A 
ATOM     55  C   UNL A   1      40.662  31.897  35.693  1.00  0.00     0.074 A 
ATOM     56  C   UNL A   1      42.362  27.623  31.319  1.00  0.00     0.029 A 
ATOM     57  N   UNL A   1      41.328  29.225  32.464  1.00  0.00    -0.354 N 
ATOM     58  N   UNL A   1      40.943  31.047  34.735  1.00  0.00    -0.248 NA
ATOM     59  C   UNL A   1      41.571  31.821  36.846  1.00  0.00     0.031 C 
ATOM     60  C   UNL A   1      43.021  27.790  32.542  1.00  0.00     0.029 A 
ATOM     61  C   UNL A   1      42.397  28.809  33.242  1.00  0.00     0.049 A 
ATOM     62  H   UNL A   1      40.690  29.933  32.711  1.00  0.00     0.167 HD
ATOM     63  C   UNL A   1      42.076  30.361  35.151  1.00  0.00     0.074 A 
ATOM     64  C   UNL A   1      42.442  30.909  36.441  1.00  0.00     0.031 C 
ATOM     65  C   UNL A   1      42.752  29.367  34.523  1.00  0.00     0.037 A 
BRANCH  52  66
ATOM     66  C   UNL A   1      40.345  27.739  29.064  1.00  0.00     0.064 A 
ATOM     67  C   UNL A   1      39.602  26.549  29.011  1.00  0.00     0.173 A 
ATOM     68  C   UNL A   1      41.122  28.073  27.945  1.00  0.00     0.173 A 
ATOM     69  F   UNL A   1      38.850  26.175  30.058  1.00  0.00    -0.203 F 
ATOM     70  C   UNL A   1      39.661  25.714  27.899  1.00  0.00     0.198 A 
ATOM     71  C   UNL A   1      41.152  27.253  26.820  1.00  0.00     0.198 A 
ATOM     72  F   UNL A   1      41.848  29.201  27.937  1.00  0.00    -0.203 F 
ATOM     73  F   UNL A   1      38.985  24.556  27.896  1.00  0.00    -0.200 F 
ATOM     74  C   UNL A   1      40.429  26.069  26.801  1.00  0.00     0.200 A 
ATOM     75  F   UNL A   1      41.883  27.606  25.754  1.00  0.00    -0.200 F 
ATOM     76  F   UNL A   1      40.478  25.269  25.728  1.00  0.00    -0.200 F 
ENDBRANCH  52  66
BRANCH  53  77
ATOM     77  C   UNL A   1      39.435  33.822  36.943  1.00  0.00     0.064 A 
ATOM     78  C   UNL A   1      40.043  35.084  36.963  1.00  0.00     0.173 A 
ATOM     79  C   UNL A   1      38.707  33.432  38.078  1.00  0.00     0.173 A 
ATOM     80  F   UNL A   1      40.763  35.497  35.909  1.00  0.00    -0.203 F 
ATOM     81  C   UNL A   1      39.950  35.912  38.080  1.00  0.00     0.198 A 
ATOM     82  C   UNL A   1      38.589  34.273  39.181  1.00  0.00     0.198 A 
ATOM     83  F   UNL A   1      38.099  32.237  38.108  1.00  0.00    -0.203 F 
ATOM     84  F   UNL A   1      40.586  37.092  38.091  1.00  0.00    -0.200 F 
ATOM     85  C   UNL A   1      39.220  35.508  39.186  1.00  0.00     0.200 A 
ATOM     86  F   UNL A   1      37.866  33.886  40.242  1.00  0.00    -0.200 F 
ATOM     87  F   UNL A   1      39.128  36.305  40.260  1.00  0.00    -0.200 F 
ENDBRANCH  53  77
BRANCH  65  88
ATOM     88  C   UNL A   1      43.984  28.841  35.204  1.00  0.00     0.064 A 
ATOM     89  C   UNL A   1      45.255  29.383  34.961  1.00  0.00     0.173 A 
ATOM     90  C   UNL A   1      43.886  27.785  36.124  1.00  0.00     0.173 A 
ATOM     91  F   UNL A   1      45.406  30.385  34.081  1.00  0.00    -0.203 F 
ATOM     92  C   UNL A   1      46.386  28.859  35.580  1.00  0.00     0.198 A 
ATOM     93  C   UNL A   1      45.016  27.288  36.768  1.00  0.00     0.198 A 
ATOM     94  F   UNL A   1      42.694  27.236  36.400  1.00  0.00    -0.203 F 
ATOM     95  F   UNL A   1      47.599  29.348  35.281  1.00  0.00    -0.200 F 
ATOM     96  C   UNL A   1      46.266  27.817  36.487  1.00  0.00     0.200 A 
ATOM     97  F   UNL A   1      44.894  26.293  37.657  1.00  0.00    -0.200 F 
ATOM     98  F   UNL A   1      47.356  27.314  37.081  1.00  0.00    -0.200 F 
ENDBRANCH  65  88
ENDBRANCH  39  40
ENDBRANCH  31  34
ENDBRANCH  29  30
ENDBRANCH  28  29
ENDBRANCH  27  28
ENDBRANCH  26  27
ENDBRANCH   3  26
TORSDOF 18
ENDMDL
MODEL 3
REMARK VINA RESULT:     -11.1      1.174      2.359
REMARK SMILES Cc1cc(Br)cc([N+](=O)[O-])c1OCCC[C@@](C)([NH3+])C(=O)NCCCCNC(=O)c1ccc(-c2c3nc(c(-c4c(F)c(F)c(F)c(F)c4F)c4ccc([nH]4)c(-c4c(F)c(F)c(F)c(F)c4F)c4nc(c(-c5c(F)c(F)c(F)c(F)c5F)c5ccc2[nH]5)C=C4)C=C3)cc1
REMARK SMILES IDX 19 1 20 2 21 3 16 5 17 6 15 7 14 8 13 9 12 10 11 11 1 12
REMARK SMILES IDX 2 13 3 14 4 15 7 16 5 17 6 18 8 19 9 20 10 21 18 22 22 26
REMARK SMILES IDX 23 27 24 28 25 29 26 30 27 31 28 33 29 34 30 35 91 36 31 37
REMARK SMILES IDX 90 38 32 39 33 40 34 41 84 42 35 43 89 44 83 45 85 46 36 47
REMARK SMILES IDX 88 48 82 49 81 50 37 52 69 53 49 54 68 55 50 56 53 57 67 58
REMARK SMILES IDX 86 59 51 60 52 61 66 63 87 64 54 65 38 66 39 67 47 68 40 69
REMARK SMILES IDX 41 70 45 71 48 72 42 73 43 74 46 75 44 76 70 77 71 78 79 79
REMARK SMILES IDX 72 80 73 81 77 82 80 83 74 84 75 85 78 86 76 87 55 88 56 89
REMARK SMILES IDX 64 90 57 91 58 92 62 93 65 94 59 95 60 96 63 97 61 98
REMARK H PARENT 21 4 18 23 18 24 18 25 26 32 85 51 53 62
REMARK Flexibility Score: inf
ROOT
ATOM      1  C   UNL A   1      29.196  30.761  23.670  1.00  0.00     0.280 C 
ATOM      2  O   UNL A   1      28.308  31.620  23.729  1.00  0.00    -0.268 OA
ATOM      3  N   UNL A   1      30.267  31.014  24.469  1.00  0.00    -0.351 N 
ATOM      4  H   UNL A   1      30.344  31.958  24.736  1.00  0.00     0.163 HD
ENDROOT
BRANCH   1   5
ATOM      5  C   UNL A   1      29.024  29.493  22.772  1.00  0.00     0.171 C 
ATOM      6  C   UNL A   1      30.067  29.627  21.653  1.00  0.00     0.090 C 
BRANCH   5   7
ATOM      7  C   UNL A   1      29.188  28.126  23.532  1.00  0.00     0.082 C 
BRANCH   7   8
ATOM      8  C   UNL A   1      30.297  27.126  23.140  1.00  0.00     0.049 C 
BRANCH   8   9
ATOM      9  C   UNL A   1      30.884  26.218  24.256  1.00  0.00     0.230 C 
BRANCH   9  10
ATOM     10  O   UNL A   1      30.988  24.857  23.802  1.00  0.00    -0.487 OA
BRANCH  10  11
ATOM     11  C   UNL A   1      32.138  24.159  24.107  1.00  0.00     0.200 A 
ATOM     12  C   UNL A   1      33.124  24.551  21.787  1.00  0.00     0.049 C 
ATOM     13  C   UNL A   1      33.241  24.246  23.236  1.00  0.00    -0.001 A 
ATOM     14  C   UNL A   1      34.549  24.078  23.716  1.00  0.00     0.023 A 
ATOM     15  C   UNL A   1      34.777  23.736  25.038  1.00  0.00     0.025 A 
ATOM     16  C   UNL A   1      32.386  23.702  25.415  1.00  0.00     0.312 A 
ATOM     17  Br  UNL A   1      36.552  23.598  25.664  1.00  0.00    -0.051 Br
ATOM     18  C   UNL A   1      33.702  23.491  25.881  1.00  0.00     0.105 A 
BRANCH  16  19
ATOM     19  N   UNL A   1      31.294  23.344  26.319  1.00  0.00     0.066 N 
ATOM     20  O   UNL A   1      30.681  22.291  26.082  1.00  0.00    -0.258 OA
ATOM     21  O   UNL A   1      30.981  24.145  27.208  1.00  0.00    -0.258 OA
ENDBRANCH  16  19
ENDBRANCH  10  11
ENDBRANCH   9  10
ENDBRANCH   8   9
ENDBRANCH   7   8
ENDBRANCH   5   7
BRANCH   5  22
ATOM     22  N   UNL A   1      27.716  29.446  22.070  1.00  0.00    -0.345 N 
ATOM     23  H   UNL A   1      27.319  28.510  22.152  1.00  0.00     0.345 HD
ATOM     24  H   UNL A   1      27.850  29.674  21.085  1.00  0.00     0.345 HD
ATOM     25  H   UNL A   1      27.079  30.122  22.492  1.00  0.00     0.345 HD
ENDBRANCH   5  22
ENDBRANCH   1   5
BRANCH   3  26
ATOM     26  C   UNL A   1      31.317  30.170  25.008  1.00  0.00     0.116 C 
BRANCH  26  27
ATOM     27  C   UNL A   1      31.716  30.580  26.427  1.00  0.00     0.023 C 
BRANCH  27  28
ATOM     28  C   UNL A   1      31.439  32.042  26.799  1.00  0.00     0.023 C 
BRANCH  28  29
ATOM     29  C   UNL A   1      32.671  32.907  27.049  1.00  0.00     0.116 C 
BRANCH  29  30
ATOM     30  N   UNL A   1      32.357  34.189  27.654  1.00  0.00    -0.352 N 
ATOM     31  C   UNL A   1      32.989  34.856  28.672  1.00  0.00     0.251 C 
ATOM     32  H   UNL A   1      31.572  34.649  27.278  1.00  0.00     0.163 HD
ATOM     33  O   UNL A   1      32.514  35.908  29.095  1.00  0.00    -0.269 OA
BRANCH  31  34
ATOM     34  C   UNL A   1      34.208  34.299  29.293  1.00  0.00     0.039 A 
ATOM     35  C   UNL A   1      34.059  33.477  30.412  1.00  0.00     0.014 A 
ATOM     36  C   UNL A   1      35.484  34.581  28.798  1.00  0.00     0.014 A 
ATOM     37  C   UNL A   1      35.182  32.898  31.003  1.00  0.00     0.010 A 
ATOM     38  C   UNL A   1      36.598  33.939  29.338  1.00  0.00     0.010 A 
ATOM     39  C   UNL A   1      36.458  33.097  30.451  1.00  0.00    -0.014 A 
BRANCH  39  40
ATOM     40  C   UNL A   1      37.642  32.422  31.040  1.00  0.00     0.031 A 
ATOM     41  C   UNL A   1      38.144  32.804  32.405  1.00  0.00     0.074 A 
ATOM     42  C   UNL A   1      38.279  31.471  30.328  1.00  0.00     0.049 A 
ATOM     43  N   UNL A   1      39.136  32.296  33.093  1.00  0.00    -0.248 NA
ATOM     44  C   UNL A   1      37.459  33.921  33.075  1.00  0.00     0.031 C 
ATOM     45  C   UNL A   1      37.927  31.058  28.969  1.00  0.00     0.029 A 
ATOM     46  N   UNL A   1      39.349  30.674  30.651  1.00  0.00    -0.354 N 
ATOM     47  C   UNL A   1      39.193  33.030  34.271  1.00  0.00     0.074 A 
ATOM     48  C   UNL A   1      38.183  34.061  34.176  1.00  0.00     0.031 C 
ATOM     49  C   UNL A   1      38.736  30.057  28.590  1.00  0.00     0.029 A 
ATOM     50  C   UNL A   1      39.684  29.778  29.665  1.00  0.00     0.049 A 
ATOM     51  H   UNL A   1      39.830  30.738  31.507  1.00  0.00     0.167 HD
ATOM     52  C   UNL A   1      39.996  32.843  35.346  1.00  0.00     0.037 A 
ATOM     53  C   UNL A   1      40.642  28.834  29.635  1.00  0.00     0.037 A 
ATOM     54  C   UNL A   1      40.993  31.807  35.440  1.00  0.00     0.049 A 
ATOM     55  C   UNL A   1      41.515  28.641  30.846  1.00  0.00     0.074 A 
ATOM     56  C   UNL A   1      41.823  31.501  36.504  1.00  0.00     0.029 A 
ATOM     57  N   UNL A   1      41.296  30.910  34.425  1.00  0.00    -0.354 N 
ATOM     58  N   UNL A   1      41.505  29.286  31.987  1.00  0.00    -0.248 NA
ATOM     59  C   UNL A   1      42.524  27.575  30.768  1.00  0.00     0.031 C 
ATOM     60  C   UNL A   1      42.664  30.453  36.114  1.00  0.00     0.029 A 
ATOM     61  C   UNL A   1      42.316  30.063  34.832  1.00  0.00     0.049 A 
ATOM     62  H   UNL A   1      40.852  30.880  33.547  1.00  0.00     0.167 HD
ATOM     63  C   UNL A   1      42.477  28.685  32.775  1.00  0.00     0.074 A 
ATOM     64  C   UNL A   1      43.044  27.611  31.986  1.00  0.00     0.031 C 
ATOM     65  C   UNL A   1      42.866  28.995  34.037  1.00  0.00     0.037 A 
BRANCH  52  66
ATOM     66  C   UNL A   1      39.828  33.779  36.511  1.00  0.00     0.064 A 
ATOM     67  C   UNL A   1      40.498  35.012  36.569  1.00  0.00     0.173 A 
ATOM     68  C   UNL A   1      38.961  33.457  37.566  1.00  0.00     0.173 A 
ATOM     69  F   UNL A   1      41.348  35.365  35.592  1.00  0.00    -0.203 F 
ATOM     70  C   UNL A   1      40.332  35.869  37.653  1.00  0.00     0.198 A 
ATOM     71  C   UNL A   1      38.771  34.333  38.632  1.00  0.00     0.198 A 
ATOM     72  F   UNL A   1      38.290  32.296  37.560  1.00  0.00    -0.203 F 
ATOM     73  F   UNL A   1      41.026  37.015  37.711  1.00  0.00    -0.200 F 
ATOM     74  C   UNL A   1      39.463  35.533  38.680  1.00  0.00     0.200 A 
ATOM     75  F   UNL A   1      37.919  34.014  39.616  1.00  0.00    -0.200 F 
ATOM     76  F   UNL A   1      39.298  36.364  39.718  1.00  0.00    -0.200 F 
ENDBRANCH  52  66
BRANCH  53  77
ATOM     77  C   UNL A   1      40.798  27.969  28.435  1.00  0.00     0.064 A 
ATOM     78  C   UNL A   1      41.595  28.370  27.354  1.00  0.00     0.173 A 
ATOM     79  C   UNL A   1      40.148  26.729  28.341  1.00  0.00     0.173 A 
ATOM     80  F   UNL A   1      42.224  29.554  27.389  1.00  0.00    -0.203 F 
ATOM     81  C   UNL A   1      41.715  27.577  26.215  1.00  0.00     0.198 A 
ATOM     82  C   UNL A   1      40.295  25.924  27.214  1.00  0.00     0.198 A 
ATOM     83  F   UNL A   1      39.380  26.294  29.351  1.00  0.00    -0.203 F 
ATOM     84  F   UNL A   1      42.442  28.010  25.174  1.00  0.00    -0.200 F 
ATOM     85  C   UNL A   1      41.070  26.353  26.147  1.00  0.00     0.200 A 
ATOM     86  F   UNL A   1      39.684  24.732  27.161  1.00  0.00    -0.200 F 
ATOM     87  F   UNL A   1      41.188  25.589  25.052  1.00  0.00    -0.200 F 
ENDBRANCH  53  77
BRANCH  65  88
ATOM     88  C   UNL A   1      43.927  28.129  34.658  1.00  0.00     0.064 A 
ATOM     89  C   UNL A   1      43.611  26.957  35.360  1.00  0.00     0.173 A 
ATOM     90  C   UNL A   1      45.282  28.475  34.536  1.00  0.00     0.173 A 
ATOM     91  F   UNL A   1      42.330  26.588  35.516  1.00  0.00    -0.203 F 
ATOM     92  C   UNL A   1      44.607  26.187  35.953  1.00  0.00     0.198 A 
ATOM     93  C   UNL A   1      46.278  27.682  35.100  1.00  0.00     0.198 A 
ATOM     94  F   UNL A   1      45.641  29.581  33.866  1.00  0.00    -0.203 F 
ATOM     95  F   UNL A   1      44.276  25.107  36.677  1.00  0.00    -0.200 F 
ATOM     96  C   UNL A   1      45.940  26.546  35.818  1.00  0.00     0.200 A 
ATOM     97  F   UNL A   1      47.566  28.023  34.953  1.00  0.00    -0.200 F 
ATOM     98  F   UNL A   1      46.897  25.804  36.390  1.00  0.00    -0.200 F 
ENDBRANCH  65  88
ENDBRANCH  39  40
ENDBRANCH  31  34
ENDBRANCH  29  30
ENDBRANCH  28  29
ENDBRANCH  27  28
ENDBRANCH  26  27
ENDBRANCH   3  26
TORSDOF 18
ENDMDL
