MODEL 1
REMARK VINA RESULT:     -12.1      0.000      0.000
REMARK SMILES O=C(NCCCCNC(=O)c1ccc(Cl)nc1C(F)(F)F)c1ccc(-c2c3nc(c(-c4c(F)c(F)c(F)c(F)c4F)c4ccc([nH]4)c(-c4c(F)c(F)c(F)c(F)c4F)c4nc(c(-c5c(F)c(F)c(F)c(F)c5F)c5ccc2[nH]5)C=C4)C=C3)cc1
REMARK SMILES IDX 5 1 4 2 3 3 1 4 2 5 22 7 23 8 84 9 24 10 83 11 25 12 26 13
REMARK SMILES IDX 27 14 77 15 28 16 82 17 76 18 78 19 29 20 81 21 75 22 74 23
REMARK SMILES IDX 30 25 62 26 42 27 61 28 43 29 46 30 60 31 79 32 44 33 45 34
REMARK SMILES IDX 59 36 80 37 47 38 31 39 32 40 40 41 33 42 34 43 38 44 41 45
REMARK SMILES IDX 35 46 36 47 39 48 37 49 63 50 64 51 72 52 65 53 66 54 70 55
REMARK SMILES IDX 73 56 67 57 68 58 71 59 69 60 48 61 49 62 57 63 50 64 51 65
REMARK SMILES IDX 55 66 58 67 52 68 53 69 56 70 54 71 6 72 7 73 8 74 9 75
REMARK SMILES IDX 10 77 11 78 12 79 17 80 13 81 16 82 14 83 15 84 18 85 19 86
REMARK SMILES IDX 20 87 21 88
REMARK H PARENT 3 6 78 24 46 35 8 76
REMARK Flexibility Score: inf
ROOT
ATOM      1  C   UNL A   1      31.476  32.135  26.515  1.00  0.00     0.023 C 
ENDROOT
BRANCH   1   2
ATOM      2  C   UNL A   1      32.611  32.815  27.263  1.00  0.00     0.116 C 
BRANCH   2   3
ATOM      3  N   UNL A   1      32.335  34.203  27.611  1.00  0.00    -0.352 N 
ATOM      4  O   UNL A   1      32.507  36.118  28.805  1.00  0.00    -0.269 OA
ATOM      5  C   UNL A   1      32.937  34.996  28.565  1.00  0.00     0.251 C 
ATOM      6  H   UNL A   1      31.619  34.636  27.093  1.00  0.00     0.163 HD
BRANCH   5   7
ATOM      7  C   UNL A   1      34.090  34.463  29.323  1.00  0.00     0.039 A 
ATOM      8  C   UNL A   1      35.375  34.573  28.798  1.00  0.00     0.014 A 
ATOM      9  C   UNL A   1      33.882  33.805  30.539  1.00  0.00     0.014 A 
ATOM     10  C   UNL A   1      36.410  33.850  29.368  1.00  0.00     0.010 A 
ATOM     11  C   UNL A   1      34.959  33.189  31.188  1.00  0.00     0.010 A 
ATOM     12  C   UNL A   1      36.226  33.175  30.588  1.00  0.00    -0.014 A 
BRANCH  12  13
ATOM     13  C   UNL A   1      37.416  32.556  31.231  1.00  0.00     0.031 A 
ATOM     14  C   UNL A   1      37.872  32.947  32.610  1.00  0.00     0.074 A 
ATOM     15  C   UNL A   1      38.041  31.564  30.566  1.00  0.00     0.049 A 
ATOM     16  N   UNL A   1      38.849  32.442  33.323  1.00  0.00    -0.248 NA
ATOM     17  C   UNL A   1      37.155  34.045  33.274  1.00  0.00     0.031 C 
ATOM     18  C   UNL A   1      37.696  31.115  29.213  1.00  0.00     0.029 A 
ATOM     19  N   UNL A   1      39.062  30.729  30.938  1.00  0.00    -0.354 N 
ATOM     20  C   UNL A   1      38.867  33.159  34.512  1.00  0.00     0.074 A 
ATOM     21  C   UNL A   1      37.827  34.161  34.412  1.00  0.00     0.031 C 
ATOM     22  C   UNL A   1      38.440  30.047  28.898  1.00  0.00     0.029 A 
ATOM     23  C   UNL A   1      39.374  29.791  29.985  1.00  0.00     0.049 A 
ATOM     24  H   UNL A   1      39.527  30.796  31.803  1.00  0.00     0.167 HD
ATOM     25  C   UNL A   1      39.672  32.986  35.590  1.00  0.00     0.037 A 
ATOM     26  C   UNL A   1      40.326  28.842  29.970  1.00  0.00     0.037 A 
ATOM     27  C   UNL A   1      40.706  31.983  35.680  1.00  0.00     0.049 A 
ATOM     28  C   UNL A   1      41.221  28.700  31.167  1.00  0.00     0.074 A 
ATOM     29  C   UNL A   1      41.567  31.722  36.733  1.00  0.00     0.029 A 
ATOM     30  N   UNL A   1      41.021  31.076  34.678  1.00  0.00    -0.354 N 
ATOM     31  N   UNL A   1      41.204  29.368  32.294  1.00  0.00    -0.248 NA
ATOM     32  C   UNL A   1      42.265  27.673  31.088  1.00  0.00     0.031 C 
ATOM     33  C   UNL A   1      42.436  30.695  36.349  1.00  0.00     0.029 A 
ATOM     34  C   UNL A   1      42.077  30.270  35.080  1.00  0.00     0.049 A 
ATOM     35  H   UNL A   1      40.563  31.014  33.809  1.00  0.00     0.167 HD
ATOM     36  C   UNL A   1      42.228  28.835  33.064  1.00  0.00     0.074 A 
ATOM     37  C   UNL A   1      42.814  27.760  32.289  1.00  0.00     0.031 C 
ATOM     38  C   UNL A   1      42.653  29.209  34.295  1.00  0.00     0.037 A 
BRANCH  25  39
ATOM     39  C   UNL A   1      39.481  33.900  36.769  1.00  0.00     0.064 A 
ATOM     40  C   UNL A   1      38.708  33.519  37.877  1.00  0.00     0.173 A 
ATOM     41  C   UNL A   1      40.144  35.136  36.829  1.00  0.00     0.173 A 
ATOM     42  F   UNL A   1      38.046  32.353  37.870  1.00  0.00    -0.203 F 
ATOM     43  C   UNL A   1      38.597  34.347  38.993  1.00  0.00     0.198 A 
ATOM     44  C   UNL A   1      40.053  35.947  37.958  1.00  0.00     0.198 A 
ATOM     45  F   UNL A   1      40.903  35.546  35.801  1.00  0.00    -0.203 F 
ATOM     46  F   UNL A   1      37.828  33.975  40.026  1.00  0.00    -0.200 F 
ATOM     47  C   UNL A   1      39.277  35.554  39.037  1.00  0.00     0.200 A 
ATOM     48  F   UNL A   1      40.727  37.105  38.005  1.00  0.00    -0.200 F 
ATOM     49  F   UNL A   1      39.184  36.339  40.119  1.00  0.00    -0.200 F 
ENDBRANCH  25  39
BRANCH  26  50
ATOM     50  C   UNL A   1      40.503  27.983  28.769  1.00  0.00     0.064 A 
ATOM     51  C   UNL A   1      41.307  28.387  27.694  1.00  0.00     0.173 A 
ATOM     52  C   UNL A   1      39.854  26.743  28.666  1.00  0.00     0.173 A 
ATOM     53  F   UNL A   1      41.938  29.569  27.736  1.00  0.00    -0.203 F 
ATOM     54  C   UNL A   1      41.425  27.601  26.549  1.00  0.00     0.198 A 
ATOM     55  C   UNL A   1      40.007  25.939  27.541  1.00  0.00     0.198 A 
ATOM     56  F   UNL A   1      39.081  26.302  29.671  1.00  0.00    -0.203 F 
ATOM     57  F   UNL A   1      42.145  28.041  25.509  1.00  0.00    -0.200 F 
ATOM     58  C   UNL A   1      40.779  26.375  26.476  1.00  0.00     0.200 A 
ATOM     59  F   UNL A   1      39.401  24.744  27.487  1.00  0.00    -0.200 F 
ATOM     60  F   UNL A   1      40.894  25.619  25.376  1.00  0.00    -0.200 F 
ENDBRANCH  26  50
BRANCH  38  61
ATOM     61  C   UNL A   1      43.793  28.425  34.882  1.00  0.00     0.064 A 
ATOM     62  C   UNL A   1      45.128  28.821  34.702  1.00  0.00     0.173 A 
ATOM     63  C   UNL A   1      43.549  27.259  35.623  1.00  0.00     0.173 A 
ATOM     64  F   UNL A   1      45.417  29.919  33.986  1.00  0.00    -0.203 F 
ATOM     65  C   UNL A   1      46.176  28.052  35.200  1.00  0.00     0.198 A 
ATOM     66  C   UNL A   1      44.598  26.514  36.152  1.00  0.00     0.198 A 
ATOM     67  F   UNL A   1      42.291  26.840  35.830  1.00  0.00    -0.203 F 
ATOM     68  F   UNL A   1      47.444  28.408  34.950  1.00  0.00    -0.200 F 
ATOM     69  C   UNL A   1      45.910  26.903  35.929  1.00  0.00     0.200 A 
ATOM     70  F   UNL A   1      44.339  25.411  36.869  1.00  0.00    -0.200 F 
ATOM     71  F   UNL A   1      46.920  26.160  36.404  1.00  0.00    -0.200 F 
ENDBRANCH  38  61
ENDBRANCH  12  13
ENDBRANCH   5   7
ENDBRANCH   2   3
ENDBRANCH   1   2
BRANCH   1  72
ATOM     72  C   UNL A   1      31.549  30.615  26.471  1.00  0.00     0.023 C 
BRANCH  72  73
ATOM     73  C   UNL A   1      32.944  30.036  26.257  1.00  0.00     0.116 C 
BRANCH  73  74
ATOM     74  N   UNL A   1      33.276  29.816  24.855  1.00  0.00    -0.352 N 
ATOM     75  C   UNL A   1      33.146  28.670  24.112  1.00  0.00     0.253 C 
ATOM     76  H   UNL A   1      33.642  30.596  24.377  1.00  0.00     0.163 HD
ATOM     77  O   UNL A   1      33.449  28.630  22.926  1.00  0.00    -0.269 OA
BRANCH  75  78
ATOM     78  C   UNL A   1      32.626  27.459  24.756  1.00  0.00     0.070 A 
ATOM     79  C   UNL A   1      33.484  26.713  25.577  1.00  0.00     0.019 A 
ATOM     80  C   UNL A   1      31.314  27.030  24.557  1.00  0.00     0.158 A 
ATOM     81  C   UNL A   1      33.037  25.518  26.126  1.00  0.00     0.042 A 
ATOM     82  N   UNL A   1      30.871  25.856  25.114  1.00  0.00    -0.231 NA
ATOM     83  C   UNL A   1      31.736  25.137  25.860  1.00  0.00     0.129 A 
ATOM     84  Cl  UNL A   1      31.110  23.663  26.463  1.00  0.00    -0.062 Cl
BRANCH  80  85
ATOM     85  C   UNL A   1      30.318  27.842  23.741  1.00  0.00     0.434 C 
ATOM     86  F   UNL A   1      30.582  27.789  22.401  1.00  0.00    -0.164 F 
ATOM     87  F   UNL A   1      29.037  27.395  23.876  1.00  0.00    -0.164 F 
ATOM     88  F   UNL A   1      30.295  29.175  24.024  1.00  0.00    -0.164 F 
ENDBRANCH  80  85
ENDBRANCH  75  78
ENDBRANCH  73  74
ENDBRANCH  72  73
ENDBRANCH   1  72
TORSDOF 12
ENDMDL
MODEL 2
REMARK VINA RESULT:     -12.1      1.576      2.518
REMARK SMILES O=C(NCCCCNC(=O)c1ccc(Cl)nc1C(F)(F)F)c1ccc(-c2c3nc(c(-c4c(F)c(F)c(F)c(F)c4F)c4ccc([nH]4)c(-c4c(F)c(F)c(F)c(F)c4F)c4nc(c(-c5c(F)c(F)c(F)c(F)c5F)c5ccc2[nH]5)C=C4)C=C3)cc1
REMARK SMILES IDX 5 1 4 2 3 3 1 4 2 5 22 7 23 8 84 9 24 10 83 11 25 12 26 13
REMARK SMILES IDX 27 14 77 15 28 16 82 17 76 18 78 19 29 20 81 21 75 22 74 23
REMARK SMILES IDX 30 25 62 26 42 27 61 28 43 29 46 30 60 31 79 32 44 33 45 34
REMARK SMILES IDX 59 36 80 37 47 38 31 39 32 40 40 41 33 42 34 43 38 44 41 45
REMARK SMILES IDX 35 46 36 47 39 48 37 49 63 50 64 51 72 52 65 53 66 54 70 55
REMARK SMILES IDX 73 56 67 57 68 58 71 59 69 60 48 61 49 62 57 63 50 64 51 65
REMARK SMILES IDX 55 66 58 67 52 68 53 69 56 70 54 71 6 72 7 73 8 74 9 75
REMARK SMILES IDX 10 77 11 78 12 79 17 80 13 81 16 82 14 83 15 84 18 85 19 86
REMARK SMILES IDX 20 87 21 88
REMARK H PARENT 3 6 78 24 46 35 8 76
REMARK Flexibility Score: inf
ROOT
ATOM      1  C   UNL A   1      31.065  31.818  26.409  1.00  0.00     0.023 C 
ENDROOT
BRANCH   1   2
ATOM      2  C   UNL A   1      32.356  32.490  26.850  1.00  0.00     0.116 C 
BRANCH   2   3
ATOM      3  N   UNL A   1      32.163  33.826  27.399  1.00  0.00    -0.352 N 
ATOM      4  O   UNL A   1      32.536  35.574  28.787  1.00  0.00    -0.269 OA
ATOM      5  C   UNL A   1      32.902  34.487  28.357  1.00  0.00     0.251 C 
ATOM      6  H   UNL A   1      31.397  34.327  27.036  1.00  0.00     0.163 HD
BRANCH   5   7
ATOM      7  C   UNL A   1      34.129  33.851  28.887  1.00  0.00     0.039 A 
ATOM      8  C   UNL A   1      34.028  32.747  29.729  1.00  0.00     0.014 A 
ATOM      9  C   UNL A   1      35.382  34.392  28.585  1.00  0.00     0.014 A 
ATOM     10  C   UNL A   1      35.143  32.320  30.432  1.00  0.00     0.010 A 
ATOM     11  C   UNL A   1      36.529  33.868  29.193  1.00  0.00     0.010 A 
ATOM     12  C   UNL A   1      36.414  32.851  30.151  1.00  0.00    -0.014 A 
BRANCH  12  13
ATOM     13  C   UNL A   1      37.592  32.237  30.820  1.00  0.00     0.031 A 
ATOM     14  C   UNL A   1      37.992  32.600  32.223  1.00  0.00     0.074 A 
ATOM     15  C   UNL A   1      38.260  31.275  30.152  1.00  0.00     0.049 A 
ATOM     16  N   UNL A   1      38.953  32.095  32.958  1.00  0.00    -0.248 NA
ATOM     17  C   UNL A   1      37.230  33.666  32.889  1.00  0.00     0.031 C 
ATOM     18  C   UNL A   1      37.972  30.855  28.776  1.00  0.00     0.029 A 
ATOM     19  N   UNL A   1      39.284  30.450  30.539  1.00  0.00    -0.354 N 
ATOM     20  C   UNL A   1      38.914  32.780  34.165  1.00  0.00     0.074 A 
ATOM     21  C   UNL A   1      37.858  33.765  34.054  1.00  0.00     0.031 C 
ATOM     22  C   UNL A   1      38.748  29.811  28.461  1.00  0.00     0.029 A 
ATOM     23  C   UNL A   1      39.648  29.543  29.573  1.00  0.00     0.049 A 
ATOM     24  H   UNL A   1      39.717  30.503  31.421  1.00  0.00     0.167 HD
ATOM     25  C   UNL A   1      39.684  32.594  35.266  1.00  0.00     0.037 A 
ATOM     26  C   UNL A   1      40.619  28.614  29.568  1.00  0.00     0.037 A 
ATOM     27  C   UNL A   1      40.733  31.608  35.367  1.00  0.00     0.049 A 
ATOM     28  C   UNL A   1      41.473  28.457  30.792  1.00  0.00     0.074 A 
ATOM     29  C   UNL A   1      41.562  31.336  36.444  1.00  0.00     0.029 A 
ATOM     30  N   UNL A   1      41.102  30.735  34.354  1.00  0.00    -0.354 N 
ATOM     31  N   UNL A   1      41.404  29.095  31.935  1.00  0.00    -0.248 NA
ATOM     32  C   UNL A   1      42.540  27.453  30.724  1.00  0.00     0.031 C 
ATOM     33  C   UNL A   1      42.464  30.337  36.064  1.00  0.00     0.029 A 
ATOM     34  C   UNL A   1      42.159  29.939  34.773  1.00  0.00     0.049 A 
ATOM     35  H   UNL A   1      40.677  30.687  33.467  1.00  0.00     0.167 HD
ATOM     36  C   UNL A   1      42.410  28.561  32.727  1.00  0.00     0.074 A 
ATOM     37  C   UNL A   1      43.044  27.519  31.947  1.00  0.00     0.031 C 
ATOM     38  C   UNL A   1      42.784  28.911  33.982  1.00  0.00     0.037 A 
BRANCH  25  39
ATOM     39  C   UNL A   1      39.433  33.473  36.461  1.00  0.00     0.064 A 
ATOM     40  C   UNL A   1      38.605  33.060  37.516  1.00  0.00     0.173 A 
ATOM     41  C   UNL A   1      40.092  34.705  36.591  1.00  0.00     0.173 A 
ATOM     42  F   UNL A   1      37.944  31.895  37.440  1.00  0.00    -0.203 F 
ATOM     43  C   UNL A   1      38.437  33.854  38.649  1.00  0.00     0.198 A 
ATOM     44  C   UNL A   1      39.944  35.482  37.739  1.00  0.00     0.198 A 
ATOM     45  F   UNL A   1      40.903  35.145  35.617  1.00  0.00    -0.203 F 
ATOM     46  F   UNL A   1      37.616  33.453  39.630  1.00  0.00    -0.200 F 
ATOM     47  C   UNL A   1      39.114  35.058  38.764  1.00  0.00     0.200 A 
ATOM     48  F   UNL A   1      40.615  36.637  37.854  1.00  0.00    -0.200 F 
ATOM     49  F   UNL A   1      38.966  35.811  39.863  1.00  0.00    -0.200 F 
ENDBRANCH  25  39
BRANCH  26  50
ATOM     50  C   UNL A   1      40.856  27.790  28.352  1.00  0.00     0.064 A 
ATOM     51  C   UNL A   1      40.253  26.535  28.191  1.00  0.00     0.173 A 
ATOM     52  C   UNL A   1      41.708  28.239  27.332  1.00  0.00     0.173 A 
ATOM     53  F   UNL A   1      39.441  26.055  29.144  1.00  0.00    -0.203 F 
ATOM     54  C   UNL A   1      40.523  25.746  27.075  1.00  0.00     0.198 A 
ATOM     55  C   UNL A   1      41.942  27.469  26.196  1.00  0.00     0.198 A 
ATOM     56  F   UNL A   1      42.303  29.438  27.429  1.00  0.00    -0.203 F 
ATOM     57  F   UNL A   1      39.986  24.523  26.977  1.00  0.00    -0.200 F 
ATOM     58  C   UNL A   1      41.363  26.216  26.076  1.00  0.00     0.200 A 
ATOM     59  F   UNL A   1      42.735  27.939  25.223  1.00  0.00    -0.200 F 
ATOM     60  F   UNL A   1      41.620  25.458  25.001  1.00  0.00    -0.200 F 
ENDBRANCH  26  50
BRANCH  38  61
ATOM     61  C   UNL A   1      43.918  28.133  34.588  1.00  0.00     0.064 A 
ATOM     62  C   UNL A   1      43.700  26.926  35.273  1.00  0.00     0.173 A 
ATOM     63  C   UNL A   1      45.236  28.604  34.493  1.00  0.00     0.173 A 
ATOM     64  F   UNL A   1      42.456  26.442  35.408  1.00  0.00    -0.203 F 
ATOM     65  C   UNL A   1      44.752  26.248  35.881  1.00  0.00     0.198 A 
ATOM     66  C   UNL A   1      46.291  27.902  35.069  1.00  0.00     0.198 A 
ATOM     67  F   UNL A   1      45.501  29.748  33.844  1.00  0.00    -0.203 F 
ATOM     68  F   UNL A   1      44.509  25.140  36.594  1.00  0.00    -0.200 F 
ATOM     69  C   UNL A   1      46.046  26.733  35.774  1.00  0.00     0.200 A 
ATOM     70  F   UNL A   1      47.543  28.364  34.952  1.00  0.00    -0.200 F 
ATOM     71  F   UNL A   1      47.059  26.081  36.364  1.00  0.00    -0.200 F 
ENDBRANCH  38  61
ENDBRANCH  12  13
ENDBRANCH   5   7
ENDBRANCH   2   3
ENDBRANCH   1   2
BRANCH   1  72
ATOM     72  C   UNL A   1      31.243  30.612  25.498  1.00  0.00     0.023 C 
BRANCH  72  73
ATOM     73  C   UNL A   1      32.196  29.540  26.014  1.00  0.00     0.116 C 
BRANCH  73  74
ATOM     74  N   UNL A   1      31.522  28.428  26.674  1.00  0.00    -0.352 N 
ATOM     75  C   UNL A   1      31.215  27.190  26.169  1.00  0.00     0.253 C 
ATOM     76  H   UNL A   1      31.252  28.589  27.607  1.00  0.00     0.163 HD
ATOM     77  O   UNL A   1      30.658  26.335  26.847  1.00  0.00    -0.269 OA
BRANCH  75  78
ATOM     78  C   UNL A   1      31.567  26.880  24.779  1.00  0.00     0.070 A 
ATOM     79  C   UNL A   1      30.675  27.248  23.761  1.00  0.00     0.019 A 
ATOM     80  C   UNL A   1      32.750  26.217  24.454  1.00  0.00     0.158 A 
ATOM     81  C   UNL A   1      30.949  26.888  22.449  1.00  0.00     0.042 A 
ATOM     82  N   UNL A   1      33.025  25.875  23.153  1.00  0.00    -0.231 NA
ATOM     83  C   UNL A   1      32.124  26.203  22.203  1.00  0.00     0.129 A 
ATOM     84  Cl  UNL A   1      32.527  25.686  20.623  1.00  0.00    -0.062 Cl
BRANCH  80  85
ATOM     85  C   UNL A   1      33.790  25.865  25.509  1.00  0.00     0.434 C 
ATOM     86  F   UNL A   1      34.863  25.205  24.977  1.00  0.00    -0.164 F 
ATOM     87  F   UNL A   1      34.309  26.963  26.127  1.00  0.00    -0.164 F 
ATOM     88  F   UNL A   1      33.347  25.036  26.497  1.00  0.00    -0.164 F 
ENDBRANCH  80  85
ENDBRANCH  75  78
ENDBRANCH  73  74
ENDBRANCH  72  73
ENDBRANCH   1  72
TORSDOF 12
ENDMDL
MODEL 3
REMARK VINA RESULT:     -12.1      0.465      1.750
REMARK SMILES O=C(NCCCCNC(=O)c1ccc(Cl)nc1C(F)(F)F)c1ccc(-c2c3nc(c(-c4c(F)c(F)c(F)c(F)c4F)c4ccc([nH]4)c(-c4c(F)c(F)c(F)c(F)c4F)c4nc(c(-c5c(F)c(F)c(F)c(F)c5F)c5ccc2[nH]5)C=C4)C=C3)cc1
REMARK SMILES IDX 5 1 4 2 3 3 1 4 2 5 22 7 23 8 84 9 24 10 83 11 25 12 26 13
REMARK SMILES IDX 27 14 77 15 28 16 82 17 76 18 78 19 29 20 81 21 75 22 74 23
REMARK SMILES IDX 30 25 62 26 42 27 61 28 43 29 46 30 60 31 79 32 44 33 45 34
REMARK SMILES IDX 59 36 80 37 47 38 31 39 32 40 40 41 33 42 34 43 38 44 41 45
REMARK SMILES IDX 35 46 36 47 39 48 37 49 63 50 64 51 72 52 65 53 66 54 70 55
REMARK SMILES IDX 73 56 67 57 68 58 71 59 69 60 48 61 49 62 57 63 50 64 51 65
REMARK SMILES IDX 55 66 58 67 52 68 53 69 56 70 54 71 6 72 7 73 8 74 9 75
REMARK SMILES IDX 10 77 11 78 12 79 17 80 13 81 16 82 14 83 15 84 18 85 19 86
REMARK SMILES IDX 20 87 21 88
REMARK H PARENT 3 6 78 24 46 35 8 76
REMARK Flexibility Score: inf
ROOT
ATOM      1  C   UNL A   1      31.525  32.058  26.503  1.00  0.00     0.023 C 
ENDROOT
BRANCH   1   2
ATOM      2  C   UNL A   1      32.684  32.696  27.252  1.00  0.00     0.116 C 
BRANCH   2   3
ATOM      3  N   UNL A   1      32.446  34.084  27.626  1.00  0.00    -0.352 N 
ATOM      4  O   UNL A   1      32.680  35.975  28.849  1.00  0.00    -0.269 OA
ATOM      5  C   UNL A   1      33.080  34.847  28.584  1.00  0.00     0.251 C 
ATOM      6  H   UNL A   1      31.732  34.542  27.125  1.00  0.00     0.163 HD
BRANCH   5   7
ATOM      7  C   UNL A   1      34.230  34.274  29.317  1.00  0.00     0.039 A 
ATOM      8  C   UNL A   1      35.528  34.547  28.891  1.00  0.00     0.014 A 
ATOM      9  C   UNL A   1      34.012  33.420  30.402  1.00  0.00     0.014 A 
ATOM     10  C   UNL A   1      36.584  33.810  29.401  1.00  0.00     0.010 A 
ATOM     11  C   UNL A   1      35.098  32.779  31.009  1.00  0.00     0.010 A 
ATOM     12  C   UNL A   1      36.391  32.941  30.489  1.00  0.00    -0.014 A 
BRANCH  12  13
ATOM     13  C   UNL A   1      37.589  32.304  31.097  1.00  0.00     0.031 A 
ATOM     14  C   UNL A   1      38.054  32.639  32.487  1.00  0.00     0.074 A 
ATOM     15  C   UNL A   1      38.216  31.345  30.386  1.00  0.00     0.049 A 
ATOM     16  N   UNL A   1      39.039  32.112  33.172  1.00  0.00    -0.248 NA
ATOM     17  C   UNL A   1      37.333  33.703  33.202  1.00  0.00     0.031 C 
ATOM     18  C   UNL A   1      37.865  30.951  29.018  1.00  0.00     0.029 A 
ATOM     19  N   UNL A   1      39.247  30.503  30.715  1.00  0.00    -0.354 N 
ATOM     20  C   UNL A   1      39.061  32.779  34.390  1.00  0.00     0.074 A 
ATOM     21  C   UNL A   1      38.013  33.776  34.340  1.00  0.00     0.031 C 
ATOM     22  C   UNL A   1      38.613  29.903  28.653  1.00  0.00     0.029 A 
ATOM     23  C   UNL A   1      39.558  29.608  29.721  1.00  0.00     0.049 A 
ATOM     24  H   UNL A   1      39.718  30.537  31.578  1.00  0.00     0.167 HD
ATOM     25  C   UNL A   1      39.875  32.566  35.454  1.00  0.00     0.037 A 
ATOM     26  C   UNL A   1      40.517  28.668  29.659  1.00  0.00     0.037 A 
ATOM     27  C   UNL A   1      40.917  31.568  35.493  1.00  0.00     0.049 A 
ATOM     28  C   UNL A   1      41.421  28.482  30.842  1.00  0.00     0.074 A 
ATOM     29  C   UNL A   1      41.788  31.269  36.529  1.00  0.00     0.029 A 
ATOM     30  N   UNL A   1      41.231  30.707  34.452  1.00  0.00    -0.354 N 
ATOM     31  N   UNL A   1      41.409  29.102  31.997  1.00  0.00    -0.248 NA
ATOM     32  C   UNL A   1      42.472  27.468  30.712  1.00  0.00     0.031 C 
ATOM     33  C   UNL A   1      42.661  30.266  36.095  1.00  0.00     0.029 A 
ATOM     34  C   UNL A   1      42.296  29.893  34.812  1.00  0.00     0.049 A 
ATOM     35  H   UNL A   1      40.767  30.678  33.584  1.00  0.00     0.167 HD
ATOM     36  C   UNL A   1      42.442  28.545  32.736  1.00  0.00     0.074 A 
ATOM     37  C   UNL A   1      43.030  27.508  31.913  1.00  0.00     0.031 C 
ATOM     38  C   UNL A   1      42.874  28.870  33.979  1.00  0.00     0.037 A 
BRANCH  25  39
ATOM     39  C   UNL A   1      39.687  33.428  36.672  1.00  0.00     0.064 A 
ATOM     40  C   UNL A   1      40.329  34.669  36.801  1.00  0.00     0.173 A 
ATOM     41  C   UNL A   1      38.790  33.048  37.683  1.00  0.00     0.173 A 
ATOM     42  F   UNL A   1      41.202  35.078  35.869  1.00  0.00    -0.203 F 
ATOM     43  C   UNL A   1      40.090  35.490  37.902  1.00  0.00     0.198 A 
ATOM     44  C   UNL A   1      38.532  33.884  38.767  1.00  0.00     0.198 A 
ATOM     45  F   UNL A   1      38.142  31.876  37.606  1.00  0.00    -0.203 F 
ATOM     46  F   UNL A   1      40.739  36.656  38.019  1.00  0.00    -0.200 F 
ATOM     47  C   UNL A   1      39.185  35.101  38.878  1.00  0.00     0.200 A 
ATOM     48  F   UNL A   1      37.643  33.514  39.700  1.00  0.00    -0.200 F 
ATOM     49  F   UNL A   1      38.943  35.901  39.927  1.00  0.00    -0.200 F 
ENDBRANCH  25  39
BRANCH  26  50
ATOM     50  C   UNL A   1      40.691  27.861  28.421  1.00  0.00     0.064 A 
ATOM     51  C   UNL A   1      40.081  26.608  28.274  1.00  0.00     0.173 A 
ATOM     52  C   UNL A   1      41.491  28.324  27.365  1.00  0.00     0.173 A 
ATOM     53  F   UNL A   1      39.317  26.115  29.259  1.00  0.00    -0.203 F 
ATOM     54  C   UNL A   1      40.292  25.835  27.134  1.00  0.00     0.198 A 
ATOM     55  C   UNL A   1      41.667  27.570  26.209  1.00  0.00     0.198 A 
ATOM     56  F   UNL A   1      42.091  29.521  27.449  1.00  0.00    -0.203 F 
ATOM     57  F   UNL A   1      39.751  24.613  27.047  1.00  0.00    -0.200 F 
ATOM     58  C   UNL A   1      41.081  26.319  26.101  1.00  0.00     0.200 A 
ATOM     59  F   UNL A   1      42.410  28.054  25.203  1.00  0.00    -0.200 F 
ATOM     60  F   UNL A   1      41.283  25.576  25.004  1.00  0.00    -0.200 F 
ENDBRANCH  26  50
BRANCH  38  61
ATOM     61  C   UNL A   1      44.024  28.070  34.523  1.00  0.00     0.064 A 
ATOM     62  C   UNL A   1      45.355  28.486  34.355  1.00  0.00     0.173 A 
ATOM     63  C   UNL A   1      43.794  26.870  35.212  1.00  0.00     0.173 A 
ATOM     64  F   UNL A   1      45.630  29.617  33.687  1.00  0.00    -0.203 F 
ATOM     65  C   UNL A   1      46.411  27.704  34.812  1.00  0.00     0.198 A 
ATOM     66  C   UNL A   1      44.852  26.111  35.702  1.00  0.00     0.198 A 
ATOM     67  F   UNL A   1      42.541  26.431  35.408  1.00  0.00    -0.203 F 
ATOM     68  F   UNL A   1      47.675  28.082  34.572  1.00  0.00    -0.200 F 
ATOM     69  C   UNL A   1      46.160  26.521  35.490  1.00  0.00     0.200 A 
ATOM     70  F   UNL A   1      44.607  24.975  36.371  1.00  0.00    -0.200 F 
ATOM     71  F   UNL A   1      47.179  25.767  35.926  1.00  0.00    -0.200 F 
ENDBRANCH  38  61
ENDBRANCH  12  13
ENDBRANCH   5   7
ENDBRANCH   2   3
ENDBRANCH   1   2
BRANCH   1  72
ATOM     72  C   UNL A   1      31.609  30.546  26.349  1.00  0.00     0.023 C 
BRANCH  72  73
ATOM     73  C   UNL A   1      33.007  29.994  26.094  1.00  0.00     0.116 C 
BRANCH  73  74
ATOM     74  N   UNL A   1      33.273  29.703  24.691  1.00  0.00    -0.352 N 
ATOM     75  C   UNL A   1      32.961  28.575  23.974  1.00  0.00     0.253 C 
ATOM     76  H   UNL A   1      33.739  30.412  24.190  1.00  0.00     0.163 HD
ATOM     77  O   UNL A   1      33.229  28.471  22.783  1.00  0.00    -0.269 OA
BRANCH  75  78
ATOM     78  C   UNL A   1      32.284  27.465  24.653  1.00  0.00     0.070 A 
ATOM     79  C   UNL A   1      33.021  26.670  25.541  1.00  0.00     0.019 A 
ATOM     80  C   UNL A   1      30.939  27.177  24.421  1.00  0.00     0.158 A 
ATOM     81  C   UNL A   1      32.422  25.563  26.127  1.00  0.00     0.042 A 
ATOM     82  N   UNL A   1      30.345  26.090  25.013  1.00  0.00    -0.231 NA
ATOM     83  C   UNL A   1      31.096  25.318  25.827  1.00  0.00     0.129 A 
ATOM     84  Cl  UNL A   1      30.285  23.956  26.472  1.00  0.00    -0.062 Cl
BRANCH  80  85
ATOM     85  C   UNL A   1      30.071  28.053  23.528  1.00  0.00     0.434 C 
ATOM     86  F   UNL A   1      28.751  27.702  23.585  1.00  0.00    -0.164 F 
ATOM     87  F   UNL A   1      30.111  29.369  23.880  1.00  0.00    -0.164 F 
ATOM     88  F   UNL A   1      30.374  27.998  22.200  1.00  0.00    -0.164 F 
ENDBRANCH  80  85
ENDBRANCH  75  78
ENDBRANCH  73  74
ENDBRANCH  72  73
ENDBRANCH   1  72
TORSDOF 12
ENDMDL
