MODEL 1
REMARK VINA RESULT:     -13.2      0.000      0.000
REMARK SMILES COC(=O)c1ccc(Cl)c(-c2ccc(C(=O)NCCCCNC(=O)c3ccc(-c4c5nc(c(-c6c(F)c(F)c(F)c(F)c6F)c6ccc([nH]6)c(-c6c(F)c(F)c(F)c(F)c6F)c6nc(c(-c7c(F)c(F)c(F)c(F)c7F)c7ccc4[nH]7)C=C6)C=C5)cc3)c(F)c2)c1
REMARK SMILES IDX 19 1 18 2 17 3 15 4 16 5 14 7 11 8 12 9 90 10 13 11 88 12
REMARK SMILES IDX 89 13 10 14 5 15 6 16 91 17 7 18 8 19 9 20 3 21 4 22 2 23
REMARK SMILES IDX 1 24 20 25 21 26 22 27 23 28 24 30 25 31 26 32 87 33 27 34
REMARK SMILES IDX 86 35 28 36 29 37 30 38 80 39 31 40 85 41 79 42 81 43 32 44
REMARK SMILES IDX 84 45 78 46 77 47 33 49 65 50 45 51 64 52 46 53 49 54 63 55
REMARK SMILES IDX 82 56 47 57 48 58 62 60 83 61 50 62 34 63 35 64 43 65 36 66
REMARK SMILES IDX 37 67 41 68 44 69 38 70 39 71 42 72 40 73 66 74 67 75 75 76
REMARK SMILES IDX 68 77 69 78 73 79 76 80 70 81 71 82 74 83 72 84 51 85 52 86
REMARK SMILES IDX 60 87 53 88 54 89 58 90 61 91 55 92 56 93 59 94 57 95
REMARK H PARENT 17 6 22 29 81 48 49 59
REMARK Flexibility Score: inf
ROOT
ATOM      1  C   UNL A   1      32.316  30.063  26.892  1.00  0.00     0.023 C 
ENDROOT
BRANCH   1   2
ATOM      2  C   UNL A   1      31.742  29.255  25.724  1.00  0.00     0.116 C 
BRANCH   2   3
ATOM      3  N   UNL A   1      32.530  29.465  24.528  1.00  0.00    -0.352 N 
ATOM      4  C   UNL A   1      33.357  28.651  23.804  1.00  0.00     0.254 C 
ATOM      5  O   UNL A   1      33.888  29.171  22.817  1.00  0.00    -0.269 OA
ATOM      6  H   UNL A   1      32.455  30.376  24.164  1.00  0.00     0.163 HD
BRANCH   4   7
ATOM      7  C   UNL A   1      33.626  27.209  24.075  1.00  0.00     0.075 A 
ATOM      8  C   UNL A   1      34.174  24.420  24.294  1.00  0.00    -0.014 A 
ATOM      9  C   UNL A   1      33.867  24.988  23.055  1.00  0.00     0.010 A 
ATOM     10  C   UNL A   1      34.198  25.256  25.413  1.00  0.00     0.048 A 
ATOM     11  C   UNL A   1      33.591  26.359  22.951  1.00  0.00     0.017 A 
ATOM     12  C   UNL A   1      33.964  26.628  25.295  1.00  0.00     0.136 A 
ATOM     13  F   UNL A   1      34.157  27.334  26.411  1.00  0.00    -0.206 F 
BRANCH   8  14
ATOM     14  C   UNL A   1      34.534  23.005  24.443  1.00  0.00     0.001 A 
ATOM     15  C   UNL A   1      33.816  20.667  24.494  1.00  0.00     0.060 A 
ATOM     16  C   UNL A   1      35.089  20.281  24.925  1.00  0.00     0.017 A 
ATOM     17  C   UNL A   1      33.549  22.020  24.243  1.00  0.00     0.026 A 
ATOM     18  C   UNL A   1      36.085  21.242  25.106  1.00  0.00     0.022 A 
ATOM     19  C   UNL A   1      35.811  22.593  24.872  1.00  0.00     0.048 A 
ATOM     20  Cl  UNL A   1      37.084  23.725  25.178  1.00  0.00    -0.084 Cl
BRANCH  15  21
ATOM     21  C   UNL A   1      32.715  19.688  24.302  1.00  0.00     0.337 C 
ATOM     22  O   UNL A   1      32.102  19.562  23.258  1.00  0.00    -0.246 OA
BRANCH  21  23
ATOM     23  O   UNL A   1      32.480  19.023  25.460  1.00  0.00    -0.465 OA
ATOM     24  C   UNL A   1      32.505  17.600  25.331  1.00  0.00     0.282 C 
ENDBRANCH  21  23
ENDBRANCH  15  21
ENDBRANCH   8  14
ENDBRANCH   4   7
ENDBRANCH   2   3
ENDBRANCH   1   2
BRANCH   1  25
ATOM     25  C   UNL A   1      31.906  31.537  26.894  1.00  0.00     0.023 C 
BRANCH  25  26
ATOM     26  C   UNL A   1      32.954  32.477  27.470  1.00  0.00     0.116 C 
BRANCH  26  27
ATOM     27  N   UNL A   1      32.486  33.847  27.632  1.00  0.00    -0.352 N 
ATOM     28  C   UNL A   1      32.980  34.798  28.494  1.00  0.00     0.251 C 
ATOM     29  H   UNL A   1      31.733  34.124  27.060  1.00  0.00     0.163 HD
ATOM     30  O   UNL A   1      32.452  35.894  28.620  1.00  0.00    -0.269 OA
BRANCH  28  31
ATOM     31  C   UNL A   1      34.158  34.433  29.302  1.00  0.00     0.039 A 
ATOM     32  C   UNL A   1      33.973  33.784  30.524  1.00  0.00     0.014 A 
ATOM     33  C   UNL A   1      35.435  34.615  28.767  1.00  0.00     0.014 A 
ATOM     34  C   UNL A   1      35.080  33.248  31.183  1.00  0.00     0.010 A 
ATOM     35  C   UNL A   1      36.519  34.007  29.382  1.00  0.00     0.010 A 
ATOM     36  C   UNL A   1      36.353  33.321  30.597  1.00  0.00    -0.014 A 
BRANCH  36  37
ATOM     37  C   UNL A   1      37.551  32.720  31.232  1.00  0.00     0.031 A 
ATOM     38  C   UNL A   1      38.246  31.582  30.542  1.00  0.00     0.074 A 
ATOM     39  C   UNL A   1      37.949  33.121  32.454  1.00  0.00     0.049 A 
ATOM     40  N   UNL A   1      39.187  30.793  30.988  1.00  0.00    -0.248 NA
ATOM     41  C   UNL A   1      37.794  31.267  29.175  1.00  0.00     0.031 C 
ATOM     42  C   UNL A   1      37.342  34.202  33.232  1.00  0.00     0.029 A 
ATOM     43  N   UNL A   1      38.951  32.650  33.268  1.00  0.00    -0.354 N 
ATOM     44  C   UNL A   1      39.420  29.878  29.971  1.00  0.00     0.074 A 
ATOM     45  C   UNL A   1      38.485  30.170  28.908  1.00  0.00     0.031 C 
ATOM     46  C   UNL A   1      37.994  34.322  34.400  1.00  0.00     0.029 A 
ATOM     47  C   UNL A   1      39.027  33.293  34.479  1.00  0.00     0.049 A 
ATOM     48  H   UNL A   1      39.556  31.918  33.007  1.00  0.00     0.167 HD
ATOM     49  C   UNL A   1      40.350  28.898  29.920  1.00  0.00     0.037 A 
ATOM     50  C   UNL A   1      39.828  33.065  35.539  1.00  0.00     0.037 A 
ATOM     51  C   UNL A   1      41.300  28.639  30.967  1.00  0.00     0.049 A 
ATOM     52  C   UNL A   1      40.836  31.948  35.473  1.00  0.00     0.074 A 
ATOM     53  C   UNL A   1      42.314  27.698  30.991  1.00  0.00     0.029 A 
ATOM     54  N   UNL A   1      41.354  29.324  32.172  1.00  0.00    -0.354 N 
ATOM     55  N   UNL A   1      41.073  31.108  34.493  1.00  0.00    -0.248 NA
ATOM     56  C   UNL A   1      41.687  31.740  36.654  1.00  0.00     0.031 C 
ATOM     57  C   UNL A   1      42.946  27.776  32.233  1.00  0.00     0.029 A 
ATOM     58  C   UNL A   1      42.374  28.813  32.955  1.00  0.00     0.049 A 
ATOM     59  H   UNL A   1      40.758  30.064  32.430  1.00  0.00     0.167 HD
ATOM     60  C   UNL A   1      42.120  30.304  34.921  1.00  0.00     0.074 A 
ATOM     61  C   UNL A   1      42.474  30.750  36.252  1.00  0.00     0.031 C 
ATOM     62  C   UNL A   1      42.735  29.291  34.265  1.00  0.00     0.037 A 
BRANCH  49  63
ATOM     63  C   UNL A   1      40.401  28.038  28.692  1.00  0.00     0.064 A 
ATOM     64  C   UNL A   1      39.742  26.799  28.663  1.00  0.00     0.173 A 
ATOM     65  C   UNL A   1      41.161  28.404  27.570  1.00  0.00     0.173 A 
ATOM     66  F   UNL A   1      39.006  26.400  29.711  1.00  0.00    -0.203 F 
ATOM     67  C   UNL A   1      39.857  25.953  27.565  1.00  0.00     0.198 A 
ATOM     68  C   UNL A   1      41.245  27.569  26.460  1.00  0.00     0.198 A 
ATOM     69  F   UNL A   1      41.799  29.584  27.542  1.00  0.00    -0.203 F 
ATOM     70  F   UNL A   1      39.252  24.757  27.577  1.00  0.00    -0.200 F 
ATOM     71  C   UNL A   1      40.605  26.340  26.463  1.00  0.00     0.200 A 
ATOM     72  F   UNL A   1      41.945  27.957  25.384  1.00  0.00    -0.200 F 
ATOM     73  F   UNL A   1      40.706  25.527  25.402  1.00  0.00    -0.200 F 
ENDBRANCH  49  63
BRANCH  50  74
ATOM     74  C   UNL A   1      39.723  33.934  36.743  1.00  0.00     0.064 A 
ATOM     75  C   UNL A   1      38.919  33.581  37.836  1.00  0.00     0.173 A 
ATOM     76  C   UNL A   1      40.408  35.155  36.807  1.00  0.00     0.173 A 
ATOM     77  F   UNL A   1      38.238  32.425  37.825  1.00  0.00    -0.203 F 
ATOM     78  C   UNL A   1      38.787  34.426  38.937  1.00  0.00     0.198 A 
ATOM     79  C   UNL A   1      40.299  35.986  37.921  1.00  0.00     0.198 A 
ATOM     80  F   UNL A   1      41.206  35.528  35.796  1.00  0.00    -0.203 F 
ATOM     81  F   UNL A   1      37.982  34.081  39.951  1.00  0.00    -0.200 F 
ATOM     82  C   UNL A   1      39.481  35.625  38.981  1.00  0.00     0.200 A 
ATOM     83  F   UNL A   1      40.991  37.132  37.968  1.00  0.00    -0.200 F 
ATOM     84  F   UNL A   1      39.365  36.432  40.044  1.00  0.00    -0.200 F 
ENDBRANCH  50  74
BRANCH  62  85
ATOM     85  C   UNL A   1      43.897  28.612  34.929  1.00  0.00     0.064 A 
ATOM     86  C   UNL A   1      45.207  29.033  34.647  1.00  0.00     0.173 A 
ATOM     87  C   UNL A   1      43.728  27.463  35.712  1.00  0.00     0.173 A 
ATOM     88  F   UNL A   1      45.419  30.122  33.892  1.00  0.00    -0.203 F 
ATOM     89  C   UNL A   1      46.305  28.305  35.094  1.00  0.00     0.198 A 
ATOM     90  C   UNL A   1      44.831  26.754  36.183  1.00  0.00     0.198 A 
ATOM     91  F   UNL A   1      42.497  27.027  36.016  1.00  0.00    -0.203 F 
ATOM     92  F   UNL A   1      47.544  28.692  34.761  1.00  0.00    -0.200 F 
ATOM     93  C   UNL A   1      46.116  27.165  35.860  1.00  0.00     0.200 A 
ATOM     94  F   UNL A   1      44.649  25.662  36.939  1.00  0.00    -0.200 F 
ATOM     95  F   UNL A   1      47.174  26.458  36.281  1.00  0.00    -0.200 F 
ENDBRANCH  62  85
ENDBRANCH  36  37
ENDBRANCH  28  31
ENDBRANCH  26  27
ENDBRANCH  25  26
ENDBRANCH   1  25
TORSDOF 14
ENDMDL
MODEL 2
REMARK VINA RESULT:     -13.1      1.151      2.212
REMARK SMILES COC(=O)c1ccc(Cl)c(-c2ccc(C(=O)NCCCCNC(=O)c3ccc(-c4c5nc(c(-c6c(F)c(F)c(F)c(F)c6F)c6ccc([nH]6)c(-c6c(F)c(F)c(F)c(F)c6F)c6nc(c(-c7c(F)c(F)c(F)c(F)c7F)c7ccc4[nH]7)C=C6)C=C5)cc3)c(F)c2)c1
REMARK SMILES IDX 19 1 18 2 17 3 15 4 16 5 14 7 11 8 12 9 90 10 13 11 88 12
REMARK SMILES IDX 89 13 10 14 5 15 6 16 91 17 7 18 8 19 9 20 3 21 4 22 2 23
REMARK SMILES IDX 1 24 20 25 21 26 22 27 23 28 24 30 25 31 26 32 87 33 27 34
REMARK SMILES IDX 86 35 28 36 29 37 30 38 80 39 31 40 85 41 79 42 81 43 32 44
REMARK SMILES IDX 84 45 78 46 77 47 33 49 65 50 45 51 64 52 46 53 49 54 63 55
REMARK SMILES IDX 82 56 47 57 48 58 62 60 83 61 50 62 34 63 35 64 43 65 36 66
REMARK SMILES IDX 37 67 41 68 44 69 38 70 39 71 42 72 40 73 66 74 67 75 75 76
REMARK SMILES IDX 68 77 69 78 73 79 76 80 70 81 71 82 74 83 72 84 51 85 52 86
REMARK SMILES IDX 60 87 53 88 54 89 58 90 61 91 55 92 56 93 59 94 57 95
REMARK H PARENT 17 6 22 29 81 48 49 59
REMARK Flexibility Score: inf
ROOT
ATOM      1  C   UNL A   1      32.404  30.248  26.714  1.00  0.00     0.023 C 
ENDROOT
BRANCH   1   2
ATOM      2  C   UNL A   1      31.775  29.522  25.520  1.00  0.00     0.116 C 
BRANCH   2   3
ATOM      3  N   UNL A   1      32.640  29.607  24.363  1.00  0.00    -0.352 N 
ATOM      4  C   UNL A   1      33.446  28.698  23.736  1.00  0.00     0.254 C 
ATOM      5  O   UNL A   1      34.066  29.120  22.754  1.00  0.00    -0.269 OA
ATOM      6  H   UNL A   1      32.649  30.497  23.944  1.00  0.00     0.163 HD
BRANCH   4   7
ATOM      7  C   UNL A   1      33.599  27.260  24.103  1.00  0.00     0.075 A 
ATOM      8  C   UNL A   1      33.919  24.456  24.509  1.00  0.00    -0.014 A 
ATOM      9  C   UNL A   1      33.652  24.963  23.235  1.00  0.00     0.010 A 
ATOM     10  C   UNL A   1      34.018  25.361  25.569  1.00  0.00     0.048 A 
ATOM     11  C   UNL A   1      33.488  26.342  23.039  1.00  0.00     0.017 A 
ATOM     12  C   UNL A   1      33.895  26.736  25.359  1.00  0.00     0.136 A 
ATOM     13  F   UNL A   1      34.152  27.497  26.425  1.00  0.00    -0.206 F 
BRANCH   8  14
ATOM     14  C   UNL A   1      34.164  23.030  24.753  1.00  0.00     0.001 A 
ATOM     15  C   UNL A   1      35.770  21.194  24.935  1.00  0.00     0.060 A 
ATOM     16  C   UNL A   1      34.718  20.274  24.999  1.00  0.00     0.017 A 
ATOM     17  C   UNL A   1      35.490  22.563  24.827  1.00  0.00     0.026 A 
ATOM     18  C   UNL A   1      33.397  20.722  24.951  1.00  0.00     0.022 A 
ATOM     19  C   UNL A   1      33.120  22.087  24.826  1.00  0.00     0.048 A 
ATOM     20  Cl  UNL A   1      31.457  22.552  24.714  1.00  0.00    -0.084 Cl
BRANCH  15  21
ATOM     21  C   UNL A   1      37.194  20.769  24.964  1.00  0.00     0.337 C 
ATOM     22  O   UNL A   1      37.548  19.604  24.966  1.00  0.00    -0.246 OA
BRANCH  21  23
ATOM     23  O   UNL A   1      38.000  21.857  25.039  1.00  0.00    -0.465 OA
ATOM     24  C   UNL A   1      38.928  21.821  26.125  1.00  0.00     0.282 C 
ENDBRANCH  21  23
ENDBRANCH  15  21
ENDBRANCH   8  14
ENDBRANCH   4   7
ENDBRANCH   2   3
ENDBRANCH   1   2
BRANCH   1  25
ATOM     25  C   UNL A   1      31.950  31.700  26.871  1.00  0.00     0.023 C 
BRANCH  25  26
ATOM     26  C   UNL A   1      32.980  32.611  27.522  1.00  0.00     0.116 C 
BRANCH  26  27
ATOM     27  N   UNL A   1      32.517  33.980  27.709  1.00  0.00    -0.352 N 
ATOM     28  C   UNL A   1      33.007  34.908  28.598  1.00  0.00     0.251 C 
ATOM     29  H   UNL A   1      31.772  34.273  27.137  1.00  0.00     0.163 HD
ATOM     30  O   UNL A   1      32.483  36.004  28.743  1.00  0.00    -0.269 OA
BRANCH  28  31
ATOM     31  C   UNL A   1      34.175  34.519  29.409  1.00  0.00     0.039 A 
ATOM     32  C   UNL A   1      33.972  33.929  30.658  1.00  0.00     0.014 A 
ATOM     33  C   UNL A   1      35.454  34.618  28.857  1.00  0.00     0.014 A 
ATOM     34  C   UNL A   1      35.059  33.367  31.329  1.00  0.00     0.010 A 
ATOM     35  C   UNL A   1      36.513  33.984  29.485  1.00  0.00     0.010 A 
ATOM     36  C   UNL A   1      36.328  33.355  30.728  1.00  0.00    -0.014 A 
BRANCH  36  37
ATOM     37  C   UNL A   1      37.503  32.723  31.377  1.00  0.00     0.031 A 
ATOM     38  C   UNL A   1      38.192  31.585  30.681  1.00  0.00     0.074 A 
ATOM     39  C   UNL A   1      37.883  33.097  32.613  1.00  0.00     0.049 A 
ATOM     40  N   UNL A   1      39.111  30.772  31.132  1.00  0.00    -0.248 NA
ATOM     41  C   UNL A   1      37.762  31.300  29.300  1.00  0.00     0.031 C 
ATOM     42  C   UNL A   1      37.280  34.175  33.397  1.00  0.00     0.029 A 
ATOM     43  N   UNL A   1      38.861  32.594  33.438  1.00  0.00    -0.354 N 
ATOM     44  C   UNL A   1      39.347  29.870  30.104  1.00  0.00     0.074 A 
ATOM     45  C   UNL A   1      38.439  30.196  29.028  1.00  0.00     0.031 C 
ATOM     46  C   UNL A   1      37.910  34.264  34.579  1.00  0.00     0.029 A 
ATOM     47  C   UNL A   1      38.924  33.216  34.661  1.00  0.00     0.049 A 
ATOM     48  H   UNL A   1      39.459  31.857  33.177  1.00  0.00     0.167 HD
ATOM     49  C   UNL A   1      40.261  28.875  30.055  1.00  0.00     0.037 A 
ATOM     50  C   UNL A   1      39.700  32.956  35.733  1.00  0.00     0.037 A 
ATOM     51  C   UNL A   1      41.186  28.582  31.116  1.00  0.00     0.049 A 
ATOM     52  C   UNL A   1      40.689  31.823  35.667  1.00  0.00     0.074 A 
ATOM     53  C   UNL A   1      42.183  27.623  31.144  1.00  0.00     0.029 A 
ATOM     54  N   UNL A   1      41.228  29.246  32.332  1.00  0.00    -0.354 N 
ATOM     55  N   UNL A   1      40.931  30.996  34.678  1.00  0.00    -0.248 NA
ATOM     56  C   UNL A   1      41.514  31.581  36.861  1.00  0.00     0.031 C 
ATOM     57  C   UNL A   1      42.792  27.669  32.398  1.00  0.00     0.029 A 
ATOM     58  C   UNL A   1      42.223  28.704  33.127  1.00  0.00     0.049 A 
ATOM     59  H   UNL A   1      40.639  29.991  32.592  1.00  0.00     0.167 HD
ATOM     60  C   UNL A   1      41.956  30.167  35.113  1.00  0.00     0.074 A 
ATOM     61  C   UNL A   1      42.291  30.584  36.458  1.00  0.00     0.031 C 
ATOM     62  C   UNL A   1      42.566  29.154  34.452  1.00  0.00     0.037 A 
BRANCH  49  63
ATOM     63  C   UNL A   1      40.322  28.034  28.813  1.00  0.00     0.064 A 
ATOM     64  C   UNL A   1      39.657  26.800  28.757  1.00  0.00     0.173 A 
ATOM     65  C   UNL A   1      41.096  28.414  27.707  1.00  0.00     0.173 A 
ATOM     66  F   UNL A   1      38.906  26.388  29.790  1.00  0.00    -0.203 F 
ATOM     67  C   UNL A   1      39.780  25.971  27.647  1.00  0.00     0.198 A 
ATOM     68  C   UNL A   1      41.189  27.597  26.584  1.00  0.00     0.198 A 
ATOM     69  F   UNL A   1      41.741  29.591  27.705  1.00  0.00    -0.203 F 
ATOM     70  F   UNL A   1      39.169  24.778  27.633  1.00  0.00    -0.200 F 
ATOM     71  C   UNL A   1      40.542  26.371  26.560  1.00  0.00     0.200 A 
ATOM     72  F   UNL A   1      41.903  27.999  25.523  1.00  0.00    -0.200 F 
ATOM     73  F   UNL A   1      40.651  25.575  25.487  1.00  0.00    -0.200 F 
ENDBRANCH  49  63
BRANCH  50  74
ATOM     74  C   UNL A   1      39.586  33.807  36.949  1.00  0.00     0.064 A 
ATOM     75  C   UNL A   1      40.314  34.998  37.084  1.00  0.00     0.173 A 
ATOM     76  C   UNL A   1      38.763  33.423  38.017  1.00  0.00     0.173 A 
ATOM     77  F   UNL A   1      41.120  35.408  36.094  1.00  0.00    -0.203 F 
ATOM     78  C   UNL A   1      40.240  35.760  38.248  1.00  0.00     0.198 A 
ATOM     79  C   UNL A   1      38.666  34.202  39.168  1.00  0.00     0.198 A 
ATOM     80  F   UNL A   1      38.031  32.303  37.928  1.00  0.00    -0.203 F 
ATOM     81  F   UNL A   1      40.974  36.874  38.365  1.00  0.00    -0.200 F 
ATOM     82  C   UNL A   1      39.411  35.365  39.287  1.00  0.00     0.200 A 
ATOM     83  F   UNL A   1      37.846  33.827  40.160  1.00  0.00    -0.200 F 
ATOM     84  F   UNL A   1      39.330  36.104  40.401  1.00  0.00    -0.200 F 
ENDBRANCH  50  74
BRANCH  62  85
ATOM     85  C   UNL A   1      43.703  28.444  35.127  1.00  0.00     0.064 A 
ATOM     86  C   UNL A   1      43.443  27.351  35.970  1.00  0.00     0.173 A 
ATOM     87  C   UNL A   1      45.015  28.930  35.064  1.00  0.00     0.173 A 
ATOM     88  F   UNL A   1      42.199  26.857  36.072  1.00  0.00    -0.203 F 
ATOM     89  C   UNL A   1      44.448  26.797  36.756  1.00  0.00     0.198 A 
ATOM     90  C   UNL A   1      46.026  28.353  35.829  1.00  0.00     0.198 A 
ATOM     91  F   UNL A   1      45.315  29.965  34.266  1.00  0.00    -0.203 F 
ATOM     92  F   UNL A   1      44.163  25.796  37.599  1.00  0.00    -0.200 F 
ATOM     93  C   UNL A   1      45.738  27.300  36.686  1.00  0.00     0.200 A 
ATOM     94  F   UNL A   1      47.277  28.827  35.749  1.00  0.00    -0.200 F 
ATOM     95  F   UNL A   1      46.704  26.773  37.451  1.00  0.00    -0.200 F 
ENDBRANCH  62  85
ENDBRANCH  36  37
ENDBRANCH  28  31
ENDBRANCH  26  27
ENDBRANCH  25  26
ENDBRANCH   1  25
TORSDOF 14
ENDMDL
MODEL 3
REMARK VINA RESULT:     -12.9      5.365     10.695
REMARK SMILES COC(=O)c1ccc(Cl)c(-c2ccc(C(=O)NCCCCNC(=O)c3ccc(-c4c5nc(c(-c6c(F)c(F)c(F)c(F)c6F)c6ccc([nH]6)c(-c6c(F)c(F)c(F)c(F)c6F)c6nc(c(-c7c(F)c(F)c(F)c(F)c7F)c7ccc4[nH]7)C=C6)C=C5)cc3)c(F)c2)c1
REMARK SMILES IDX 19 1 18 2 17 3 15 4 16 5 14 7 11 8 12 9 90 10 13 11 88 12
REMARK SMILES IDX 89 13 10 14 5 15 6 16 91 17 7 18 8 19 9 20 3 21 4 22 2 23
REMARK SMILES IDX 1 24 20 25 21 26 22 27 23 28 24 30 25 31 26 32 87 33 27 34
REMARK SMILES IDX 86 35 28 36 29 37 30 38 80 39 31 40 85 41 79 42 81 43 32 44
REMARK SMILES IDX 84 45 78 46 77 47 33 49 65 50 45 51 64 52 46 53 49 54 63 55
REMARK SMILES IDX 82 56 47 57 48 58 62 60 83 61 50 62 34 63 35 64 43 65 36 66
REMARK SMILES IDX 37 67 41 68 44 69 38 70 39 71 42 72 40 73 66 74 67 75 75 76
REMARK SMILES IDX 68 77 69 78 73 79 76 80 70 81 71 82 74 83 72 84 51 85 52 86
REMARK SMILES IDX 60 87 53 88 54 89 58 90 61 91 55 92 56 93 59 94 57 95
REMARK H PARENT 17 6 22 29 81 48 49 59
REMARK Flexibility Score: inf
ROOT
ATOM      1  C   UNL A   1      36.890  20.340  24.994  1.00  0.00     0.023 C 
ENDROOT
BRANCH   1   2
ATOM      2  C   UNL A   1      35.596  21.161  24.988  1.00  0.00     0.116 C 
BRANCH   2   3
ATOM      3  N   UNL A   1      34.952  21.099  26.282  1.00  0.00    -0.352 N 
ATOM      4  C   UNL A   1      34.160  21.976  26.970  1.00  0.00     0.254 C 
ATOM      5  O   UNL A   1      33.778  21.594  28.081  1.00  0.00    -0.269 OA
ATOM      6  H   UNL A   1      35.116  20.256  26.763  1.00  0.00     0.163 HD
BRANCH   4   7
ATOM      7  C   UNL A   1      33.693  23.306  26.481  1.00  0.00     0.075 A 
ATOM      8  C   UNL A   1      32.551  25.802  25.709  1.00  0.00    -0.014 A 
ATOM      9  C   UNL A   1      31.767  24.822  26.323  1.00  0.00     0.010 A 
ATOM     10  C   UNL A   1      33.900  25.518  25.483  1.00  0.00     0.048 A 
ATOM     11  C   UNL A   1      32.329  23.592  26.695  1.00  0.00     0.017 A 
ATOM     12  C   UNL A   1      34.463  24.308  25.895  1.00  0.00     0.136 A 
ATOM     13  F   UNL A   1      35.787  24.221  25.750  1.00  0.00    -0.206 F 
BRANCH   8  14
ATOM     14  C   UNL A   1      32.024  27.127  25.362  1.00  0.00     0.001 A 
ATOM     15  C   UNL A   1      30.516  28.473  23.986  1.00  0.00     0.060 A 
ATOM     16  C   UNL A   1      31.104  29.643  24.477  1.00  0.00     0.017 A 
ATOM     17  C   UNL A   1      30.967  27.226  24.438  1.00  0.00     0.026 A 
ATOM     18  C   UNL A   1      32.137  29.564  25.412  1.00  0.00     0.022 A 
ATOM     19  C   UNL A   1      32.597  28.318  25.849  1.00  0.00     0.048 A 
ATOM     20  Cl  UNL A   1      33.922  28.308  26.964  1.00  0.00    -0.084 Cl
BRANCH  15  21
ATOM     21  C   UNL A   1      29.425  28.500  22.976  1.00  0.00     0.337 C 
ATOM     22  O   UNL A   1      28.371  27.906  23.110  1.00  0.00    -0.246 OA
BRANCH  21  23
ATOM     23  O   UNL A   1      29.811  29.225  21.897  1.00  0.00    -0.465 OA
ATOM     24  C   UNL A   1      28.913  30.282  21.553  1.00  0.00     0.282 C 
ENDBRANCH  21  23
ENDBRANCH  15  21
ENDBRANCH   8  14
ENDBRANCH   4   7
ENDBRANCH   2   3
ENDBRANCH   1   2
BRANCH   1  25
ATOM     25  C   UNL A   1      38.165  21.184  24.983  1.00  0.00     0.023 C 
BRANCH  25  26
ATOM     26  C   UNL A   1      39.113  20.903  26.139  1.00  0.00     0.116 C 
BRANCH  26  27
ATOM     27  N   UNL A   1      39.918  19.702  25.959  1.00  0.00    -0.352 N 
ATOM     28  C   UNL A   1      41.285  19.595  26.062  1.00  0.00     0.251 C 
ATOM     29  H   UNL A   1      39.429  18.876  25.740  1.00  0.00     0.163 HD
ATOM     30  O   UNL A   1      41.874  18.556  25.797  1.00  0.00    -0.269 OA
BRANCH  28  31
ATOM     31  C   UNL A   1      42.031  20.800  26.467  1.00  0.00     0.039 A 
ATOM     32  C   UNL A   1      42.422  21.720  25.494  1.00  0.00     0.014 A 
ATOM     33  C   UNL A   1      42.207  21.069  27.827  1.00  0.00     0.014 A 
ATOM     34  C   UNL A   1      42.933  22.956  25.892  1.00  0.00     0.010 A 
ATOM     35  C   UNL A   1      42.633  22.328  28.218  1.00  0.00     0.010 A 
ATOM     36  C   UNL A   1      43.003  23.283  27.256  1.00  0.00    -0.014 A 
BRANCH  36  37
ATOM     37  C   UNL A   1      43.488  24.603  27.728  1.00  0.00     0.031 A 
ATOM     38  C   UNL A   1      42.483  25.663  28.077  1.00  0.00     0.074 A 
ATOM     39  C   UNL A   1      44.805  24.879  27.746  1.00  0.00     0.049 A 
ATOM     40  N   UNL A   1      42.671  26.931  28.334  1.00  0.00    -0.248 NA
ATOM     41  C   UNL A   1      41.070  25.246  28.108  1.00  0.00     0.031 C 
ATOM     42  C   UNL A   1      45.875  23.940  27.410  1.00  0.00     0.029 A 
ATOM     43  N   UNL A   1      45.470  26.045  28.044  1.00  0.00    -0.354 N 
ATOM     44  C   UNL A   1      41.405  27.464  28.529  1.00  0.00     0.074 A 
ATOM     45  C   UNL A   1      40.452  26.400  28.307  1.00  0.00     0.031 C 
ATOM     46  C   UNL A   1      47.060  24.558  27.536  1.00  0.00     0.029 A 
ATOM     47  C   UNL A   1      46.834  25.952  27.908  1.00  0.00     0.049 A 
ATOM     48  H   UNL A   1      45.011  26.869  28.327  1.00  0.00     0.167 HD
ATOM     49  C   UNL A   1      41.071  28.723  28.889  1.00  0.00     0.037 A 
ATOM     50  C   UNL A   1      47.791  26.892  28.050  1.00  0.00     0.037 A 
ATOM     51  C   UNL A   1      42.028  29.765  29.143  1.00  0.00     0.049 A 
ATOM     52  C   UNL A   1      47.393  28.296  28.420  1.00  0.00     0.074 A 
ATOM     53  C   UNL A   1      41.792  31.063  29.559  1.00  0.00     0.029 A 
ATOM     54  N   UNL A   1      43.401  29.626  29.010  1.00  0.00    -0.354 N 
ATOM     55  N   UNL A   1      46.195  28.784  28.637  1.00  0.00    -0.248 NA
ATOM     56  C   UNL A   1      48.473  29.284  28.564  1.00  0.00     0.031 C 
ATOM     57  C   UNL A   1      43.018  31.727  29.623  1.00  0.00     0.029 A 
ATOM     58  C   UNL A   1      44.025  30.823  29.317  1.00  0.00     0.049 A 
ATOM     59  H   UNL A   1      43.863  28.800  28.739  1.00  0.00     0.167 HD
ATOM     60  C   UNL A   1      46.379  30.116  28.980  1.00  0.00     0.074 A 
ATOM     61  C   UNL A   1      47.804  30.366  28.939  1.00  0.00     0.031 C 
ATOM     62  C   UNL A   1      45.448  31.046  29.304  1.00  0.00     0.037 A 
BRANCH  49  63
ATOM     63  C   UNL A   1      39.615  29.049  29.042  1.00  0.00     0.064 A 
ATOM     64  C   UNL A   1      38.991  28.950  30.296  1.00  0.00     0.173 A 
ATOM     65  C   UNL A   1      38.818  29.389  27.938  1.00  0.00     0.173 A 
ATOM     66  F   UNL A   1      39.707  28.625  31.383  1.00  0.00    -0.203 F 
ATOM     67  C   UNL A   1      37.623  29.161  30.433  1.00  0.00     0.198 A 
ATOM     68  C   UNL A   1      37.456  29.633  28.086  1.00  0.00     0.198 A 
ATOM     69  F   UNL A   1      39.368  29.510  26.720  1.00  0.00    -0.203 F 
ATOM     70  F   UNL A   1      37.043  29.020  31.633  1.00  0.00    -0.200 F 
ATOM     71  C   UNL A   1      36.858  29.506  29.330  1.00  0.00     0.200 A 
ATOM     72  F   UNL A   1      36.723  29.995  27.024  1.00  0.00    -0.200 F 
ATOM     73  F   UNL A   1      35.541  29.719  29.467  1.00  0.00    -0.200 F 
ENDBRANCH  49  63
BRANCH  50  74
ATOM     74  C   UNL A   1      49.220  26.522  27.866  1.00  0.00     0.064 A 
ATOM     75  C   UNL A   1      50.076  26.326  28.960  1.00  0.00     0.173 A 
ATOM     76  C   UNL A   1      49.765  26.386  26.581  1.00  0.00     0.173 A 
ATOM     77  F   UNL A   1      49.607  26.448  30.210  1.00  0.00    -0.203 F 
ATOM     78  C   UNL A   1      51.425  26.030  28.775  1.00  0.00     0.198 A 
ATOM     79  C   UNL A   1      51.108  26.061  26.398  1.00  0.00     0.198 A 
ATOM     80  F   UNL A   1      48.984  26.544  25.503  1.00  0.00    -0.203 F 
ATOM     81  F   UNL A   1      52.228  25.884  29.838  1.00  0.00    -0.200 F 
ATOM     82  C   UNL A   1      51.939  25.892  27.495  1.00  0.00     0.200 A 
ATOM     83  F   UNL A   1      51.594  25.905  25.159  1.00  0.00    -0.200 F 
ATOM     84  F   UNL A   1      53.234  25.595  27.318  1.00  0.00    -0.200 F 
ENDBRANCH  50  74
BRANCH  62  85
ATOM     85  C   UNL A   1      45.915  32.415  29.702  1.00  0.00     0.064 A 
ATOM     86  C   UNL A   1      46.127  32.715  31.058  1.00  0.00     0.173 A 
ATOM     87  C   UNL A   1      46.003  33.461  28.775  1.00  0.00     0.173 A 
ATOM     88  F   UNL A   1      46.042  31.748  31.985  1.00  0.00    -0.203 F 
ATOM     89  C   UNL A   1      46.372  34.020  31.473  1.00  0.00     0.198 A 
ATOM     90  C   UNL A   1      46.279  34.761  29.191  1.00  0.00     0.198 A 
ATOM     91  F   UNL A   1      45.818  33.222  27.467  1.00  0.00    -0.203 F 
ATOM     92  F   UNL A   1      46.510  34.291  32.778  1.00  0.00    -0.200 F 
ATOM     93  C   UNL A   1      46.446  35.042  30.540  1.00  0.00     0.200 A 
ATOM     94  F   UNL A   1      46.368  35.746  28.287  1.00  0.00    -0.200 F 
ATOM     95  F   UNL A   1      46.671  36.300  30.941  1.00  0.00    -0.200 F 
ENDBRANCH  62  85
ENDBRANCH  36  37
ENDBRANCH  28  31
ENDBRANCH  26  27
ENDBRANCH  25  26
ENDBRANCH   1  25
TORSDOF 14
ENDMDL
