MODEL 1
REMARK VINA RESULT:     -12.3      0.000      0.000
REMARK SMILES C[C@@H](NC(=O)[C@@H]([NH3+])CC(=O)NCCCCNC(=O)c1ccc(-c2c3nc(c(-c4c(F)c(F)c(F)c(F)c4F)c4ccc([nH]4)c(-c4c(F)c(F)c(F)c(F)c4F)c4nc(c(-c5c(F)c(F)c(F)c(F)c5F)c5ccc2[nH]5)C=C4)C=C3)cc1)C(=O)NC1C(C)(C)SC1(C)C
REMARK SMILES IDX 12 1 11 2 9 3 10 4 8 6 6 7 4 8 3 9 5 11 2 12 1 13 82 14
REMARK SMILES IDX 83 15 84 16 85 18 86 19 90 20 87 21 88 22 89 23 91 24 92 25
REMARK SMILES IDX 7 26 13 30 14 31 15 32 16 33 17 34 18 36 19 37 20 38 81 39
REMARK SMILES IDX 21 40 80 41 22 42 23 43 24 44 74 45 25 46 79 47 73 48 75 49
REMARK SMILES IDX 26 50 78 51 72 52 71 53 27 55 59 56 39 57 58 58 40 59 43 60
REMARK SMILES IDX 57 61 76 62 41 63 42 64 56 66 77 67 44 68 28 69 29 70 37 71
REMARK SMILES IDX 30 72 31 73 35 74 38 75 32 76 33 77 36 78 34 79 60 80 61 81
REMARK SMILES IDX 69 82 62 83 63 84 67 85 70 86 64 87 65 88 68 89 66 90 45 91
REMARK SMILES IDX 46 92 54 93 47 94 48 95 52 96 55 97 49 98 50 99 53 100
REMARK SMILES IDX 51 101
REMARK H PARENT 11 5 3 10 84 17 7 27 7 28 7 29 16 35 75 54 43 65
REMARK Flexibility Score: inf
ROOT
ATOM      1  C   UNL A   1      33.783  29.558  26.515  1.00  0.00     0.116 C 
ENDROOT
BRANCH   1   2
ATOM      2  N   UNL A   1      33.668  29.710  25.078  1.00  0.00    -0.356 N 
ATOM      3  C   UNL A   1      33.347  28.787  24.130  1.00  0.00     0.226 C 
ATOM      4  O   UNL A   1      33.362  29.135  22.947  1.00  0.00    -0.275 OA
ATOM      5  H   UNL A   1      33.847  30.616  24.738  1.00  0.00     0.163 HD
BRANCH   3   6
ATOM      6  C   UNL A   1      33.025  27.355  24.513  1.00  0.00     0.175 C 
BRANCH   6   7
ATOM      7  C   UNL A   1      31.514  27.182  24.597  1.00  0.00     0.280 C 
BRANCH   7   8
ATOM      8  C   UNL A   1      31.083  26.457  25.885  1.00  0.00     0.279 C 
ATOM      9  N   UNL A   1      30.914  25.142  26.093  1.00  0.00    -0.339 N 
ATOM     10  H   UNL A   1      30.447  24.934  26.934  1.00  0.00     0.164 HD
ATOM     11  O   UNL A   1      30.874  27.118  26.905  1.00  0.00    -0.268 OA
BRANCH   9  12
ATOM     12  C   UNL A   1      31.277  23.969  25.331  1.00  0.00     0.168 C 
ATOM     13  C   UNL A   1      30.636  24.066  23.945  1.00  0.00     0.041 C 
BRANCH  12  14
ATOM     14  C   UNL A   1      30.817  22.671  25.997  1.00  0.00     0.242 C 
ATOM     15  O   UNL A   1      29.888  22.680  26.813  1.00  0.00    -0.273 OA
ATOM     16  N   UNL A   1      31.431  21.465  25.757  1.00  0.00    -0.349 N 
ATOM     17  H   UNL A   1      30.830  20.739  25.474  1.00  0.00     0.163 HD
BRANCH  16  18
ATOM     18  C   UNL A   1      32.877  21.089  25.861  1.00  0.00     0.113 C 
ATOM     19  C   UNL A   1      33.126  19.781  24.983  1.00  0.00     0.032 C 
ATOM     20  C   UNL A   1      34.086  21.872  25.140  1.00  0.00     0.032 C 
ATOM     21  C   UNL A   1      32.863  18.488  25.744  1.00  0.00     0.025 C 
ATOM     22  C   UNL A   1      32.474  19.727  23.593  1.00  0.00     0.025 C 
ATOM     23  S   UNL A   1      34.908  20.174  24.918  1.00  0.00    -0.145 SA
ATOM     24  C   UNL A   1      34.030  22.520  23.749  1.00  0.00     0.025 C 
ATOM     25  C   UNL A   1      34.981  22.672  26.101  1.00  0.00     0.025 C 
ENDBRANCH  16  18
ENDBRANCH  12  14
ENDBRANCH   9  12
ENDBRANCH   7   8
BRANCH   7  26
ATOM     26  N   UNL A   1      30.805  28.457  24.412  1.00  0.00    -0.347 N 
ATOM     27  H   UNL A   1      31.065  29.102  25.157  1.00  0.00     0.345 HD
ATOM     28  H   UNL A   1      29.800  28.293  24.438  1.00  0.00     0.345 HD
ATOM     29  H   UNL A   1      31.061  28.859  23.509  1.00  0.00     0.345 HD
ENDBRANCH   7  26
ENDBRANCH   6   7
ENDBRANCH   3   6
ENDBRANCH   1   2
BRANCH   1  30
ATOM     30  C   UNL A   1      32.547  30.095  27.237  1.00  0.00     0.023 C 
BRANCH  30  31
ATOM     31  C   UNL A   1      32.111  31.509  26.918  1.00  0.00     0.023 C 
BRANCH  31  32
ATOM     32  C   UNL A   1      33.071  32.553  27.451  1.00  0.00     0.116 C 
BRANCH  32  33
ATOM     33  N   UNL A   1      32.496  33.876  27.683  1.00  0.00    -0.352 N 
ATOM     34  C   UNL A   1      32.969  34.846  28.549  1.00  0.00     0.251 C 
ATOM     35  H   UNL A   1      31.688  34.101  27.168  1.00  0.00     0.163 HD
ATOM     36  O   UNL A   1      32.402  35.909  28.701  1.00  0.00    -0.269 OA
BRANCH  34  37
ATOM     37  C   UNL A   1      34.164  34.496  29.346  1.00  0.00     0.039 A 
ATOM     38  C   UNL A   1      33.989  33.809  30.547  1.00  0.00     0.014 A 
ATOM     39  C   UNL A   1      35.433  34.663  28.793  1.00  0.00     0.014 A 
ATOM     40  C   UNL A   1      35.091  33.198  31.143  1.00  0.00     0.010 A 
ATOM     41  C   UNL A   1      36.497  33.944  29.316  1.00  0.00     0.010 A 
ATOM     42  C   UNL A   1      36.341  33.209  30.500  1.00  0.00    -0.014 A 
BRANCH  42  43
ATOM     43  C   UNL A   1      37.503  32.477  31.060  1.00  0.00     0.031 A 
ATOM     44  C   UNL A   1      38.008  32.823  32.433  1.00  0.00     0.074 A 
ATOM     45  C   UNL A   1      38.136  31.546  30.317  1.00  0.00     0.049 A 
ATOM     46  N   UNL A   1      39.028  32.333  33.090  1.00  0.00    -0.248 NA
ATOM     47  C   UNL A   1      37.296  33.896  33.151  1.00  0.00     0.031 C 
ATOM     48  C   UNL A   1      37.795  31.180  28.940  1.00  0.00     0.029 A 
ATOM     49  N   UNL A   1      39.200  30.735  30.620  1.00  0.00    -0.354 N 
ATOM     50  C   UNL A   1      39.082  33.042  34.281  1.00  0.00     0.074 A 
ATOM     51  C   UNL A   1      38.054  34.055  34.224  1.00  0.00     0.031 C 
ATOM     52  C   UNL A   1      38.603  30.185  28.535  1.00  0.00     0.029 A 
ATOM     53  C   UNL A   1      39.534  29.863  29.611  1.00  0.00     0.049 A 
ATOM     54  H   UNL A   1      39.679  30.772  31.479  1.00  0.00     0.167 HD
ATOM     55  C   UNL A   1      39.882  32.837  35.353  1.00  0.00     0.037 A 
ATOM     56  C   UNL A   1      40.479  28.904  29.572  1.00  0.00     0.037 A 
ATOM     57  C   UNL A   1      40.878  31.803  35.426  1.00  0.00     0.049 A 
ATOM     58  C   UNL A   1      41.336  28.675  30.789  1.00  0.00     0.074 A 
ATOM     59  C   UNL A   1      41.718  31.484  36.477  1.00  0.00     0.029 A 
ATOM     60  N   UNL A   1      41.154  30.909  34.403  1.00  0.00    -0.354 N 
ATOM     61  N   UNL A   1      41.327  29.305  31.939  1.00  0.00    -0.248 NA
ATOM     62  C   UNL A   1      42.323  27.590  30.708  1.00  0.00     0.031 C 
ATOM     63  C   UNL A   1      42.521  30.410  36.080  1.00  0.00     0.029 A 
ATOM     64  C   UNL A   1      42.153  30.036  34.797  1.00  0.00     0.049 A 
ATOM     65  H   UNL A   1      40.706  30.897  33.526  1.00  0.00     0.167 HD
ATOM     66  C   UNL A   1      42.281  28.675  32.726  1.00  0.00     0.074 A 
ATOM     67  C   UNL A   1      42.834  27.599  31.930  1.00  0.00     0.031 C 
ATOM     68  C   UNL A   1      42.670  28.960  33.992  1.00  0.00     0.037 A 
BRANCH  55  69
ATOM     69  C   UNL A   1      39.681  33.731  36.542  1.00  0.00     0.064 A 
ATOM     70  C   UNL A   1      40.309  34.984  36.624  1.00  0.00     0.173 A 
ATOM     71  C   UNL A   1      38.850  33.343  37.601  1.00  0.00     0.173 A 
ATOM     72  F   UNL A   1      41.131  35.394  35.645  1.00  0.00    -0.203 F 
ATOM     73  C   UNL A   1      40.136  35.802  37.737  1.00  0.00     0.198 A 
ATOM     74  C   UNL A   1      38.653  34.176  38.699  1.00  0.00     0.198 A 
ATOM     75  F   UNL A   1      38.227  32.154  37.573  1.00  0.00    -0.203 F 
ATOM     76  F   UNL A   1      40.791  36.968  37.818  1.00  0.00    -0.200 F 
ATOM     77  C   UNL A   1      39.302  35.401  38.770  1.00  0.00     0.200 A 
ATOM     78  F   UNL A   1      37.841  33.793  39.694  1.00  0.00    -0.200 F 
ATOM     79  F   UNL A   1      39.132  36.190  39.839  1.00  0.00    -0.200 F 
ENDBRANCH  55  69
BRANCH  56  80
ATOM     80  C   UNL A   1      40.635  28.049  28.365  1.00  0.00     0.064 A 
ATOM     81  C   UNL A   1      40.014  26.792  28.290  1.00  0.00     0.173 A 
ATOM     82  C   UNL A   1      41.430  28.447  27.282  1.00  0.00     0.173 A 
ATOM     83  F   UNL A   1      39.259  26.359  29.310  1.00  0.00    -0.203 F 
ATOM     84  C   UNL A   1      40.209  25.955  27.195  1.00  0.00     0.198 A 
ATOM     85  C   UNL A   1      41.602  27.619  26.172  1.00  0.00     0.198 A 
ATOM     86  F   UNL A   1      42.041  29.640  27.299  1.00  0.00    -0.203 F 
ATOM     87  F   UNL A   1      39.652  24.737  27.178  1.00  0.00    -0.200 F 
ATOM     88  C   UNL A   1      41.002  26.369  26.136  1.00  0.00     0.200 A 
ATOM     89  F   UNL A   1      42.358  28.028  25.145  1.00  0.00    -0.200 F 
ATOM     90  F   UNL A   1      41.196  25.560  25.085  1.00  0.00    -0.200 F 
ENDBRANCH  56  80
BRANCH  68  91
ATOM     91  C   UNL A   1      43.709  28.071  34.605  1.00  0.00     0.064 A 
ATOM     92  C   UNL A   1      45.073  28.394  34.560  1.00  0.00     0.173 A 
ATOM     93  C   UNL A   1      43.331  26.895  35.272  1.00  0.00     0.173 A 
ATOM     94  F   UNL A   1      45.483  29.501  33.923  1.00  0.00    -0.203 F 
ATOM     95  C   UNL A   1      46.024  27.555  35.132  1.00  0.00     0.198 A 
ATOM     96  C   UNL A   1      44.283  26.074  35.868  1.00  0.00     0.198 A 
ATOM     97  F   UNL A   1      42.038  26.547  35.349  1.00  0.00    -0.203 F 
ATOM     98  F   UNL A   1      47.326  27.856  35.032  1.00  0.00    -0.200 F 
ATOM     99  C   UNL A   1      45.629  26.400  35.791  1.00  0.00     0.200 A 
ATOM    100  F   UNL A   1      43.899  24.965  36.515  1.00  0.00    -0.200 F 
ATOM    101  F   UNL A   1      46.546  25.595  36.343  1.00  0.00    -0.200 F 
ENDBRANCH  68  91
ENDBRANCH  42  43
ENDBRANCH  34  37
ENDBRANCH  32  33
ENDBRANCH  31  32
ENDBRANCH  30  31
ENDBRANCH   1  30
TORSDOF 17
ENDMDL
MODEL 2
REMARK VINA RESULT:     -12.1      1.544      7.659
REMARK SMILES C[C@@H](NC(=O)[C@@H]([NH3+])CC(=O)NCCCCNC(=O)c1ccc(-c2c3nc(c(-c4c(F)c(F)c(F)c(F)c4F)c4ccc([nH]4)c(-c4c(F)c(F)c(F)c(F)c4F)c4nc(c(-c5c(F)c(F)c(F)c(F)c5F)c5ccc2[nH]5)C=C4)C=C3)cc1)C(=O)NC1C(C)(C)SC1(C)C
REMARK SMILES IDX 12 1 11 2 9 3 10 4 8 6 6 7 4 8 3 9 5 11 2 12 1 13 82 14
REMARK SMILES IDX 83 15 84 16 85 18 86 19 90 20 87 21 88 22 89 23 91 24 92 25
REMARK SMILES IDX 7 26 13 30 14 31 15 32 16 33 17 34 18 36 19 37 20 38 81 39
REMARK SMILES IDX 21 40 80 41 22 42 23 43 24 44 74 45 25 46 79 47 73 48 75 49
REMARK SMILES IDX 26 50 78 51 72 52 71 53 27 55 59 56 39 57 58 58 40 59 43 60
REMARK SMILES IDX 57 61 76 62 41 63 42 64 56 66 77 67 44 68 28 69 29 70 37 71
REMARK SMILES IDX 30 72 31 73 35 74 38 75 32 76 33 77 36 78 34 79 60 80 61 81
REMARK SMILES IDX 69 82 62 83 63 84 67 85 70 86 64 87 65 88 68 89 66 90 45 91
REMARK SMILES IDX 46 92 54 93 47 94 48 95 52 96 55 97 49 98 50 99 53 100
REMARK SMILES IDX 51 101
REMARK H PARENT 11 5 3 10 84 17 7 27 7 28 7 29 16 35 75 54 43 65
REMARK Flexibility Score: inf
ROOT
ATOM      1  C   UNL A   1      34.247  29.300  27.081  1.00  0.00     0.116 C 
ENDROOT
BRANCH   1   2
ATOM      2  N   UNL A   1      33.102  28.703  27.738  1.00  0.00    -0.356 N 
ATOM      3  C   UNL A   1      31.878  28.385  27.234  1.00  0.00     0.226 C 
ATOM      4  O   UNL A   1      31.029  27.928  28.002  1.00  0.00    -0.275 OA
ATOM      5  H   UNL A   1      33.228  28.496  28.692  1.00  0.00     0.163 HD
BRANCH   3   6
ATOM      6  C   UNL A   1      31.550  28.629  25.773  1.00  0.00     0.175 C 
BRANCH   6   7
ATOM      7  C   UNL A   1      30.722  27.467  25.240  1.00  0.00     0.280 C 
BRANCH   7   8
ATOM      8  C   UNL A   1      30.687  27.437  23.701  1.00  0.00     0.279 C 
ATOM      9  N   UNL A   1      31.712  27.372  22.837  1.00  0.00    -0.339 N 
ATOM     10  H   UNL A   1      31.455  27.564  21.907  1.00  0.00     0.164 HD
ATOM     11  O   UNL A   1      29.596  27.445  23.125  1.00  0.00    -0.268 OA
BRANCH   9  12
ATOM     12  C   UNL A   1      33.118  27.081  22.997  1.00  0.00     0.168 C 
ATOM     13  C   UNL A   1      33.930  28.206  22.349  1.00  0.00     0.041 C 
BRANCH  12  14
ATOM     14  C   UNL A   1      33.520  25.752  22.357  1.00  0.00     0.242 C 
ATOM     15  O   UNL A   1      33.453  25.601  21.131  1.00  0.00    -0.273 OA
ATOM     16  N   UNL A   1      33.923  24.669  23.102  1.00  0.00    -0.349 N 
ATOM     17  H   UNL A   1      34.790  24.281  22.841  1.00  0.00     0.163 HD
BRANCH  16  18
ATOM     18  C   UNL A   1      33.244  23.991  24.252  1.00  0.00     0.113 C 
ATOM     19  C   UNL A   1      32.127  23.009  23.675  1.00  0.00     0.032 C 
ATOM     20  C   UNL A   1      33.894  22.819  25.144  1.00  0.00     0.032 C 
ATOM     21  C   UNL A   1      30.785  23.693  23.446  1.00  0.00     0.025 C 
ATOM     22  C   UNL A   1      32.504  22.147  22.460  1.00  0.00     0.025 C 
ATOM     23  S   UNL A   1      32.150  22.076  25.244  1.00  0.00    -0.145 SA
ATOM     24  C   UNL A   1      34.818  21.708  24.626  1.00  0.00     0.025 C 
ATOM     25  C   UNL A   1      34.272  23.249  26.572  1.00  0.00     0.025 C 
ENDBRANCH  16  18
ENDBRANCH  12  14
ENDBRANCH   9  12
ENDBRANCH   7   8
BRANCH   7  26
ATOM     26  N   UNL A   1      31.149  26.182  25.813  1.00  0.00    -0.347 N 
ATOM     27  H   UNL A   1      32.033  26.306  26.303  1.00  0.00     0.345 HD
ATOM     28  H   UNL A   1      31.267  25.499  25.065  1.00  0.00     0.345 HD
ATOM     29  H   UNL A   1      30.440  25.850  26.468  1.00  0.00     0.345 HD
ENDBRANCH   7  26
ENDBRANCH   6   7
ENDBRANCH   3   6
ENDBRANCH   1   2
BRANCH   1  30
ATOM     30  C   UNL A   1      34.670  30.601  27.763  1.00  0.00     0.023 C 
BRANCH  30  31
ATOM     31  C   UNL A   1      33.606  31.655  27.979  1.00  0.00     0.023 C 
BRANCH  31  32
ATOM     32  C   UNL A   1      33.914  32.955  27.262  1.00  0.00     0.116 C 
BRANCH  32  33
ATOM     33  N   UNL A   1      33.070  34.089  27.626  1.00  0.00    -0.352 N 
ATOM     34  C   UNL A   1      33.215  34.911  28.730  1.00  0.00     0.251 C 
ATOM     35  H   UNL A   1      32.319  34.291  27.022  1.00  0.00     0.163 HD
ATOM     36  O   UNL A   1      32.439  35.814  28.970  1.00  0.00    -0.269 OA
BRANCH  34  37
ATOM     37  C   UNL A   1      34.322  34.589  29.654  1.00  0.00     0.039 A 
ATOM     38  C   UNL A   1      34.026  33.936  30.850  1.00  0.00     0.014 A 
ATOM     39  C   UNL A   1      35.641  34.745  29.229  1.00  0.00     0.014 A 
ATOM     40  C   UNL A   1      35.063  33.346  31.573  1.00  0.00     0.010 A 
ATOM     41  C   UNL A   1      36.647  34.046  29.878  1.00  0.00     0.010 A 
ATOM     42  C   UNL A   1      36.372  33.344  31.060  1.00  0.00    -0.014 A 
BRANCH  42  43
ATOM     43  C   UNL A   1      37.471  32.633  31.756  1.00  0.00     0.031 A 
ATOM     44  C   UNL A   1      38.155  31.478  31.077  1.00  0.00     0.074 A 
ATOM     45  C   UNL A   1      37.814  32.983  33.012  1.00  0.00     0.049 A 
ATOM     46  N   UNL A   1      39.108  30.700  31.523  1.00  0.00    -0.248 NA
ATOM     47  C   UNL A   1      37.676  31.121  29.730  1.00  0.00     0.031 C 
ATOM     48  C   UNL A   1      37.171  34.030  33.810  1.00  0.00     0.029 A 
ATOM     49  N   UNL A   1      38.796  32.497  33.838  1.00  0.00    -0.354 N 
ATOM     50  C   UNL A   1      39.328  29.766  30.521  1.00  0.00     0.074 A 
ATOM     51  C   UNL A   1      38.354  30.012  29.484  1.00  0.00     0.031 C 
ATOM     52  C   UNL A   1      37.804  34.138  34.990  1.00  0.00     0.029 A 
ATOM     53  C   UNL A   1      38.879  33.153  35.044  1.00  0.00     0.049 A 
ATOM     54  H   UNL A   1      39.387  31.750  33.591  1.00  0.00     0.167 HD
ATOM     55  C   UNL A   1      40.290  28.817  30.446  1.00  0.00     0.037 A 
ATOM     56  C   UNL A   1      39.737  32.982  36.067  1.00  0.00     0.037 A 
ATOM     57  C   UNL A   1      41.285  28.598  31.459  1.00  0.00     0.049 A 
ATOM     58  C   UNL A   1      40.818  31.939  35.944  1.00  0.00     0.074 A 
ATOM     59  C   UNL A   1      42.326  27.689  31.468  1.00  0.00     0.029 A 
ATOM     60  N   UNL A   1      41.366  29.314  32.644  1.00  0.00    -0.354 N 
ATOM     61  N   UNL A   1      41.061  31.110  34.958  1.00  0.00    -0.248 NA
ATOM     62  C   UNL A   1      41.753  31.822  37.071  1.00  0.00     0.031 C 
ATOM     63  C   UNL A   1      43.025  27.838  32.670  1.00  0.00     0.029 A 
ATOM     64  C   UNL A   1      42.441  28.868  33.393  1.00  0.00     0.049 A 
ATOM     65  H   UNL A   1      40.749  30.034  32.914  1.00  0.00     0.167 HD
ATOM     66  C   UNL A   1      42.192  30.397  35.331  1.00  0.00     0.074 A 
ATOM     67  C   UNL A   1      42.599  30.906  36.624  1.00  0.00     0.031 C 
ATOM     68  C   UNL A   1      42.836  29.406  34.667  1.00  0.00     0.037 A 
BRANCH  55  69
ATOM     69  C   UNL A   1      40.327  27.973  29.205  1.00  0.00     0.064 A 
ATOM     70  C   UNL A   1      39.615  26.765  29.126  1.00  0.00     0.173 A 
ATOM     71  C   UNL A   1      41.065  28.375  28.084  1.00  0.00     0.173 A 
ATOM     72  F   UNL A   1      38.909  26.326  30.179  1.00  0.00    -0.203 F 
ATOM     73  C   UNL A   1      39.667  25.976  27.981  1.00  0.00     0.198 A 
ATOM     74  C   UNL A   1      41.089  27.598  26.928  1.00  0.00     0.198 A 
ATOM     75  F   UNL A   1      41.763  29.520  28.107  1.00  0.00    -0.203 F 
ATOM     76  F   UNL A   1      39.026  24.799  27.950  1.00  0.00    -0.200 F 
ATOM     77  C   UNL A   1      40.398  26.396  26.880  1.00  0.00     0.200 A 
ATOM     78  F   UNL A   1      41.789  28.009  25.861  1.00  0.00    -0.200 F 
ATOM     79  F   UNL A   1      40.444  25.638  25.776  1.00  0.00    -0.200 F 
ENDBRANCH  55  69
BRANCH  56  80
ATOM     80  C   UNL A   1      39.653  33.846  37.274  1.00  0.00     0.064 A 
ATOM     81  C   UNL A   1      40.359  35.057  37.341  1.00  0.00     0.173 A 
ATOM     82  C   UNL A   1      38.900  33.470  38.394  1.00  0.00     0.173 A 
ATOM     83  F   UNL A   1      41.110  35.451  36.302  1.00  0.00    -0.203 F 
ATOM     84  C   UNL A   1      40.342  35.839  38.493  1.00  0.00     0.198 A 
ATOM     85  C   UNL A   1      38.861  34.268  39.537  1.00  0.00     0.198 A 
ATOM     86  F   UNL A   1      38.200  32.326  38.381  1.00  0.00    -0.203 F 
ATOM     87  F   UNL A   1      41.074  36.960  38.550  1.00  0.00    -0.200 F 
ATOM     88  C   UNL A   1      39.591  35.446  39.590  1.00  0.00     0.200 A 
ATOM     89  F   UNL A   1      38.124  33.891  40.591  1.00  0.00    -0.200 F 
ATOM     90  F   UNL A   1      39.580  36.195  40.701  1.00  0.00    -0.200 F 
ENDBRANCH  56  80
BRANCH  68  91
ATOM     91  C   UNL A   1      44.068  28.843  35.309  1.00  0.00     0.064 A 
ATOM     92  C   UNL A   1      44.007  27.748  36.183  1.00  0.00     0.173 A 
ATOM     93  C   UNL A   1      45.329  29.387  35.020  1.00  0.00     0.173 A 
ATOM     94  F   UNL A   1      42.823  27.202  36.499  1.00  0.00    -0.203 F 
ATOM     95  C   UNL A   1      45.160  27.239  36.771  1.00  0.00     0.198 A 
ATOM     96  C   UNL A   1      46.483  28.857  35.588  1.00  0.00     0.198 A 
ATOM     97  F   UNL A   1      45.441  30.429  34.183  1.00  0.00    -0.203 F 
ATOM     98  F   UNL A   1      45.074  26.227  37.644  1.00  0.00    -0.200 F 
ATOM     99  C   UNL A   1      46.398  27.789  36.469  1.00  0.00     0.200 A 
ATOM    100  F   UNL A   1      47.679  29.381  35.285  1.00  0.00    -0.200 F 
ATOM    101  F   UNL A   1      47.507  27.296  37.035  1.00  0.00    -0.200 F 
ENDBRANCH  68  91
ENDBRANCH  42  43
ENDBRANCH  34  37
ENDBRANCH  32  33
ENDBRANCH  31  32
ENDBRANCH  30  31
ENDBRANCH   1  30
TORSDOF 17
ENDMDL
MODEL 3
REMARK VINA RESULT:     -12.1      1.334      2.334
REMARK SMILES C[C@@H](NC(=O)[C@@H]([NH3+])CC(=O)NCCCCNC(=O)c1ccc(-c2c3nc(c(-c4c(F)c(F)c(F)c(F)c4F)c4ccc([nH]4)c(-c4c(F)c(F)c(F)c(F)c4F)c4nc(c(-c5c(F)c(F)c(F)c(F)c5F)c5ccc2[nH]5)C=C4)C=C3)cc1)C(=O)NC1C(C)(C)SC1(C)C
REMARK SMILES IDX 12 1 11 2 9 3 10 4 8 6 6 7 4 8 3 9 5 11 2 12 1 13 82 14
REMARK SMILES IDX 83 15 84 16 85 18 86 19 90 20 87 21 88 22 89 23 91 24 92 25
REMARK SMILES IDX 7 26 13 30 14 31 15 32 16 33 17 34 18 36 19 37 20 38 81 39
REMARK SMILES IDX 21 40 80 41 22 42 23 43 24 44 74 45 25 46 79 47 73 48 75 49
REMARK SMILES IDX 26 50 78 51 72 52 71 53 27 55 59 56 39 57 58 58 40 59 43 60
REMARK SMILES IDX 57 61 76 62 41 63 42 64 56 66 77 67 44 68 28 69 29 70 37 71
REMARK SMILES IDX 30 72 31 73 35 74 38 75 32 76 33 77 36 78 34 79 60 80 61 81
REMARK SMILES IDX 69 82 62 83 63 84 67 85 70 86 64 87 65 88 68 89 66 90 45 91
REMARK SMILES IDX 46 92 54 93 47 94 48 95 52 96 55 97 49 98 50 99 53 100
REMARK SMILES IDX 51 101
REMARK H PARENT 11 5 3 10 84 17 7 27 7 28 7 29 16 35 75 54 43 65
REMARK Flexibility Score: inf
ROOT
ATOM      1  C   UNL A   1      33.400  29.181  26.724  1.00  0.00     0.116 C 
ENDROOT
BRANCH   1   2
ATOM      2  N   UNL A   1      33.985  29.033  25.406  1.00  0.00    -0.356 N 
ATOM      3  C   UNL A   1      33.390  29.074  24.181  1.00  0.00     0.226 C 
ATOM      4  O   UNL A   1      34.086  28.867  23.186  1.00  0.00    -0.275 OA
ATOM      5  H   UNL A   1      34.957  28.880  25.394  1.00  0.00     0.163 HD
BRANCH   3   6
ATOM      6  C   UNL A   1      31.900  29.324  24.047  1.00  0.00     0.175 C 
BRANCH   6   7
ATOM      7  C   UNL A   1      31.447  28.939  22.644  1.00  0.00     0.280 C 
BRANCH   7   8
ATOM      8  C   UNL A   1      30.524  27.708  22.649  1.00  0.00     0.279 C 
ATOM      9  N   UNL A   1      30.844  26.415  22.478  1.00  0.00    -0.339 N 
ATOM     10  H   UNL A   1      30.065  25.834  22.326  1.00  0.00     0.164 HD
ATOM     11  O   UNL A   1      29.318  27.862  22.857  1.00  0.00    -0.268 OA
BRANCH   9  12
ATOM     12  C   UNL A   1      32.102  25.705  22.472  1.00  0.00     0.168 C 
ATOM     13  C   UNL A   1      32.598  25.598  21.028  1.00  0.00     0.041 C 
BRANCH  12  14
ATOM     14  C   UNL A   1      31.985  24.297  23.058  1.00  0.00     0.242 C 
ATOM     15  O   UNL A   1      30.893  23.871  23.452  1.00  0.00    -0.273 OA
ATOM     16  N   UNL A   1      33.074  23.472  23.212  1.00  0.00    -0.349 N 
ATOM     17  H   UNL A   1      32.983  22.579  22.808  1.00  0.00     0.163 HD
BRANCH  16  18
ATOM     18  C   UNL A   1      34.379  23.727  23.902  1.00  0.00     0.113 C 
ATOM     19  C   UNL A   1      34.092  23.997  25.448  1.00  0.00     0.032 C 
ATOM     20  C   UNL A   1      35.476  22.599  24.244  1.00  0.00     0.032 C 
ATOM     21  C   UNL A   1      33.785  25.457  25.757  1.00  0.00     0.025 C 
ATOM     22  C   UNL A   1      33.083  23.076  26.150  1.00  0.00     0.025 C 
ATOM     23  S   UNL A   1      35.826  23.577  25.833  1.00  0.00    -0.145 SA
ATOM     24  C   UNL A   1      35.172  21.156  24.671  1.00  0.00     0.025 C 
ATOM     25  C   UNL A   1      36.751  22.679  23.387  1.00  0.00     0.025 C 
ENDBRANCH  16  18
ENDBRANCH  12  14
ENDBRANCH   9  12
ENDBRANCH   7   8
BRANCH   7  26
ATOM     26  N   UNL A   1      30.854  30.078  21.928  1.00  0.00    -0.347 N 
ATOM     27  H   UNL A   1      30.598  29.789  20.984  1.00  0.00     0.345 HD
ATOM     28  H   UNL A   1      31.531  30.838  21.880  1.00  0.00     0.345 HD
ATOM     29  H   UNL A   1      30.021  30.394  22.425  1.00  0.00     0.345 HD
ENDBRANCH   7  26
ENDBRANCH   6   7
ENDBRANCH   3   6
ENDBRANCH   1   2
BRANCH   1  30
ATOM     30  C   UNL A   1      33.935  30.422  27.438  1.00  0.00     0.023 C 
BRANCH  30  31
ATOM     31  C   UNL A   1      32.979  31.578  27.641  1.00  0.00     0.023 C 
BRANCH  31  32
ATOM     32  C   UNL A   1      33.582  32.913  27.252  1.00  0.00     0.116 C 
BRANCH  32  33
ATOM     33  N   UNL A   1      32.827  34.090  27.672  1.00  0.00    -0.352 N 
ATOM     34  C   UNL A   1      33.096  34.903  28.759  1.00  0.00     0.251 C 
ATOM     35  H   UNL A   1      32.045  34.331  27.125  1.00  0.00     0.163 HD
ATOM     36  O   UNL A   1      32.388  35.846  29.053  1.00  0.00    -0.269 OA
BRANCH  34  37
ATOM     37  C   UNL A   1      34.251  34.523  29.601  1.00  0.00     0.039 A 
ATOM     38  C   UNL A   1      34.043  33.642  30.662  1.00  0.00     0.014 A 
ATOM     39  C   UNL A   1      35.539  34.873  29.199  1.00  0.00     0.014 A 
ATOM     40  C   UNL A   1      35.146  33.030  31.256  1.00  0.00     0.010 A 
ATOM     41  C   UNL A   1      36.619  34.164  29.702  1.00  0.00     0.010 A 
ATOM     42  C   UNL A   1      36.436  33.240  30.741  1.00  0.00    -0.014 A 
BRANCH  42  43
ATOM     43  C   UNL A   1      37.612  32.519  31.287  1.00  0.00     0.031 A 
ATOM     44  C   UNL A   1      38.152  32.896  32.639  1.00  0.00     0.074 A 
ATOM     45  C   UNL A   1      38.225  31.571  30.550  1.00  0.00     0.049 A 
ATOM     46  N   UNL A   1      39.188  32.419  33.281  1.00  0.00    -0.248 NA
ATOM     47  C   UNL A   1      37.460  33.985  33.351  1.00  0.00     0.031 C 
ATOM     48  C   UNL A   1      37.849  31.173  29.191  1.00  0.00     0.029 A 
ATOM     49  N   UNL A   1      39.295  30.765  30.844  1.00  0.00    -0.354 N 
ATOM     50  C   UNL A   1      39.273  33.155  34.454  1.00  0.00     0.074 A 
ATOM     51  C   UNL A   1      38.245  34.168  34.400  1.00  0.00     0.031 C 
ATOM     52  C   UNL A   1      38.645  30.168  28.789  1.00  0.00     0.029 A 
ATOM     53  C   UNL A   1      39.603  29.870  29.848  1.00  0.00     0.049 A 
ATOM     54  H   UNL A   1      39.796  30.821  31.690  1.00  0.00     0.167 HD
ATOM     55  C   UNL A   1      40.101  32.974  35.509  1.00  0.00     0.037 A 
ATOM     56  C   UNL A   1      40.545  28.908  29.806  1.00  0.00     0.037 A 
ATOM     57  C   UNL A   1      41.097  31.940  35.580  1.00  0.00     0.049 A 
ATOM     58  C   UNL A   1      41.434  28.707  31.006  1.00  0.00     0.074 A 
ATOM     59  C   UNL A   1      41.964  31.644  36.616  1.00  0.00     0.029 A 
ATOM     60  N   UNL A   1      41.346  31.022  34.571  1.00  0.00    -0.354 N 
ATOM     61  N   UNL A   1      41.455  29.363  32.140  1.00  0.00    -0.248 NA
ATOM     62  C   UNL A   1      42.417  27.618  30.924  1.00  0.00     0.031 C 
ATOM     63  C   UNL A   1      42.755  30.560  36.223  1.00  0.00     0.029 A 
ATOM     64  C   UNL A   1      42.354  30.157  34.959  1.00  0.00     0.049 A 
ATOM     65  H   UNL A   1      40.876  30.991  33.706  1.00  0.00     0.167 HD
ATOM     66  C   UNL A   1      42.428  28.749  32.917  1.00  0.00     0.074 A 
ATOM     67  C   UNL A   1      42.960  27.655  32.132  1.00  0.00     0.031 C 
ATOM     68  C   UNL A   1      42.849  29.063  34.166  1.00  0.00     0.037 A 
BRANCH  55  69
ATOM     69  C   UNL A   1      39.931  33.894  36.682  1.00  0.00     0.064 A 
ATOM     70  C   UNL A   1      40.631  35.110  36.759  1.00  0.00     0.173 A 
ATOM     71  C   UNL A   1      39.059  33.571  37.730  1.00  0.00     0.173 A 
ATOM     72  F   UNL A   1      41.493  35.456  35.791  1.00  0.00    -0.203 F 
ATOM     73  C   UNL A   1      40.485  35.952  37.858  1.00  0.00     0.198 A 
ATOM     74  C   UNL A   1      38.892  34.431  38.813  1.00  0.00     0.198 A 
ATOM     75  F   UNL A   1      38.368  32.422  37.705  1.00  0.00    -0.203 F 
ATOM     76  F   UNL A   1      41.207  37.079  37.936  1.00  0.00    -0.200 F 
ATOM     77  C   UNL A   1      39.611  35.616  38.880  1.00  0.00     0.200 A 
ATOM     78  F   UNL A   1      38.040  34.110  39.796  1.00  0.00    -0.200 F 
ATOM     79  F   UNL A   1      39.468  36.429  39.935  1.00  0.00    -0.200 F 
ENDBRANCH  55  69
BRANCH  56  80
ATOM     80  C   UNL A   1      40.670  28.026  28.615  1.00  0.00     0.064 A 
ATOM     81  C   UNL A   1      41.452  28.412  27.515  1.00  0.00     0.173 A 
ATOM     82  C   UNL A   1      39.991  26.804  28.533  1.00  0.00     0.173 A 
ATOM     83  F   UNL A   1      42.106  29.582  27.537  1.00  0.00    -0.203 F 
ATOM     84  C   UNL A   1      41.520  27.625  26.367  1.00  0.00     0.198 A 
ATOM     85  C   UNL A   1      40.083  26.003  27.394  1.00  0.00     0.198 A 
ATOM     86  F   UNL A   1      39.236  26.384  29.559  1.00  0.00    -0.203 F 
ATOM     87  F   UNL A   1      42.226  28.048  25.310  1.00  0.00    -0.200 F 
ATOM     88  C   UNL A   1      40.837  26.421  26.309  1.00  0.00     0.200 A 
ATOM     89  F   UNL A   1      39.432  24.833  27.346  1.00  0.00    -0.200 F 
ATOM     90  F   UNL A   1      40.897  25.667  25.202  1.00  0.00    -0.200 F 
ENDBRANCH  56  80
BRANCH  68  91
ATOM     91  C   UNL A   1      43.903  28.186  34.772  1.00  0.00     0.064 A 
ATOM     92  C   UNL A   1      43.572  27.033  35.498  1.00  0.00     0.173 A 
ATOM     93  C   UNL A   1      45.263  28.489  34.599  1.00  0.00     0.173 A 
ATOM     94  F   UNL A   1      42.287  26.709  35.701  1.00  0.00    -0.203 F 
ATOM     95  C   UNL A   1      44.564  26.232  36.057  1.00  0.00     0.198 A 
ATOM     96  C   UNL A   1      46.251  27.671  35.134  1.00  0.00     0.198 A 
ATOM     97  F   UNL A   1      45.630  29.578  33.906  1.00  0.00    -0.203 F 
ATOM     98  F   UNL A   1      44.225  25.164  36.790  1.00  0.00    -0.200 F 
ATOM     99  C   UNL A   1      45.902  26.547  35.869  1.00  0.00     0.200 A 
ATOM    100  F   UNL A   1      47.544  27.969  34.942  1.00  0.00    -0.200 F 
ATOM    101  F   UNL A   1      46.855  25.774  36.406  1.00  0.00    -0.200 F 
ENDBRANCH  68  91
ENDBRANCH  42  43
ENDBRANCH  34  37
ENDBRANCH  32  33
ENDBRANCH  31  32
ENDBRANCH  30  31
ENDBRANCH   1  30
TORSDOF 17
ENDMDL
