MODEL 1
REMARK VINA RESULT:     -14.1      0.000      0.000
REMARK SMILES O=C(NCCCCNC(=O)[C@H]1CCCC[C@H]1C(=O)N1CCN(S(=O)(=O)c2ccc(F)cc2)CC1)c1ccc(-c2c3nc(c(-c4c(F)c(F)c(F)c(F)c4F)c4ccc([nH]4)c(-c4c(F)c(F)c(F)c(F)c4F)c4nc(c(-c5c(F)c(F)c(F)c(F)c5F)c5ccc2[nH]5)C=C4)C=C3)cc1
REMARK SMILES IDX 6 1 5 2 4 3 3 4 1 5 2 6 35 8 36 9 97 10 37 11 96 12 38 13
REMARK SMILES IDX 39 14 40 15 90 16 41 17 95 18 89 19 91 20 42 21 94 22 88 23
REMARK SMILES IDX 87 24 43 26 75 27 55 28 74 29 56 30 59 31 73 32 92 33 57 34
REMARK SMILES IDX 58 35 72 37 93 38 60 39 44 40 45 41 53 42 46 43 47 44 51 45
REMARK SMILES IDX 54 46 48 47 49 48 52 49 50 50 76 51 77 52 85 53 78 54 79 55
REMARK SMILES IDX 83 56 86 57 80 58 81 59 84 60 82 61 61 62 62 63 70 64 63 65
REMARK SMILES IDX 64 66 68 67 71 68 65 69 66 70 69 71 67 72 7 73 8 74 9 75
REMARK SMILES IDX 10 77 11 78 12 79 16 80 13 81 15 82 14 83 17 84 18 85 19 86
REMARK SMILES IDX 20 87 34 88 21 89 33 90 22 91 23 92 24 93 25 94 26 95 27 96
REMARK SMILES IDX 32 97 28 98 31 99 29 100 30 101
REMARK H PARENT 3 7 91 25 59 36 8 76
REMARK Flexibility Score: inf
ROOT
ATOM      1  C   UNL A   1      32.027  30.363  27.010  1.00  0.00     0.023 C 
ENDROOT
BRANCH   1   2
ATOM      2  C   UNL A   1      31.825  31.864  26.811  1.00  0.00     0.023 C 
BRANCH   2   3
ATOM      3  C   UNL A   1      32.888  32.777  27.424  1.00  0.00     0.116 C 
BRANCH   3   4
ATOM      4  N   UNL A   1      32.416  34.114  27.756  1.00  0.00    -0.352 N 
ATOM      5  O   UNL A   1      32.505  36.107  28.841  1.00  0.00    -0.269 OA
ATOM      6  C   UNL A   1      32.993  35.006  28.631  1.00  0.00     0.251 C 
ATOM      7  H   UNL A   1      31.594  34.413  27.305  1.00  0.00     0.163 HD
BRANCH   6   8
ATOM      8  C   UNL A   1      34.200  34.575  29.351  1.00  0.00     0.039 A 
ATOM      9  C   UNL A   1      35.459  34.727  28.762  1.00  0.00     0.014 A 
ATOM     10  C   UNL A   1      34.045  33.919  30.573  1.00  0.00     0.014 A 
ATOM     11  C   UNL A   1      36.563  34.125  29.357  1.00  0.00     0.010 A 
ATOM     12  C   UNL A   1      35.160  33.349  31.183  1.00  0.00     0.010 A 
ATOM     13  C   UNL A   1      36.419  33.418  30.561  1.00  0.00    -0.014 A 
BRANCH  13  14
ATOM     14  C   UNL A   1      37.579  32.743  31.185  1.00  0.00     0.031 A 
ATOM     15  C   UNL A   1      38.272  31.615  30.475  1.00  0.00     0.074 A 
ATOM     16  C   UNL A   1      37.982  33.126  32.409  1.00  0.00     0.049 A 
ATOM     17  N   UNL A   1      39.228  30.832  30.903  1.00  0.00    -0.248 NA
ATOM     18  C   UNL A   1      37.828  31.328  29.102  1.00  0.00     0.031 C 
ATOM     19  C   UNL A   1      37.393  34.219  33.180  1.00  0.00     0.029 A 
ATOM     20  N   UNL A   1      38.969  32.630  33.220  1.00  0.00    -0.354 N 
ATOM     21  C   UNL A   1      39.486  29.947  29.867  1.00  0.00     0.074 A 
ATOM     22  C   UNL A   1      38.575  30.277  28.791  1.00  0.00     0.031 C 
ATOM     23  C   UNL A   1      38.033  34.316  34.355  1.00  0.00     0.029 A 
ATOM     24  C   UNL A   1      39.037  33.258  34.438  1.00  0.00     0.049 A 
ATOM     25  H   UNL A   1      39.570  31.897  32.956  1.00  0.00     0.167 HD
ATOM     26  C   UNL A   1      40.403  28.952  29.822  1.00  0.00     0.037 A 
ATOM     27  C   UNL A   1      39.800  32.993  35.514  1.00  0.00     0.037 A 
ATOM     28  C   UNL A   1      41.313  28.643  30.894  1.00  0.00     0.049 A 
ATOM     29  C   UNL A   1      40.775  31.853  35.461  1.00  0.00     0.074 A 
ATOM     30  C   UNL A   1      42.308  27.680  30.929  1.00  0.00     0.029 A 
ATOM     31  N   UNL A   1      41.337  29.287  32.122  1.00  0.00    -0.354 N 
ATOM     32  N   UNL A   1      41.023  31.027  34.473  1.00  0.00    -0.248 NA
ATOM     33  C   UNL A   1      41.572  31.601  36.669  1.00  0.00     0.031 C 
ATOM     34  C   UNL A   1      42.899  27.710  32.195  1.00  0.00     0.029 A 
ATOM     35  C   UNL A   1      42.311  28.726  32.932  1.00  0.00     0.049 A 
ATOM     36  H   UNL A   1      40.748  30.033  32.380  1.00  0.00     0.167 HD
ATOM     37  C   UNL A   1      42.015  30.171  34.929  1.00  0.00     0.074 A 
ATOM     38  C   UNL A   1      42.327  30.578  36.284  1.00  0.00     0.031 C 
ATOM     39  C   UNL A   1      42.612  29.146  34.277  1.00  0.00     0.037 A 
BRANCH  26  40
ATOM     40  C   UNL A   1      40.462  28.105  28.583  1.00  0.00     0.064 A 
ATOM     41  C   UNL A   1      39.791  26.874  28.534  1.00  0.00     0.173 A 
ATOM     42  C   UNL A   1      41.232  28.477  27.472  1.00  0.00     0.173 A 
ATOM     43  F   UNL A   1      39.045  26.468  29.573  1.00  0.00    -0.203 F 
ATOM     44  C   UNL A   1      39.895  26.044  27.422  1.00  0.00     0.198 A 
ATOM     45  C   UNL A   1      41.313  27.656  26.350  1.00  0.00     0.198 A 
ATOM     46  F   UNL A   1      41.886  29.648  27.464  1.00  0.00    -0.203 F 
ATOM     47  F   UNL A   1      39.263  24.861  27.408  1.00  0.00    -0.200 F 
ATOM     48  C   UNL A   1      40.651  26.437  26.329  1.00  0.00     0.200 A 
ATOM     49  F   UNL A   1      42.026  28.049  25.285  1.00  0.00    -0.200 F 
ATOM     50  F   UNL A   1      40.739  25.643  25.252  1.00  0.00    -0.200 F 
ENDBRANCH  26  40
BRANCH  27  51
ATOM     51  C   UNL A   1      39.654  33.842  36.721  1.00  0.00     0.064 A 
ATOM     52  C   UNL A   1      38.828  33.453  37.787  1.00  0.00     0.173 A 
ATOM     53  C   UNL A   1      40.266  35.099  36.789  1.00  0.00     0.173 A 
ATOM     54  F   UNL A   1      38.216  32.261  37.761  1.00  0.00    -0.203 F 
ATOM     55  C   UNL A   1      38.595  34.307  38.862  1.00  0.00     0.198 A 
ATOM     56  C   UNL A   1      40.050  35.943  37.876  1.00  0.00     0.198 A 
ATOM     57  F   UNL A   1      41.075  35.504  35.799  1.00  0.00    -0.203 F 
ATOM     58  F   UNL A   1      37.766  33.932  39.845  1.00  0.00    -0.200 F 
ATOM     59  C   UNL A   1      39.206  35.552  38.905  1.00  0.00     0.200 A 
ATOM     60  F   UNL A   1      40.654  37.138  37.923  1.00  0.00    -0.200 F 
ATOM     61  F   UNL A   1      38.978  36.375  39.936  1.00  0.00    -0.200 F 
ENDBRANCH  27  51
BRANCH  39  62
ATOM     62  C   UNL A   1      43.690  28.394  34.999  1.00  0.00     0.064 A 
ATOM     63  C   UNL A   1      45.038  28.746  34.820  1.00  0.00     0.173 A 
ATOM     64  C   UNL A   1      43.400  27.269  35.780  1.00  0.00     0.173 A 
ATOM     65  F   UNL A   1      45.365  29.812  34.074  1.00  0.00    -0.203 F 
ATOM     66  C   UNL A   1      46.057  27.980  35.378  1.00  0.00     0.198 A 
ATOM     67  C   UNL A   1      44.422  26.518  36.356  1.00  0.00     0.198 A 
ATOM     68  F   UNL A   1      42.127  26.902  35.989  1.00  0.00    -0.203 F 
ATOM     69  F   UNL A   1      47.337  28.310  35.160  1.00  0.00    -0.200 F 
ATOM     70  C   UNL A   1      45.748  26.866  36.144  1.00  0.00     0.200 A 
ATOM     71  F   UNL A   1      44.124  25.451  37.111  1.00  0.00    -0.200 F 
ATOM     72  F   UNL A   1      46.731  26.127  36.678  1.00  0.00    -0.200 F 
ENDBRANCH  39  62
ENDBRANCH  13  14
ENDBRANCH   6   8
ENDBRANCH   3   4
ENDBRANCH   2   3
ENDBRANCH   1   2
BRANCH   1  73
ATOM     73  C   UNL A   1      33.478  29.930  27.095  1.00  0.00     0.116 C 
BRANCH  73  74
ATOM     74  N   UNL A   1      33.852  28.925  26.131  1.00  0.00    -0.356 N 
ATOM     75  C   UNL A   1      33.197  28.491  25.028  1.00  0.00     0.223 C 
ATOM     76  H   UNL A   1      34.717  28.486  26.301  1.00  0.00     0.163 HD
ATOM     77  O   UNL A   1      33.919  28.059  24.118  1.00  0.00    -0.275 OA
BRANCH  75  78
ATOM     78  C   UNL A   1      31.678  28.396  24.857  1.00  0.00     0.091 C 
ATOM     79  C   UNL A   1      31.286  29.302  23.676  1.00  0.00     0.014 C 
ATOM     80  C   UNL A   1      30.881  27.087  24.864  1.00  0.00     0.091 C 
ATOM     81  C   UNL A   1      31.601  28.634  22.357  1.00  0.00     0.001 C 
ATOM     82  C   UNL A   1      30.682  26.475  23.425  1.00  0.00     0.014 C 
ATOM     83  C   UNL A   1      30.757  27.386  22.197  1.00  0.00     0.001 C 
BRANCH  80  84
ATOM     84  C   UNL A   1      31.205  25.924  25.857  1.00  0.00     0.226 C 
ATOM     85  O   UNL A   1      30.453  25.814  26.840  1.00  0.00    -0.275 OA
ATOM     86  N   UNL A   1      32.270  25.048  25.766  1.00  0.00    -0.340 N 
ATOM     87  C   UNL A   1      32.381  23.966  26.761  1.00  0.00     0.136 C 
ATOM     88  C   UNL A   1      33.325  24.920  24.767  1.00  0.00     0.136 C 
ATOM     89  C   UNL A   1      32.213  22.589  26.099  1.00  0.00     0.124 C 
ATOM     90  C   UNL A   1      33.195  23.589  24.006  1.00  0.00     0.124 C 
ATOM     91  N   UNL A   1      33.088  22.380  24.887  1.00  0.00    -0.194 NA
BRANCH  91  92
ATOM     92  S   UNL A   1      34.498  21.479  25.173  1.00  0.00     0.243 S 
ATOM     93  O   UNL A   1      35.521  21.993  24.292  1.00  0.00    -0.207 OA
ATOM     94  O   UNL A   1      34.691  21.432  26.609  1.00  0.00    -0.207 OA
BRANCH  92  95
ATOM     95  C   UNL A   1      34.086  19.823  24.644  1.00  0.00     0.082 A 
ATOM     96  C   UNL A   1      35.066  18.822  24.697  1.00  0.00     0.025 A 
ATOM     97  C   UNL A   1      32.775  19.507  24.263  1.00  0.00     0.025 A 
ATOM     98  C   UNL A   1      34.756  17.524  24.290  1.00  0.00     0.040 A 
ATOM     99  C   UNL A   1      32.464  18.196  23.890  1.00  0.00     0.040 A 
ATOM    100  C   UNL A   1      33.459  17.222  23.893  1.00  0.00     0.123 A 
ATOM    101  F   UNL A   1      33.161  15.971  23.520  1.00  0.00    -0.207 F 
ENDBRANCH  92  95
ENDBRANCH  91  92
ENDBRANCH  80  84
ENDBRANCH  75  78
ENDBRANCH  73  74
ENDBRANCH   1  73
TORSDOF 14
ENDMDL
MODEL 2
REMARK VINA RESULT:     -14.0      5.364     10.708
REMARK SMILES O=C(NCCCCNC(=O)[C@H]1CCCC[C@H]1C(=O)N1CCN(S(=O)(=O)c2ccc(F)cc2)CC1)c1ccc(-c2c3nc(c(-c4c(F)c(F)c(F)c(F)c4F)c4ccc([nH]4)c(-c4c(F)c(F)c(F)c(F)c4F)c4nc(c(-c5c(F)c(F)c(F)c(F)c5F)c5ccc2[nH]5)C=C4)C=C3)cc1
REMARK SMILES IDX 6 1 5 2 4 3 3 4 1 5 2 6 35 8 36 9 97 10 37 11 96 12 38 13
REMARK SMILES IDX 39 14 40 15 90 16 41 17 95 18 89 19 91 20 42 21 94 22 88 23
REMARK SMILES IDX 87 24 43 26 75 27 55 28 74 29 56 30 59 31 73 32 92 33 57 34
REMARK SMILES IDX 58 35 72 37 93 38 60 39 44 40 45 41 53 42 46 43 47 44 51 45
REMARK SMILES IDX 54 46 48 47 49 48 52 49 50 50 76 51 77 52 85 53 78 54 79 55
REMARK SMILES IDX 83 56 86 57 80 58 81 59 84 60 82 61 61 62 62 63 70 64 63 65
REMARK SMILES IDX 64 66 68 67 71 68 65 69 66 70 69 71 67 72 7 73 8 74 9 75
REMARK SMILES IDX 10 77 11 78 12 79 16 80 13 81 15 82 14 83 17 84 18 85 19 86
REMARK SMILES IDX 20 87 34 88 21 89 33 90 22 91 23 92 24 93 25 94 26 95 27 96
REMARK SMILES IDX 32 97 28 98 31 99 29 100 30 101
REMARK H PARENT 3 7 91 25 59 36 8 76
REMARK Flexibility Score: inf
ROOT
ATOM      1  C   UNL A   1      38.629  22.802  26.197  1.00  0.00     0.023 C 
ENDROOT
BRANCH   1   2
ATOM      2  C   UNL A   1      38.944  21.412  25.648  1.00  0.00     0.023 C 
BRANCH   2   3
ATOM      3  C   UNL A   1      39.548  20.415  26.639  1.00  0.00     0.116 C 
BRANCH   3   4
ATOM      4  N   UNL A   1      40.475  19.461  26.045  1.00  0.00    -0.352 N 
ATOM      5  O   UNL A   1      42.524  18.727  25.398  1.00  0.00    -0.269 OA
ATOM      6  C   UNL A   1      41.839  19.593  25.924  1.00  0.00     0.251 C 
ATOM      7  H   UNL A   1      40.082  18.631  25.691  1.00  0.00     0.163 HD
BRANCH   6   8
ATOM      8  C   UNL A   1      42.452  20.839  26.408  1.00  0.00     0.039 A 
ATOM      9  C   UNL A   1      42.584  21.068  27.780  1.00  0.00     0.014 A 
ATOM     10  C   UNL A   1      42.792  21.817  25.472  1.00  0.00     0.014 A 
ATOM     11  C   UNL A   1      42.966  22.331  28.223  1.00  0.00     0.010 A 
ATOM     12  C   UNL A   1      43.209  23.069  25.919  1.00  0.00     0.010 A 
ATOM     13  C   UNL A   1      43.264  23.344  27.297  1.00  0.00    -0.014 A 
BRANCH  13  14
ATOM     14  C   UNL A   1      43.636  24.701  27.756  1.00  0.00     0.031 A 
ATOM     15  C   UNL A   1      42.572  25.699  28.111  1.00  0.00     0.074 A 
ATOM     16  C   UNL A   1      44.935  25.041  27.816  1.00  0.00     0.049 A 
ATOM     17  N   UNL A   1      42.695  26.963  28.425  1.00  0.00    -0.248 NA
ATOM     18  C   UNL A   1      41.184  25.213  28.111  1.00  0.00     0.031 C 
ATOM     19  C   UNL A   1      46.050  24.146  27.511  1.00  0.00     0.029 A 
ATOM     20  N   UNL A   1      45.533  26.231  28.139  1.00  0.00    -0.354 N 
ATOM     21  C   UNL A   1      41.406  27.430  28.636  1.00  0.00     0.074 A 
ATOM     22  C   UNL A   1      40.510  26.317  28.401  1.00  0.00     0.031 C 
ATOM     23  C   UNL A   1      47.201  24.817  27.665  1.00  0.00     0.029 A 
ATOM     24  C   UNL A   1      46.900  26.200  28.025  1.00  0.00     0.049 A 
ATOM     25  H   UNL A   1      45.033  27.028  28.425  1.00  0.00     0.167 HD
ATOM     26  C   UNL A   1      41.013  28.674  28.996  1.00  0.00     0.037 A 
ATOM     27  C   UNL A   1      47.809  27.183  28.165  1.00  0.00     0.037 A 
ATOM     28  C   UNL A   1      41.916  29.768  29.242  1.00  0.00     0.049 A 
ATOM     29  C   UNL A   1      47.346  28.567  28.515  1.00  0.00     0.074 A 
ATOM     30  C   UNL A   1      41.618  31.057  29.651  1.00  0.00     0.029 A 
ATOM     31  N   UNL A   1      43.294  29.704  29.094  1.00  0.00    -0.354 N 
ATOM     32  N   UNL A   1      46.126  28.998  28.726  1.00  0.00    -0.248 NA
ATOM     33  C   UNL A   1      48.381  29.603  28.641  1.00  0.00     0.031 C 
ATOM     34  C   UNL A   1      42.810  31.785  29.704  1.00  0.00     0.029 A 
ATOM     35  C   UNL A   1      43.858  30.937  29.379  1.00  0.00     0.049 A 
ATOM     36  H   UNL A   1      43.797  28.901  28.826  1.00  0.00     0.167 HD
ATOM     37  C   UNL A   1      46.244  30.347  29.029  1.00  0.00     0.074 A 
ATOM     38  C   UNL A   1      47.657  30.665  28.976  1.00  0.00     0.031 C 
ATOM     39  C   UNL A   1      45.267  31.236  29.327  1.00  0.00     0.037 A 
BRANCH  26  40
ATOM     40  C   UNL A   1      39.541  28.935  29.131  1.00  0.00     0.064 A 
ATOM     41  C   UNL A   1      38.792  29.358  28.023  1.00  0.00     0.173 A 
ATOM     42  C   UNL A   1      38.883  28.830  30.365  1.00  0.00     0.173 A 
ATOM     43  F   UNL A   1      39.374  29.480  26.820  1.00  0.00    -0.203 F 
ATOM     44  C   UNL A   1      37.442  29.673  28.147  1.00  0.00     0.198 A 
ATOM     45  C   UNL A   1      37.526  29.122  30.481  1.00  0.00     0.198 A 
ATOM     46  F   UNL A   1      39.551  28.421  31.454  1.00  0.00    -0.203 F 
ATOM     47  F   UNL A   1      36.752  30.098  27.078  1.00  0.00    -0.200 F 
ATOM     48  C   UNL A   1      36.809  29.550  29.374  1.00  0.00     0.200 A 
ATOM     49  F   UNL A   1      36.911  28.980  31.663  1.00  0.00    -0.200 F 
ATOM     50  F   UNL A   1      35.505  29.841  29.490  1.00  0.00    -0.200 F 
ENDBRANCH  26  40
BRANCH  27  51
ATOM     51  C   UNL A   1      49.243  26.863  27.970  1.00  0.00     0.064 A 
ATOM     52  C   UNL A   1      49.800  26.779  26.684  1.00  0.00     0.173 A 
ATOM     53  C   UNL A   1      50.060  26.545  29.062  1.00  0.00     0.173 A 
ATOM     54  F   UNL A   1      49.053  27.067  25.609  1.00  0.00    -0.203 F 
ATOM     55  C   UNL A   1      51.115  26.358  26.499  1.00  0.00     0.198 A 
ATOM     56  C   UNL A   1      51.381  26.145  28.875  1.00  0.00     0.198 A 
ATOM     57  F   UNL A   1      49.572  26.627  30.308  1.00  0.00    -0.203 F 
ATOM     58  F   UNL A   1      51.610  26.241  25.260  1.00  0.00    -0.200 F 
ATOM     59  C   UNL A   1      51.904  26.040  27.595  1.00  0.00     0.200 A 
ATOM     60  F   UNL A   1      52.146  25.855  29.936  1.00  0.00    -0.200 F 
ATOM     61  F   UNL A   1      53.166  25.629  27.416  1.00  0.00    -0.200 F 
ENDBRANCH  27  51
BRANCH  39  62
ATOM     62  C   UNL A   1      45.677  32.642  29.650  1.00  0.00     0.064 A 
ATOM     63  C   UNL A   1      45.778  33.601  28.630  1.00  0.00     0.173 A 
ATOM     64  C   UNL A   1      46.069  33.010  30.943  1.00  0.00     0.173 A 
ATOM     65  F   UNL A   1      45.421  33.291  27.374  1.00  0.00    -0.203 F 
ATOM     66  C   UNL A   1      46.280  34.872  28.890  1.00  0.00     0.198 A 
ATOM     67  C   UNL A   1      46.550  34.290  31.204  1.00  0.00     0.198 A 
ATOM     68  F   UNL A   1      45.980  32.131  31.952  1.00  0.00    -0.203 F 
ATOM     69  F   UNL A   1      46.406  35.758  27.893  1.00  0.00    -0.200 F 
ATOM     70  C   UNL A   1      46.667  35.215  30.177  1.00  0.00     0.200 A 
ATOM     71  F   UNL A   1      46.908  34.629  32.451  1.00  0.00    -0.200 F 
ATOM     72  F   UNL A   1      47.155  36.439  30.426  1.00  0.00    -0.200 F 
ENDBRANCH  39  62
ENDBRANCH  13  14
ENDBRANCH   6   8
ENDBRANCH   3   4
ENDBRANCH   2   3
ENDBRANCH   1   2
BRANCH   1  73
ATOM     73  C   UNL A   1      37.373  23.434  25.626  1.00  0.00     0.116 C 
BRANCH  73  74
ATOM     74  N   UNL A   1      36.159  23.043  26.297  1.00  0.00    -0.356 N 
ATOM     75  C   UNL A   1      35.340  21.990  26.071  1.00  0.00     0.223 C 
ATOM     76  H   UNL A   1      35.881  23.635  27.034  1.00  0.00     0.163 HD
ATOM     77  O   UNL A   1      34.717  21.578  27.061  1.00  0.00    -0.275 OA
BRANCH  75  78
ATOM     78  C   UNL A   1      35.049  21.346  24.711  1.00  0.00     0.091 C 
ATOM     79  C   UNL A   1      34.688  19.871  24.963  1.00  0.00     0.014 C 
ATOM     80  C   UNL A   1      34.171  21.973  23.622  1.00  0.00     0.091 C 
ATOM     81  C   UNL A   1      33.269  19.742  25.468  1.00  0.00     0.001 C 
ATOM     82  C   UNL A   1      32.662  21.527  23.710  1.00  0.00     0.014 C 
ATOM     83  C   UNL A   1      32.299  20.211  24.403  1.00  0.00     0.001 C 
BRANCH  80  84
ATOM     84  C   UNL A   1      34.219  23.501  23.295  1.00  0.00     0.226 C 
ATOM     85  O   UNL A   1      35.244  23.909  22.724  1.00  0.00    -0.275 OA
ATOM     86  N   UNL A   1      33.255  24.434  23.625  1.00  0.00    -0.340 N 
ATOM     87  C   UNL A   1      33.438  25.827  23.174  1.00  0.00     0.136 C 
ATOM     88  C   UNL A   1      31.969  24.291  24.297  1.00  0.00     0.136 C 
ATOM     89  C   UNL A   1      32.351  26.226  22.163  1.00  0.00     0.124 C 
ATOM     90  C   UNL A   1      30.813  24.611  23.334  1.00  0.00     0.124 C 
ATOM     91  N   UNL A   1      30.945  25.925  22.623  1.00  0.00    -0.194 NA
BRANCH  91  92
ATOM     92  S   UNL A   1      30.100  27.257  23.252  1.00  0.00     0.243 S 
ATOM     93  O   UNL A   1      30.026  28.250  22.205  1.00  0.00    -0.207 OA
ATOM     94  O   UNL A   1      28.905  26.742  23.890  1.00  0.00    -0.207 OA
BRANCH  92  95
ATOM     95  C   UNL A   1      31.157  27.887  24.547  1.00  0.00     0.082 A 
ATOM     96  C   UNL A   1      31.922  29.038  24.308  1.00  0.00     0.025 A 
ATOM     97  C   UNL A   1      31.157  27.290  25.814  1.00  0.00     0.025 A 
ATOM     98  C   UNL A   1      32.749  29.543  25.313  1.00  0.00     0.040 A 
ATOM     99  C   UNL A   1      31.962  27.823  26.826  1.00  0.00     0.040 A 
ATOM    100  C   UNL A   1      32.760  28.933  26.561  1.00  0.00     0.123 A 
ATOM    101  F   UNL A   1      33.542  29.431  27.528  1.00  0.00    -0.207 F 
ENDBRANCH  92  95
ENDBRANCH  91  92
ENDBRANCH  80  84
ENDBRANCH  75  78
ENDBRANCH  73  74
ENDBRANCH   1  73
TORSDOF 14
ENDMDL
MODEL 3
REMARK VINA RESULT:     -14.0      1.443      2.259
REMARK SMILES O=C(NCCCCNC(=O)[C@H]1CCCC[C@H]1C(=O)N1CCN(S(=O)(=O)c2ccc(F)cc2)CC1)c1ccc(-c2c3nc(c(-c4c(F)c(F)c(F)c(F)c4F)c4ccc([nH]4)c(-c4c(F)c(F)c(F)c(F)c4F)c4nc(c(-c5c(F)c(F)c(F)c(F)c5F)c5ccc2[nH]5)C=C4)C=C3)cc1
REMARK SMILES IDX 6 1 5 2 4 3 3 4 1 5 2 6 35 8 36 9 97 10 37 11 96 12 38 13
REMARK SMILES IDX 39 14 40 15 90 16 41 17 95 18 89 19 91 20 42 21 94 22 88 23
REMARK SMILES IDX 87 24 43 26 75 27 55 28 74 29 56 30 59 31 73 32 92 33 57 34
REMARK SMILES IDX 58 35 72 37 93 38 60 39 44 40 45 41 53 42 46 43 47 44 51 45
REMARK SMILES IDX 54 46 48 47 49 48 52 49 50 50 76 51 77 52 85 53 78 54 79 55
REMARK SMILES IDX 83 56 86 57 80 58 81 59 84 60 82 61 61 62 62 63 70 64 63 65
REMARK SMILES IDX 64 66 68 67 71 68 65 69 66 70 69 71 67 72 7 73 8 74 9 75
REMARK SMILES IDX 10 77 11 78 12 79 16 80 13 81 15 82 14 83 17 84 18 85 19 86
REMARK SMILES IDX 20 87 34 88 21 89 33 90 22 91 23 92 24 93 25 94 26 95 27 96
REMARK SMILES IDX 32 97 28 98 31 99 29 100 30 101
REMARK H PARENT 3 7 91 25 59 36 8 76
REMARK Flexibility Score: inf
ROOT
ATOM      1  C   UNL A   1      32.728  29.955  27.251  1.00  0.00     0.023 C 
ENDROOT
BRANCH   1   2
ATOM      2  C   UNL A   1      32.152  31.369  27.218  1.00  0.00     0.023 C 
BRANCH   2   3
ATOM      3  C   UNL A   1      33.166  32.514  27.251  1.00  0.00     0.116 C 
BRANCH   3   4
ATOM      4  N   UNL A   1      32.607  33.805  27.625  1.00  0.00    -0.352 N 
ATOM      5  O   UNL A   1      32.528  35.736  28.818  1.00  0.00    -0.269 OA
ATOM      6  C   UNL A   1      33.085  34.673  28.579  1.00  0.00     0.251 C 
ATOM      7  H   UNL A   1      31.798  34.088  27.141  1.00  0.00     0.163 HD
BRANCH   6   8
ATOM      8  C   UNL A   1      34.269  34.262  29.347  1.00  0.00     0.039 A 
ATOM      9  C   UNL A   1      35.549  34.578  28.883  1.00  0.00     0.014 A 
ATOM     10  C   UNL A   1      34.083  33.464  30.477  1.00  0.00     0.014 A 
ATOM     11  C   UNL A   1      36.656  34.003  29.501  1.00  0.00     0.010 A 
ATOM     12  C   UNL A   1      35.195  32.920  31.115  1.00  0.00     0.010 A 
ATOM     13  C   UNL A   1      36.486  33.158  30.609  1.00  0.00    -0.014 A 
BRANCH  13  14
ATOM     14  C   UNL A   1      37.652  32.512  31.252  1.00  0.00     0.031 A 
ATOM     15  C   UNL A   1      38.372  31.389  30.563  1.00  0.00     0.074 A 
ATOM     16  C   UNL A   1      38.035  32.917  32.475  1.00  0.00     0.049 A 
ATOM     17  N   UNL A   1      39.339  30.628  31.010  1.00  0.00    -0.248 NA
ATOM     18  C   UNL A   1      37.948  31.076  29.190  1.00  0.00     0.031 C 
ATOM     19  C   UNL A   1      37.419  34.008  33.227  1.00  0.00     0.029 A 
ATOM     20  N   UNL A   1      39.024  32.449  33.302  1.00  0.00    -0.354 N 
ATOM     21  C   UNL A   1      39.623  29.735  29.987  1.00  0.00     0.074 A 
ATOM     22  C   UNL A   1      38.716  30.036  28.899  1.00  0.00     0.031 C 
ATOM     23  C   UNL A   1      38.046  34.132  34.407  1.00  0.00     0.029 A 
ATOM     24  C   UNL A   1      39.068  33.093  34.513  1.00  0.00     0.049 A 
ATOM     25  H   UNL A   1      39.640  31.725  33.053  1.00  0.00     0.167 HD
ATOM     26  C   UNL A   1      40.558  28.757  29.964  1.00  0.00     0.037 A 
ATOM     27  C   UNL A   1      39.825  32.855  35.600  1.00  0.00     0.037 A 
ATOM     28  C   UNL A   1      41.463  28.478  31.048  1.00  0.00     0.049 A 
ATOM     29  C   UNL A   1      40.821  31.733  35.570  1.00  0.00     0.074 A 
ATOM     30  C   UNL A   1      42.475  27.534  31.104  1.00  0.00     0.029 A 
ATOM     31  N   UNL A   1      41.463  29.138  32.268  1.00  0.00    -0.354 N 
ATOM     32  N   UNL A   1      41.094  30.900  34.594  1.00  0.00    -0.248 NA
ATOM     33  C   UNL A   1      41.611  31.510  36.789  1.00  0.00     0.031 C 
ATOM     34  C   UNL A   1      43.053  27.590  32.376  1.00  0.00     0.029 A 
ATOM     35  C   UNL A   1      42.439  28.604  33.095  1.00  0.00     0.049 A 
ATOM     36  H   UNL A   1      40.858  29.876  32.511  1.00  0.00     0.167 HD
ATOM     37  C   UNL A   1      42.097  30.068  35.070  1.00  0.00     0.074 A 
ATOM     38  C   UNL A   1      42.388  30.497  36.423  1.00  0.00     0.031 C 
ATOM     39  C   UNL A   1      42.720  29.046  34.437  1.00  0.00     0.037 A 
BRANCH  26  40
ATOM     40  C   UNL A   1      40.645  27.897  28.736  1.00  0.00     0.064 A 
ATOM     41  C   UNL A   1      41.429  28.298  27.644  1.00  0.00     0.173 A 
ATOM     42  C   UNL A   1      39.905  26.712  28.612  1.00  0.00     0.173 A 
ATOM     43  F   UNL A   1      42.152  29.426  27.709  1.00  0.00    -0.203 F 
ATOM     44  C   UNL A   1      41.463  27.548  26.472  1.00  0.00     0.198 A 
ATOM     45  C   UNL A   1      39.962  25.950  27.447  1.00  0.00     0.198 A 
ATOM     46  F   UNL A   1      39.147  26.279  29.631  1.00  0.00    -0.203 F 
ATOM     47  F   UNL A   1      42.202  27.964  25.433  1.00  0.00    -0.200 F 
ATOM     48  C   UNL A   1      40.734  26.373  26.376  1.00  0.00     0.200 A 
ATOM     49  F   UNL A   1      39.274  24.803  27.365  1.00  0.00    -0.200 F 
ATOM     50  F   UNL A   1      40.778  25.645  25.251  1.00  0.00    -0.200 F 
ENDBRANCH  26  40
BRANCH  27  51
ATOM     51  C   UNL A   1      39.652  33.716  36.794  1.00  0.00     0.064 A 
ATOM     52  C   UNL A   1      38.801  33.338  37.844  1.00  0.00     0.173 A 
ATOM     53  C   UNL A   1      40.263  34.974  36.864  1.00  0.00     0.173 A 
ATOM     54  F   UNL A   1      38.188  32.146  37.816  1.00  0.00    -0.203 F 
ATOM     55  C   UNL A   1      38.544  34.202  38.906  1.00  0.00     0.198 A 
ATOM     56  C   UNL A   1      40.022  35.828  37.938  1.00  0.00     0.198 A 
ATOM     57  F   UNL A   1      41.096  35.368  35.890  1.00  0.00    -0.203 F 
ATOM     58  F   UNL A   1      37.692  33.838  39.872  1.00  0.00    -0.200 F 
ATOM     59  C   UNL A   1      39.154  35.447  38.950  1.00  0.00     0.200 A 
ATOM     60  F   UNL A   1      40.626  37.023  37.988  1.00  0.00    -0.200 F 
ATOM     61  F   UNL A   1      38.903  36.281  39.968  1.00  0.00    -0.200 F 
ENDBRANCH  27  51
BRANCH  39  62
ATOM     62  C   UNL A   1      43.804  28.323  35.179  1.00  0.00     0.064 A 
ATOM     63  C   UNL A   1      43.488  27.240  36.014  1.00  0.00     0.173 A 
ATOM     64  C   UNL A   1      45.133  28.765  35.144  1.00  0.00     0.173 A 
ATOM     65  F   UNL A   1      42.227  26.787  36.086  1.00  0.00    -0.203 F 
ATOM     66  C   UNL A   1      44.461  26.642  36.808  1.00  0.00     0.198 A 
ATOM     67  C   UNL A   1      46.109  28.149  35.924  1.00  0.00     0.198 A 
ATOM     68  F   UNL A   1      45.484  29.788  34.352  1.00  0.00    -0.203 F 
ATOM     69  F   UNL A   1      44.129  25.637  37.630  1.00  0.00    -0.200 F 
ATOM     70  C   UNL A   1      45.770  27.098  36.763  1.00  0.00     0.200 A 
ATOM     71  F   UNL A   1      47.378  28.576  35.867  1.00  0.00    -0.200 F 
ATOM     72  F   UNL A   1      46.707  26.523  37.531  1.00  0.00    -0.200 F 
ENDBRANCH  39  62
ENDBRANCH  13  14
ENDBRANCH   6   8
ENDBRANCH   3   4
ENDBRANCH   2   3
ENDBRANCH   1   2
BRANCH   1  73
ATOM     73  C   UNL A   1      34.043  29.794  26.512  1.00  0.00     0.116 C 
BRANCH  73  74
ATOM     74  N   UNL A   1      33.944  29.040  25.288  1.00  0.00    -0.356 N 
ATOM     75  C   UNL A   1      32.886  28.852  24.464  1.00  0.00     0.223 C 
ATOM     76  H   UNL A   1      34.774  28.590  25.007  1.00  0.00     0.163 HD
ATOM     77  O   UNL A   1      33.168  28.651  23.274  1.00  0.00    -0.275 OA
BRANCH  75  78
ATOM     78  C   UNL A   1      31.415  28.768  24.886  1.00  0.00     0.091 C 
ATOM     79  C   UNL A   1      30.616  29.719  23.977  1.00  0.00     0.014 C 
ATOM     80  C   UNL A   1      30.660  27.462  25.155  1.00  0.00     0.091 C 
ATOM     81  C   UNL A   1      30.390  29.099  22.616  1.00  0.00     0.001 C 
ATOM     82  C   UNL A   1      29.913  26.905  23.884  1.00  0.00     0.014 C 
ATOM     83  C   UNL A   1      29.528  27.860  22.752  1.00  0.00     0.001 C 
BRANCH  80  84
ATOM     84  C   UNL A   1      31.320  26.262  25.909  1.00  0.00     0.226 C 
ATOM     85  O   UNL A   1      31.403  26.367  27.144  1.00  0.00    -0.275 OA
ATOM     86  N   UNL A   1      31.857  25.131  25.326  1.00  0.00    -0.340 N 
ATOM     87  C   UNL A   1      32.380  24.065  26.201  1.00  0.00     0.136 C 
ATOM     88  C   UNL A   1      31.935  24.714  23.930  1.00  0.00     0.136 C 
ATOM     89  C   UNL A   1      31.548  22.781  26.064  1.00  0.00     0.124 C 
ATOM     90  C   UNL A   1      31.074  23.463  23.686  1.00  0.00     0.124 C 
ATOM     91  N   UNL A   1      31.339  22.334  24.637  1.00  0.00    -0.194 NA
BRANCH  91  92
ATOM     92  S   UNL A   1      32.370  21.087  24.122  1.00  0.00     0.243 S 
ATOM     93  O   UNL A   1      32.153  19.962  25.001  1.00  0.00    -0.207 OA
ATOM     94  O   UNL A   1      32.209  20.966  22.686  1.00  0.00    -0.207 OA
BRANCH  92  95
ATOM     95  C   UNL A   1      34.016  21.717  24.416  1.00  0.00     0.082 A 
ATOM     96  C   UNL A   1      34.747  21.239  25.513  1.00  0.00     0.025 A 
ATOM     97  C   UNL A   1      34.603  22.612  23.512  1.00  0.00     0.025 A 
ATOM     98  C   UNL A   1      36.035  21.720  25.751  1.00  0.00     0.040 A 
ATOM     99  C   UNL A   1      35.907  23.063  23.739  1.00  0.00     0.040 A 
ATOM    100  C   UNL A   1      36.604  22.625  24.862  1.00  0.00     0.123 A 
ATOM    101  F   UNL A   1      37.847  23.070  25.085  1.00  0.00    -0.207 F 
ENDBRANCH  92  95
ENDBRANCH  91  92
ENDBRANCH  80  84
ENDBRANCH  75  78
ENDBRANCH  73  74
ENDBRANCH   1  73
TORSDOF 14
ENDMDL
