MODEL 1
REMARK VINA RESULT:     -13.2      0.000      0.000
REMARK SMILES Cc1ccc(C(=O)N2C[C@H](C(=O)NCCCCNC(=O)c3ccc(-c4c5nc(c(-c6c(F)c(F)c(F)c(F)c6F)c6ccc([nH]6)c(-c6c(F)c(F)c(F)c(F)c6F)c6nc(c(-c7c(F)c(F)c(F)c(F)c7F)c7ccc4[nH]7)C=C6)C=C5)cc3)Oc3ccccc32)o1
REMARK SMILES IDX 15 1 14 2 13 3 11 4 12 5 10 7 8 8 9 9 90 10 85 11 89 12
REMARK SMILES IDX 84 13 86 14 88 15 87 16 6 17 7 18 5 19 1 20 2 21 3 22 91 23
REMARK SMILES IDX 4 24 16 25 17 26 18 27 19 28 20 30 21 31 22 32 83 33 23 34
REMARK SMILES IDX 82 35 24 36 25 37 26 38 76 39 27 40 81 41 75 42 77 43 28 44
REMARK SMILES IDX 80 45 74 46 73 47 29 49 61 50 41 51 60 52 42 53 45 54 59 55
REMARK SMILES IDX 78 56 43 57 44 58 58 60 79 61 46 62 30 63 31 64 39 65 32 66
REMARK SMILES IDX 33 67 37 68 40 69 34 70 35 71 38 72 36 73 62 74 63 75 71 76
REMARK SMILES IDX 64 77 65 78 69 79 72 80 66 81 67 82 70 83 68 84 47 85 48 86
REMARK SMILES IDX 56 87 49 88 50 89 54 90 57 91 51 92 52 93 55 94 53 95
REMARK H PARENT 13 6 18 29 77 48 45 59
REMARK Flexibility Score: inf
ROOT
ATOM      1  C   UNL A   1      34.040  22.694  26.129  1.00  0.00     0.023 C 
ENDROOT
BRANCH   1   2
ATOM      2  C   UNL A   1      32.738  22.476  25.359  1.00  0.00     0.116 C 
BRANCH   2   3
ATOM      3  N   UNL A   1      31.573  22.712  26.196  1.00  0.00    -0.353 N 
ATOM      4  C   UNL A   1      30.897  23.872  26.459  1.00  0.00     0.262 C 
ATOM      5  O   UNL A   1      29.939  23.807  27.234  1.00  0.00    -0.271 OA
ATOM      6  H   UNL A   1      31.214  21.912  26.643  1.00  0.00     0.163 HD
BRANCH   4   7
ATOM      7  C   UNL A   1      31.345  25.216  25.871  1.00  0.00     0.281 C 
ATOM      8  N   UNL A   1      30.656  27.001  24.302  1.00  0.00    -0.298 N 
ATOM      9  C   UNL A   1      30.329  25.681  24.836  1.00  0.00     0.181 C 
ATOM     10  C   UNL A   1      31.257  27.907  25.231  1.00  0.00     0.087 A 
ATOM     11  C   UNL A   1      31.629  27.454  26.510  1.00  0.00     0.144 A 
ATOM     12  C   UNL A   1      31.392  29.275  24.953  1.00  0.00     0.030 A 
ATOM     13  O   UNL A   1      31.532  26.152  26.931  1.00  0.00    -0.477 OA
ATOM     14  C   UNL A   1      32.094  28.346  27.481  1.00  0.00     0.049 A 
ATOM     15  C   UNL A   1      31.864  30.164  25.923  1.00  0.00     0.002 A 
ATOM     16  C   UNL A   1      32.210  29.701  27.189  1.00  0.00     0.004 A 
BRANCH   8  17
ATOM     17  C   UNL A   1      30.388  27.351  22.969  1.00  0.00     0.294 C 
ATOM     18  O   UNL A   1      31.128  26.995  22.051  1.00  0.00    -0.265 OA
BRANCH  17  19
ATOM     19  C   UNL A   1      29.225  28.198  22.722  1.00  0.00     0.192 A 
ATOM     20  C   UNL A   1      28.222  31.222  21.083  1.00  0.00     0.087 C 
ATOM     21  C   UNL A   1      28.229  29.984  21.885  1.00  0.00     0.101 A 
ATOM     22  C   UNL A   1      27.301  29.375  22.697  1.00  0.00     0.046 A 
ATOM     23  O   UNL A   1      29.388  29.273  21.885  1.00  0.00    -0.456 OA
ATOM     24  C   UNL A   1      27.943  28.239  23.246  1.00  0.00     0.056 A 
ENDBRANCH  17  19
ENDBRANCH   8  17
ENDBRANCH   4   7
ENDBRANCH   2   3
ENDBRANCH   1   2
BRANCH   1  25
ATOM     25  C   UNL A   1      35.260  23.022  25.263  1.00  0.00     0.023 C 
BRANCH  25  26
ATOM     26  C   UNL A   1      36.474  23.561  26.014  1.00  0.00     0.116 C 
BRANCH  26  27
ATOM     27  N   UNL A   1      37.607  22.654  25.994  1.00  0.00    -0.352 N 
ATOM     28  C   UNL A   1      38.910  22.878  26.359  1.00  0.00     0.251 C 
ATOM     29  H   UNL A   1      37.412  21.745  25.671  1.00  0.00     0.163 HD
ATOM     30  O   UNL A   1      39.751  22.002  26.171  1.00  0.00    -0.269 OA
BRANCH  28  31
ATOM     31  C   UNL A   1      39.322  24.171  26.950  1.00  0.00     0.039 A 
ATOM     32  C   UNL A   1      39.985  25.090  26.129  1.00  0.00     0.014 A 
ATOM     33  C   UNL A   1      39.112  24.466  28.300  1.00  0.00     0.014 A 
ATOM     34  C   UNL A   1      40.400  26.318  26.648  1.00  0.00     0.010 A 
ATOM     35  C   UNL A   1      39.484  25.711  28.807  1.00  0.00     0.010 A 
ATOM     36  C   UNL A   1      40.138  26.641  27.988  1.00  0.00    -0.014 A 
BRANCH  36  37
ATOM     37  C   UNL A   1      40.578  27.939  28.553  1.00  0.00     0.031 A 
ATOM     38  C   UNL A   1      42.024  28.158  28.891  1.00  0.00     0.074 A 
ATOM     39  C   UNL A   1      39.672  28.900  28.803  1.00  0.00     0.049 A 
ATOM     40  N   UNL A   1      42.597  29.199  29.442  1.00  0.00    -0.248 NA
ATOM     41  C   UNL A   1      42.947  27.051  28.594  1.00  0.00     0.031 C 
ATOM     42  C   UNL A   1      38.233  28.791  28.558  1.00  0.00     0.029 A 
ATOM     43  N   UNL A   1      39.828  30.159  29.325  1.00  0.00    -0.354 N 
ATOM     44  C   UNL A   1      43.937  28.863  29.579  1.00  0.00     0.074 A 
ATOM     45  C   UNL A   1      44.091  27.513  29.077  1.00  0.00     0.031 C 
ATOM     46  C   UNL A   1      37.640  29.942  28.914  1.00  0.00     0.029 A 
ATOM     47  C   UNL A   1      38.653  30.862  29.425  1.00  0.00     0.049 A 
ATOM     48  H   UNL A   1      40.699  30.524  29.602  1.00  0.00     0.167 HD
ATOM     49  C   UNL A   1      44.948  29.615  30.073  1.00  0.00     0.037 A 
ATOM     50  C   UNL A   1      38.424  32.111  29.870  1.00  0.00     0.037 A 
ATOM     51  C   UNL A   1      44.806  30.969  30.537  1.00  0.00     0.049 A 
ATOM     52  C   UNL A   1      39.579  32.953  30.334  1.00  0.00     0.074 A 
ATOM     53  C   UNL A   1      45.778  31.820  31.033  1.00  0.00     0.029 A 
ATOM     54  N   UNL A   1      43.613  31.673  30.546  1.00  0.00    -0.354 N 
ATOM     55  N   UNL A   1      40.846  32.636  30.432  1.00  0.00    -0.248 NA
ATOM     56  C   UNL A   1      39.271  34.334  30.735  1.00  0.00     0.031 C 
ATOM     57  C   UNL A   1      45.169  33.042  31.349  1.00  0.00     0.029 A 
ATOM     58  C   UNL A   1      43.824  32.953  31.027  1.00  0.00     0.049 A 
ATOM     59  H   UNL A   1      42.744  31.316  30.252  1.00  0.00     0.167 HD
ATOM     60  C   UNL A   1      41.490  33.779  30.879  1.00  0.00     0.074 A 
ATOM     61  C   UNL A   1      40.477  34.803  31.030  1.00  0.00     0.031 C 
ATOM     62  C   UNL A   1      42.806  33.963  31.144  1.00  0.00     0.037 A 
BRANCH  49  63
ATOM     63  C   UNL A   1      46.304  28.982  30.134  1.00  0.00     0.064 A 
ATOM     64  C   UNL A   1      47.197  29.063  29.055  1.00  0.00     0.173 A 
ATOM     65  C   UNL A   1      46.722  28.304  31.288  1.00  0.00     0.173 A 
ATOM     66  F   UNL A   1      46.833  29.686  27.925  1.00  0.00    -0.203 F 
ATOM     67  C   UNL A   1      48.454  28.469  29.123  1.00  0.00     0.198 A 
ATOM     68  C   UNL A   1      47.988  27.728  31.359  1.00  0.00     0.198 A 
ATOM     69  F   UNL A   1      45.904  28.201  32.346  1.00  0.00    -0.203 F 
ATOM     70  F   UNL A   1      49.277  28.524  28.066  1.00  0.00    -0.200 F 
ATOM     71  C   UNL A   1      48.850  27.806  30.275  1.00  0.00     0.200 A 
ATOM     72  F   UNL A   1      48.371  27.092  32.475  1.00  0.00    -0.200 F 
ATOM     73  F   UNL A   1      50.060  27.235  30.338  1.00  0.00    -0.200 F 
ENDBRANCH  49  63
BRANCH  50  74
ATOM     74  C   UNL A   1      37.047  32.659  29.845  1.00  0.00     0.064 A 
ATOM     75  C   UNL A   1      36.199  32.510  30.950  1.00  0.00     0.173 A 
ATOM     76  C   UNL A   1      36.558  33.347  28.726  1.00  0.00     0.173 A 
ATOM     77  F   UNL A   1      36.623  31.842  32.033  1.00  0.00    -0.203 F 
ATOM     78  C   UNL A   1      34.902  33.018  30.933  1.00  0.00     0.198 A 
ATOM     79  C   UNL A   1      35.266  33.869  28.716  1.00  0.00     0.198 A 
ATOM     80  F   UNL A   1      37.337  33.516  27.649  1.00  0.00    -0.203 F 
ATOM     81  F   UNL A   1      34.100  32.837  31.990  1.00  0.00    -0.200 F 
ATOM     82  C   UNL A   1      34.439  33.700  29.818  1.00  0.00     0.200 A 
ATOM     83  F   UNL A   1      34.823  34.534  27.642  1.00  0.00    -0.200 F 
ATOM     84  F   UNL A   1      33.192  34.191  29.801  1.00  0.00    -0.200 F 
ENDBRANCH  50  74
BRANCH  62  85
ATOM     85  C   UNL A   1      43.229  35.330  31.580  1.00  0.00     0.064 A 
ATOM     86  C   UNL A   1      43.660  36.291  30.655  1.00  0.00     0.173 A 
ATOM     87  C   UNL A   1      43.166  35.693  32.933  1.00  0.00     0.173 A 
ATOM     88  F   UNL A   1      43.750  35.981  29.353  1.00  0.00    -0.203 F 
ATOM     89  C   UNL A   1      44.031  37.566  31.073  1.00  0.00     0.198 A 
ATOM     90  C   UNL A   1      43.522  36.973  33.346  1.00  0.00     0.198 A 
ATOM     91  F   UNL A   1      42.759  34.805  33.853  1.00  0.00    -0.203 F 
ATOM     92  F   UNL A   1      44.470  38.462  30.178  1.00  0.00    -0.200 F 
ATOM     93  C   UNL A   1      43.958  37.908  32.416  1.00  0.00     0.200 A 
ATOM     94  F   UNL A   1      43.449  37.303  34.642  1.00  0.00    -0.200 F 
ATOM     95  F   UNL A   1      44.314  39.136  32.817  1.00  0.00    -0.200 F 
ENDBRANCH  62  85
ENDBRANCH  36  37
ENDBRANCH  28  31
ENDBRANCH  26  27
ENDBRANCH  25  26
ENDBRANCH   1  25
TORSDOF 13
ENDMDL
MODEL 2
REMARK VINA RESULT:     -13.1      0.096      1.996
REMARK SMILES Cc1ccc(C(=O)N2C[C@H](C(=O)NCCCCNC(=O)c3ccc(-c4c5nc(c(-c6c(F)c(F)c(F)c(F)c6F)c6ccc([nH]6)c(-c6c(F)c(F)c(F)c(F)c6F)c6nc(c(-c7c(F)c(F)c(F)c(F)c7F)c7ccc4[nH]7)C=C6)C=C5)cc3)Oc3ccccc32)o1
REMARK SMILES IDX 15 1 14 2 13 3 11 4 12 5 10 7 8 8 9 9 90 10 85 11 89 12
REMARK SMILES IDX 84 13 86 14 88 15 87 16 6 17 7 18 5 19 1 20 2 21 3 22 91 23
REMARK SMILES IDX 4 24 16 25 17 26 18 27 19 28 20 30 21 31 22 32 83 33 23 34
REMARK SMILES IDX 82 35 24 36 25 37 26 38 76 39 27 40 81 41 75 42 77 43 28 44
REMARK SMILES IDX 80 45 74 46 73 47 29 49 61 50 41 51 60 52 42 53 45 54 59 55
REMARK SMILES IDX 78 56 43 57 44 58 58 60 79 61 46 62 30 63 31 64 39 65 32 66
REMARK SMILES IDX 33 67 37 68 40 69 34 70 35 71 38 72 36 73 62 74 63 75 71 76
REMARK SMILES IDX 64 77 65 78 69 79 72 80 66 81 67 82 70 83 68 84 47 85 48 86
REMARK SMILES IDX 56 87 49 88 50 89 54 90 57 91 51 92 52 93 55 94 53 95
REMARK H PARENT 13 6 18 29 77 48 45 59
REMARK Flexibility Score: inf
ROOT
ATOM      1  C   UNL A   1      34.101  22.703  26.060  1.00  0.00     0.023 C 
ENDROOT
BRANCH   1   2
ATOM      2  C   UNL A   1      32.797  22.535  25.281  1.00  0.00     0.116 C 
BRANCH   2   3
ATOM      3  N   UNL A   1      31.634  22.752  26.127  1.00  0.00    -0.353 N 
ATOM      4  C   UNL A   1      30.950  23.904  26.406  1.00  0.00     0.262 C 
ATOM      5  O   UNL A   1      29.997  23.822  27.185  1.00  0.00    -0.271 OA
ATOM      6  H   UNL A   1      31.286  21.945  26.568  1.00  0.00     0.163 HD
BRANCH   4   7
ATOM      7  C   UNL A   1      31.383  25.257  25.828  1.00  0.00     0.281 C 
ATOM      8  N   UNL A   1      30.669  27.050  24.280  1.00  0.00    -0.298 N 
ATOM      9  C   UNL A   1      30.357  25.722  24.802  1.00  0.00     0.181 C 
ATOM     10  C   UNL A   1      31.266  27.953  25.215  1.00  0.00     0.087 A 
ATOM     11  C   UNL A   1      31.647  27.491  26.487  1.00  0.00     0.144 A 
ATOM     12  C   UNL A   1      31.386  29.325  24.949  1.00  0.00     0.030 A 
ATOM     13  O   UNL A   1      31.565  26.185  26.896  1.00  0.00    -0.477 OA
ATOM     14  C   UNL A   1      32.109  28.378  27.464  1.00  0.00     0.049 A 
ATOM     15  C   UNL A   1      31.854  30.209  25.925  1.00  0.00     0.002 A 
ATOM     16  C   UNL A   1      32.210  29.738  27.184  1.00  0.00     0.004 A 
BRANCH   8  17
ATOM     17  C   UNL A   1      30.391  27.409  22.951  1.00  0.00     0.294 C 
ATOM     18  O   UNL A   1      31.130  27.067  22.026  1.00  0.00    -0.265 OA
BRANCH  17  19
ATOM     19  C   UNL A   1      29.222  28.250  22.717  1.00  0.00     0.192 A 
ATOM     20  C   UNL A   1      28.151  31.189  20.970  1.00  0.00     0.087 C 
ATOM     21  C   UNL A   1      28.192  29.997  21.837  1.00  0.00     0.101 A 
ATOM     22  C   UNL A   1      27.304  29.439  22.726  1.00  0.00     0.046 A 
ATOM     23  O   UNL A   1      29.346  29.278  21.816  1.00  0.00    -0.456 OA
ATOM     24  C   UNL A   1      27.968  28.329  23.302  1.00  0.00     0.056 A 
ENDBRANCH  17  19
ENDBRANCH   8  17
ENDBRANCH   4   7
ENDBRANCH   2   3
ENDBRANCH   1   2
BRANCH   1  25
ATOM     25  C   UNL A   1      35.318  23.087  25.213  1.00  0.00     0.023 C 
BRANCH  25  26
ATOM     26  C   UNL A   1      36.529  23.592  25.992  1.00  0.00     0.116 C 
BRANCH  26  27
ATOM     27  N   UNL A   1      37.635  22.652  26.001  1.00  0.00    -0.352 N 
ATOM     28  C   UNL A   1      38.947  22.852  26.347  1.00  0.00     0.251 C 
ATOM     29  H   UNL A   1      37.412  21.738  25.716  1.00  0.00     0.163 HD
ATOM     30  O   UNL A   1      39.761  21.946  26.188  1.00  0.00    -0.269 OA
BRANCH  28  31
ATOM     31  C   UNL A   1      39.401  24.155  26.883  1.00  0.00     0.039 A 
ATOM     32  C   UNL A   1      39.168  24.430  28.236  1.00  0.00     0.014 A 
ATOM     33  C   UNL A   1      40.001  25.120  26.069  1.00  0.00     0.014 A 
ATOM     34  C   UNL A   1      39.571  25.651  28.780  1.00  0.00     0.010 A 
ATOM     35  C   UNL A   1      40.447  26.320  26.622  1.00  0.00     0.010 A 
ATOM     36  C   UNL A   1      40.226  26.598  27.979  1.00  0.00    -0.014 A 
BRANCH  36  37
ATOM     37  C   UNL A   1      40.654  27.900  28.542  1.00  0.00     0.031 A 
ATOM     38  C   UNL A   1      42.099  28.135  28.875  1.00  0.00     0.074 A 
ATOM     39  C   UNL A   1      39.738  28.852  28.794  1.00  0.00     0.049 A 
ATOM     40  N   UNL A   1      42.662  29.183  29.423  1.00  0.00    -0.248 NA
ATOM     41  C   UNL A   1      43.032  27.039  28.575  1.00  0.00     0.031 C 
ATOM     42  C   UNL A   1      38.300  28.726  28.555  1.00  0.00     0.029 A 
ATOM     43  N   UNL A   1      39.882  30.113  29.315  1.00  0.00    -0.354 N 
ATOM     44  C   UNL A   1      44.006  28.862  29.555  1.00  0.00     0.074 A 
ATOM     45  C   UNL A   1      44.173  27.514  29.053  1.00  0.00     0.031 C 
ATOM     46  C   UNL A   1      37.695  29.871  28.912  1.00  0.00     0.029 A 
ATOM     47  C   UNL A   1      38.700  30.803  29.418  1.00  0.00     0.049 A 
ATOM     48  H   UNL A   1      40.750  30.487  29.588  1.00  0.00     0.167 HD
ATOM     49  C   UNL A   1      45.011  29.625  30.045  1.00  0.00     0.037 A 
ATOM     50  C   UNL A   1      38.459  32.049  29.864  1.00  0.00     0.037 A 
ATOM     51  C   UNL A   1      44.856  30.978  30.509  1.00  0.00     0.049 A 
ATOM     52  C   UNL A   1      39.606  32.905  30.323  1.00  0.00     0.074 A 
ATOM     53  C   UNL A   1      45.820  31.840  31.001  1.00  0.00     0.029 A 
ATOM     54  N   UNL A   1      43.655  31.668  30.521  1.00  0.00    -0.354 N 
ATOM     55  N   UNL A   1      40.877  32.601  30.416  1.00  0.00    -0.248 NA
ATOM     56  C   UNL A   1      39.285  34.282  30.724  1.00  0.00     0.031 C 
ATOM     57  C   UNL A   1      45.198  33.055  31.318  1.00  0.00     0.029 A 
ATOM     58  C   UNL A   1      43.853  32.952  31.001  1.00  0.00     0.049 A 
ATOM     59  H   UNL A   1      42.789  31.302  30.230  1.00  0.00     0.167 HD
ATOM     60  C   UNL A   1      41.510  33.751  30.861  1.00  0.00     0.074 A 
ATOM     61  C   UNL A   1      40.486  34.764  31.014  1.00  0.00     0.031 C 
ATOM     62  C   UNL A   1      42.825  33.950  31.121  1.00  0.00     0.037 A 
BRANCH  49  63
ATOM     63  C   UNL A   1      46.374  29.007  30.102  1.00  0.00     0.064 A 
ATOM     64  C   UNL A   1      46.789  28.252  31.209  1.00  0.00     0.173 A 
ATOM     65  C   UNL A   1      47.267  29.156  29.032  1.00  0.00     0.173 A 
ATOM     66  F   UNL A   1      45.973  28.099  32.263  1.00  0.00    -0.203 F 
ATOM     67  C   UNL A   1      48.058  27.684  31.251  1.00  0.00     0.198 A 
ATOM     68  C   UNL A   1      48.530  28.570  29.069  1.00  0.00     0.198 A 
ATOM     69  F   UNL A   1      46.916  29.869  27.951  1.00  0.00    -0.203 F 
ATOM     70  F   UNL A   1      48.449  27.000  32.335  1.00  0.00    -0.200 F 
ATOM     71  C   UNL A   1      48.926  27.840  30.180  1.00  0.00     0.200 A 
ATOM     72  F   UNL A   1      49.367  28.717  28.032  1.00  0.00    -0.200 F 
ATOM     73  F   UNL A   1      50.149  27.293  30.222  1.00  0.00    -0.200 F 
ENDBRANCH  49  63
BRANCH  50  74
ATOM     74  C   UNL A   1      37.076  32.582  29.843  1.00  0.00     0.064 A 
ATOM     75  C   UNL A   1      36.601  33.293  28.734  1.00  0.00     0.173 A 
ATOM     76  C   UNL A   1      36.203  32.384  30.922  1.00  0.00     0.173 A 
ATOM     77  F   UNL A   1      37.411  33.520  27.689  1.00  0.00    -0.203 F 
ATOM     78  C   UNL A   1      35.304  33.800  28.708  1.00  0.00     0.198 A 
ATOM     79  C   UNL A   1      34.901  32.878  30.888  1.00  0.00     0.198 A 
ATOM     80  F   UNL A   1      36.614  31.706  32.002  1.00  0.00    -0.203 F 
ATOM     81  F   UNL A   1      34.884  34.502  27.648  1.00  0.00    -0.200 F 
ATOM     82  C   UNL A   1      34.455  33.589  29.783  1.00  0.00     0.200 A 
ATOM     83  F   UNL A   1      34.079  32.667  31.924  1.00  0.00    -0.200 F 
ATOM     84  F   UNL A   1      33.206  34.076  29.758  1.00  0.00    -0.200 F 
ENDBRANCH  50  74
BRANCH  62  85
ATOM     85  C   UNL A   1      43.234  35.322  31.554  1.00  0.00     0.064 A 
ATOM     86  C   UNL A   1      43.227  35.695  32.905  1.00  0.00     0.173 A 
ATOM     87  C   UNL A   1      43.673  36.262  30.609  1.00  0.00     0.173 A 
ATOM     88  F   UNL A   1      42.802  34.833  33.840  1.00  0.00    -0.203 F 
ATOM     89  C   UNL A   1      43.631  36.969  33.294  1.00  0.00     0.198 A 
ATOM     90  C   UNL A   1      44.090  37.529  31.003  1.00  0.00     0.198 A 
ATOM     91  F   UNL A   1      43.696  35.948  29.305  1.00  0.00    -0.203 F 
ATOM     92  F   UNL A   1      43.589  37.318  34.588  1.00  0.00    -0.200 F 
ATOM     93  C   UNL A   1      44.065  37.883  32.345  1.00  0.00     0.200 A 
ATOM     94  F   UNL A   1      44.511  38.411  30.086  1.00  0.00    -0.200 F 
ATOM     95  F   UNL A   1      44.453  39.109  32.722  1.00  0.00    -0.200 F 
ENDBRANCH  62  85
ENDBRANCH  36  37
ENDBRANCH  28  31
ENDBRANCH  26  27
ENDBRANCH  25  26
ENDBRANCH   1  25
TORSDOF 13
ENDMDL
MODEL 3
REMARK VINA RESULT:     -13.0      4.049      7.642
REMARK SMILES Cc1ccc(C(=O)N2C[C@H](C(=O)NCCCCNC(=O)c3ccc(-c4c5nc(c(-c6c(F)c(F)c(F)c(F)c6F)c6ccc([nH]6)c(-c6c(F)c(F)c(F)c(F)c6F)c6nc(c(-c7c(F)c(F)c(F)c(F)c7F)c7ccc4[nH]7)C=C6)C=C5)cc3)Oc3ccccc32)o1
REMARK SMILES IDX 15 1 14 2 13 3 11 4 12 5 10 7 8 8 9 9 90 10 85 11 89 12
REMARK SMILES IDX 84 13 86 14 88 15 87 16 6 17 7 18 5 19 1 20 2 21 3 22 91 23
REMARK SMILES IDX 4 24 16 25 17 26 18 27 19 28 20 30 21 31 22 32 83 33 23 34
REMARK SMILES IDX 82 35 24 36 25 37 26 38 76 39 27 40 81 41 75 42 77 43 28 44
REMARK SMILES IDX 80 45 74 46 73 47 29 49 61 50 41 51 60 52 42 53 45 54 59 55
REMARK SMILES IDX 78 56 43 57 44 58 58 60 79 61 46 62 30 63 31 64 39 65 32 66
REMARK SMILES IDX 33 67 37 68 40 69 34 70 35 71 38 72 36 73 62 74 63 75 71 76
REMARK SMILES IDX 64 77 65 78 69 79 72 80 66 81 67 82 70 83 68 84 47 85 48 86
REMARK SMILES IDX 56 87 49 88 50 89 54 90 57 91 51 92 52 93 55 94 53 95
REMARK H PARENT 13 6 18 29 77 48 45 59
REMARK Flexibility Score: inf
ROOT
ATOM      1  C   UNL A   1      32.008  28.287  23.107  1.00  0.00     0.023 C 
ENDROOT
BRANCH   1   2
ATOM      2  C   UNL A   1      31.723  26.785  23.085  1.00  0.00     0.116 C 
BRANCH   2   3
ATOM      3  N   UNL A   1      32.192  26.168  21.855  1.00  0.00    -0.353 N 
ATOM      4  C   UNL A   1      32.901  25.014  21.663  1.00  0.00     0.262 C 
ATOM      5  O   UNL A   1      33.199  24.717  20.503  1.00  0.00    -0.271 OA
ATOM      6  H   UNL A   1      31.964  26.657  21.033  1.00  0.00     0.163 HD
BRANCH   4   7
ATOM      7  C   UNL A   1      33.367  24.150  22.842  1.00  0.00     0.281 C 
ATOM      8  N   UNL A   1      33.084  21.920  23.876  1.00  0.00    -0.298 N 
ATOM      9  C   UNL A   1      32.618  22.824  22.827  1.00  0.00     0.181 C 
ATOM     10  C   UNL A   1      34.479  21.996  24.177  1.00  0.00     0.087 A 
ATOM     11  C   UNL A   1      35.269  22.998  23.586  1.00  0.00     0.144 A 
ATOM     12  C   UNL A   1      35.123  21.030  24.965  1.00  0.00     0.030 A 
ATOM     13  O   UNL A   1      34.784  23.993  22.776  1.00  0.00    -0.477 OA
ATOM     14  C   UNL A   1      36.657  23.015  23.758  1.00  0.00     0.049 A 
ATOM     15  C   UNL A   1      36.510  21.053  25.141  1.00  0.00     0.002 A 
ATOM     16  C   UNL A   1      37.278  22.041  24.534  1.00  0.00     0.004 A 
BRANCH   8  17
ATOM     17  C   UNL A   1      32.214  21.035  24.534  1.00  0.00     0.294 C 
ATOM     18  O   UNL A   1      31.406  21.435  25.373  1.00  0.00    -0.265 OA
BRANCH  17  19
ATOM     19  C   UNL A   1      32.344  19.615  24.220  1.00  0.00     0.192 A 
ATOM     20  C   UNL A   1      32.817  16.410  25.750  1.00  0.00     0.087 C 
ATOM     21  C   UNL A   1      32.648  17.496  24.765  1.00  0.00     0.101 A 
ATOM     22  C   UNL A   1      32.708  17.549  23.392  1.00  0.00     0.046 A 
ATOM     23  O   UNL A   1      32.415  18.736  25.271  1.00  0.00    -0.456 OA
ATOM     24  C   UNL A   1      32.528  18.909  23.043  1.00  0.00     0.056 A 
ENDBRANCH  17  19
ENDBRANCH   8  17
ENDBRANCH   4   7
ENDBRANCH   2   3
ENDBRANCH   1   2
BRANCH   1  25
ATOM     25  C   UNL A   1      33.433  28.671  23.516  1.00  0.00     0.023 C 
BRANCH  25  26
ATOM     26  C   UNL A   1      33.654  28.883  25.011  1.00  0.00     0.116 C 
BRANCH  26  27
ATOM     27  N   UNL A   1      32.962  30.048  25.532  1.00  0.00    -0.352 N 
ATOM     28  C   UNL A   1      33.264  30.828  26.618  1.00  0.00     0.251 C 
ATOM     29  H   UNL A   1      32.158  30.317  25.033  1.00  0.00     0.163 HD
ATOM     30  O   UNL A   1      32.489  31.719  26.959  1.00  0.00    -0.269 OA
BRANCH  28  31
ATOM     31  C   UNL A   1      34.496  30.594  27.403  1.00  0.00     0.039 A 
ATOM     32  C   UNL A   1      34.686  29.329  27.973  1.00  0.00     0.014 A 
ATOM     33  C   UNL A   1      35.433  31.607  27.626  1.00  0.00     0.014 A 
ATOM     34  C   UNL A   1      35.830  29.068  28.728  1.00  0.00     0.010 A 
ATOM     35  C   UNL A   1      36.599  31.332  28.342  1.00  0.00     0.010 A 
ATOM     36  C   UNL A   1      36.801  30.065  28.905  1.00  0.00    -0.014 A 
BRANCH  36  37
ATOM     37  C   UNL A   1      38.017  29.803  29.711  1.00  0.00     0.031 A 
ATOM     38  C   UNL A   1      39.092  28.903  29.175  1.00  0.00     0.074 A 
ATOM     39  C   UNL A   1      38.133  30.339  30.939  1.00  0.00     0.049 A 
ATOM     40  N   UNL A   1      40.203  28.508  29.746  1.00  0.00    -0.248 NA
ATOM     41  C   UNL A   1      38.882  28.353  27.827  1.00  0.00     0.031 C 
ATOM     42  C   UNL A   1      37.137  31.194  31.586  1.00  0.00     0.029 A 
ATOM     43  N   UNL A   1      39.140  30.236  31.865  1.00  0.00    -0.354 N 
ATOM     44  C   UNL A   1      40.807  27.647  28.841  1.00  0.00     0.074 A 
ATOM     45  C   UNL A   1      39.931  27.556  27.691  1.00  0.00     0.031 C 
ATOM     46  C   UNL A   1      37.590  31.553  32.799  1.00  0.00     0.029 A 
ATOM     47  C   UNL A   1      38.899  30.941  33.019  1.00  0.00     0.049 A 
ATOM     48  H   UNL A   1      39.957  29.709  31.717  1.00  0.00     0.167 HD
ATOM     49  C   UNL A   1      41.988  26.997  28.956  1.00  0.00     0.037 A 
ATOM     50  C   UNL A   1      39.655  31.082  34.122  1.00  0.00     0.037 A 
ATOM     51  C   UNL A   1      42.879  27.115  30.079  1.00  0.00     0.049 A 
ATOM     52  C   UNL A   1      41.000  30.417  34.188  1.00  0.00     0.074 A 
ATOM     53  C   UNL A   1      44.110  26.514  30.276  1.00  0.00     0.029 A 
ATOM     54  N   UNL A   1      42.635  27.904  31.192  1.00  0.00    -0.354 N 
ATOM     55  N   UNL A   1      41.575  29.629  33.313  1.00  0.00    -0.248 NA
ATOM     56  C   UNL A   1      41.809  30.675  35.388  1.00  0.00     0.031 C 
ATOM     57  C   UNL A   1      44.609  26.936  31.515  1.00  0.00     0.029 A 
ATOM     58  C   UNL A   1      43.697  27.815  32.075  1.00  0.00     0.049 A 
ATOM     59  H   UNL A   1      41.826  28.448  31.334  1.00  0.00     0.167 HD
ATOM     60  C   UNL A   1      42.817  29.317  33.842  1.00  0.00     0.074 A 
ATOM     61  C   UNL A   1      42.920  30.005  35.113  1.00  0.00     0.031 C 
ATOM     62  C   UNL A   1      43.788  28.528  33.321  1.00  0.00     0.037 A 
BRANCH  49  63
ATOM     63  C   UNL A   1      42.386  26.096  27.827  1.00  0.00     0.064 A 
ATOM     64  C   UNL A   1      41.903  24.782  27.736  1.00  0.00     0.173 A 
ATOM     65  C   UNL A   1      43.243  26.556  26.818  1.00  0.00     0.173 A 
ATOM     66  F   UNL A   1      41.094  24.295  28.689  1.00  0.00    -0.203 F 
ATOM     67  C   UNL A   1      42.280  23.954  26.684  1.00  0.00     0.198 A 
ATOM     68  C   UNL A   1      43.603  25.731  25.756  1.00  0.00     0.198 A 
ATOM     69  F   UNL A   1      43.730  27.805  26.861  1.00  0.00    -0.203 F 
ATOM     70  F   UNL A   1      41.839  22.690  26.636  1.00  0.00    -0.200 F 
ATOM     71  C   UNL A   1      43.127  24.429  25.693  1.00  0.00     0.200 A 
ATOM     72  F   UNL A   1      44.418  26.192  24.796  1.00  0.00    -0.200 F 
ATOM     73  F   UNL A   1      43.490  23.630  24.680  1.00  0.00    -0.200 F 
ENDBRANCH  49  63
BRANCH  50  74
ATOM     74  C   UNL A   1      39.176  31.937  35.235  1.00  0.00     0.064 A 
ATOM     75  C   UNL A   1      38.447  31.386  36.296  1.00  0.00     0.173 A 
ATOM     76  C   UNL A   1      39.446  33.313  35.264  1.00  0.00     0.173 A 
ATOM     77  F   UNL A   1      38.153  30.078  36.298  1.00  0.00    -0.203 F 
ATOM     78  C   UNL A   1      37.991  32.183  37.344  1.00  0.00     0.198 A 
ATOM     79  C   UNL A   1      39.002  34.106  36.320  1.00  0.00     0.198 A 
ATOM     80  F   UNL A   1      40.143  33.881  34.271  1.00  0.00    -0.203 F 
ATOM     81  F   UNL A   1      37.270  31.638  38.332  1.00  0.00    -0.200 F 
ATOM     82  C   UNL A   1      38.272  33.540  37.356  1.00  0.00     0.200 A 
ATOM     83  F   UNL A   1      39.281  35.415  36.334  1.00  0.00    -0.200 F 
ATOM     84  F   UNL A   1      37.834  34.307  38.365  1.00  0.00    -0.200 F 
ENDBRANCH  50  74
BRANCH  62  85
ATOM     85  C   UNL A   1      45.058  28.403  34.103  1.00  0.00     0.064 A 
ATOM     86  C   UNL A   1      45.222  27.408  35.076  1.00  0.00     0.173 A 
ATOM     87  C   UNL A   1      46.134  29.266  33.848  1.00  0.00     0.173 A 
ATOM     88  F   UNL A   1      44.214  26.571  35.362  1.00  0.00    -0.203 F 
ATOM     89  C   UNL A   1      46.416  27.292  35.781  1.00  0.00     0.198 A 
ATOM     90  C   UNL A   1      47.331  29.137  34.544  1.00  0.00     0.198 A 
ATOM     91  F   UNL A   1      46.020  30.233  32.925  1.00  0.00    -0.203 F 
ATOM     92  F   UNL A   1      46.545  26.354  36.730  1.00  0.00    -0.200 F 
ATOM     93  C   UNL A   1      47.471  28.153  35.512  1.00  0.00     0.200 A 
ATOM     94  F   UNL A   1      48.350  29.968  34.282  1.00  0.00    -0.200 F 
ATOM     95  F   UNL A   1      48.621  28.039  36.192  1.00  0.00    -0.200 F 
ENDBRANCH  62  85
ENDBRANCH  36  37
ENDBRANCH  28  31
ENDBRANCH  26  27
ENDBRANCH  25  26
ENDBRANCH   1  25
TORSDOF 13
ENDMDL
