MODEL 1
REMARK VINA RESULT:     -12.9      0.000      0.000
REMARK SMILES C[C@@H](Sc1nc(-c2ccc3c(c2)OCO3)ccc1C#N)C(=O)NCCCCNC(=O)c1ccc(-c2c3nc(c(-c4c(F)c(F)c(F)c(F)c4F)c4ccc([nH]4)c(-c4c(F)c(F)c(F)c(F)c4F)c4nc(c(-c5c(F)c(F)c(F)c(F)c5F)c5ccc2[nH]5)C=C4)C=C3)cc1
REMARK SMILES IDX 25 1 24 2 23 3 21 4 22 5 2 7 1 8 3 9 4 10 5 11 18 12 6 13
REMARK SMILES IDX 17 14 16 15 19 16 20 17 7 18 8 19 12 20 9 21 11 22 10 23
REMARK SMILES IDX 13 24 15 25 14 26 26 27 27 28 28 29 29 30 30 32 31 33 32 34
REMARK SMILES IDX 93 35 33 36 92 37 34 38 35 39 36 40 86 41 37 42 91 43 85 44
REMARK SMILES IDX 87 45 38 46 90 47 84 48 83 49 39 51 71 52 51 53 70 54 52 55
REMARK SMILES IDX 55 56 69 57 88 58 53 59 54 60 68 62 89 63 56 64 40 65 41 66
REMARK SMILES IDX 49 67 42 68 43 69 47 70 50 71 44 72 45 73 48 74 46 75 72 76
REMARK SMILES IDX 73 77 81 78 74 79 75 80 79 81 82 82 76 83 77 84 80 85 78 86
REMARK SMILES IDX 57 87 58 88 66 89 59 90 60 91 64 92 67 93 61 94 62 95 65 96
REMARK SMILES IDX 63 97
REMARK H PARENT 23 6 28 31 87 50 55 61
REMARK Flexibility Score: inf
ROOT
ATOM      1  C   UNL A   1      31.937  27.696  27.003  1.00  0.00     0.023 C 
ENDROOT
BRANCH   1   2
ATOM      2  C   UNL A   1      32.191  26.324  26.394  1.00  0.00     0.116 C 
BRANCH   2   3
ATOM      3  N   UNL A   1      31.240  25.336  26.877  1.00  0.00    -0.355 N 
ATOM      4  C   UNL A   1      31.138  24.002  26.586  1.00  0.00     0.233 C 
ATOM      5  O   UNL A   1      30.242  23.363  27.146  1.00  0.00    -0.274 OA
ATOM      6  H   UNL A   1      30.568  25.679  27.510  1.00  0.00     0.163 HD
BRANCH   4   7
ATOM      7  C   UNL A   1      32.089  23.327  25.584  1.00  0.00     0.139 C 
ATOM      8  C   UNL A   1      32.559  21.990  26.148  1.00  0.00     0.030 C 
BRANCH   7   9
ATOM      9  S   UNL A   1      31.235  23.393  23.943  1.00  0.00    -0.092 SA
BRANCH   9  10
ATOM     10  C   UNL A   1      31.670  24.958  23.220  1.00  0.00     0.115 A 
ATOM     11  N   UNL A   1      30.740  25.941  23.260  1.00  0.00    -0.240 NA
ATOM     12  C   UNL A   1      32.969  25.175  22.753  1.00  0.00     0.084 A 
ATOM     13  C   UNL A   1      31.079  27.171  22.799  1.00  0.00     0.072 A 
ATOM     14  C   UNL A   1      33.309  26.451  22.303  1.00  0.00     0.024 A 
ATOM     15  C   UNL A   1      32.354  27.460  22.324  1.00  0.00     0.030 A 
BRANCH  12  16
ATOM     16  C   UNL A   1      33.967  24.146  22.733  1.00  0.00     0.102 C 
ATOM     17  N   UNL A   1      34.787  23.328  22.752  1.00  0.00    -0.192 NA
ENDBRANCH  12  16
BRANCH  13  18
ATOM     18  C   UNL A   1      30.021  28.187  22.803  1.00  0.00     0.004 A 
ATOM     19  C   UNL A   1      28.697  27.830  23.163  1.00  0.00     0.014 A 
ATOM     20  C   UNL A   1      30.285  29.515  22.423  1.00  0.00     0.061 A 
ATOM     21  C   UNL A   1      27.652  28.758  23.126  1.00  0.00     0.051 A 
ATOM     22  C   UNL A   1      29.231  30.408  22.382  1.00  0.00     0.166 A 
ATOM     23  C   UNL A   1      27.952  30.037  22.722  1.00  0.00     0.165 A 
ATOM     24  O   UNL A   1      29.305  31.712  22.001  1.00  0.00    -0.454 OA
ATOM     25  O   UNL A   1      27.062  31.058  22.601  1.00  0.00    -0.454 OA
ATOM     26  C   UNL A   1      27.920  32.107  22.110  1.00  0.00     0.468 C 
ENDBRANCH  13  18
ENDBRANCH   9  10
ENDBRANCH   7   9
ENDBRANCH   4   7
ENDBRANCH   2   3
ENDBRANCH   1   2
BRANCH   1  27
ATOM     27  C   UNL A   1      31.773  28.810  25.973  1.00  0.00     0.023 C 
BRANCH  27  28
ATOM     28  C   UNL A   1      32.976  29.736  25.843  1.00  0.00     0.116 C 
BRANCH  28  29
ATOM     29  N   UNL A   1      32.701  31.091  26.305  1.00  0.00    -0.352 N 
ATOM     30  C   UNL A   1      33.370  31.833  27.248  1.00  0.00     0.251 C 
ATOM     31  H   UNL A   1      31.930  31.534  25.883  1.00  0.00     0.163 HD
ATOM     32  O   UNL A   1      32.914  32.902  27.638  1.00  0.00    -0.269 OA
BRANCH  30  33
ATOM     33  C   UNL A   1      34.631  31.313  27.814  1.00  0.00     0.039 A 
ATOM     34  C   UNL A   1      35.700  32.191  28.001  1.00  0.00     0.014 A 
ATOM     35  C   UNL A   1      34.743  29.973  28.195  1.00  0.00     0.014 A 
ATOM     36  C   UNL A   1      36.857  31.740  28.637  1.00  0.00     0.010 A 
ATOM     37  C   UNL A   1      35.856  29.551  28.912  1.00  0.00     0.010 A 
ATOM     38  C   UNL A   1      36.928  30.429  29.137  1.00  0.00    -0.014 A 
BRANCH  38  39
ATOM     39  C   UNL A   1      38.112  29.962  29.902  1.00  0.00     0.031 A 
ATOM     40  C   UNL A   1      38.353  30.456  31.301  1.00  0.00     0.074 A 
ATOM     41  C   UNL A   1      39.000  29.135  29.317  1.00  0.00     0.049 A 
ATOM     42  N   UNL A   1      39.353  30.203  32.108  1.00  0.00    -0.248 NA
ATOM     43  C   UNL A   1      37.351  31.376  31.861  1.00  0.00     0.031 C 
ATOM     44  C   UNL A   1      38.903  28.623  27.948  1.00  0.00     0.029 A 
ATOM     45  N   UNL A   1      40.164  28.584  29.794  1.00  0.00    -0.354 N 
ATOM     46  C   UNL A   1      39.102  30.935  33.261  1.00  0.00     0.074 A 
ATOM     47  C   UNL A   1      37.893  31.694  33.025  1.00  0.00     0.031 C 
ATOM     48  C   UNL A   1      39.945  27.812  27.707  1.00  0.00     0.029 A 
ATOM     49  C   UNL A   1      40.811  27.787  28.882  1.00  0.00     0.049 A 
ATOM     50  H   UNL A   1      40.503  28.746  30.703  1.00  0.00     0.167 HD
ATOM     51  C   UNL A   1      39.800  30.951  34.421  1.00  0.00     0.037 A 
ATOM     52  C   UNL A   1      41.978  27.120  28.975  1.00  0.00     0.037 A 
ATOM     53  C   UNL A   1      41.001  30.191  34.652  1.00  0.00     0.049 A 
ATOM     54  C   UNL A   1      42.757  27.187  30.263  1.00  0.00     0.074 A 
ATOM     55  C   UNL A   1      41.758  30.104  35.806  1.00  0.00     0.029 A 
ATOM     56  N   UNL A   1      41.628  29.395  33.703  1.00  0.00    -0.354 N 
ATOM     57  N   UNL A   1      42.471  27.825  31.373  1.00  0.00    -0.248 NA
ATOM     58  C   UNL A   1      44.018  26.436  30.313  1.00  0.00     0.031 C 
ATOM     59  C   UNL A   1      42.880  29.315  35.535  1.00  0.00     0.029 A 
ATOM     60  C   UNL A   1      42.781  28.842  34.237  1.00  0.00     0.049 A 
ATOM     61  H   UNL A   1      41.301  29.246  32.786  1.00  0.00     0.167 HD
ATOM     62  C   UNL A   1      43.496  27.525  32.260  1.00  0.00     0.074 A 
ATOM     63  C   UNL A   1      44.401  26.634  31.566  1.00  0.00     0.031 C 
ATOM     64  C   UNL A   1      43.672  27.950  33.537  1.00  0.00     0.037 A 
BRANCH  51  65
ATOM     65  C   UNL A   1      39.285  31.826  35.531  1.00  0.00     0.064 A 
ATOM     66  C   UNL A   1      38.394  31.341  36.503  1.00  0.00     0.173 A 
ATOM     67  C   UNL A   1      39.714  33.156  35.646  1.00  0.00     0.173 A 
ATOM     68  F   UNL A   1      37.944  30.078  36.436  1.00  0.00    -0.203 F 
ATOM     69  C   UNL A   1      37.924  32.164  37.522  1.00  0.00     0.198 A 
ATOM     70  C   UNL A   1      39.273  33.966  36.690  1.00  0.00     0.198 A 
ATOM     71  F   UNL A   1      40.571  33.672  34.751  1.00  0.00    -0.203 F 
ATOM     72  F   UNL A   1      37.028  31.695  38.400  1.00  0.00    -0.200 F 
ATOM     73  C   UNL A   1      38.371  33.473  37.620  1.00  0.00     0.200 A 
ATOM     74  F   UNL A   1      39.720  35.225  36.795  1.00  0.00    -0.200 F 
ATOM     75  F   UNL A   1      37.926  34.262  38.608  1.00  0.00    -0.200 F 
ENDBRANCH  51  65
BRANCH  52  76
ATOM     76  C   UNL A   1      42.480  26.327  27.821  1.00  0.00     0.064 A 
ATOM     77  C   UNL A   1      42.037  25.016  27.594  1.00  0.00     0.173 A 
ATOM     78  C   UNL A   1      43.423  26.858  26.928  1.00  0.00     0.173 A 
ATOM     79  F   UNL A   1      41.150  24.456  28.430  1.00  0.00    -0.203 F 
ATOM     80  C   UNL A   1      42.541  24.257  26.540  1.00  0.00     0.198 A 
ATOM     81  C   UNL A   1      43.897  26.112  25.851  1.00  0.00     0.198 A 
ATOM     82  F   UNL A   1      43.875  28.110  27.093  1.00  0.00    -0.203 F 
ATOM     83  F   UNL A   1      42.144  22.987  26.383  1.00  0.00    -0.200 F 
ATOM     84  C   UNL A   1      43.465  24.808  25.665  1.00  0.00     0.200 A 
ATOM     85  F   UNL A   1      44.775  26.656  24.998  1.00  0.00    -0.200 F 
ATOM     86  F   UNL A   1      43.946  24.079  24.648  1.00  0.00    -0.200 F 
ENDBRANCH  52  76
BRANCH  64  87
ATOM     87  C   UNL A   1      44.863  27.420  34.286  1.00  0.00     0.064 A 
ATOM     88  C   UNL A   1      46.090  28.101  34.310  1.00  0.00     0.173 A 
ATOM     89  C   UNL A   1      44.761  26.229  35.023  1.00  0.00     0.173 A 
ATOM     90  F   UNL A   1      46.247  29.236  33.613  1.00  0.00    -0.203 F 
ATOM     91  C   UNL A   1      47.177  27.591  35.016  1.00  0.00     0.198 A 
ATOM     92  C   UNL A   1      45.838  25.746  35.761  1.00  0.00     0.198 A 
ATOM     93  F   UNL A   1      43.608  25.542  35.044  1.00  0.00    -0.203 F 
ATOM     94  F   UNL A   1      48.356  28.228  34.975  1.00  0.00    -0.200 F 
ATOM     95  C   UNL A   1      47.048  26.420  35.748  1.00  0.00     0.200 A 
ATOM     96  F   UNL A   1      45.703  24.626  36.484  1.00  0.00    -0.200 F 
ATOM     97  F   UNL A   1      48.093  25.939  36.435  1.00  0.00    -0.200 F 
ENDBRANCH  64  87
ENDBRANCH  38  39
ENDBRANCH  30  33
ENDBRANCH  28  29
ENDBRANCH  27  28
ENDBRANCH   1  27
TORSDOF 15
ENDMDL
MODEL 2
REMARK VINA RESULT:     -12.6      2.151      7.740
REMARK SMILES C[C@@H](Sc1nc(-c2ccc3c(c2)OCO3)ccc1C#N)C(=O)NCCCCNC(=O)c1ccc(-c2c3nc(c(-c4c(F)c(F)c(F)c(F)c4F)c4ccc([nH]4)c(-c4c(F)c(F)c(F)c(F)c4F)c4nc(c(-c5c(F)c(F)c(F)c(F)c5F)c5ccc2[nH]5)C=C4)C=C3)cc1
REMARK SMILES IDX 25 1 24 2 23 3 21 4 22 5 2 7 1 8 3 9 4 10 5 11 18 12 6 13
REMARK SMILES IDX 17 14 16 15 19 16 20 17 7 18 8 19 12 20 9 21 11 22 10 23
REMARK SMILES IDX 13 24 15 25 14 26 26 27 27 28 28 29 29 30 30 32 31 33 32 34
REMARK SMILES IDX 93 35 33 36 92 37 34 38 35 39 36 40 86 41 37 42 91 43 85 44
REMARK SMILES IDX 87 45 38 46 90 47 84 48 83 49 39 51 71 52 51 53 70 54 52 55
REMARK SMILES IDX 55 56 69 57 88 58 53 59 54 60 68 62 89 63 56 64 40 65 41 66
REMARK SMILES IDX 49 67 42 68 43 69 47 70 50 71 44 72 45 73 48 74 46 75 72 76
REMARK SMILES IDX 73 77 81 78 74 79 75 80 79 81 82 82 76 83 77 84 80 85 78 86
REMARK SMILES IDX 57 87 58 88 66 89 59 90 60 91 64 92 67 93 61 94 62 95 65 96
REMARK SMILES IDX 63 97
REMARK H PARENT 23 6 28 31 87 50 55 61
REMARK Flexibility Score: inf
ROOT
ATOM      1  C   UNL A   1      31.622  30.442  26.494  1.00  0.00     0.023 C 
ENDROOT
BRANCH   1   2
ATOM      2  C   UNL A   1      33.008  29.867  26.235  1.00  0.00     0.116 C 
BRANCH   2   3
ATOM      3  N   UNL A   1      33.324  29.843  24.817  1.00  0.00    -0.355 N 
ATOM      4  C   UNL A   1      33.689  28.792  24.018  1.00  0.00     0.233 C 
ATOM      5  O   UNL A   1      33.892  29.028  22.823  1.00  0.00    -0.274 OA
ATOM      6  H   UNL A   1      33.268  30.714  24.362  1.00  0.00     0.163 HD
BRANCH   4   7
ATOM      7  C   UNL A   1      33.862  27.375  24.590  1.00  0.00     0.139 C 
ATOM      8  C   UNL A   1      33.543  27.385  26.082  1.00  0.00     0.030 C 
BRANCH   7   9
ATOM      9  S   UNL A   1      32.936  26.247  23.451  1.00  0.00    -0.092 SA
BRANCH   9  10
ATOM     10  C   UNL A   1      31.219  26.682  23.611  1.00  0.00     0.115 A 
ATOM     11  N   UNL A   1      30.854  27.928  23.227  1.00  0.00    -0.240 NA
ATOM     12  C   UNL A   1      30.287  25.716  23.999  1.00  0.00     0.084 A 
ATOM     13  C   UNL A   1      29.538  28.253  23.253  1.00  0.00     0.072 A 
ATOM     14  C   UNL A   1      28.935  26.058  23.999  1.00  0.00     0.024 A 
ATOM     15  C   UNL A   1      28.555  27.341  23.623  1.00  0.00     0.030 A 
BRANCH  12  16
ATOM     16  C   UNL A   1      30.663  24.386  24.381  1.00  0.00     0.102 C 
ATOM     17  N   UNL A   1      30.951  23.318  24.725  1.00  0.00    -0.192 NA
ENDBRANCH  12  16
BRANCH  13  18
ATOM     18  C   UNL A   1      29.196  29.632  22.889  1.00  0.00     0.004 A 
ATOM     19  C   UNL A   1      29.276  30.662  23.861  1.00  0.00     0.014 A 
ATOM     20  C   UNL A   1      28.755  29.957  21.593  1.00  0.00     0.061 A 
ATOM     21  C   UNL A   1      28.906  31.978  23.568  1.00  0.00     0.051 A 
ATOM     22  C   UNL A   1      28.382  31.262  21.335  1.00  0.00     0.166 A 
ATOM     23  C   UNL A   1      28.454  32.242  22.296  1.00  0.00     0.165 A 
ATOM     24  O   UNL A   1      27.898  31.734  20.154  1.00  0.00    -0.454 OA
ATOM     25  O   UNL A   1      28.028  33.451  21.842  1.00  0.00    -0.454 OA
ATOM     26  C   UNL A   1      27.645  33.114  20.494  1.00  0.00     0.468 C 
ENDBRANCH  13  18
ENDBRANCH   9  10
ENDBRANCH   7   9
ENDBRANCH   4   7
ENDBRANCH   2   3
ENDBRANCH   1   2
BRANCH   1  27
ATOM     27  C   UNL A   1      31.575  31.967  26.503  1.00  0.00     0.023 C 
BRANCH  27  28
ATOM     28  C   UNL A   1      32.664  32.631  27.338  1.00  0.00     0.116 C 
BRANCH  28  29
ATOM     29  N   UNL A   1      32.394  34.037  27.608  1.00  0.00    -0.352 N 
ATOM     30  C   UNL A   1      32.978  34.865  28.534  1.00  0.00     0.251 C 
ATOM     31  H   UNL A   1      31.695  34.448  27.050  1.00  0.00     0.163 HD
ATOM     32  O   UNL A   1      32.524  35.985  28.743  1.00  0.00    -0.269 OA
BRANCH  30  33
ATOM     33  C   UNL A   1      34.143  34.382  29.302  1.00  0.00     0.039 A 
ATOM     34  C   UNL A   1      33.930  33.749  30.527  1.00  0.00     0.014 A 
ATOM     35  C   UNL A   1      35.438  34.518  28.793  1.00  0.00     0.014 A 
ATOM     36  C   UNL A   1      35.010  33.189  31.209  1.00  0.00     0.010 A 
ATOM     37  C   UNL A   1      36.498  33.878  29.426  1.00  0.00     0.010 A 
ATOM     38  C   UNL A   1      36.296  33.209  30.643  1.00  0.00    -0.014 A 
BRANCH  38  39
ATOM     39  C   UNL A   1      37.438  32.533  31.309  1.00  0.00     0.031 A 
ATOM     40  C   UNL A   1      38.129  31.378  30.639  1.00  0.00     0.074 A 
ATOM     41  C   UNL A   1      37.820  32.925  32.540  1.00  0.00     0.049 A 
ATOM     42  N   UNL A   1      39.108  30.629  31.081  1.00  0.00    -0.248 NA
ATOM     43  C   UNL A   1      37.637  30.994  29.307  1.00  0.00     0.031 C 
ATOM     44  C   UNL A   1      37.199  34.002  33.314  1.00  0.00     0.029 A 
ATOM     45  N   UNL A   1      38.816  32.459  33.362  1.00  0.00    -0.354 N 
ATOM     46  C   UNL A   1      39.343  29.689  30.087  1.00  0.00     0.074 A 
ATOM     47  C   UNL A   1      38.361  29.916  29.050  1.00  0.00     0.031 C 
ATOM     48  C   UNL A   1      37.846  34.132  34.483  1.00  0.00     0.029 A 
ATOM     49  C   UNL A   1      38.892  33.117  34.565  1.00  0.00     0.049 A 
ATOM     50  H   UNL A   1      39.419  31.721  33.114  1.00  0.00     0.167 HD
ATOM     51  C   UNL A   1      40.309  28.741  30.030  1.00  0.00     0.037 A 
ATOM     52  C   UNL A   1      39.702  32.918  35.622  1.00  0.00     0.037 A 
ATOM     53  C   UNL A   1      41.286  28.521  31.065  1.00  0.00     0.049 A 
ATOM     54  C   UNL A   1      40.741  31.829  35.551  1.00  0.00     0.074 A 
ATOM     55  C   UNL A   1      42.332  27.615  31.085  1.00  0.00     0.029 A 
ATOM     56  N   UNL A   1      41.330  29.207  32.270  1.00  0.00    -0.354 N 
ATOM     57  N   UNL A   1      41.002  30.993  34.575  1.00  0.00    -0.248 NA
ATOM     58  C   UNL A   1      41.603  31.660  36.728  1.00  0.00     0.031 C 
ATOM     59  C   UNL A   1      42.963  27.703  32.329  1.00  0.00     0.029 A 
ATOM     60  C   UNL A   1      42.364  28.720  33.055  1.00  0.00     0.049 A 
ATOM     61  H   UNL A   1      40.716  29.932  32.530  1.00  0.00     0.167 HD
ATOM     62  C   UNL A   1      42.075  30.225  35.005  1.00  0.00     0.074 A 
ATOM     63  C   UNL A   1      42.429  30.705  36.324  1.00  0.00     0.031 C 
ATOM     64  C   UNL A   1      42.711  29.211  34.365  1.00  0.00     0.037 A 
BRANCH  51  65
ATOM     65  C   UNL A   1      40.349  27.862  28.811  1.00  0.00     0.064 A 
ATOM     66  C   UNL A   1      41.114  28.199  27.682  1.00  0.00     0.173 A 
ATOM     67  C   UNL A   1      39.645  26.649  28.783  1.00  0.00     0.173 A 
ATOM     68  F   UNL A   1      41.801  29.352  27.650  1.00  0.00    -0.203 F 
ATOM     69  C   UNL A   1      41.139  27.376  26.559  1.00  0.00     0.198 A 
ATOM     70  C   UNL A   1      39.705  25.809  27.673  1.00  0.00     0.198 A 
ATOM     71  F   UNL A   1      38.905  26.271  29.836  1.00  0.00    -0.203 F 
ATOM     72  F   UNL A   1      41.827  27.750  25.472  1.00  0.00    -0.200 F 
ATOM     73  C   UNL A   1      40.442  26.178  26.560  1.00  0.00     0.200 A 
ATOM     74  F   UNL A   1      39.046  24.642  27.683  1.00  0.00    -0.200 F 
ATOM     75  F   UNL A   1      40.475  25.381  25.482  1.00  0.00    -0.200 F 
ENDBRANCH  51  65
BRANCH  52  76
ATOM     76  C   UNL A   1      39.571  33.769  36.835  1.00  0.00     0.064 A 
ATOM     77  C   UNL A   1      38.762  33.376  37.912  1.00  0.00     0.173 A 
ATOM     78  C   UNL A   1      40.240  34.997  36.939  1.00  0.00     0.173 A 
ATOM     79  F   UNL A   1      38.087  32.219  37.855  1.00  0.00    -0.203 F 
ATOM     80  C   UNL A   1      38.603  34.194  39.029  1.00  0.00     0.198 A 
ATOM     81  C   UNL A   1      40.110  35.796  38.073  1.00  0.00     0.198 A 
ATOM     82  F   UNL A   1      41.032  35.418  35.941  1.00  0.00    -0.203 F 
ATOM     83  F   UNL A   1      37.778  33.821  40.016  1.00  0.00    -0.200 F 
ATOM     84  C   UNL A   1      39.282  35.400  39.112  1.00  0.00     0.200 A 
ATOM     85  F   UNL A   1      40.784  36.951  38.156  1.00  0.00    -0.200 F 
ATOM     86  F   UNL A   1      39.133  36.183  40.188  1.00  0.00    -0.200 F 
ENDBRANCH  52  76
BRANCH  64  87
ATOM     87  C   UNL A   1      43.888  28.584  35.059  1.00  0.00     0.064 A 
ATOM     88  C   UNL A   1      43.754  27.439  35.860  1.00  0.00     0.173 A 
ATOM     89  C   UNL A   1      45.176  29.115  34.886  1.00  0.00     0.173 A 
ATOM     90  F   UNL A   1      42.545  26.898  36.071  1.00  0.00    -0.203 F 
ATOM     91  C   UNL A   1      44.861  26.872  36.489  1.00  0.00     0.198 A 
ATOM     92  C   UNL A   1      46.284  28.521  35.483  1.00  0.00     0.198 A 
ATOM     93  F   UNL A   1      45.363  30.202  34.123  1.00  0.00    -0.203 F 
ATOM     94  F   UNL A   1      44.700  25.816  37.299  1.00  0.00    -0.200 F 
ATOM     95  C   UNL A   1      46.125  27.407  36.293  1.00  0.00     0.200 A 
ATOM     96  F   UNL A   1      47.507  29.027  35.274  1.00  0.00    -0.200 F 
ATOM     97  F   UNL A   1      47.188  26.854  36.890  1.00  0.00    -0.200 F 
ENDBRANCH  64  87
ENDBRANCH  38  39
ENDBRANCH  30  33
ENDBRANCH  28  29
ENDBRANCH  27  28
ENDBRANCH   1  27
TORSDOF 15
ENDMDL
MODEL 3
REMARK VINA RESULT:     -12.5      2.776      3.916
REMARK SMILES C[C@@H](Sc1nc(-c2ccc3c(c2)OCO3)ccc1C#N)C(=O)NCCCCNC(=O)c1ccc(-c2c3nc(c(-c4c(F)c(F)c(F)c(F)c4F)c4ccc([nH]4)c(-c4c(F)c(F)c(F)c(F)c4F)c4nc(c(-c5c(F)c(F)c(F)c(F)c5F)c5ccc2[nH]5)C=C4)C=C3)cc1
REMARK SMILES IDX 25 1 24 2 23 3 21 4 22 5 2 7 1 8 3 9 4 10 5 11 18 12 6 13
REMARK SMILES IDX 17 14 16 15 19 16 20 17 7 18 8 19 12 20 9 21 11 22 10 23
REMARK SMILES IDX 13 24 15 25 14 26 26 27 27 28 28 29 29 30 30 32 31 33 32 34
REMARK SMILES IDX 93 35 33 36 92 37 34 38 35 39 36 40 86 41 37 42 91 43 85 44
REMARK SMILES IDX 87 45 38 46 90 47 84 48 83 49 39 51 71 52 51 53 70 54 52 55
REMARK SMILES IDX 55 56 69 57 88 58 53 59 54 60 68 62 89 63 56 64 40 65 41 66
REMARK SMILES IDX 49 67 42 68 43 69 47 70 50 71 44 72 45 73 48 74 46 75 72 76
REMARK SMILES IDX 73 77 81 78 74 79 75 80 79 81 82 82 76 83 77 84 80 85 78 86
REMARK SMILES IDX 57 87 58 88 66 89 59 90 60 91 64 92 67 93 61 94 62 95 65 96
REMARK SMILES IDX 63 97
REMARK H PARENT 23 6 28 31 87 50 55 61
REMARK Flexibility Score: inf
ROOT
ATOM      1  C   UNL A   1      31.848  27.364  26.229  1.00  0.00     0.023 C 
ENDROOT
BRANCH   1   2
ATOM      2  C   UNL A   1      32.427  25.980  26.492  1.00  0.00     0.116 C 
BRANCH   2   3
ATOM      3  N   UNL A   1      31.408  25.046  26.937  1.00  0.00    -0.355 N 
ATOM      4  C   UNL A   1      31.200  23.740  26.580  1.00  0.00     0.233 C 
ATOM      5  O   UNL A   1      30.263  23.143  27.119  1.00  0.00    -0.274 OA
ATOM      6  H   UNL A   1      30.770  25.406  27.595  1.00  0.00     0.163 HD
BRANCH   4   7
ATOM      7  C   UNL A   1      32.087  23.047  25.533  1.00  0.00     0.139 C 
ATOM      8  C   UNL A   1      32.520  21.680  26.056  1.00  0.00     0.030 C 
BRANCH   7   9
ATOM      9  S   UNL A   1      31.180  23.178  23.925  1.00  0.00    -0.092 SA
BRANCH   9  10
ATOM     10  C   UNL A   1      31.637  24.748  23.225  1.00  0.00     0.115 A 
ATOM     11  N   UNL A   1      30.719  25.742  23.274  1.00  0.00    -0.240 NA
ATOM     12  C   UNL A   1      32.941  24.956  22.767  1.00  0.00     0.084 A 
ATOM     13  C   UNL A   1      31.074  26.973  22.831  1.00  0.00     0.072 A 
ATOM     14  C   UNL A   1      33.298  26.234  22.336  1.00  0.00     0.024 A 
ATOM     15  C   UNL A   1      32.355  27.254  22.366  1.00  0.00     0.030 A 
BRANCH  12  16
ATOM     16  C   UNL A   1      33.927  23.916  22.739  1.00  0.00     0.102 C 
ATOM     17  N   UNL A   1      34.749  23.100  22.733  1.00  0.00    -0.192 NA
ENDBRANCH  12  16
BRANCH  13  18
ATOM     18  C   UNL A   1      30.028  28.002  22.843  1.00  0.00     0.004 A 
ATOM     19  C   UNL A   1      28.719  27.675  23.281  1.00  0.00     0.014 A 
ATOM     20  C   UNL A   1      30.288  29.310  22.398  1.00  0.00     0.061 A 
ATOM     21  C   UNL A   1      27.683  28.614  23.255  1.00  0.00     0.051 A 
ATOM     22  C   UNL A   1      29.241  30.213  22.370  1.00  0.00     0.166 A 
ATOM     23  C   UNL A   1      27.976  29.872  22.785  1.00  0.00     0.165 A 
ATOM     24  O   UNL A   1      29.311  31.500  21.933  1.00  0.00    -0.454 OA
ATOM     25  O   UNL A   1      27.093  30.898  22.664  1.00  0.00    -0.454 OA
ATOM     26  C   UNL A   1      27.937  31.916  22.091  1.00  0.00     0.468 C 
ENDBRANCH  13  18
ENDBRANCH   9  10
ENDBRANCH   7   9
ENDBRANCH   4   7
ENDBRANCH   2   3
ENDBRANCH   1   2
BRANCH   1  27
ATOM     27  C   UNL A   1      32.902  28.446  26.012  1.00  0.00     0.023 C 
BRANCH  27  28
ATOM     28  C   UNL A   1      33.803  28.705  27.213  1.00  0.00     0.116 C 
BRANCH  28  29
ATOM     29  N   UNL A   1      33.754  30.087  27.671  1.00  0.00    -0.352 N 
ATOM     30  C   UNL A   1      34.705  30.803  28.357  1.00  0.00     0.251 C 
ATOM     31  H   UNL A   1      32.925  30.574  27.461  1.00  0.00     0.163 HD
ATOM     32  O   UNL A   1      34.444  31.912  28.809  1.00  0.00    -0.269 OA
BRANCH  30  33
ATOM     33  C   UNL A   1      36.039  30.209  28.573  1.00  0.00     0.039 A 
ATOM     34  C   UNL A   1      37.003  30.329  27.570  1.00  0.00     0.014 A 
ATOM     35  C   UNL A   1      36.349  29.570  29.777  1.00  0.00     0.014 A 
ATOM     36  C   UNL A   1      38.300  29.872  27.805  1.00  0.00     0.010 A 
ATOM     37  C   UNL A   1      37.662  29.202  30.044  1.00  0.00     0.010 A 
ATOM     38  C   UNL A   1      38.652  29.345  29.059  1.00  0.00    -0.014 A 
BRANCH  38  39
ATOM     39  C   UNL A   1      40.050  28.943  29.358  1.00  0.00     0.031 A 
ATOM     40  C   UNL A   1      40.951  29.861  30.136  1.00  0.00     0.074 A 
ATOM     41  C   UNL A   1      40.525  27.775  28.883  1.00  0.00     0.049 A 
ATOM     42  N   UNL A   1      42.213  29.710  30.453  1.00  0.00    -0.248 NA
ATOM     43  C   UNL A   1      40.366  31.129  30.599  1.00  0.00     0.031 C 
ATOM     44  C   UNL A   1      39.763  26.820  28.075  1.00  0.00     0.029 A 
ATOM     45  N   UNL A   1      41.763  27.195  29.002  1.00  0.00    -0.354 N 
ATOM     46  C   UNL A   1      42.569  30.861  31.142  1.00  0.00     0.074 A 
ATOM     47  C   UNL A   1      41.414  31.730  31.140  1.00  0.00     0.031 C 
ATOM     48  C   UNL A   1      40.540  25.762  27.798  1.00  0.00     0.029 A 
ATOM     49  C   UNL A   1      41.868  25.984  28.361  1.00  0.00     0.049 A 
ATOM     50  H   UNL A   1      42.506  27.606  29.499  1.00  0.00     0.167 HD
ATOM     51  C   UNL A   1      43.745  31.154  31.748  1.00  0.00     0.037 A 
ATOM     52  C   UNL A   1      42.920  25.154  28.228  1.00  0.00     0.037 A 
ATOM     53  C   UNL A   1      44.892  30.283  31.750  1.00  0.00     0.049 A 
ATOM     54  C   UNL A   1      44.229  25.522  28.876  1.00  0.00     0.074 A 
ATOM     55  C   UNL A   1      46.114  30.469  32.371  1.00  0.00     0.029 A 
ATOM     56  N   UNL A   1      44.961  29.066  31.087  1.00  0.00    -0.354 N 
ATOM     57  N   UNL A   1      44.533  26.581  29.589  1.00  0.00    -0.248 NA
ATOM     58  C   UNL A   1      45.341  24.577  28.706  1.00  0.00     0.031 C 
ATOM     59  C   UNL A   1      46.947  29.400  32.025  1.00  0.00     0.029 A 
ATOM     60  C   UNL A   1      46.218  28.506  31.257  1.00  0.00     0.049 A 
ATOM     61  H   UNL A   1      44.227  28.660  30.572  1.00  0.00     0.167 HD
ATOM     62  C   UNL A   1      45.855  26.412  29.979  1.00  0.00     0.074 A 
ATOM     63  C   UNL A   1      46.290  25.142  29.438  1.00  0.00     0.031 C 
ATOM     64  C   UNL A   1      46.639  27.237  30.718  1.00  0.00     0.037 A 
BRANCH  51  65
ATOM     65  C   UNL A   1      43.852  32.478  32.454  1.00  0.00     0.064 A 
ATOM     66  C   UNL A   1      44.303  33.633  31.794  1.00  0.00     0.173 A 
ATOM     67  C   UNL A   1      43.465  32.603  33.796  1.00  0.00     0.173 A 
ATOM     68  F   UNL A   1      44.695  33.569  30.512  1.00  0.00    -0.203 F 
ATOM     69  C   UNL A   1      44.400  34.850  32.462  1.00  0.00     0.198 A 
ATOM     70  C   UNL A   1      43.525  33.832  34.450  1.00  0.00     0.198 A 
ATOM     71  F   UNL A   1      43.018  31.536  34.475  1.00  0.00    -0.203 F 
ATOM     72  F   UNL A   1      44.892  35.923  31.828  1.00  0.00    -0.200 F 
ATOM     73  C   UNL A   1      44.003  34.951  33.786  1.00  0.00     0.200 A 
ATOM     74  F   UNL A   1      43.122  33.931  35.724  1.00  0.00    -0.200 F 
ATOM     75  F   UNL A   1      44.086  36.126  34.425  1.00  0.00    -0.200 F 
ENDBRANCH  51  65
BRANCH  52  76
ATOM     76  C   UNL A   1      42.781  23.890  27.456  1.00  0.00     0.064 A 
ATOM     77  C   UNL A   1      42.341  22.709  28.071  1.00  0.00     0.173 A 
ATOM     78  C   UNL A   1      43.098  23.832  26.090  1.00  0.00     0.173 A 
ATOM     79  F   UNL A   1      42.044  22.706  29.379  1.00  0.00    -0.203 F 
ATOM     80  C   UNL A   1      42.254  21.514  27.359  1.00  0.00     0.198 A 
ATOM     81  C   UNL A   1      42.974  22.645  25.371  1.00  0.00     0.198 A 
ATOM     82  F   UNL A   1      43.517  24.933  25.450  1.00  0.00    -0.203 F 
ATOM     83  F   UNL A   1      41.888  20.389  27.987  1.00  0.00    -0.200 F 
ATOM     84  C   UNL A   1      42.564  21.485  26.008  1.00  0.00     0.200 A 
ATOM     85  F   UNL A   1      43.255  22.627  24.061  1.00  0.00    -0.200 F 
ATOM     86  F   UNL A   1      42.475  20.337  25.323  1.00  0.00    -0.200 F 
ENDBRANCH  52  76
BRANCH  64  87
ATOM     87  C   UNL A   1      48.034  26.770  31.031  1.00  0.00     0.064 A 
ATOM     88  C   UNL A   1      48.314  25.952  32.135  1.00  0.00     0.173 A 
ATOM     89  C   UNL A   1      49.100  27.117  30.186  1.00  0.00     0.173 A 
ATOM     90  F   UNL A   1      47.334  25.601  32.983  1.00  0.00    -0.203 F 
ATOM     91  C   UNL A   1      49.614  25.528  32.401  1.00  0.00     0.198 A 
ATOM     92  C   UNL A   1      50.391  26.657  30.432  1.00  0.00     0.198 A 
ATOM     93  F   UNL A   1      48.888  27.889  29.109  1.00  0.00    -0.203 F 
ATOM     94  F   UNL A   1      49.866  24.797  33.496  1.00  0.00    -0.200 F 
ATOM     95  C   UNL A   1      50.649  25.872  31.545  1.00  0.00     0.200 A 
ATOM     96  F   UNL A   1      51.385  26.974  29.591  1.00  0.00    -0.200 F 
ATOM     97  F   UNL A   1      51.896  25.454  31.797  1.00  0.00    -0.200 F 
ENDBRANCH  64  87
ENDBRANCH  38  39
ENDBRANCH  30  33
ENDBRANCH  28  29
ENDBRANCH  27  28
ENDBRANCH   1  27
TORSDOF 15
ENDMDL
