MODEL 1
REMARK VINA RESULT:     -11.3      0.000      0.000
REMARK SMILES C/C=C/C=C/C(=O)N[C@@H](C)CC(=O)NCCCCNC(=O)c1ccc(-c2c3nc(c(-c4c(F)c(F)c(F)c(F)c4F)c4ccc([nH]4)c(-c4c(F)c(F)c(F)c(F)c4F)c4nc(c(-c5c(F)c(F)c(F)c(F)c5F)c5ccc2[nH]5)C=C4)C=C3)cc1
REMARK SMILES IDX 15 1 14 2 12 3 13 4 11 6 9 7 10 8 8 9 6 10 7 11 5 13 4 14
REMARK SMILES IDX 3 15 1 16 2 17 16 18 17 19 18 20 19 21 20 22 21 24 22 25
REMARK SMILES IDX 23 26 84 27 24 28 83 29 25 30 26 31 27 32 77 33 28 34 82 35
REMARK SMILES IDX 76 36 78 37 29 38 81 39 75 40 74 41 30 43 62 44 42 45 61 46
REMARK SMILES IDX 43 47 46 48 60 49 79 50 44 51 45 52 59 54 80 55 47 56 31 57
REMARK SMILES IDX 32 58 40 59 33 60 34 61 38 62 41 63 35 64 36 65 39 66 37 67
REMARK SMILES IDX 63 68 64 69 72 70 65 71 66 72 70 73 73 74 67 75 68 76 71 77
REMARK SMILES IDX 69 78 48 79 49 80 57 81 50 82 51 83 55 84 58 85 52 86 53 87
REMARK SMILES IDX 56 88 54 89
REMARK H PARENT 14 5 8 12 19 23 78 42 46 53
REMARK Flexibility Score: inf
ROOT
ATOM      1  C   UNL A   1      33.240  30.123  26.544  1.00  0.00     0.116 C 
ENDROOT
BRANCH   1   2
ATOM      2  N   UNL A   1      33.607  29.718  25.202  1.00  0.00    -0.356 N 
ATOM      3  C   UNL A   1      33.837  28.462  24.729  1.00  0.00     0.222 C 
ATOM      4  O   UNL A   1      34.317  28.333  23.602  1.00  0.00    -0.275 OA
ATOM      5  H   UNL A   1      33.704  30.445  24.547  1.00  0.00     0.163 HD
BRANCH   3   6
ATOM      6  C   UNL A   1      33.480  27.252  25.568  1.00  0.00     0.124 C 
BRANCH   6   7
ATOM      7  C   UNL A   1      32.198  26.567  25.081  1.00  0.00     0.088 C 
ATOM      8  C   UNL A   1      31.981  25.269  25.861  1.00  0.00     0.031 C 
BRANCH   7   9
ATOM      9  N   UNL A   1      32.241  26.208  23.659  1.00  0.00    -0.350 N 
ATOM     10  C   UNL A   1      31.374  26.437  22.634  1.00  0.00     0.244 C 
ATOM     11  O   UNL A   1      31.635  25.989  21.519  1.00  0.00    -0.270 OA
ATOM     12  H   UNL A   1      33.047  25.707  23.396  1.00  0.00     0.164 HD
BRANCH  10  13
ATOM     13  C   UNL A   1      30.226  27.355  22.789  1.00  0.00     0.071 C 
ATOM     14  C   UNL A   1      30.274  28.678  22.592  1.00  0.00     0.005 C 
BRANCH  14  15
ATOM     15  C   UNL A   1      29.112  29.527  22.715  1.00  0.00    -0.004 C 
ATOM     16  C   UNL A   1      27.945  31.540  23.637  1.00  0.00     0.035 C 
ATOM     17  C   UNL A   1      29.111  30.619  23.492  1.00  0.00    -0.030 C 
ENDBRANCH  14  15
ENDBRANCH  10  13
ENDBRANCH   7   9
ENDBRANCH   6   7
ENDBRANCH   3   6
ENDBRANCH   1   2
BRANCH   1  18
ATOM     18  C   UNL A   1      31.771  30.524  26.599  1.00  0.00     0.023 C 
BRANCH  18  19
ATOM     19  C   UNL A   1      31.505  32.006  26.807  1.00  0.00     0.023 C 
BRANCH  19  20
ATOM     20  C   UNL A   1      32.694  32.801  27.313  1.00  0.00     0.116 C 
BRANCH  20  21
ATOM     21  N   UNL A   1      32.384  34.184  27.646  1.00  0.00    -0.352 N 
ATOM     22  C   UNL A   1      32.998  34.995  28.571  1.00  0.00     0.251 C 
ATOM     23  H   UNL A   1      31.640  34.589  27.145  1.00  0.00     0.163 HD
ATOM     24  O   UNL A   1      32.583  36.127  28.793  1.00  0.00    -0.269 OA
BRANCH  22  25
ATOM     25  C   UNL A   1      34.139  34.458  29.337  1.00  0.00     0.039 A 
ATOM     26  C   UNL A   1      33.886  33.659  30.453  1.00  0.00     0.014 A 
ATOM     27  C   UNL A   1      35.447  34.665  28.890  1.00  0.00     0.014 A 
ATOM     28  C   UNL A   1      34.946  32.998  31.075  1.00  0.00     0.010 A 
ATOM     29  C   UNL A   1      36.482  33.927  29.446  1.00  0.00     0.010 A 
ATOM     30  C   UNL A   1      36.244  33.091  30.547  1.00  0.00    -0.014 A 
BRANCH  30  31
ATOM     31  C   UNL A   1      37.377  32.337  31.138  1.00  0.00     0.031 A 
ATOM     32  C   UNL A   1      37.870  32.693  32.512  1.00  0.00     0.074 A 
ATOM     33  C   UNL A   1      38.011  31.397  30.410  1.00  0.00     0.049 A 
ATOM     34  N   UNL A   1      38.903  32.232  33.169  1.00  0.00    -0.248 NA
ATOM     35  C   UNL A   1      37.123  33.740  33.229  1.00  0.00     0.031 C 
ATOM     36  C   UNL A   1      37.670  31.008  29.040  1.00  0.00     0.029 A 
ATOM     37  N   UNL A   1      39.087  30.602  30.720  1.00  0.00    -0.354 N 
ATOM     38  C   UNL A   1      38.944  32.951  34.355  1.00  0.00     0.074 A 
ATOM     39  C   UNL A   1      37.873  33.920  34.305  1.00  0.00     0.031 C 
ATOM     40  C   UNL A   1      38.498  30.031  28.640  1.00  0.00     0.029 A 
ATOM     41  C   UNL A   1      39.450  29.747  29.708  1.00  0.00     0.049 A 
ATOM     42  H   UNL A   1      39.553  30.642  31.586  1.00  0.00     0.167 HD
ATOM     43  C   UNL A   1      39.783  32.796  35.406  1.00  0.00     0.037 A 
ATOM     44  C   UNL A   1      40.443  28.839  29.654  1.00  0.00     0.037 A 
ATOM     45  C   UNL A   1      40.813  31.796  35.474  1.00  0.00     0.049 A 
ATOM     46  C   UNL A   1      41.337  28.659  30.852  1.00  0.00     0.074 A 
ATOM     47  C   UNL A   1      41.668  31.504  36.522  1.00  0.00     0.029 A 
ATOM     48  N   UNL A   1      41.122  30.915  34.447  1.00  0.00    -0.354 N 
ATOM     49  N   UNL A   1      41.323  29.297  31.997  1.00  0.00    -0.248 NA
ATOM     50  C   UNL A   1      42.379  27.629  30.751  1.00  0.00     0.031 C 
ATOM     51  C   UNL A   1      42.515  30.468  36.118  1.00  0.00     0.029 A 
ATOM     52  C   UNL A   1      42.161  30.087  34.834  1.00  0.00     0.049 A 
ATOM     53  H   UNL A   1      40.668  30.884  33.573  1.00  0.00     0.167 HD
ATOM     54  C   UNL A   1      42.331  28.729  32.762  1.00  0.00     0.074 A 
ATOM     55  C   UNL A   1      42.929  27.685  31.956  1.00  0.00     0.031 C 
ATOM     56  C   UNL A   1      42.731  29.045  34.019  1.00  0.00     0.037 A 
BRANCH  43  57
ATOM     57  C   UNL A   1      39.604  33.720  36.574  1.00  0.00     0.064 A 
ATOM     58  C   UNL A   1      40.214  34.984  36.611  1.00  0.00     0.173 A 
ATOM     59  C   UNL A   1      38.798  33.349  37.661  1.00  0.00     0.173 A 
ATOM     60  F   UNL A   1      41.007  35.381  35.605  1.00  0.00    -0.203 F 
ATOM     61  C   UNL A   1      40.051  35.827  37.707  1.00  0.00     0.198 A 
ATOM     62  C   UNL A   1      38.611  34.208  38.740  1.00  0.00     0.198 A 
ATOM     63  F   UNL A   1      38.190  32.154  37.674  1.00  0.00    -0.203 F 
ATOM     64  F   UNL A   1      40.688  37.006  37.745  1.00  0.00    -0.200 F 
ATOM     65  C   UNL A   1      39.244  35.442  38.768  1.00  0.00     0.200 A 
ATOM     66  F   UNL A   1      37.824  33.838  39.760  1.00  0.00    -0.200 F 
ATOM     67  F   UNL A   1      39.084  36.256  39.819  1.00  0.00    -0.200 F 
ENDBRANCH  43  57
BRANCH  44  68
ATOM     68  C   UNL A   1      40.619  28.001  28.440  1.00  0.00     0.064 A 
ATOM     69  C   UNL A   1      41.389  28.457  27.360  1.00  0.00     0.173 A 
ATOM     70  C   UNL A   1      40.023  26.737  28.329  1.00  0.00     0.173 A 
ATOM     71  F   UNL A   1      41.961  29.669  27.412  1.00  0.00    -0.203 F 
ATOM     72  C   UNL A   1      41.537  27.691  26.206  1.00  0.00     0.198 A 
ATOM     73  C   UNL A   1      40.194  25.960  27.185  1.00  0.00     0.198 A 
ATOM     74  F   UNL A   1      39.283  26.252  29.336  1.00  0.00    -0.203 F 
ATOM     75  F   UNL A   1      42.241  28.171  25.171  1.00  0.00    -0.200 F 
ATOM     76  C   UNL A   1      40.943  26.440  26.122  1.00  0.00     0.200 A 
ATOM     77  F   UNL A   1      39.629  24.747  27.111  1.00  0.00    -0.200 F 
ATOM     78  F   UNL A   1      41.088  25.703  25.013  1.00  0.00    -0.200 F 
ENDBRANCH  44  68
BRANCH  56  79
ATOM     79  C   UNL A   1      43.839  28.229  34.611  1.00  0.00     0.064 A 
ATOM     80  C   UNL A   1      43.586  27.022  35.281  1.00  0.00     0.173 A 
ATOM     81  C   UNL A   1      45.174  28.635  34.467  1.00  0.00     0.173 A 
ATOM     82  F   UNL A   1      42.325  26.600  35.456  1.00  0.00    -0.203 F 
ATOM     83  C   UNL A   1      44.628  26.264  35.805  1.00  0.00     0.198 A 
ATOM     84  C   UNL A   1      46.216  27.861  34.968  1.00  0.00     0.198 A 
ATOM     85  F   UNL A   1      45.468  29.778  33.829  1.00  0.00    -0.203 F 
ATOM     86  F   UNL A   1      44.362  25.137  36.478  1.00  0.00    -0.200 F 
ATOM     87  C   UNL A   1      45.942  26.680  35.642  1.00  0.00     0.200 A 
ATOM     88  F   UNL A   1      47.484  28.257  34.800  1.00  0.00    -0.200 F 
ATOM     89  F   UNL A   1      46.945  25.944  36.141  1.00  0.00    -0.200 F 
ENDBRANCH  56  79
ENDBRANCH  30  31
ENDBRANCH  22  25
ENDBRANCH  20  21
ENDBRANCH  19  20
ENDBRANCH  18  19
ENDBRANCH   1  18
TORSDOF 15
ENDMDL
MODEL 2
REMARK VINA RESULT:     -11.2      0.839      1.878
REMARK SMILES C/C=C/C=C/C(=O)N[C@@H](C)CC(=O)NCCCCNC(=O)c1ccc(-c2c3nc(c(-c4c(F)c(F)c(F)c(F)c4F)c4ccc([nH]4)c(-c4c(F)c(F)c(F)c(F)c4F)c4nc(c(-c5c(F)c(F)c(F)c(F)c5F)c5ccc2[nH]5)C=C4)C=C3)cc1
REMARK SMILES IDX 15 1 14 2 12 3 13 4 11 6 9 7 10 8 8 9 6 10 7 11 5 13 4 14
REMARK SMILES IDX 3 15 1 16 2 17 16 18 17 19 18 20 19 21 20 22 21 24 22 25
REMARK SMILES IDX 23 26 84 27 24 28 83 29 25 30 26 31 27 32 77 33 28 34 82 35
REMARK SMILES IDX 76 36 78 37 29 38 81 39 75 40 74 41 30 43 62 44 42 45 61 46
REMARK SMILES IDX 43 47 46 48 60 49 79 50 44 51 45 52 59 54 80 55 47 56 31 57
REMARK SMILES IDX 32 58 40 59 33 60 34 61 38 62 41 63 35 64 36 65 39 66 37 67
REMARK SMILES IDX 63 68 64 69 72 70 65 71 66 72 70 73 73 74 67 75 68 76 71 77
REMARK SMILES IDX 69 78 48 79 49 80 57 81 50 82 51 83 55 84 58 85 52 86 53 87
REMARK SMILES IDX 56 88 54 89
REMARK H PARENT 14 5 8 12 19 23 78 42 46 53
REMARK Flexibility Score: inf
ROOT
ATOM      1  C   UNL A   1      32.516  29.653  27.229  1.00  0.00     0.116 C 
ENDROOT
BRANCH   1   2
ATOM      2  N   UNL A   1      31.736  28.439  27.352  1.00  0.00    -0.356 N 
ATOM      3  C   UNL A   1      31.929  27.241  26.735  1.00  0.00     0.222 C 
ATOM      4  O   UNL A   1      31.052  26.380  26.828  1.00  0.00    -0.275 OA
ATOM      5  H   UNL A   1      30.964  28.487  27.961  1.00  0.00     0.163 HD
BRANCH   3   6
ATOM      6  C   UNL A   1      33.212  26.970  25.977  1.00  0.00     0.124 C 
BRANCH   6   7
ATOM      7  C   UNL A   1      33.117  25.710  25.110  1.00  0.00     0.088 C 
ATOM      8  C   UNL A   1      33.958  24.593  25.732  1.00  0.00     0.031 C 
BRANCH   7   9
ATOM      9  N   UNL A   1      33.619  25.911  23.745  1.00  0.00    -0.350 N 
ATOM     10  C   UNL A   1      32.992  26.252  22.585  1.00  0.00     0.244 C 
ATOM     11  O   UNL A   1      33.651  26.321  21.548  1.00  0.00    -0.270 OA
ATOM     12  H   UNL A   1      34.589  25.773  23.650  1.00  0.00     0.164 HD
BRANCH  10  13
ATOM     13  C   UNL A   1      31.588  26.711  22.575  1.00  0.00     0.071 C 
ATOM     14  C   UNL A   1      31.191  27.963  22.834  1.00  0.00     0.005 C 
BRANCH  14  15
ATOM     15  C   UNL A   1      29.807  28.370  22.770  1.00  0.00    -0.004 C 
ATOM     16  C   UNL A   1      28.005  30.089  23.019  1.00  0.00     0.035 C 
ATOM     17  C   UNL A   1      29.418  29.612  23.089  1.00  0.00    -0.030 C 
ENDBRANCH  14  15
ENDBRANCH  10  13
ENDBRANCH   7   9
ENDBRANCH   6   7
ENDBRANCH   3   6
ENDBRANCH   1   2
BRANCH   1  18
ATOM     18  C   UNL A   1      31.835  30.634  26.282  1.00  0.00     0.023 C 
BRANCH  18  19
ATOM     19  C   UNL A   1      31.505  31.995  26.876  1.00  0.00     0.023 C 
BRANCH  19  20
ATOM     20  C   UNL A   1      32.712  32.829  27.263  1.00  0.00     0.116 C 
BRANCH  20  21
ATOM     21  N   UNL A   1      32.390  34.201  27.628  1.00  0.00    -0.352 N 
ATOM     22  C   UNL A   1      32.996  34.996  28.572  1.00  0.00     0.251 C 
ATOM     23  H   UNL A   1      31.644  34.612  27.135  1.00  0.00     0.163 HD
ATOM     24  O   UNL A   1      32.573  36.119  28.820  1.00  0.00    -0.269 OA
BRANCH  22  25
ATOM     25  C   UNL A   1      34.141  34.449  29.328  1.00  0.00     0.039 A 
ATOM     26  C   UNL A   1      33.894  33.719  30.492  1.00  0.00     0.014 A 
ATOM     27  C   UNL A   1      35.439  34.576  28.828  1.00  0.00     0.014 A 
ATOM     28  C   UNL A   1      34.947  33.046  31.113  1.00  0.00     0.010 A 
ATOM     29  C   UNL A   1      36.462  33.824  29.388  1.00  0.00     0.010 A 
ATOM     30  C   UNL A   1      36.228  33.056  30.538  1.00  0.00    -0.014 A 
BRANCH  30  31
ATOM     31  C   UNL A   1      37.349  32.286  31.130  1.00  0.00     0.031 A 
ATOM     32  C   UNL A   1      37.836  32.625  32.511  1.00  0.00     0.074 A 
ATOM     33  C   UNL A   1      37.979  31.345  30.398  1.00  0.00     0.049 A 
ATOM     34  N   UNL A   1      38.860  32.146  33.170  1.00  0.00    -0.248 NA
ATOM     35  C   UNL A   1      37.095  33.673  33.231  1.00  0.00     0.031 C 
ATOM     36  C   UNL A   1      37.642  30.972  29.023  1.00  0.00     0.029 A 
ATOM     37  N   UNL A   1      39.043  30.536  30.709  1.00  0.00    -0.354 N 
ATOM     38  C   UNL A   1      38.900  32.855  34.363  1.00  0.00     0.074 A 
ATOM     39  C   UNL A   1      37.839  33.835  34.314  1.00  0.00     0.031 C 
ATOM     40  C   UNL A   1      38.463  29.989  28.620  1.00  0.00     0.029 A 
ATOM     41  C   UNL A   1      39.405  29.686  29.692  1.00  0.00     0.049 A 
ATOM     42  H   UNL A   1      39.504  30.564  31.579  1.00  0.00     0.167 HD
ATOM     43  C   UNL A   1      39.730  32.682  35.419  1.00  0.00     0.037 A 
ATOM     44  C   UNL A   1      40.388  28.768  29.637  1.00  0.00     0.037 A 
ATOM     45  C   UNL A   1      40.749  31.671  35.485  1.00  0.00     0.049 A 
ATOM     46  C   UNL A   1      41.272  28.569  30.840  1.00  0.00     0.074 A 
ATOM     47  C   UNL A   1      41.593  31.361  36.536  1.00  0.00     0.029 A 
ATOM     48  N   UNL A   1      41.055  30.796  34.453  1.00  0.00    -0.354 N 
ATOM     49  N   UNL A   1      41.257  29.197  31.990  1.00  0.00    -0.248 NA
ATOM     50  C   UNL A   1      42.304  27.528  30.737  1.00  0.00     0.031 C 
ATOM     51  C   UNL A   1      42.432  30.320  36.129  1.00  0.00     0.029 A 
ATOM     52  C   UNL A   1      42.084  29.953  34.839  1.00  0.00     0.049 A 
ATOM     53  H   UNL A   1      40.608  30.777  33.576  1.00  0.00     0.167 HD
ATOM     54  C   UNL A   1      42.254  28.612  32.757  1.00  0.00     0.074 A 
ATOM     55  C   UNL A   1      42.846  27.568  31.946  1.00  0.00     0.031 C 
ATOM     56  C   UNL A   1      42.648  28.912  34.019  1.00  0.00     0.037 A 
BRANCH  43  57
ATOM     57  C   UNL A   1      39.552  33.598  36.594  1.00  0.00     0.064 A 
ATOM     58  C   UNL A   1      38.752  33.241  37.690  1.00  0.00     0.173 A 
ATOM     59  C   UNL A   1      40.206  34.839  36.636  1.00  0.00     0.173 A 
ATOM     60  F   UNL A   1      38.093  32.072  37.692  1.00  0.00    -0.203 F 
ATOM     61  C   UNL A   1      38.585  34.105  38.768  1.00  0.00     0.198 A 
ATOM     62  C   UNL A   1      40.062  35.687  37.730  1.00  0.00     0.198 A 
ATOM     63  F   UNL A   1      40.985  35.228  35.616  1.00  0.00    -0.203 F 
ATOM     64  F   UNL A   1      37.771  33.766  39.778  1.00  0.00    -0.200 F 
ATOM     65  C   UNL A   1      39.246  35.325  38.791  1.00  0.00     0.200 A 
ATOM     66  F   UNL A   1      40.708  36.861  37.755  1.00  0.00    -0.200 F 
ATOM     67  F   UNL A   1      39.088  36.154  39.832  1.00  0.00    -0.200 F 
ENDBRANCH  43  57
BRANCH  44  68
ATOM     68  C   UNL A   1      40.564  27.939  28.417  1.00  0.00     0.064 A 
ATOM     69  C   UNL A   1      39.918  26.700  28.294  1.00  0.00     0.173 A 
ATOM     70  C   UNL A   1      41.379  28.358  27.357  1.00  0.00     0.173 A 
ATOM     71  F   UNL A   1      39.144  26.247  29.291  1.00  0.00    -0.203 F 
ATOM     72  C   UNL A   1      40.098  25.902  27.166  1.00  0.00     0.198 A 
ATOM     73  C   UNL A   1      41.538  27.571  26.218  1.00  0.00     0.198 A 
ATOM     74  F   UNL A   1      42.014  29.537  27.423  1.00  0.00    -0.203 F 
ATOM     75  F   UNL A   1      39.504  24.703  27.094  1.00  0.00    -0.200 F 
ATOM     76  C   UNL A   1      40.904  26.341  26.127  1.00  0.00     0.200 A 
ATOM     77  F   UNL A   1      42.308  28.003  25.210  1.00  0.00    -0.200 F 
ATOM     78  F   UNL A   1      41.076  25.574  25.041  1.00  0.00    -0.200 F 
ENDBRANCH  44  68
BRANCH  56  79
ATOM     79  C   UNL A   1      43.743  28.079  34.612  1.00  0.00     0.064 A 
ATOM     80  C   UNL A   1      43.472  26.876  35.280  1.00  0.00     0.173 A 
ATOM     81  C   UNL A   1      45.084  28.467  34.470  1.00  0.00     0.173 A 
ATOM     82  F   UNL A   1      42.204  26.472  35.452  1.00  0.00    -0.203 F 
ATOM     83  C   UNL A   1      44.502  26.102  35.804  1.00  0.00     0.198 A 
ATOM     84  C   UNL A   1      46.114  27.677  34.972  1.00  0.00     0.198 A 
ATOM     85  F   UNL A   1      45.396  29.606  33.833  1.00  0.00    -0.203 F 
ATOM     86  F   UNL A   1      44.219  24.978  36.475  1.00  0.00    -0.200 F 
ATOM     87  C   UNL A   1      45.823  26.499  35.644  1.00  0.00     0.200 A 
ATOM     88  F   UNL A   1      47.389  28.055  34.805  1.00  0.00    -0.200 F 
ATOM     89  F   UNL A   1      46.814  25.748  36.143  1.00  0.00    -0.200 F 
ENDBRANCH  56  79
ENDBRANCH  30  31
ENDBRANCH  22  25
ENDBRANCH  20  21
ENDBRANCH  19  20
ENDBRANCH  18  19
ENDBRANCH   1  18
TORSDOF 15
ENDMDL
MODEL 3
REMARK VINA RESULT:     -11.0      1.034      7.609
REMARK SMILES C/C=C/C=C/C(=O)N[C@@H](C)CC(=O)NCCCCNC(=O)c1ccc(-c2c3nc(c(-c4c(F)c(F)c(F)c(F)c4F)c4ccc([nH]4)c(-c4c(F)c(F)c(F)c(F)c4F)c4nc(c(-c5c(F)c(F)c(F)c(F)c5F)c5ccc2[nH]5)C=C4)C=C3)cc1
REMARK SMILES IDX 15 1 14 2 12 3 13 4 11 6 9 7 10 8 8 9 6 10 7 11 5 13 4 14
REMARK SMILES IDX 3 15 1 16 2 17 16 18 17 19 18 20 19 21 20 22 21 24 22 25
REMARK SMILES IDX 23 26 84 27 24 28 83 29 25 30 26 31 27 32 77 33 28 34 82 35
REMARK SMILES IDX 76 36 78 37 29 38 81 39 75 40 74 41 30 43 62 44 42 45 61 46
REMARK SMILES IDX 43 47 46 48 60 49 79 50 44 51 45 52 59 54 80 55 47 56 31 57
REMARK SMILES IDX 32 58 40 59 33 60 34 61 38 62 41 63 35 64 36 65 39 66 37 67
REMARK SMILES IDX 63 68 64 69 72 70 65 71 66 72 70 73 73 74 67 75 68 76 71 77
REMARK SMILES IDX 69 78 48 79 49 80 57 81 50 82 51 83 55 84 58 85 52 86 53 87
REMARK SMILES IDX 56 88 54 89
REMARK H PARENT 14 5 8 12 19 23 78 42 46 53
REMARK Flexibility Score: inf
ROOT
ATOM      1  C   UNL A   1      32.937  29.534  27.208  1.00  0.00     0.116 C 
ENDROOT
BRANCH   1   2
ATOM      2  N   UNL A   1      32.128  28.343  27.366  1.00  0.00    -0.356 N 
ATOM      3  C   UNL A   1      32.209  27.167  26.684  1.00  0.00     0.222 C 
ATOM      4  O   UNL A   1      31.315  26.332  26.837  1.00  0.00    -0.275 OA
ATOM      5  H   UNL A   1      31.429  28.389  28.057  1.00  0.00     0.163 HD
BRANCH   3   6
ATOM      6  C   UNL A   1      33.392  26.887  25.782  1.00  0.00     0.124 C 
BRANCH   6   7
ATOM      7  C   UNL A   1      33.231  25.576  25.004  1.00  0.00     0.088 C 
ATOM      8  C   UNL A   1      34.075  24.481  25.660  1.00  0.00     0.031 C 
BRANCH   7   9
ATOM      9  N   UNL A   1      33.673  25.676  23.608  1.00  0.00    -0.350 N 
ATOM     10  C   UNL A   1      33.182  26.370  22.544  1.00  0.00     0.244 C 
ATOM     11  O   UNL A   1      33.729  26.250  21.449  1.00  0.00    -0.270 OA
ATOM     12  H   UNL A   1      34.473  25.141  23.402  1.00  0.00     0.164 HD
BRANCH  10  13
ATOM     13  C   UNL A   1      32.127  27.391  22.712  1.00  0.00     0.071 C 
ATOM     14  C   UNL A   1      30.828  27.125  22.894  1.00  0.00     0.005 C 
BRANCH  14  15
ATOM     15  C   UNL A   1      29.841  28.160  23.095  1.00  0.00    -0.004 C 
ATOM     16  C   UNL A   1      29.207  30.540  23.537  1.00  0.00     0.035 C 
ATOM     17  C   UNL A   1      30.187  29.431  23.344  1.00  0.00    -0.030 C 
ENDBRANCH  14  15
ENDBRANCH  10  13
ENDBRANCH   7   9
ENDBRANCH   6   7
ENDBRANCH   3   6
ENDBRANCH   1   2
BRANCH   1  18
ATOM     18  C   UNL A   1      32.271  30.509  26.244  1.00  0.00     0.023 C 
BRANCH  18  19
ATOM     19  C   UNL A   1      31.786  31.811  26.862  1.00  0.00     0.023 C 
BRANCH  19  20
ATOM     20  C   UNL A   1      32.883  32.698  27.420  1.00  0.00     0.116 C 
BRANCH  20  21
ATOM     21  N   UNL A   1      32.463  34.069  27.676  1.00  0.00    -0.352 N 
ATOM     22  C   UNL A   1      32.993  34.969  28.569  1.00  0.00     0.251 C 
ATOM     23  H   UNL A   1      31.703  34.391  27.141  1.00  0.00     0.163 HD
ATOM     24  O   UNL A   1      32.491  36.076  28.725  1.00  0.00    -0.269 OA
BRANCH  22  25
ATOM     25  C   UNL A   1      34.154  34.557  29.384  1.00  0.00     0.039 A 
ATOM     26  C   UNL A   1      33.930  34.001  30.644  1.00  0.00     0.014 A 
ATOM     27  C   UNL A   1      35.446  34.632  28.857  1.00  0.00     0.014 A 
ATOM     28  C   UNL A   1      34.999  33.443  31.345  1.00  0.00     0.010 A 
ATOM     29  C   UNL A   1      36.486  33.986  29.509  1.00  0.00     0.010 A 
ATOM     30  C   UNL A   1      36.276  33.390  30.762  1.00  0.00    -0.014 A 
BRANCH  30  31
ATOM     31  C   UNL A   1      37.415  32.733  31.447  1.00  0.00     0.031 A 
ATOM     32  C   UNL A   1      38.119  31.584  30.783  1.00  0.00     0.074 A 
ATOM     33  C   UNL A   1      37.761  33.114  32.693  1.00  0.00     0.049 A 
ATOM     34  N   UNL A   1      39.066  30.810  31.248  1.00  0.00    -0.248 NA
ATOM     35  C   UNL A   1      37.667  31.230  29.427  1.00  0.00     0.031 C 
ATOM     36  C   UNL A   1      37.110  34.172  33.470  1.00  0.00     0.029 A 
ATOM     37  N   UNL A   1      38.741  32.644  33.531  1.00  0.00    -0.354 N 
ATOM     38  C   UNL A   1      39.299  29.866  30.256  1.00  0.00     0.074 A 
ATOM     39  C   UNL A   1      38.356  30.124  29.192  1.00  0.00     0.031 C 
ATOM     40  C   UNL A   1      37.728  34.290  34.656  1.00  0.00     0.029 A 
ATOM     41  C   UNL A   1      38.793  33.296  34.739  1.00  0.00     0.049 A 
ATOM     42  H   UNL A   1      39.349  31.909  33.289  1.00  0.00     0.167 HD
ATOM     43  C   UNL A   1      40.236  28.891  30.224  1.00  0.00     0.037 A 
ATOM     44  C   UNL A   1      39.609  33.107  35.793  1.00  0.00     0.037 A 
ATOM     45  C   UNL A   1      41.206  28.671  31.262  1.00  0.00     0.049 A 
ATOM     46  C   UNL A   1      40.669  32.041  35.716  1.00  0.00     0.074 A 
ATOM     47  C   UNL A   1      42.247  27.761  31.295  1.00  0.00     0.029 A 
ATOM     48  N   UNL A   1      41.258  29.384  32.452  1.00  0.00    -0.354 N 
ATOM     49  N   UNL A   1      40.927  31.199  34.745  1.00  0.00    -0.248 NA
ATOM     50  C   UNL A   1      41.556  31.904  36.879  1.00  0.00     0.031 C 
ATOM     51  C   UNL A   1      42.908  27.899  32.519  1.00  0.00     0.029 A 
ATOM     52  C   UNL A   1      42.306  28.924  33.231  1.00  0.00     0.049 A 
ATOM     53  H   UNL A   1      40.640  30.108  32.705  1.00  0.00     0.167 HD
ATOM     54  C   UNL A   1      42.018  30.454  35.165  1.00  0.00     0.074 A 
ATOM     55  C   UNL A   1      42.384  30.952  36.474  1.00  0.00     0.031 C 
ATOM     56  C   UNL A   1      42.660  29.445  34.526  1.00  0.00     0.037 A 
BRANCH  43  57
ATOM     57  C   UNL A   1      40.266  28.001  29.017  1.00  0.00     0.064 A 
ATOM     58  C   UNL A   1      41.009  28.336  27.874  1.00  0.00     0.173 A 
ATOM     59  C   UNL A   1      39.560  26.788  29.007  1.00  0.00     0.173 A 
ATOM     60  F   UNL A   1      41.689  29.492  27.826  1.00  0.00    -0.203 F 
ATOM     61  C   UNL A   1      41.017  27.508  26.755  1.00  0.00     0.198 A 
ATOM     62  C   UNL A   1      39.597  25.947  27.899  1.00  0.00     0.198 A 
ATOM     63  F   UNL A   1      38.836  26.419  30.074  1.00  0.00    -0.203 F 
ATOM     64  F   UNL A   1      41.690  27.876  25.656  1.00  0.00    -0.200 F 
ATOM     65  C   UNL A   1      40.317  26.311  26.771  1.00  0.00     0.200 A 
ATOM     66  F   UNL A   1      38.928  24.786  27.918  1.00  0.00    -0.200 F 
ATOM     67  F   UNL A   1      40.330  25.512  25.695  1.00  0.00    -0.200 F 
ENDBRANCH  43  57
BRANCH  44  68
ATOM     68  C   UNL A   1      39.486  33.973  36.995  1.00  0.00     0.064 A 
ATOM     69  C   UNL A   1      38.752  33.546  38.111  1.00  0.00     0.173 A 
ATOM     70  C   UNL A   1      40.088  35.237  37.052  1.00  0.00     0.173 A 
ATOM     71  F   UNL A   1      38.141  32.353  38.094  1.00  0.00    -0.203 F 
ATOM     72  C   UNL A   1      38.607  34.362  39.232  1.00  0.00     0.198 A 
ATOM     73  C   UNL A   1      39.964  36.040  38.184  1.00  0.00     0.198 A 
ATOM     74  F   UNL A   1      40.805  35.688  36.013  1.00  0.00    -0.203 F 
ATOM     75  F   UNL A   1      37.863  33.948  40.267  1.00  0.00    -0.200 F 
ATOM     76  C   UNL A   1      39.218  35.606  39.269  1.00  0.00     0.200 A 
ATOM     77  F   UNL A   1      40.565  37.238  38.222  1.00  0.00    -0.200 F 
ATOM     78  F   UNL A   1      39.079  36.389  40.347  1.00  0.00    -0.200 F 
ENDBRANCH  44  68
BRANCH  56  79
ATOM     79  C   UNL A   1      43.843  28.839  35.217  1.00  0.00     0.064 A 
ATOM     80  C   UNL A   1      43.704  27.755  36.098  1.00  0.00     0.173 A 
ATOM     81  C   UNL A   1      45.137  29.318  34.960  1.00  0.00     0.173 A 
ATOM     82  F   UNL A   1      42.487  27.272  36.385  1.00  0.00    -0.203 F 
ATOM     83  C   UNL A   1      44.816  27.188  36.713  1.00  0.00     0.198 A 
ATOM     84  C   UNL A   1      46.249  28.731  35.557  1.00  0.00     0.198 A 
ATOM     85  F   UNL A   1      45.322  30.347  34.121  1.00  0.00    -0.203 F 
ATOM     86  F   UNL A   1      44.658  26.182  37.583  1.00  0.00    -0.200 F 
ATOM     87  C   UNL A   1      46.088  27.671  36.437  1.00  0.00     0.200 A 
ATOM     88  F   UNL A   1      47.476  29.190  35.279  1.00  0.00    -0.200 F 
ATOM     89  F   UNL A   1      47.157  27.119  37.025  1.00  0.00    -0.200 F 
ENDBRANCH  56  79
ENDBRANCH  30  31
ENDBRANCH  22  25
ENDBRANCH  20  21
ENDBRANCH  19  20
ENDBRANCH  18  19
ENDBRANCH   1  18
TORSDOF 15
ENDMDL
