MODEL 1
REMARK VINA RESULT:     -12.3      0.000      0.000
REMARK SMILES C#Cc1ccc2c(c1)C=C(C(=O)NCCCCNC(=O)c1ccc(-c3c4nc(c(-c5c(F)c(F)c(F)c(F)c5F)c5ccc([nH]5)c(-c5c(F)c(F)c(F)c(F)c5F)c5nc(c(-c6c(F)c(F)c(F)c(F)c6F)c6ccc3[nH]6)C=C5)C=C4)cc1)[C@@H](C(F)(F)F)O2
REMARK SMILES IDX 16 1 15 2 14 3 13 4 11 5 12 6 10 8 3 9 4 10 8 11 5 12 7 13
REMARK SMILES IDX 6 14 9 15 89 16 84 17 2 18 1 19 85 20 86 21 87 22 88 23
REMARK SMILES IDX 17 24 18 25 19 26 20 28 21 29 22 30 83 31 23 32 82 33 24 34
REMARK SMILES IDX 25 35 26 36 76 37 27 38 81 39 75 40 77 41 28 42 80 43 74 44
REMARK SMILES IDX 73 45 29 47 61 48 41 49 60 50 42 51 45 52 59 53 78 54 43 55
REMARK SMILES IDX 44 56 58 58 79 59 46 60 30 61 31 62 39 63 32 64 33 65 37 66
REMARK SMILES IDX 40 67 34 68 35 69 38 70 36 71 62 72 63 73 71 74 64 75 65 76
REMARK SMILES IDX 69 77 72 78 66 79 67 80 70 81 68 82 47 83 48 84 56 85 49 86
REMARK SMILES IDX 50 87 54 88 57 89 51 90 52 91 55 92 53 93
REMARK H PARENT 13 7 18 27 77 46 45 57
REMARK Flexibility Score: inf
ROOT
ATOM      1  C   UNL A   1      38.090  21.030  25.180  1.00  0.00     0.023 C 
ENDROOT
BRANCH   1   2
ATOM      2  C   UNL A   1      36.967  21.899  25.727  1.00  0.00     0.023 C 
BRANCH   2   3
ATOM      3  C   UNL A   1      36.895  23.268  25.065  1.00  0.00     0.116 C 
BRANCH   3   4
ATOM      4  N   UNL A   1      35.999  23.281  23.920  1.00  0.00    -0.352 N 
ATOM      5  C   UNL A   1      34.792  23.821  23.619  1.00  0.00     0.251 C 
ATOM      6  O   UNL A   1      34.391  23.624  22.468  1.00  0.00    -0.270 OA
ATOM      7  H   UNL A   1      36.364  22.762  23.168  1.00  0.00     0.163 HD
BRANCH   5   8
ATOM      8  C   UNL A   1      33.952  24.605  24.574  1.00  0.00     0.067 C 
ATOM      9  C   UNL A   1      33.002  28.775  26.832  1.00  0.00     0.025 A 
ATOM     10  C   UNL A   1      31.805  28.239  27.313  1.00  0.00     0.021 A 
ATOM     11  C   UNL A   1      33.839  28.011  26.008  1.00  0.00     0.029 A 
ATOM     12  C   UNL A   1      31.444  26.940  26.976  1.00  0.00     0.048 A 
ATOM     13  C   UNL A   1      33.478  26.704  25.666  1.00  0.00     0.018 A 
ATOM     14  C   UNL A   1      32.284  26.182  26.166  1.00  0.00     0.128 A 
ATOM     15  C   UNL A   1      34.288  25.895  24.761  1.00  0.00     0.025 C 
ATOM     16  O   UNL A   1      31.832  24.934  25.870  1.00  0.00    -0.475 OA
ATOM     17  C   UNL A   1      32.796  24.008  25.320  1.00  0.00     0.314 C 
BRANCH   9  18
ATOM     18  C   UNL A   1      33.351  30.115  27.180  1.00  0.00    -0.070 C 
ATOM     19  C   UNL A   1      33.616  31.243  27.499  1.00  0.00     0.010 C 
ENDBRANCH   9  18
BRANCH  17  20
ATOM     20  C   UNL A   1      33.252  23.040  26.429  1.00  0.00     0.429 C 
ATOM     21  F   UNL A   1      33.596  21.840  25.894  1.00  0.00    -0.167 F 
ATOM     22  F   UNL A   1      34.345  23.480  27.098  1.00  0.00    -0.167 F 
ATOM     23  F   UNL A   1      32.293  22.815  27.353  1.00  0.00    -0.167 F 
ENDBRANCH  17  20
ENDBRANCH   5   8
ENDBRANCH   3   4
ENDBRANCH   2   3
ENDBRANCH   1   2
BRANCH   1  24
ATOM     24  C   UNL A   1      39.300  20.920  26.096  1.00  0.00     0.116 C 
BRANCH  24  25
ATOM     25  N   UNL A   1      40.052  19.677  25.946  1.00  0.00    -0.352 N 
ATOM     26  C   UNL A   1      41.412  19.495  26.073  1.00  0.00     0.251 C 
ATOM     27  H   UNL A   1      39.524  18.874  25.727  1.00  0.00     0.163 HD
ATOM     28  O   UNL A   1      41.941  18.421  25.816  1.00  0.00    -0.269 OA
BRANCH  26  29
ATOM     29  C   UNL A   1      42.220  20.660  26.478  1.00  0.00     0.039 A 
ATOM     30  C   UNL A   1      42.302  20.990  27.831  1.00  0.00     0.014 A 
ATOM     31  C   UNL A   1      42.728  21.514  25.498  1.00  0.00     0.014 A 
ATOM     32  C   UNL A   1      42.671  22.278  28.184  1.00  0.00     0.010 A 
ATOM     33  C   UNL A   1      43.228  22.761  25.877  1.00  0.00     0.010 A 
ATOM     34  C   UNL A   1      43.141  23.181  27.215  1.00  0.00    -0.014 A 
BRANCH  34  35
ATOM     35  C   UNL A   1      43.535  24.551  27.635  1.00  0.00     0.031 A 
ATOM     36  C   UNL A   1      44.977  24.981  27.648  1.00  0.00     0.074 A 
ATOM     37  C   UNL A   1      42.565  25.432  27.950  1.00  0.00     0.049 A 
ATOM     38  N   UNL A   1      45.487  26.141  27.984  1.00  0.00    -0.248 NA
ATOM     39  C   UNL A   1      45.983  23.988  27.237  1.00  0.00     0.031 C 
ATOM     40  C   UNL A   1      41.131  25.136  27.952  1.00  0.00     0.029 A 
ATOM     41  N   UNL A   1      42.630  26.757  28.300  1.00  0.00    -0.354 N 
ATOM     42  C   UNL A   1      46.864  26.012  27.842  1.00  0.00     0.074 A 
ATOM     43  C   UNL A   1      47.117  24.650  27.426  1.00  0.00     0.031 C 
ATOM     44  C   UNL A   1      40.450  26.257  28.224  1.00  0.00     0.029 A 
ATOM     45  C   UNL A   1      41.398  27.327  28.507  1.00  0.00     0.049 A 
ATOM     46  H   UNL A   1      43.477  27.249  28.394  1.00  0.00     0.167 HD
ATOM     47  C   UNL A   1      47.823  26.952  28.024  1.00  0.00     0.037 A 
ATOM     48  C   UNL A   1      41.063  28.566  28.909  1.00  0.00     0.037 A 
ATOM     49  C   UNL A   1      47.559  28.312  28.422  1.00  0.00     0.049 A 
ATOM     50  C   UNL A   1      42.153  29.563  29.178  1.00  0.00     0.074 A 
ATOM     51  C   UNL A   1      48.463  29.342  28.617  1.00  0.00     0.029 A 
ATOM     52  N   UNL A   1      46.300  28.832  28.686  1.00  0.00    -0.354 N 
ATOM     53  N   UNL A   1      43.448  29.431  29.024  1.00  0.00    -0.248 NA
ATOM     54  C   UNL A   1      41.737  30.878  29.679  1.00  0.00     0.031 C 
ATOM     55  C   UNL A   1      47.761  30.463  29.064  1.00  0.00     0.029 A 
ATOM     56  C   UNL A   1      46.409  30.159  29.075  1.00  0.00     0.049 A 
ATOM     57  H   UNL A   1      45.454  28.334  28.608  1.00  0.00     0.167 HD
ATOM     58  C   UNL A   1      44.000  30.653  29.386  1.00  0.00     0.074 A 
ATOM     59  C   UNL A   1      42.896  31.518  29.747  1.00  0.00     0.031 C 
ATOM     60  C   UNL A   1      45.304  31.017  29.421  1.00  0.00     0.037 A 
BRANCH  47  61
ATOM     61  C   UNL A   1      49.257  26.556  27.804  1.00  0.00     0.064 A 
ATOM     62  C   UNL A   1      49.820  26.507  26.520  1.00  0.00     0.173 A 
ATOM     63  C   UNL A   1      50.105  26.318  28.898  1.00  0.00     0.173 A 
ATOM     64  F   UNL A   1      49.055  26.719  25.439  1.00  0.00    -0.203 F 
ATOM     65  C   UNL A   1      51.171  26.219  26.339  1.00  0.00     0.198 A 
ATOM     66  C   UNL A   1      51.463  26.065  28.715  1.00  0.00     0.198 A 
ATOM     67  F   UNL A   1      49.624  26.362  30.150  1.00  0.00    -0.203 F 
ATOM     68  F   UNL A   1      51.678  26.143  25.101  1.00  0.00    -0.200 F 
ATOM     69  C   UNL A   1      51.993  26.011  27.436  1.00  0.00     0.200 A 
ATOM     70  F   UNL A   1      52.259  25.885  29.778  1.00  0.00    -0.200 F 
ATOM     71  F   UNL A   1      53.298  25.759  27.260  1.00  0.00    -0.200 F 
ENDBRANCH  47  61
BRANCH  48  72
ATOM     72  C   UNL A   1      39.629  28.919  29.078  1.00  0.00     0.064 A 
ATOM     73  C   UNL A   1      38.853  29.320  27.982  1.00  0.00     0.173 A 
ATOM     74  C   UNL A   1      38.996  28.828  30.328  1.00  0.00     0.173 A 
ATOM     75  F   UNL A   1      39.416  29.437  26.771  1.00  0.00    -0.203 F 
ATOM     76  C   UNL A   1      37.503  29.627  28.133  1.00  0.00     0.198 A 
ATOM     77  C   UNL A   1      37.637  29.099  30.469  1.00  0.00     0.198 A 
ATOM     78  F   UNL A   1      39.692  28.441  31.408  1.00  0.00    -0.203 F 
ATOM     79  F   UNL A   1      36.794  30.046  27.076  1.00  0.00    -0.200 F 
ATOM     80  C   UNL A   1      36.894  29.506  29.373  1.00  0.00     0.200 A 
ATOM     81  F   UNL A   1      37.049  28.955  31.664  1.00  0.00    -0.200 F 
ATOM     82  F   UNL A   1      35.590  29.784  29.512  1.00  0.00    -0.200 F 
ENDBRANCH  48  72
BRANCH  60  83
ATOM     83  C   UNL A   1      45.624  32.425  29.834  1.00  0.00     0.064 A 
ATOM     84  C   UNL A   1      45.921  32.752  31.166  1.00  0.00     0.173 A 
ATOM     85  C   UNL A   1      45.716  33.444  28.873  1.00  0.00     0.173 A 
ATOM     86  F   UNL A   1      45.835  31.819  32.126  1.00  0.00    -0.203 F 
ATOM     87  C   UNL A   1      46.283  34.048  31.520  1.00  0.00     0.198 A 
ATOM     88  C   UNL A   1      46.114  34.729  29.225  1.00  0.00     0.198 A 
ATOM     89  F   UNL A   1      45.450  33.184  27.584  1.00  0.00    -0.203 F 
ATOM     90  F   UNL A   1      46.523  34.346  32.805  1.00  0.00    -0.200 F 
ATOM     91  C   UNL A   1      46.393  35.032  30.549  1.00  0.00     0.200 A 
ATOM     92  F   UNL A   1      46.241  35.673  28.281  1.00  0.00    -0.200 F 
ATOM     93  F   UNL A   1      46.766  36.273  30.890  1.00  0.00    -0.200 F 
ENDBRANCH  60  83
ENDBRANCH  34  35
ENDBRANCH  26  29
ENDBRANCH  24  25
ENDBRANCH   1  24
TORSDOF 13
ENDMDL
MODEL 2
REMARK VINA RESULT:     -12.3      4.890      9.633
REMARK SMILES C#Cc1ccc2c(c1)C=C(C(=O)NCCCCNC(=O)c1ccc(-c3c4nc(c(-c5c(F)c(F)c(F)c(F)c5F)c5ccc([nH]5)c(-c5c(F)c(F)c(F)c(F)c5F)c5nc(c(-c6c(F)c(F)c(F)c(F)c6F)c6ccc3[nH]6)C=C5)C=C4)cc1)[C@@H](C(F)(F)F)O2
REMARK SMILES IDX 16 1 15 2 14 3 13 4 11 5 12 6 10 8 3 9 4 10 8 11 5 12 7 13
REMARK SMILES IDX 6 14 9 15 89 16 84 17 2 18 1 19 85 20 86 21 87 22 88 23
REMARK SMILES IDX 17 24 18 25 19 26 20 28 21 29 22 30 83 31 23 32 82 33 24 34
REMARK SMILES IDX 25 35 26 36 76 37 27 38 81 39 75 40 77 41 28 42 80 43 74 44
REMARK SMILES IDX 73 45 29 47 61 48 41 49 60 50 42 51 45 52 59 53 78 54 43 55
REMARK SMILES IDX 44 56 58 58 79 59 46 60 30 61 31 62 39 63 32 64 33 65 37 66
REMARK SMILES IDX 40 67 34 68 35 69 38 70 36 71 62 72 63 73 71 74 64 75 65 76
REMARK SMILES IDX 69 77 72 78 66 79 67 80 70 81 68 82 47 83 48 84 56 85 49 86
REMARK SMILES IDX 50 87 54 88 57 89 51 90 52 91 55 92 53 93
REMARK H PARENT 13 7 18 27 77 46 45 57
REMARK Flexibility Score: inf
ROOT
ATOM      1  C   UNL A   1      32.984  29.293  24.886  1.00  0.00     0.023 C 
ENDROOT
BRANCH   1   2
ATOM      2  C   UNL A   1      34.129  28.338  24.581  1.00  0.00     0.023 C 
BRANCH   2   3
ATOM      3  C   UNL A   1      33.888  26.930  25.105  1.00  0.00     0.116 C 
BRANCH   3   4
ATOM      4  N   UNL A   1      33.571  25.991  24.042  1.00  0.00    -0.352 N 
ATOM      5  C   UNL A   1      32.504  25.723  23.248  1.00  0.00     0.251 C 
ATOM      6  O   UNL A   1      32.675  24.839  22.404  1.00  0.00    -0.270 OA
ATOM      7  H   UNL A   1      34.328  25.392  23.848  1.00  0.00     0.163 HD
BRANCH   5   8
ATOM      8  C   UNL A   1      31.182  26.412  23.345  1.00  0.00     0.067 C 
ATOM      9  C   UNL A   1      28.362  30.188  22.261  1.00  0.00     0.025 A 
ATOM     10  C   UNL A   1      27.258  29.511  22.784  1.00  0.00     0.021 A 
ATOM     11  C   UNL A   1      29.624  29.581  22.249  1.00  0.00     0.029 A 
ATOM     12  C   UNL A   1      27.413  28.230  23.300  1.00  0.00     0.048 A 
ATOM     13  C   UNL A   1      29.784  28.292  22.767  1.00  0.00     0.018 A 
ATOM     14  C   UNL A   1      28.671  27.636  23.295  1.00  0.00     0.128 A 
ATOM     15  C   UNL A   1      31.067  27.597  22.719  1.00  0.00     0.025 C 
ATOM     16  O   UNL A   1      28.716  26.372  23.797  1.00  0.00    -0.475 OA
ATOM     17  C   UNL A   1      30.024  25.847  24.114  1.00  0.00     0.314 C 
BRANCH   9  18
ATOM     18  C   UNL A   1      28.182  31.500  21.726  1.00  0.00    -0.070 C 
ATOM     19  C   UNL A   1      28.019  32.616  21.311  1.00  0.00     0.010 C 
ENDBRANCH   9  18
BRANCH  17  20
ATOM     20  C   UNL A   1      30.240  25.925  25.639  1.00  0.00     0.429 C 
ATOM     21  F   UNL A   1      29.094  25.606  26.293  1.00  0.00    -0.167 F 
ATOM     22  F   UNL A   1      31.181  25.057  26.083  1.00  0.00    -0.167 F 
ATOM     23  F   UNL A   1      30.618  27.154  26.050  1.00  0.00    -0.167 F 
ENDBRANCH  17  20
ENDBRANCH   5   8
ENDBRANCH   3   4
ENDBRANCH   2   3
ENDBRANCH   1   2
BRANCH   1  24
ATOM     24  C   UNL A   1      32.765  29.554  26.370  1.00  0.00     0.116 C 
BRANCH  24  25
ATOM     25  N   UNL A   1      32.464  30.946  26.693  1.00  0.00    -0.352 N 
ATOM     26  C   UNL A   1      33.275  31.855  27.338  1.00  0.00     0.251 C 
ATOM     27  H   UNL A   1      31.577  31.273  26.417  1.00  0.00     0.163 HD
ATOM     28  O   UNL A   1      32.869  32.967  27.649  1.00  0.00    -0.269 OA
BRANCH  26  29
ATOM     29  C   UNL A   1      34.638  31.419  27.693  1.00  0.00     0.039 A 
ATOM     30  C   UNL A   1      34.861  30.078  28.007  1.00  0.00     0.014 A 
ATOM     31  C   UNL A   1      35.633  32.378  27.889  1.00  0.00     0.014 A 
ATOM     32  C   UNL A   1      35.986  29.742  28.742  1.00  0.00     0.010 A 
ATOM     33  C   UNL A   1      36.827  32.001  28.508  1.00  0.00     0.010 A 
ATOM     34  C   UNL A   1      36.986  30.695  29.000  1.00  0.00    -0.014 A 
BRANCH  34  35
ATOM     35  C   UNL A   1      38.182  30.293  29.785  1.00  0.00     0.031 A 
ATOM     36  C   UNL A   1      38.379  30.754  31.204  1.00  0.00     0.074 A 
ATOM     37  C   UNL A   1      39.071  29.452  29.220  1.00  0.00     0.049 A 
ATOM     38  N   UNL A   1      39.366  30.491  32.026  1.00  0.00    -0.248 NA
ATOM     39  C   UNL A   1      37.343  31.626  31.782  1.00  0.00     0.031 C 
ATOM     40  C   UNL A   1      38.974  28.921  27.858  1.00  0.00     0.029 A 
ATOM     41  N   UNL A   1      40.208  28.873  29.721  1.00  0.00    -0.354 N 
ATOM     42  C   UNL A   1      39.079  31.172  33.203  1.00  0.00     0.074 A 
ATOM     43  C   UNL A   1      37.846  31.895  32.980  1.00  0.00     0.031 C 
ATOM     44  C   UNL A   1      39.970  28.049  27.654  1.00  0.00     0.029 A 
ATOM     45  C   UNL A   1      40.827  28.029  28.832  1.00  0.00     0.049 A 
ATOM     46  H   UNL A   1      40.548  29.046  30.629  1.00  0.00     0.167 HD
ATOM     47  C   UNL A   1      39.774  31.177  34.366  1.00  0.00     0.037 A 
ATOM     48  C   UNL A   1      41.974  27.334  28.937  1.00  0.00     0.037 A 
ATOM     49  C   UNL A   1      40.993  30.440  34.584  1.00  0.00     0.049 A 
ATOM     50  C   UNL A   1      42.762  27.420  30.213  1.00  0.00     0.074 A 
ATOM     51  C   UNL A   1      41.762  30.369  35.733  1.00  0.00     0.029 A 
ATOM     52  N   UNL A   1      41.623  29.648  33.635  1.00  0.00    -0.354 N 
ATOM     53  N   UNL A   1      42.471  28.055  31.321  1.00  0.00    -0.248 NA
ATOM     54  C   UNL A   1      44.039  26.698  30.250  1.00  0.00     0.031 C 
ATOM     55  C   UNL A   1      42.888  29.592  35.460  1.00  0.00     0.029 A 
ATOM     56  C   UNL A   1      42.788  29.112  34.164  1.00  0.00     0.049 A 
ATOM     57  H   UNL A   1      41.293  29.488  32.721  1.00  0.00     0.167 HD
ATOM     58  C   UNL A   1      43.515  27.791  32.197  1.00  0.00     0.074 A 
ATOM     59  C   UNL A   1      44.436  26.920  31.496  1.00  0.00     0.031 C 
ATOM     60  C   UNL A   1      43.693  28.236  33.464  1.00  0.00     0.037 A 
BRANCH  47  61
ATOM     61  C   UNL A   1      39.248  32.006  35.505  1.00  0.00     0.064 A 
ATOM     62  C   UNL A   1      38.430  31.454  36.503  1.00  0.00     0.173 A 
ATOM     63  C   UNL A   1      39.645  33.345  35.654  1.00  0.00     0.173 A 
ATOM     64  F   UNL A   1      38.014  30.183  36.408  1.00  0.00    -0.203 F 
ATOM     65  C   UNL A   1      38.018  32.214  37.595  1.00  0.00     0.198 A 
ATOM     66  C   UNL A   1      39.261  34.091  36.765  1.00  0.00     0.198 A 
ATOM     67  F   UNL A   1      40.436  33.922  34.736  1.00  0.00    -0.203 F 
ATOM     68  F   UNL A   1      37.208  31.675  38.517  1.00  0.00    -0.200 F 
ATOM     69  C   UNL A   1      38.444  33.527  37.732  1.00  0.00     0.200 A 
ATOM     70  F   UNL A   1      39.690  35.353  36.906  1.00  0.00    -0.200 F 
ATOM     71  F   UNL A   1      38.066  34.248  38.797  1.00  0.00    -0.200 F 
ENDBRANCH  47  61
BRANCH  48  72
ATOM     72  C   UNL A   1      42.434  26.500  27.796  1.00  0.00     0.064 A 
ATOM     73  C   UNL A   1      43.277  27.032  26.811  1.00  0.00     0.173 A 
ATOM     74  C   UNL A   1      42.073  25.148  27.685  1.00  0.00     0.173 A 
ATOM     75  F   UNL A   1      43.638  28.322  26.864  1.00  0.00    -0.203 F 
ATOM     76  C   UNL A   1      43.730  26.247  25.754  1.00  0.00     0.198 A 
ATOM     77  C   UNL A   1      42.558  24.355  26.648  1.00  0.00     0.198 A 
ATOM     78  F   UNL A   1      41.274  24.588  28.606  1.00  0.00    -0.203 F 
ATOM     79  F   UNL A   1      44.503  26.791  24.804  1.00  0.00    -0.200 F 
ATOM     80  C   UNL A   1      43.380  24.907  25.679  1.00  0.00     0.200 A 
ATOM     81  F   UNL A   1      42.237  23.055  26.596  1.00  0.00    -0.200 F 
ATOM     82  F   UNL A   1      43.833  24.149  24.671  1.00  0.00    -0.200 F 
ENDBRANCH  48  72
BRANCH  60  83
ATOM     83  C   UNL A   1      44.916  27.771  34.202  1.00  0.00     0.064 A 
ATOM     84  C   UNL A   1      46.100  28.523  34.212  1.00  0.00     0.173 A 
ATOM     85  C   UNL A   1      44.875  26.600  34.974  1.00  0.00     0.173 A 
ATOM     86  F   UNL A   1      46.196  29.642  33.479  1.00  0.00    -0.203 F 
ATOM     87  C   UNL A   1      47.202  28.111  34.957  1.00  0.00     0.198 A 
ATOM     88  C   UNL A   1      45.965  26.212  35.747  1.00  0.00     0.198 A 
ATOM     89  F   UNL A   1      43.765  25.848  35.006  1.00  0.00    -0.203 F 
ATOM     90  F   UNL A   1      48.335  28.825  34.920  1.00  0.00    -0.200 F 
ATOM     91  C   UNL A   1      47.129  26.966  35.734  1.00  0.00     0.200 A 
ATOM     92  F   UNL A   1      45.886  25.116  36.515  1.00  0.00    -0.200 F 
ATOM     93  F   UNL A   1      48.183  26.586  36.470  1.00  0.00    -0.200 F 
ENDBRANCH  60  83
ENDBRANCH  34  35
ENDBRANCH  26  29
ENDBRANCH  24  25
ENDBRANCH   1  24
TORSDOF 13
ENDMDL
MODEL 3
REMARK VINA RESULT:     -12.3      4.580      8.017
REMARK SMILES C#Cc1ccc2c(c1)C=C(C(=O)NCCCCNC(=O)c1ccc(-c3c4nc(c(-c5c(F)c(F)c(F)c(F)c5F)c5ccc([nH]5)c(-c5c(F)c(F)c(F)c(F)c5F)c5nc(c(-c6c(F)c(F)c(F)c(F)c6F)c6ccc3[nH]6)C=C5)C=C4)cc1)[C@@H](C(F)(F)F)O2
REMARK SMILES IDX 16 1 15 2 14 3 13 4 11 5 12 6 10 8 3 9 4 10 8 11 5 12 7 13
REMARK SMILES IDX 6 14 9 15 89 16 84 17 2 18 1 19 85 20 86 21 87 22 88 23
REMARK SMILES IDX 17 24 18 25 19 26 20 28 21 29 22 30 83 31 23 32 82 33 24 34
REMARK SMILES IDX 25 35 26 36 76 37 27 38 81 39 75 40 77 41 28 42 80 43 74 44
REMARK SMILES IDX 73 45 29 47 61 48 41 49 60 50 42 51 45 52 59 53 78 54 43 55
REMARK SMILES IDX 44 56 58 58 79 59 46 60 30 61 31 62 39 63 32 64 33 65 37 66
REMARK SMILES IDX 40 67 34 68 35 69 38 70 36 71 62 72 63 73 71 74 64 75 65 76
REMARK SMILES IDX 69 77 72 78 66 79 67 80 70 81 68 82 47 83 48 84 56 85 49 86
REMARK SMILES IDX 50 87 54 88 57 89 51 90 52 91 55 92 53 93
REMARK H PARENT 13 7 18 27 77 46 45 57
REMARK Flexibility Score: inf
ROOT
ATOM      1  C   UNL A   1      31.878  28.553  25.273  1.00  0.00     0.023 C 
ENDROOT
BRANCH   1   2
ATOM      2  C   UNL A   1      31.441  27.376  26.132  1.00  0.00     0.023 C 
BRANCH   2   3
ATOM      3  C   UNL A   1      30.493  26.429  25.411  1.00  0.00     0.116 C 
BRANCH   3   4
ATOM      4  N   UNL A   1      30.186  25.247  26.200  1.00  0.00    -0.352 N 
ATOM      5  C   UNL A   1      30.768  24.046  26.443  1.00  0.00     0.251 C 
ATOM      6  O   UNL A   1      30.177  23.321  27.248  1.00  0.00    -0.270 OA
ATOM      7  H   UNL A   1      29.333  25.343  26.682  1.00  0.00     0.163 HD
BRANCH   5   8
ATOM      8  C   UNL A   1      32.034  23.573  25.807  1.00  0.00     0.067 C 
ATOM      9  C   UNL A   1      36.868  23.519  25.684  1.00  0.00     0.025 A 
ATOM     10  C   UNL A   1      36.830  22.513  24.717  1.00  0.00     0.021 A 
ATOM     11  C   UNL A   1      35.679  24.031  26.220  1.00  0.00     0.029 A 
ATOM     12  C   UNL A   1      35.607  22.019  24.280  1.00  0.00     0.048 A 
ATOM     13  C   UNL A   1      34.446  23.536  25.783  1.00  0.00     0.018 A 
ATOM     14  C   UNL A   1      34.428  22.538  24.807  1.00  0.00     0.128 A 
ATOM     15  C   UNL A   1      33.186  23.996  26.358  1.00  0.00     0.025 C 
ATOM     16  O   UNL A   1      33.284  21.973  24.337  1.00  0.00    -0.475 OA
ATOM     17  C   UNL A   1      32.054  22.685  24.599  1.00  0.00     0.314 C 
BRANCH   9  18
ATOM     18  C   UNL A   1      38.134  24.007  26.128  1.00  0.00    -0.070 C 
ATOM     19  C   UNL A   1      39.181  24.448  26.519  1.00  0.00     0.010 C 
ENDBRANCH   9  18
BRANCH  17  20
ATOM     20  C   UNL A   1      31.622  23.428  23.319  1.00  0.00     0.429 C 
ATOM     21  F   UNL A   1      32.025  22.743  22.218  1.00  0.00    -0.167 F 
ATOM     22  F   UNL A   1      30.278  23.557  23.211  1.00  0.00    -0.167 F 
ATOM     23  F   UNL A   1      32.141  24.672  23.238  1.00  0.00    -0.167 F 
ENDBRANCH  17  20
ENDBRANCH   5   8
ENDBRANCH   3   4
ENDBRANCH   2   3
ENDBRANCH   1   2
BRANCH   1  24
ATOM     24  C   UNL A   1      33.032  29.359  25.853  1.00  0.00     0.116 C 
BRANCH  24  25
ATOM     25  N   UNL A   1      32.648  30.676  26.353  1.00  0.00    -0.352 N 
ATOM     26  C   UNL A   1      33.358  31.493  27.205  1.00  0.00     0.251 C 
ATOM     27  H   UNL A   1      31.777  31.020  26.045  1.00  0.00     0.163 HD
ATOM     28  O   UNL A   1      32.882  32.533  27.640  1.00  0.00    -0.269 OA
BRANCH  26  29
ATOM     29  C   UNL A   1      34.699  31.042  27.620  1.00  0.00     0.039 A 
ATOM     30  C   UNL A   1      34.885  29.705  27.971  1.00  0.00     0.014 A 
ATOM     31  C   UNL A   1      35.703  31.988  27.835  1.00  0.00     0.014 A 
ATOM     32  C   UNL A   1      35.976  29.364  28.754  1.00  0.00     0.010 A 
ATOM     33  C   UNL A   1      36.866  31.604  28.506  1.00  0.00     0.010 A 
ATOM     34  C   UNL A   1      36.982  30.305  29.031  1.00  0.00    -0.014 A 
BRANCH  34  35
ATOM     35  C   UNL A   1      38.141  29.900  29.869  1.00  0.00     0.031 A 
ATOM     36  C   UNL A   1      39.221  29.001  29.328  1.00  0.00     0.074 A 
ATOM     37  C   UNL A   1      38.243  30.403  31.115  1.00  0.00     0.049 A 
ATOM     38  N   UNL A   1      40.299  28.557  29.928  1.00  0.00    -0.248 NA
ATOM     39  C   UNL A   1      39.079  28.532  27.940  1.00  0.00     0.031 C 
ATOM     40  C   UNL A   1      37.269  31.301  31.739  1.00  0.00     0.029 A 
ATOM     41  N   UNL A   1      39.218  30.258  32.068  1.00  0.00    -0.354 N 
ATOM     42  C   UNL A   1      40.949  27.750  29.002  1.00  0.00     0.074 A 
ATOM     43  C   UNL A   1      40.129  27.731  27.811  1.00  0.00     0.031 C 
ATOM     44  C   UNL A   1      37.724  31.677  32.942  1.00  0.00     0.029 A 
ATOM     45  C   UNL A   1      38.972  30.975  33.213  1.00  0.00     0.049 A 
ATOM     46  H   UNL A   1      40.016  29.695  31.944  1.00  0.00     0.167 HD
ATOM     47  C   UNL A   1      42.132  27.101  29.132  1.00  0.00     0.037 A 
ATOM     48  C   UNL A   1      39.657  31.043  34.369  1.00  0.00     0.037 A 
ATOM     49  C   UNL A   1      42.951  27.140  30.317  1.00  0.00     0.049 A 
ATOM     50  C   UNL A   1      40.925  30.251  34.510  1.00  0.00     0.074 A 
ATOM     51  C   UNL A   1      44.173  26.528  30.538  1.00  0.00     0.029 A 
ATOM     52  N   UNL A   1      42.633  27.826  31.480  1.00  0.00    -0.354 N 
ATOM     53  N   UNL A   1      41.535  29.506  33.621  1.00  0.00    -0.248 NA
ATOM     54  C   UNL A   1      41.597  30.306  35.813  1.00  0.00     0.031 C 
ATOM     55  C   UNL A   1      44.561  26.787  31.854  1.00  0.00     0.029 A 
ATOM     56  C   UNL A   1      43.621  27.624  32.433  1.00  0.00     0.049 A 
ATOM     57  H   UNL A   1      41.827  28.376  31.611  1.00  0.00     0.167 HD
ATOM     58  C   UNL A   1      42.675  29.022  34.249  1.00  0.00     0.074 A 
ATOM     59  C   UNL A   1      42.681  29.576  35.587  1.00  0.00     0.031 C 
ATOM     60  C   UNL A   1      43.625  28.189  33.759  1.00  0.00     0.037 A 
BRANCH  47  61
ATOM     61  C   UNL A   1      42.625  26.283  27.970  1.00  0.00     0.064 A 
ATOM     62  C   UNL A   1      43.453  26.832  26.980  1.00  0.00     0.173 A 
ATOM     63  C   UNL A   1      42.345  24.908  27.899  1.00  0.00     0.173 A 
ATOM     64  F   UNL A   1      43.747  28.140  26.995  1.00  0.00    -0.203 F 
ATOM     65  C   UNL A   1      43.969  26.041  25.956  1.00  0.00     0.198 A 
ATOM     66  C   UNL A   1      42.891  24.114  26.894  1.00  0.00     0.198 A 
ATOM     67  F   UNL A   1      41.567  24.327  28.824  1.00  0.00    -0.203 F 
ATOM     68  F   UNL A   1      44.729  26.595  25.002  1.00  0.00    -0.200 F 
ATOM     69  C   UNL A   1      43.698  24.681  25.920  1.00  0.00     0.200 A 
ATOM     70  F   UNL A   1      42.644  22.796  26.873  1.00  0.00    -0.200 F 
ATOM     71  F   UNL A   1      44.216  23.918  24.948  1.00  0.00    -0.200 F 
ENDBRANCH  47  61
BRANCH  48  72
ATOM     72  C   UNL A   1      39.147  31.894  35.475  1.00  0.00     0.064 A 
ATOM     73  C   UNL A   1      38.314  31.360  36.467  1.00  0.00     0.173 A 
ATOM     74  C   UNL A   1      39.510  33.245  35.585  1.00  0.00     0.173 A 
ATOM     75  F   UNL A   1      37.926  30.079  36.398  1.00  0.00    -0.203 F 
ATOM     76  C   UNL A   1      37.854  32.149  37.519  1.00  0.00     0.198 A 
ATOM     77  C   UNL A   1      39.081  34.022  36.659  1.00  0.00     0.198 A 
ATOM     78  F   UNL A   1      40.313  33.803  34.666  1.00  0.00    -0.203 F 
ATOM     79  F   UNL A   1      37.026  31.624  38.433  1.00  0.00    -0.200 F 
ATOM     80  C   UNL A   1      38.247  33.476  37.620  1.00  0.00     0.200 A 
ATOM     81  F   UNL A   1      39.485  35.295  36.765  1.00  0.00    -0.200 F 
ATOM     82  F   UNL A   1      37.819  34.227  38.644  1.00  0.00    -0.200 F 
ENDBRANCH  48  72
BRANCH  60  83
ATOM     83  C   UNL A   1      44.778  27.841  34.657  1.00  0.00     0.064 A 
ATOM     84  C   UNL A   1      44.762  26.692  35.462  1.00  0.00     0.173 A 
ATOM     85  C   UNL A   1      45.944  28.621  34.649  1.00  0.00     0.173 A 
ATOM     86  F   UNL A   1      43.667  25.919  35.517  1.00  0.00    -0.203 F 
ATOM     87  C   UNL A   1      45.867  26.347  36.236  1.00  0.00     0.198 A 
ATOM     88  C   UNL A   1      47.060  28.252  35.394  1.00  0.00     0.198 A 
ATOM     89  F   UNL A   1      46.015  29.725  33.891  1.00  0.00    -0.203 F 
ATOM     90  F   UNL A   1      45.815  25.267  37.027  1.00  0.00    -0.200 F 
ATOM     91  C   UNL A   1      47.018  27.118  36.191  1.00  0.00     0.200 A 
ATOM     92  F   UNL A   1      48.179  28.987  35.333  1.00  0.00    -0.200 F 
ATOM     93  F   UNL A   1      48.089  26.769  36.918  1.00  0.00    -0.200 F 
ENDBRANCH  60  83
ENDBRANCH  34  35
ENDBRANCH  26  29
ENDBRANCH  24  25
ENDBRANCH   1  24
TORSDOF 13
ENDMDL
