MODEL 1
REMARK VINA RESULT:     -12.4      0.000      0.000
REMARK SMILES Cc1nc(C(=O)NCCCCNC(=O)c2ccc(-c3c4nc(c(-c5c(F)c(F)c(F)c(F)c5F)c5ccc([nH]5)c(-c5c(F)c(F)c(F)c(F)c5F)c5nc(c(-c6c(F)c(F)c(F)c(F)c6F)c6ccc3[nH]6)C=C5)C=C4)cc2)nn1-c1cccc(C(F)(F)F)c1
REMARK SMILES IDX 9 1 8 2 7 3 5 4 6 5 4 7 1 8 2 9 3 10 79 11 78 12 80 13 81 14
REMARK SMILES IDX 89 15 82 16 84 17 83 18 85 19 86 20 87 21 88 22 10 23 11 24
REMARK SMILES IDX 12 25 13 26 14 28 15 29 16 30 77 31 17 32 76 33 18 34 19 35
REMARK SMILES IDX 20 36 70 37 21 38 75 39 69 40 71 41 22 42 74 43 68 44 67 45
REMARK SMILES IDX 23 47 55 48 35 49 54 50 36 51 39 52 53 53 72 54 37 55 38 56
REMARK SMILES IDX 52 58 73 59 40 60 24 61 25 62 33 63 26 64 27 65 31 66 34 67
REMARK SMILES IDX 28 68 29 69 32 70 30 71 56 72 57 73 65 74 58 75 59 76 63 77
REMARK SMILES IDX 66 78 60 79 61 80 64 81 62 82 41 83 42 84 50 85 43 86 44 87
REMARK SMILES IDX 48 88 51 89 45 90 46 91 49 92 47 93
REMARK H PARENT 7 6 12 27 71 46 39 57
REMARK Flexibility Score: inf
ROOT
ATOM      1  C   UNL A   1      35.528  21.869  24.309  1.00  0.00     0.023 C 
ENDROOT
BRANCH   1   2
ATOM      2  C   UNL A   1      34.576  22.775  23.520  1.00  0.00     0.116 C 
BRANCH   2   3
ATOM      3  N   UNL A   1      33.218  22.780  24.045  1.00  0.00    -0.349 N 
ATOM      4  C   UNL A   1      32.404  23.832  24.440  1.00  0.00     0.290 C 
ATOM      5  O   UNL A   1      31.310  23.534  24.929  1.00  0.00    -0.266 OA
ATOM      6  H   UNL A   1      32.808  21.889  24.135  1.00  0.00     0.163 HD
BRANCH   4   7
ATOM      7  C   UNL A   1      32.856  25.237  24.310  1.00  0.00     0.239 A 
ATOM      8  C   UNL A   1      33.413  28.321  22.576  1.00  0.00     0.090 C 
ATOM      9  C   UNL A   1      33.135  27.182  23.482  1.00  0.00     0.130 A 
ATOM     10  N   UNL A   1      32.772  25.962  23.133  1.00  0.00    -0.207 NA
ATOM     11  N   UNL A   1      33.333  27.209  24.846  1.00  0.00    -0.217 N 
ATOM     12  N   UNL A   1      33.412  25.945  25.309  1.00  0.00    -0.140 NA
BRANCH  11  13
ATOM     13  C   UNL A   1      33.312  28.285  25.763  1.00  0.00     0.067 A 
ATOM     14  C   UNL A   1      32.155  29.068  25.861  1.00  0.00     0.028 A 
ATOM     15  C   UNL A   1      34.472  28.653  26.460  1.00  0.00     0.041 A 
ATOM     16  C   UNL A   1      32.137  30.187  26.690  1.00  0.00     0.003 A 
ATOM     17  C   UNL A   1      34.476  29.818  27.247  1.00  0.00     0.058 A 
ATOM     18  C   UNL A   1      33.291  30.563  27.376  1.00  0.00     0.013 A 
BRANCH  17  19
ATOM     19  C   UNL A   1      35.740  30.310  27.916  1.00  0.00     0.416 C 
ATOM     20  F   UNL A   1      36.810  29.508  27.654  1.00  0.00    -0.166 F 
ATOM     21  F   UNL A   1      36.094  31.558  27.509  1.00  0.00    -0.166 F 
ATOM     22  F   UNL A   1      35.644  30.370  29.273  1.00  0.00    -0.166 F 
ENDBRANCH  17  19
ENDBRANCH  11  13
ENDBRANCH   4   7
ENDBRANCH   2   3
ENDBRANCH   1   2
BRANCH   1  23
ATOM     23  C   UNL A   1      37.025  22.186  24.210  1.00  0.00     0.023 C 
BRANCH  23  24
ATOM     24  C   UNL A   1      37.620  22.885  25.425  1.00  0.00     0.116 C 
BRANCH  24  25
ATOM     25  N   UNL A   1      38.410  22.007  26.299  1.00  0.00    -0.352 N 
ATOM     26  C   UNL A   1      39.564  22.311  27.002  1.00  0.00     0.251 C 
ATOM     27  H   UNL A   1      38.077  21.085  26.398  1.00  0.00     0.163 HD
ATOM     28  O   UNL A   1      40.333  21.422  27.379  1.00  0.00    -0.269 OA
BRANCH  26  29
ATOM     29  C   UNL A   1      39.860  23.719  27.314  1.00  0.00     0.039 A 
ATOM     30  C   UNL A   1      38.906  24.740  27.254  1.00  0.00     0.014 A 
ATOM     31  C   UNL A   1      41.157  23.995  27.719  1.00  0.00     0.014 A 
ATOM     32  C   UNL A   1      39.267  26.020  27.678  1.00  0.00     0.010 A 
ATOM     33  C   UNL A   1      41.427  25.160  28.372  1.00  0.00     0.010 A 
ATOM     34  C   UNL A   1      40.535  26.212  28.249  1.00  0.00    -0.014 A 
BRANCH  34  35
ATOM     35  C   UNL A   1      40.959  27.474  28.840  1.00  0.00     0.031 A 
ATOM     36  C   UNL A   1      42.187  28.027  28.219  1.00  0.00     0.074 A 
ATOM     37  C   UNL A   1      40.143  28.184  29.656  1.00  0.00     0.049 A 
ATOM     38  N   UNL A   1      43.351  28.160  28.762  1.00  0.00    -0.248 NA
ATOM     39  C   UNL A   1      42.175  28.305  26.772  1.00  0.00     0.031 C 
ATOM     40  C   UNL A   1      38.764  27.857  30.054  1.00  0.00     0.029 A 
ATOM     41  N   UNL A   1      40.321  29.414  30.217  1.00  0.00    -0.354 N 
ATOM     42  C   UNL A   1      44.151  28.759  27.792  1.00  0.00     0.074 A 
ATOM     43  C   UNL A   1      43.455  28.606  26.545  1.00  0.00     0.031 C 
ATOM     44  C   UNL A   1      38.164  28.944  30.585  1.00  0.00     0.029 A 
ATOM     45  C   UNL A   1      39.156  29.991  30.727  1.00  0.00     0.049 A 
ATOM     46  H   UNL A   1      41.198  29.858  30.260  1.00  0.00     0.167 HD
ATOM     47  C   UNL A   1      45.149  29.610  28.162  1.00  0.00     0.037 A 
ATOM     48  C   UNL A   1      39.020  31.246  31.223  1.00  0.00     0.037 A 
ATOM     49  C   UNL A   1      45.403  29.490  29.578  1.00  0.00     0.049 A 
ATOM     50  C   UNL A   1      40.380  31.719  31.561  1.00  0.00     0.074 A 
ATOM     51  C   UNL A   1      45.923  28.530  30.418  1.00  0.00     0.029 A 
ATOM     52  N   UNL A   1      44.672  30.352  30.352  1.00  0.00    -0.354 N 
ATOM     53  N   UNL A   1      41.100  31.211  32.522  1.00  0.00    -0.248 NA
ATOM     54  C   UNL A   1      41.113  32.500  30.575  1.00  0.00     0.031 C 
ATOM     55  C   UNL A   1      45.245  28.697  31.664  1.00  0.00     0.029 A 
ATOM     56  C   UNL A   1      44.383  29.790  31.564  1.00  0.00     0.049 A 
ATOM     57  H   UNL A   1      44.392  31.254  30.073  1.00  0.00     0.167 HD
ATOM     58  C   UNL A   1      42.392  31.224  32.027  1.00  0.00     0.074 A 
ATOM     59  C   UNL A   1      42.362  32.172  30.917  1.00  0.00     0.031 C 
ATOM     60  C   UNL A   1      43.262  30.228  32.365  1.00  0.00     0.037 A 
BRANCH  47  61
ATOM     61  C   UNL A   1      45.534  30.877  27.417  1.00  0.00     0.064 A 
ATOM     62  C   UNL A   1      46.887  31.057  27.050  1.00  0.00     0.173 A 
ATOM     63  C   UNL A   1      44.735  32.039  27.338  1.00  0.00     0.173 A 
ATOM     64  F   UNL A   1      47.749  30.029  27.096  1.00  0.00    -0.203 F 
ATOM     65  C   UNL A   1      47.409  32.311  26.723  1.00  0.00     0.198 A 
ATOM     66  C   UNL A   1      45.250  33.280  26.962  1.00  0.00     0.198 A 
ATOM     67  F   UNL A   1      43.457  32.063  27.728  1.00  0.00    -0.203 F 
ATOM     68  F   UNL A   1      48.725  32.451  26.512  1.00  0.00    -0.200 F 
ATOM     69  C   UNL A   1      46.592  33.425  26.687  1.00  0.00     0.200 A 
ATOM     70  F   UNL A   1      44.443  34.350  26.955  1.00  0.00    -0.200 F 
ATOM     71  F   UNL A   1      47.099  34.638  26.438  1.00  0.00    -0.200 F 
ENDBRANCH  47  61
BRANCH  48  72
ATOM     72  C   UNL A   1      37.854  32.162  31.216  1.00  0.00     0.064 A 
ATOM     73  C   UNL A   1      37.552  32.952  30.092  1.00  0.00     0.173 A 
ATOM     74  C   UNL A   1      36.845  32.051  32.191  1.00  0.00     0.173 A 
ATOM     75  F   UNL A   1      38.444  33.080  29.098  1.00  0.00    -0.203 F 
ATOM     76  C   UNL A   1      36.301  33.558  29.933  1.00  0.00     0.198 A 
ATOM     77  C   UNL A   1      35.597  32.657  32.031  1.00  0.00     0.198 A 
ATOM     78  F   UNL A   1      37.017  31.267  33.264  1.00  0.00    -0.203 F 
ATOM     79  F   UNL A   1      36.025  34.244  28.815  1.00  0.00    -0.200 F 
ATOM     80  C   UNL A   1      35.319  33.397  30.896  1.00  0.00     0.200 A 
ATOM     81  F   UNL A   1      34.641  32.462  32.952  1.00  0.00    -0.200 F 
ATOM     82  F   UNL A   1      34.097  33.915  30.712  1.00  0.00    -0.200 F 
ENDBRANCH  48  72
BRANCH  60  83
ATOM     83  C   UNL A   1      42.927  29.420  33.586  1.00  0.00     0.064 A 
ATOM     84  C   UNL A   1      42.175  28.234  33.584  1.00  0.00     0.173 A 
ATOM     85  C   UNL A   1      43.474  29.834  34.807  1.00  0.00     0.173 A 
ATOM     86  F   UNL A   1      41.688  27.727  32.445  1.00  0.00    -0.203 F 
ATOM     87  C   UNL A   1      41.947  27.521  34.759  1.00  0.00     0.198 A 
ATOM     88  C   UNL A   1      43.278  29.101  35.972  1.00  0.00     0.198 A 
ATOM     89  F   UNL A   1      44.239  30.936  34.860  1.00  0.00    -0.203 F 
ATOM     90  F   UNL A   1      41.208  26.402  34.735  1.00  0.00    -0.200 F 
ATOM     91  C   UNL A   1      42.504  27.952  35.951  1.00  0.00     0.200 A 
ATOM     92  F   UNL A   1      43.858  29.498  37.113  1.00  0.00    -0.200 F 
ATOM     93  F   UNL A   1      42.315  27.249  37.076  1.00  0.00    -0.200 F 
ENDBRANCH  60  83
ENDBRANCH  34  35
ENDBRANCH  26  29
ENDBRANCH  24  25
ENDBRANCH  23  24
ENDBRANCH   1  23
TORSDOF 13
ENDMDL
MODEL 2
REMARK VINA RESULT:     -12.3      1.225      2.091
REMARK SMILES Cc1nc(C(=O)NCCCCNC(=O)c2ccc(-c3c4nc(c(-c5c(F)c(F)c(F)c(F)c5F)c5ccc([nH]5)c(-c5c(F)c(F)c(F)c(F)c5F)c5nc(c(-c6c(F)c(F)c(F)c(F)c6F)c6ccc3[nH]6)C=C5)C=C4)cc2)nn1-c1cccc(C(F)(F)F)c1
REMARK SMILES IDX 9 1 8 2 7 3 5 4 6 5 4 7 1 8 2 9 3 10 79 11 78 12 80 13 81 14
REMARK SMILES IDX 89 15 82 16 84 17 83 18 85 19 86 20 87 21 88 22 10 23 11 24
REMARK SMILES IDX 12 25 13 26 14 28 15 29 16 30 77 31 17 32 76 33 18 34 19 35
REMARK SMILES IDX 20 36 70 37 21 38 75 39 69 40 71 41 22 42 74 43 68 44 67 45
REMARK SMILES IDX 23 47 55 48 35 49 54 50 36 51 39 52 53 53 72 54 37 55 38 56
REMARK SMILES IDX 52 58 73 59 40 60 24 61 25 62 33 63 26 64 27 65 31 66 34 67
REMARK SMILES IDX 28 68 29 69 32 70 30 71 56 72 57 73 65 74 58 75 59 76 63 77
REMARK SMILES IDX 66 78 60 79 61 80 64 81 62 82 41 83 42 84 50 85 43 86 44 87
REMARK SMILES IDX 48 88 51 89 45 90 46 91 49 92 47 93
REMARK H PARENT 7 6 12 27 71 46 39 57
REMARK Flexibility Score: inf
ROOT
ATOM      1  C   UNL A   1      36.570  20.473  24.988  1.00  0.00     0.023 C 
ENDROOT
BRANCH   1   2
ATOM      2  C   UNL A   1      35.038  20.453  25.026  1.00  0.00     0.116 C 
BRANCH   2   3
ATOM      3  N   UNL A   1      34.489  20.824  26.323  1.00  0.00    -0.349 N 
ATOM      4  C   UNL A   1      33.655  21.872  26.685  1.00  0.00     0.290 C 
ATOM      5  O   UNL A   1      33.410  21.995  27.890  1.00  0.00    -0.266 OA
ATOM      6  H   UNL A   1      34.753  20.235  27.065  1.00  0.00     0.163 HD
BRANCH   4   7
ATOM      7  C   UNL A   1      33.125  22.813  25.671  1.00  0.00     0.239 A 
ATOM      8  C   UNL A   1      30.652  24.118  23.433  1.00  0.00     0.090 C 
ATOM      9  C   UNL A   1      31.736  23.805  24.394  1.00  0.00     0.130 A 
ATOM     10  N   UNL A   1      31.856  22.713  25.125  1.00  0.00    -0.207 NA
ATOM     11  N   UNL A   1      32.860  24.582  24.576  1.00  0.00    -0.217 N 
ATOM     12  N   UNL A   1      33.823  23.842  25.159  1.00  0.00    -0.140 NA
BRANCH  11  13
ATOM     13  C   UNL A   1      33.066  25.969  24.389  1.00  0.00     0.067 A 
ATOM     14  C   UNL A   1      33.269  26.453  23.091  1.00  0.00     0.028 A 
ATOM     15  C   UNL A   1      33.205  26.826  25.490  1.00  0.00     0.041 A 
ATOM     16  C   UNL A   1      33.563  27.799  22.886  1.00  0.00     0.003 A 
ATOM     17  C   UNL A   1      33.564  28.171  25.290  1.00  0.00     0.058 A 
ATOM     18  C   UNL A   1      33.713  28.652  23.978  1.00  0.00     0.013 A 
BRANCH  17  19
ATOM     19  C   UNL A   1      33.839  29.092  26.456  1.00  0.00     0.416 C 
ATOM     20  F   UNL A   1      35.171  29.319  26.635  1.00  0.00    -0.166 F 
ATOM     21  F   UNL A   1      33.265  30.316  26.302  1.00  0.00    -0.166 F 
ATOM     22  F   UNL A   1      33.381  28.610  27.645  1.00  0.00    -0.166 F 
ENDBRANCH  17  19
ENDBRANCH  11  13
ENDBRANCH   4   7
ENDBRANCH   2   3
ENDBRANCH   1   2
BRANCH   1  23
ATOM     23  C   UNL A   1      37.234  21.804  24.614  1.00  0.00     0.023 C 
BRANCH  23  24
ATOM     24  C   UNL A   1      37.901  22.541  25.769  1.00  0.00     0.116 C 
BRANCH  24  25
ATOM     25  N   UNL A   1      39.014  21.809  26.388  1.00  0.00    -0.352 N 
ATOM     26  C   UNL A   1      40.231  22.308  26.821  1.00  0.00     0.251 C 
ATOM     27  H   UNL A   1      38.878  20.841  26.511  1.00  0.00     0.163 HD
ATOM     28  O   UNL A   1      41.209  21.567  26.962  1.00  0.00    -0.269 OA
BRANCH  26  29
ATOM     29  C   UNL A   1      40.346  23.742  27.132  1.00  0.00     0.039 A 
ATOM     30  C   UNL A   1      39.342  24.675  26.853  1.00  0.00     0.014 A 
ATOM     31  C   UNL A   1      41.513  24.138  27.768  1.00  0.00     0.014 A 
ATOM     32  C   UNL A   1      39.509  25.990  27.291  1.00  0.00     0.010 A 
ATOM     33  C   UNL A   1      41.555  25.335  28.417  1.00  0.00     0.010 A 
ATOM     34  C   UNL A   1      40.622  26.303  28.087  1.00  0.00    -0.014 A 
BRANCH  34  35
ATOM     35  C   UNL A   1      40.820  27.609  28.700  1.00  0.00     0.031 A 
ATOM     36  C   UNL A   1      41.970  28.353  28.134  1.00  0.00     0.074 A 
ATOM     37  C   UNL A   1      39.870  28.174  29.485  1.00  0.00     0.049 A 
ATOM     38  N   UNL A   1      43.076  28.660  28.726  1.00  0.00    -0.248 NA
ATOM     39  C   UNL A   1      41.973  28.643  26.689  1.00  0.00     0.031 C 
ATOM     40  C   UNL A   1      38.544  27.631  29.824  1.00  0.00     0.029 A 
ATOM     41  N   UNL A   1      39.830  29.410  30.060  1.00  0.00    -0.354 N 
ATOM     42  C   UNL A   1      43.811  29.388  27.793  1.00  0.00     0.074 A 
ATOM     43  C   UNL A   1      43.198  29.143  26.517  1.00  0.00     0.031 C 
ATOM     44  C   UNL A   1      37.761  28.606  30.334  1.00  0.00     0.029 A 
ATOM     45  C   UNL A   1      38.570  29.793  30.523  1.00  0.00     0.049 A 
ATOM     46  H   UNL A   1      40.625  29.985  30.141  1.00  0.00     0.167 HD
ATOM     47  C   UNL A   1      44.648  30.380  28.208  1.00  0.00     0.037 A 
ATOM     48  C   UNL A   1      38.220  31.006  31.019  1.00  0.00     0.037 A 
ATOM     49  C   UNL A   1      44.860  30.284  29.632  1.00  0.00     0.049 A 
ATOM     50  C   UNL A   1      39.475  31.681  31.415  1.00  0.00     0.074 A 
ATOM     51  C   UNL A   1      45.490  29.408  30.490  1.00  0.00     0.029 A 
ATOM     52  N   UNL A   1      43.972  31.014  30.380  1.00  0.00    -0.354 N 
ATOM     53  N   UNL A   1      40.226  31.281  32.403  1.00  0.00    -0.248 NA
ATOM     54  C   UNL A   1      40.116  32.577  30.464  1.00  0.00     0.031 C 
ATOM     55  C   UNL A   1      44.744  29.454  31.706  1.00  0.00     0.029 A 
ATOM     56  C   UNL A   1      43.727  30.400  31.576  1.00  0.00     0.049 A 
ATOM     57  H   UNL A   1      43.566  31.864  30.094  1.00  0.00     0.167 HD
ATOM     58  C   UNL A   1      41.518  31.500  31.962  1.00  0.00     0.074 A 
ATOM     59  C   UNL A   1      41.386  32.444  30.857  1.00  0.00     0.031 C 
ATOM     60  C   UNL A   1      42.519  30.648  32.331  1.00  0.00     0.037 A 
BRANCH  47  61
ATOM     61  C   UNL A   1      44.860  31.700  27.486  1.00  0.00     0.064 A 
ATOM     62  C   UNL A   1      46.107  31.932  26.863  1.00  0.00     0.173 A 
ATOM     63  C   UNL A   1      44.052  32.846  27.649  1.00  0.00     0.173 A 
ATOM     64  F   UNL A   1      46.969  30.924  26.663  1.00  0.00    -0.203 F 
ATOM     65  C   UNL A   1      46.540  33.216  26.520  1.00  0.00     0.198 A 
ATOM     66  C   UNL A   1      44.466  34.120  27.259  1.00  0.00     0.198 A 
ATOM     67  F   UNL A   1      42.881  32.816  28.293  1.00  0.00    -0.203 F 
ATOM     68  F   UNL A   1      47.783  33.399  26.054  1.00  0.00    -0.200 F 
ATOM     69  C   UNL A   1      45.722  34.311  26.726  1.00  0.00     0.200 A 
ATOM     70  F   UNL A   1      43.666  35.170  27.488  1.00  0.00    -0.200 F 
ATOM     71  F   UNL A   1      46.156  35.550  26.459  1.00  0.00    -0.200 F 
ENDBRANCH  47  61
BRANCH  48  72
ATOM     72  C   UNL A   1      36.927  31.728  30.968  1.00  0.00     0.064 A 
ATOM     73  C   UNL A   1      36.141  31.904  32.122  1.00  0.00     0.173 A 
ATOM     74  C   UNL A   1      36.588  32.521  29.855  1.00  0.00     0.173 A 
ATOM     75  F   UNL A   1      36.420  31.215  33.239  1.00  0.00    -0.203 F 
ATOM     76  C   UNL A   1      35.108  32.846  32.172  1.00  0.00     0.198 A 
ATOM     77  C   UNL A   1      35.555  33.460  29.907  1.00  0.00     0.198 A 
ATOM     78  F   UNL A   1      37.320  32.470  28.734  1.00  0.00    -0.203 F 
ATOM     79  F   UNL A   1      34.428  33.035  33.312  1.00  0.00    -0.200 F 
ATOM     80  C   UNL A   1      34.826  33.634  31.069  1.00  0.00     0.200 A 
ATOM     81  F   UNL A   1      35.318  34.245  28.845  1.00  0.00    -0.200 F 
ATOM     82  F   UNL A   1      33.886  34.587  31.139  1.00  0.00    -0.200 F 
ENDBRANCH  48  72
BRANCH  60  83
ATOM     83  C   UNL A   1      42.266  29.785  33.534  1.00  0.00     0.064 A 
ATOM     84  C   UNL A   1      41.782  28.467  33.489  1.00  0.00     0.173 A 
ATOM     85  C   UNL A   1      42.616  30.300  34.788  1.00  0.00     0.173 A 
ATOM     86  F   UNL A   1      41.503  27.873  32.323  1.00  0.00    -0.203 F 
ATOM     87  C   UNL A   1      41.615  27.718  34.652  1.00  0.00     0.198 A 
ATOM     88  C   UNL A   1      42.487  29.539  35.944  1.00  0.00     0.198 A 
ATOM     89  F   UNL A   1      43.126  31.538  34.886  1.00  0.00    -0.203 F 
ATOM     90  F   UNL A   1      41.131  26.469  34.587  1.00  0.00    -0.200 F 
ATOM     91  C   UNL A   1      41.974  28.253  35.878  1.00  0.00     0.200 A 
ATOM     92  F   UNL A   1      42.878  30.045  37.122  1.00  0.00    -0.200 F 
ATOM     93  F   UNL A   1      41.848  27.523  36.995  1.00  0.00    -0.200 F 
ENDBRANCH  60  83
ENDBRANCH  34  35
ENDBRANCH  26  29
ENDBRANCH  24  25
ENDBRANCH  23  24
ENDBRANCH   1  23
TORSDOF 13
ENDMDL
MODEL 3
REMARK VINA RESULT:     -12.3      3.846      9.757
REMARK SMILES Cc1nc(C(=O)NCCCCNC(=O)c2ccc(-c3c4nc(c(-c5c(F)c(F)c(F)c(F)c5F)c5ccc([nH]5)c(-c5c(F)c(F)c(F)c(F)c5F)c5nc(c(-c6c(F)c(F)c(F)c(F)c6F)c6ccc3[nH]6)C=C5)C=C4)cc2)nn1-c1cccc(C(F)(F)F)c1
REMARK SMILES IDX 9 1 8 2 7 3 5 4 6 5 4 7 1 8 2 9 3 10 79 11 78 12 80 13 81 14
REMARK SMILES IDX 89 15 82 16 84 17 83 18 85 19 86 20 87 21 88 22 10 23 11 24
REMARK SMILES IDX 12 25 13 26 14 28 15 29 16 30 77 31 17 32 76 33 18 34 19 35
REMARK SMILES IDX 20 36 70 37 21 38 75 39 69 40 71 41 22 42 74 43 68 44 67 45
REMARK SMILES IDX 23 47 55 48 35 49 54 50 36 51 39 52 53 53 72 54 37 55 38 56
REMARK SMILES IDX 52 58 73 59 40 60 24 61 25 62 33 63 26 64 27 65 31 66 34 67
REMARK SMILES IDX 28 68 29 69 32 70 30 71 56 72 57 73 65 74 58 75 59 76 63 77
REMARK SMILES IDX 66 78 60 79 61 80 64 81 62 82 41 83 42 84 50 85 43 86 44 87
REMARK SMILES IDX 48 88 51 89 45 90 46 91 49 92 47 93
REMARK H PARENT 7 6 12 27 71 46 39 57
REMARK Flexibility Score: inf
ROOT
ATOM      1  C   UNL A   1      34.162  35.271  28.906  1.00  0.00     0.023 C 
ENDROOT
BRANCH   1   2
ATOM      2  C   UNL A   1      33.014  35.214  29.921  1.00  0.00     0.116 C 
BRANCH   2   3
ATOM      3  N   UNL A   1      32.831  36.458  30.654  1.00  0.00    -0.349 N 
ATOM      4  C   UNL A   1      33.367  36.885  31.860  1.00  0.00     0.290 C 
ATOM      5  O   UNL A   1      32.968  37.972  32.291  1.00  0.00    -0.266 OA
ATOM      6  H   UNL A   1      32.226  37.104  30.223  1.00  0.00     0.163 HD
BRANCH   4   7
ATOM      7  C   UNL A   1      34.340  36.049  32.602  1.00  0.00     0.239 A 
ATOM      8  C   UNL A   1      35.544  34.202  35.424  1.00  0.00     0.090 C 
ATOM      9  C   UNL A   1      35.151  34.799  34.126  1.00  0.00     0.130 A 
ATOM     10  N   UNL A   1      34.141  35.618  33.903  1.00  0.00    -0.207 NA
ATOM     11  N   UNL A   1      35.876  34.667  32.960  1.00  0.00    -0.217 N 
ATOM     12  N   UNL A   1      35.520  35.644  32.102  1.00  0.00    -0.140 NA
BRANCH  11  13
ATOM     13  C   UNL A   1      36.753  33.645  32.526  1.00  0.00     0.067 A 
ATOM     14  C   UNL A   1      36.549  32.339  32.987  1.00  0.00     0.028 A 
ATOM     15  C   UNL A   1      37.889  33.954  31.764  1.00  0.00     0.041 A 
ATOM     16  C   UNL A   1      37.448  31.331  32.647  1.00  0.00     0.003 A 
ATOM     17  C   UNL A   1      38.831  32.951  31.473  1.00  0.00     0.058 A 
ATOM     18  C   UNL A   1      38.584  31.635  31.899  1.00  0.00     0.013 A 
BRANCH  17  19
ATOM     19  C   UNL A   1      40.123  33.272  30.757  1.00  0.00     0.416 C 
ATOM     20  F   UNL A   1      41.139  33.549  31.621  1.00  0.00    -0.166 F 
ATOM     21  F   UNL A   1      40.558  32.244  29.980  1.00  0.00    -0.166 F 
ATOM     22  F   UNL A   1      40.030  34.353  29.934  1.00  0.00    -0.166 F 
ENDBRANCH  17  19
ENDBRANCH  11  13
ENDBRANCH   4   7
ENDBRANCH   2   3
ENDBRANCH   1   2
BRANCH   1  23
ATOM     23  C   UNL A   1      35.248  34.195  29.030  1.00  0.00     0.023 C 
BRANCH  23  24
ATOM     24  C   UNL A   1      34.805  32.904  29.706  1.00  0.00     0.116 C 
BRANCH  24  25
ATOM     25  N   UNL A   1      34.219  31.915  28.791  1.00  0.00    -0.352 N 
ATOM     26  C   UNL A   1      34.859  30.893  28.111  1.00  0.00     0.251 C 
ATOM     27  H   UNL A   1      33.248  31.988  28.642  1.00  0.00     0.163 HD
ATOM     28  O   UNL A   1      34.357  30.385  27.103  1.00  0.00    -0.269 OA
BRANCH  26  29
ATOM     29  C   UNL A   1      36.151  30.398  28.615  1.00  0.00     0.039 A 
ATOM     30  C   UNL A   1      36.272  29.330  29.510  1.00  0.00     0.014 A 
ATOM     31  C   UNL A   1      37.282  31.030  28.121  1.00  0.00     0.014 A 
ATOM     32  C   UNL A   1      37.549  28.871  29.837  1.00  0.00     0.010 A 
ATOM     33  C   UNL A   1      38.496  30.421  28.230  1.00  0.00     0.010 A 
ATOM     34  C   UNL A   1      38.657  29.422  29.175  1.00  0.00    -0.014 A 
BRANCH  34  35
ATOM     35  C   UNL A   1      40.016  28.925  29.347  1.00  0.00     0.031 A 
ATOM     36  C   UNL A   1      40.414  28.793  30.769  1.00  0.00     0.074 A 
ATOM     37  C   UNL A   1      40.704  28.376  28.317  1.00  0.00     0.049 A 
ATOM     38  N   UNL A   1      41.307  29.477  31.402  1.00  0.00    -0.248 NA
ATOM     39  C   UNL A   1      39.610  27.920  31.642  1.00  0.00     0.031 C 
ATOM     40  C   UNL A   1      40.241  28.166  26.936  1.00  0.00     0.029 A 
ATOM     41  N   UNL A   1      41.929  27.776  28.304  1.00  0.00    -0.354 N 
ATOM     42  C   UNL A   1      41.338  28.952  32.692  1.00  0.00     0.074 A 
ATOM     43  C   UNL A   1      40.135  28.181  32.841  1.00  0.00     0.031 C 
ATOM     44  C   UNL A   1      41.058  27.300  26.299  1.00  0.00     0.029 A 
ATOM     45  C   UNL A   1      42.194  27.027  27.156  1.00  0.00     0.049 A 
ATOM     46  H   UNL A   1      42.572  27.864  29.043  1.00  0.00     0.167 HD
ATOM     47  C   UNL A   1      42.506  28.935  33.394  1.00  0.00     0.037 A 
ATOM     48  C   UNL A   1      43.271  26.233  26.934  1.00  0.00     0.037 A 
ATOM     49  C   UNL A   1      43.480  29.785  32.754  1.00  0.00     0.049 A 
ATOM     50  C   UNL A   1      44.316  26.656  27.891  1.00  0.00     0.074 A 
ATOM     51  C   UNL A   1      43.638  31.138  32.545  1.00  0.00     0.029 A 
ATOM     52  N   UNL A   1      44.270  29.140  31.838  1.00  0.00    -0.354 N 
ATOM     53  N   UNL A   1      44.916  27.813  27.835  1.00  0.00    -0.248 NA
ATOM     54  C   UNL A   1      44.424  25.956  29.162  1.00  0.00     0.031 C 
ATOM     55  C   UNL A   1      44.325  31.260  31.299  1.00  0.00     0.029 A 
ATOM     56  C   UNL A   1      44.621  29.983  30.822  1.00  0.00     0.049 A 
ATOM     57  H   UNL A   1      44.546  28.197  31.903  1.00  0.00     0.167 HD
ATOM     58  C   UNL A   1      45.082  28.178  29.159  1.00  0.00     0.074 A 
ATOM     59  C   UNL A   1      44.923  26.939  29.916  1.00  0.00     0.031 C 
ATOM     60  C   UNL A   1      45.011  29.492  29.519  1.00  0.00     0.037 A 
BRANCH  47  61
ATOM     61  C   UNL A   1      42.952  27.811  34.314  1.00  0.00     0.064 A 
ATOM     62  C   UNL A   1      43.244  26.551  33.743  1.00  0.00     0.173 A 
ATOM     63  C   UNL A   1      42.794  27.808  35.717  1.00  0.00     0.173 A 
ATOM     64  F   UNL A   1      43.403  26.423  32.417  1.00  0.00    -0.203 F 
ATOM     65  C   UNL A   1      43.281  25.380  34.505  1.00  0.00     0.198 A 
ATOM     66  C   UNL A   1      42.882  26.644  36.481  1.00  0.00     0.198 A 
ATOM     67  F   UNL A   1      42.434  28.897  36.404  1.00  0.00    -0.203 F 
ATOM     68  F   UNL A   1      43.431  24.195  33.898  1.00  0.00    -0.200 F 
ATOM     69  C   UNL A   1      43.093  25.426  35.873  1.00  0.00     0.200 A 
ATOM     70  F   UNL A   1      42.675  26.709  37.803  1.00  0.00    -0.200 F 
ATOM     71  F   UNL A   1      43.064  24.300  36.598  1.00  0.00    -0.200 F 
ENDBRANCH  47  61
BRANCH  48  72
ATOM     72  C   UNL A   1      43.402  24.992  26.134  1.00  0.00     0.064 A 
ATOM     73  C   UNL A   1      44.486  24.797  25.258  1.00  0.00     0.173 A 
ATOM     74  C   UNL A   1      42.635  23.853  26.441  1.00  0.00     0.173 A 
ATOM     75  F   UNL A   1      45.290  25.824  24.942  1.00  0.00    -0.203 F 
ATOM     76  C   UNL A   1      44.808  23.532  24.755  1.00  0.00     0.198 A 
ATOM     77  C   UNL A   1      42.958  22.590  25.938  1.00  0.00     0.198 A 
ATOM     78  F   UNL A   1      41.623  23.928  27.317  1.00  0.00    -0.203 F 
ATOM     79  F   UNL A   1      45.890  23.374  23.981  1.00  0.00    -0.200 F 
ATOM     80  C   UNL A   1      44.052  22.427  25.109  1.00  0.00     0.200 A 
ATOM     81  F   UNL A   1      42.242  21.521  26.319  1.00  0.00    -0.200 F 
ATOM     82  F   UNL A   1      44.403  21.203  24.688  1.00  0.00    -0.200 F 
ENDBRANCH  48  72
BRANCH  60  83
ATOM     83  C   UNL A   1      45.197  30.506  28.425  1.00  0.00     0.064 A 
ATOM     84  C   UNL A   1      44.158  31.056  27.656  1.00  0.00     0.173 A 
ATOM     85  C   UNL A   1      46.489  31.001  28.212  1.00  0.00     0.173 A 
ATOM     86  F   UNL A   1      42.885  30.696  27.856  1.00  0.00    -0.203 F 
ATOM     87  C   UNL A   1      44.412  32.025  26.687  1.00  0.00     0.198 A 
ATOM     88  C   UNL A   1      46.736  31.996  27.273  1.00  0.00     0.198 A 
ATOM     89  F   UNL A   1      47.512  30.544  28.950  1.00  0.00    -0.203 F 
ATOM     90  F   UNL A   1      43.407  32.521  25.950  1.00  0.00    -0.200 F 
ATOM     91  C   UNL A   1      45.700  32.499  26.501  1.00  0.00     0.200 A 
ATOM     92  F   UNL A   1      47.976  32.483  27.129  1.00  0.00    -0.200 F 
ATOM     93  F   UNL A   1      45.942  33.456  25.595  1.00  0.00    -0.200 F 
ENDBRANCH  60  83
ENDBRANCH  34  35
ENDBRANCH  26  29
ENDBRANCH  24  25
ENDBRANCH  23  24
ENDBRANCH   1  23
TORSDOF 13
ENDMDL
