MODEL 1
REMARK VINA RESULT:     -11.5      0.000      0.000
REMARK SMILES CS(=O)(=O)c1ccc(C2=NN(c3ccc(C(=O)NCCCCNC(=O)c4ccc(-c5c6nc(c(-c7c(F)c(F)c(F)c(F)c7F)c7ccc([nH]7)c(-c7c(F)c(F)c(F)c(F)c7F)c7nc(c(-c8c(F)c(F)c(F)c(F)c8F)c8ccc5[nH]8)C=C7)C=C6)cc4)cc3)[C@H](c3ccc(Cl)cc3)C2)cc1
REMARK SMILES IDX 20 1 19 2 18 3 16 4 17 5 15 7 12 8 13 9 90 10 14 11 89 12
REMARK SMILES IDX 11 13 9 14 10 15 99 16 91 17 8 18 5 19 6 20 101 21 7 22
REMARK SMILES IDX 100 23 2 24 1 25 3 26 4 27 92 28 93 29 98 30 94 31 97 32
REMARK SMILES IDX 95 33 96 34 21 35 22 36 23 37 24 38 25 40 26 41 27 42 88 43
REMARK SMILES IDX 28 44 87 45 29 46 30 47 31 48 81 49 32 50 86 51 80 52 82 53
REMARK SMILES IDX 33 54 85 55 79 56 78 57 34 59 66 60 46 61 65 62 47 63 50 64
REMARK SMILES IDX 64 65 83 66 48 67 49 68 63 70 84 71 51 72 35 73 36 74 44 75
REMARK SMILES IDX 37 76 38 77 42 78 45 79 39 80 40 81 43 82 41 83 67 84 68 85
REMARK SMILES IDX 76 86 69 87 70 88 74 89 77 90 71 91 72 92 75 93 73 94 52 95
REMARK SMILES IDX 53 96 61 97 54 98 55 99 59 100 62 101 56 102 57 103 60 104
REMARK SMILES IDX 58 105
REMARK H PARENT 18 6 23 39 82 58 50 69
REMARK Flexibility Score: inf
ROOT
ATOM      1  C   UNL A   1      41.995  19.601  26.351  1.00  0.00     0.023 C 
ENDROOT
BRANCH   1   2
ATOM      2  C   UNL A   1      43.023  20.600  25.816  1.00  0.00     0.116 C 
BRANCH   2   3
ATOM      3  N   UNL A   1      44.307  19.966  25.579  1.00  0.00    -0.352 N 
ATOM      4  C   UNL A   1      45.553  20.528  25.436  1.00  0.00     0.251 C 
ATOM      5  O   UNL A   1      46.538  19.796  25.372  1.00  0.00    -0.269 OA
ATOM      6  H   UNL A   1      44.282  18.984  25.510  1.00  0.00     0.163 HD
BRANCH   4   7
ATOM      7  C   UNL A   1      45.732  21.999  25.431  1.00  0.00     0.039 A 
ATOM      8  C   UNL A   1      46.231  24.763  25.363  1.00  0.00     0.060 A 
ATOM      9  C   UNL A   1      46.420  23.977  24.220  1.00  0.00     0.029 A 
ATOM     10  C   UNL A   1      45.720  24.161  26.513  1.00  0.00     0.029 A 
ATOM     11  C   UNL A   1      46.161  22.604  24.246  1.00  0.00     0.016 A 
ATOM     12  C   UNL A   1      45.465  22.791  26.548  1.00  0.00     0.016 A 
BRANCH   8  13
ATOM     13  N   UNL A   1      46.552  26.105  25.371  1.00  0.00    -0.257 N 
ATOM     14  C   UNL A   1      46.206  28.153  25.772  1.00  0.00     0.071 C 
ATOM     15  N   UNL A   1      45.877  26.962  26.167  1.00  0.00    -0.176 NA
ATOM     16  C   UNL A   1      47.175  28.200  24.615  1.00  0.00     0.091 C 
ATOM     17  C   UNL A   1      47.601  26.722  24.565  1.00  0.00     0.144 C 
BRANCH  14  18
ATOM     18  C   UNL A   1      45.621  29.365  26.372  1.00  0.00    -0.002 A 
ATOM     19  C   UNL A   1      44.640  31.650  27.636  1.00  0.00     0.067 A 
ATOM     20  C   UNL A   1      45.944  31.641  27.128  1.00  0.00     0.021 A 
ATOM     21  C   UNL A   1      43.823  30.522  27.515  1.00  0.00     0.021 A 
ATOM     22  C   UNL A   1      46.434  30.497  26.504  1.00  0.00     0.011 A 
ATOM     23  C   UNL A   1      44.315  29.377  26.874  1.00  0.00     0.011 A 
BRANCH  19  24
ATOM     24  S   UNL A   1      44.106  33.138  28.448  1.00  0.00     0.175 S 
ATOM     25  C   UNL A   1      45.428  33.686  29.486  1.00  0.00     0.163 C 
ATOM     26  O   UNL A   1      43.003  32.755  29.306  1.00  0.00    -0.224 OA
ATOM     27  O   UNL A   1      43.940  34.135  27.406  1.00  0.00    -0.224 OA
ENDBRANCH  19  24
ENDBRANCH  14  18
BRANCH  17  28
ATOM     28  C   UNL A   1      48.973  26.356  25.135  1.00  0.00    -0.023 A 
ATOM     29  C   UNL A   1      49.158  25.622  26.319  1.00  0.00     0.007 A 
ATOM     30  C   UNL A   1      50.122  26.712  24.398  1.00  0.00     0.007 A 
ATOM     31  C   UNL A   1      50.443  25.275  26.756  1.00  0.00     0.021 A 
ATOM     32  C   UNL A   1      51.403  26.346  24.821  1.00  0.00     0.021 A 
ATOM     33  C   UNL A   1      51.559  25.632  26.004  1.00  0.00     0.041 A 
ATOM     34  Cl  UNL A   1      53.132  25.178  26.529  1.00  0.00    -0.084 Cl
ENDBRANCH  17  28
ENDBRANCH   8  13
ENDBRANCH   4   7
ENDBRANCH   2   3
ENDBRANCH   1   2
BRANCH   1  35
ATOM     35  C   UNL A   1      40.662  20.223  26.766  1.00  0.00     0.023 C 
BRANCH  35  36
ATOM     36  C   UNL A   1      40.526  21.705  26.449  1.00  0.00     0.116 C 
BRANCH  36  37
ATOM     37  N   UNL A   1      39.236  22.056  25.877  1.00  0.00    -0.352 N 
ATOM     38  C   UNL A   1      38.548  23.244  26.007  1.00  0.00     0.251 C 
ATOM     39  H   UNL A   1      38.801  21.363  25.331  1.00  0.00     0.163 HD
ATOM     40  O   UNL A   1      37.429  23.383  25.551  1.00  0.00    -0.269 OA
BRANCH  38  41
ATOM     41  C   UNL A   1      39.192  24.340  26.761  1.00  0.00     0.039 A 
ATOM     42  C   UNL A   1      40.023  25.231  26.077  1.00  0.00     0.014 A 
ATOM     43  C   UNL A   1      38.906  24.524  28.114  1.00  0.00     0.014 A 
ATOM     44  C   UNL A   1      40.506  26.363  26.737  1.00  0.00     0.010 A 
ATOM     45  C   UNL A   1      39.335  25.681  28.751  1.00  0.00     0.010 A 
ATOM     46  C   UNL A   1      40.131  26.614  28.066  1.00  0.00    -0.014 A 
BRANCH  46  47
ATOM     47  C   UNL A   1      40.553  27.842  28.782  1.00  0.00     0.031 A 
ATOM     48  C   UNL A   1      41.932  27.913  29.369  1.00  0.00     0.074 A 
ATOM     49  C   UNL A   1      39.666  28.832  28.999  1.00  0.00     0.049 A 
ATOM     50  N   UNL A   1      42.439  28.795  30.192  1.00  0.00    -0.248 NA
ATOM     51  C   UNL A   1      42.853  26.825  29.007  1.00  0.00     0.031 C 
ATOM     52  C   UNL A   1      38.290  28.862  28.505  1.00  0.00     0.029 A 
ATOM     53  N   UNL A   1      39.787  29.995  29.720  1.00  0.00    -0.354 N 
ATOM     54  C   UNL A   1      43.722  28.348  30.474  1.00  0.00     0.074 A 
ATOM     55  C   UNL A   1      43.906  27.103  29.761  1.00  0.00     0.031 C 
ATOM     56  C   UNL A   1      37.694  29.988  28.934  1.00  0.00     0.029 A 
ATOM     57  C   UNL A   1      38.631  30.734  29.768  1.00  0.00     0.049 A 
ATOM     58  H   UNL A   1      40.623  30.270  30.162  1.00  0.00     0.167 HD
ATOM     59  C   UNL A   1      44.664  28.934  31.249  1.00  0.00     0.037 A 
ATOM     60  C   UNL A   1      38.355  31.875  30.429  1.00  0.00     0.037 A 
ATOM     61  C   UNL A   1      44.489  30.194  31.920  1.00  0.00     0.049 A 
ATOM     62  C   UNL A   1      39.424  32.511  31.275  1.00  0.00     0.074 A 
ATOM     63  C   UNL A   1      45.403  30.902  32.679  1.00  0.00     0.029 A 
ATOM     64  N   UNL A   1      43.318  30.937  31.904  1.00  0.00    -0.354 N 
ATOM     65  N   UNL A   1      40.648  32.104  31.503  1.00  0.00    -0.248 NA
ATOM     66  C   UNL A   1      39.073  33.766  31.956  1.00  0.00     0.031 C 
ATOM     67  C   UNL A   1      44.777  32.061  33.147  1.00  0.00     0.029 A 
ATOM     68  C   UNL A   1      43.484  32.092  32.648  1.00  0.00     0.049 A 
ATOM     69  H   UNL A   1      42.493  30.682  31.433  1.00  0.00     0.167 HD
ATOM     70  C   UNL A   1      41.223  33.063  32.325  1.00  0.00     0.074 A 
ATOM     71  C   UNL A   1      40.215  34.076  32.555  1.00  0.00     0.031 C 
ATOM     72  C   UNL A   1      42.475  33.101  32.842  1.00  0.00     0.037 A 
BRANCH  59  73
ATOM     73  C   UNL A   1      45.971  28.216  31.410  1.00  0.00     0.064 A 
ATOM     74  C   UNL A   1      46.174  27.283  32.437  1.00  0.00     0.173 A 
ATOM     75  C   UNL A   1      47.022  28.444  30.510  1.00  0.00     0.173 A 
ATOM     76  F   UNL A   1      45.204  27.042  33.332  1.00  0.00    -0.203 F 
ATOM     77  C   UNL A   1      47.394  26.625  32.574  1.00  0.00     0.198 A 
ATOM     78  C   UNL A   1      48.229  27.763  30.633  1.00  0.00     0.198 A 
ATOM     79  F   UNL A   1      46.876  29.324  29.508  1.00  0.00    -0.203 F 
ATOM     80  F   UNL A   1      47.582  25.773  33.591  1.00  0.00    -0.200 F 
ATOM     81  C   UNL A   1      48.417  26.860  31.668  1.00  0.00     0.200 A 
ATOM     82  F   UNL A   1      49.214  27.983  29.752  1.00  0.00    -0.200 F 
ATOM     83  F   UNL A   1      49.587  26.222  31.799  1.00  0.00    -0.200 F 
ENDBRANCH  59  73
BRANCH  60  84
ATOM     84  C   UNL A   1      37.012  32.497  30.305  1.00  0.00     0.064 A 
ATOM     85  C   UNL A   1      36.681  33.266  29.181  1.00  0.00     0.173 A 
ATOM     86  C   UNL A   1      36.037  32.341  31.301  1.00  0.00     0.173 A 
ATOM     87  F   UNL A   1      37.588  33.461  28.213  1.00  0.00    -0.203 F 
ATOM     88  C   UNL A   1      35.430  33.869  29.064  1.00  0.00     0.198 A 
ATOM     89  C   UNL A   1      34.779  32.925  31.172  1.00  0.00     0.198 A 
ATOM     90  F   UNL A   1      36.304  31.613  32.394  1.00  0.00    -0.203 F 
ATOM     91  F   UNL A   1      35.154  34.631  27.998  1.00  0.00    -0.200 F 
ATOM     92  C   UNL A   1      34.478  33.694  30.058  1.00  0.00     0.200 A 
ATOM     93  F   UNL A   1      33.857  32.746  32.129  1.00  0.00    -0.200 F 
ATOM     94  F   UNL A   1      33.275  34.272  29.944  1.00  0.00    -0.200 F 
ENDBRANCH  60  84
BRANCH  72  95
ATOM     95  C   UNL A   1      42.848  34.297  33.664  1.00  0.00     0.064 A 
ATOM     96  C   UNL A   1      43.271  35.494  33.070  1.00  0.00     0.173 A 
ATOM     97  C   UNL A   1      42.706  34.265  35.060  1.00  0.00     0.173 A 
ATOM     98  F   UNL A   1      43.434  35.567  31.740  1.00  0.00    -0.203 F 
ATOM     99  C   UNL A   1      43.547  36.616  33.847  1.00  0.00     0.198 A 
ATOM    100  C   UNL A   1      42.962  35.394  35.830  1.00  0.00     0.198 A 
ATOM    101  F   UNL A   1      42.299  33.143  35.672  1.00  0.00    -0.203 F 
ATOM    102  F   UNL A   1      43.976  37.743  33.263  1.00  0.00    -0.200 F 
ATOM    103  C   UNL A   1      43.384  36.568  35.224  1.00  0.00     0.200 A 
ATOM    104  F   UNL A   1      42.792  35.351  37.159  1.00  0.00    -0.200 F 
ATOM    105  F   UNL A   1      43.636  37.654  35.968  1.00  0.00    -0.200 F 
ENDBRANCH  72  95
ENDBRANCH  46  47
ENDBRANCH  38  41
ENDBRANCH  36  37
ENDBRANCH  35  36
ENDBRANCH   1  35
TORSDOF 15
ENDMDL
MODEL 2
REMARK VINA RESULT:     -11.4      5.990     12.779
REMARK SMILES CS(=O)(=O)c1ccc(C2=NN(c3ccc(C(=O)NCCCCNC(=O)c4ccc(-c5c6nc(c(-c7c(F)c(F)c(F)c(F)c7F)c7ccc([nH]7)c(-c7c(F)c(F)c(F)c(F)c7F)c7nc(c(-c8c(F)c(F)c(F)c(F)c8F)c8ccc5[nH]8)C=C7)C=C6)cc4)cc3)[C@H](c3ccc(Cl)cc3)C2)cc1
REMARK SMILES IDX 20 1 19 2 18 3 16 4 17 5 15 7 12 8 13 9 90 10 14 11 89 12
REMARK SMILES IDX 11 13 9 14 10 15 99 16 91 17 8 18 5 19 6 20 101 21 7 22
REMARK SMILES IDX 100 23 2 24 1 25 3 26 4 27 92 28 93 29 98 30 94 31 97 32
REMARK SMILES IDX 95 33 96 34 21 35 22 36 23 37 24 38 25 40 26 41 27 42 88 43
REMARK SMILES IDX 28 44 87 45 29 46 30 47 31 48 81 49 32 50 86 51 80 52 82 53
REMARK SMILES IDX 33 54 85 55 79 56 78 57 34 59 66 60 46 61 65 62 47 63 50 64
REMARK SMILES IDX 64 65 83 66 48 67 49 68 63 70 84 71 51 72 35 73 36 74 44 75
REMARK SMILES IDX 37 76 38 77 42 78 45 79 39 80 40 81 43 82 41 83 67 84 68 85
REMARK SMILES IDX 76 86 69 87 70 88 74 89 77 90 71 91 72 92 75 93 73 94 52 95
REMARK SMILES IDX 53 96 61 97 54 98 55 99 59 100 62 101 56 102 57 103 60 104
REMARK SMILES IDX 58 105
REMARK H PARENT 18 6 23 39 82 58 50 69
REMARK Flexibility Score: inf
ROOT
ATOM      1  C   UNL A   1      36.580  29.986  30.220  1.00  0.00     0.023 C 
ENDROOT
BRANCH   1   2
ATOM      2  C   UNL A   1      36.004  29.706  28.831  1.00  0.00     0.116 C 
BRANCH   2   3
ATOM      3  N   UNL A   1      35.064  30.736  28.427  1.00  0.00    -0.352 N 
ATOM      4  C   UNL A   1      34.015  30.674  27.541  1.00  0.00     0.251 C 
ATOM      5  O   UNL A   1      33.256  31.635  27.441  1.00  0.00    -0.269 OA
ATOM      6  H   UNL A   1      35.199  31.614  28.852  1.00  0.00     0.163 HD
BRANCH   4   7
ATOM      7  C   UNL A   1      33.744  29.442  26.763  1.00  0.00     0.039 A 
ATOM      8  C   UNL A   1      33.167  27.206  25.163  1.00  0.00     0.060 A 
ATOM      9  C   UNL A   1      33.935  28.262  24.659  1.00  0.00     0.029 A 
ATOM     10  C   UNL A   1      32.758  27.251  26.497  1.00  0.00     0.029 A 
ATOM     11  C   UNL A   1      34.235  29.370  25.456  1.00  0.00     0.016 A 
ATOM     12  C   UNL A   1      33.049  28.356  27.295  1.00  0.00     0.016 A 
BRANCH   8  13
ATOM     13  N   UNL A   1      32.803  26.141  24.365  1.00  0.00    -0.257 N 
ATOM     14  C   UNL A   1      32.797  24.111  23.767  1.00  0.00     0.071 C 
ATOM     15  N   UNL A   1      32.969  24.873  24.803  1.00  0.00    -0.176 NA
ATOM     16  C   UNL A   1      32.491  24.838  22.480  1.00  0.00     0.091 C 
ATOM     17  C   UNL A   1      32.228  26.251  23.028  1.00  0.00     0.144 C 
BRANCH  14  18
ATOM     18  C   UNL A   1      32.955  22.648  23.840  1.00  0.00    -0.002 A 
ATOM     19  C   UNL A   1      33.086  19.869  24.037  1.00  0.00     0.067 A 
ATOM     20  C   UNL A   1      32.154  20.462  23.179  1.00  0.00     0.021 A 
ATOM     21  C   UNL A   1      33.955  20.658  24.797  1.00  0.00     0.021 A 
ATOM     22  C   UNL A   1      32.086  21.850  23.087  1.00  0.00     0.011 A 
ATOM     23  C   UNL A   1      33.892  22.053  24.692  1.00  0.00     0.011 A 
BRANCH  19  24
ATOM     24  S   UNL A   1      33.083  18.093  24.119  1.00  0.00     0.175 S 
ATOM     25  C   UNL A   1      34.697  17.577  24.621  1.00  0.00     0.163 C 
ATOM     26  O   UNL A   1      32.874  17.628  22.762  1.00  0.00    -0.224 OA
ATOM     27  O   UNL A   1      32.168  17.735  25.187  1.00  0.00    -0.224 OA
ENDBRANCH  19  24
ENDBRANCH  14  18
BRANCH  17  28
ATOM     28  C   UNL A   1      30.773  26.717  23.130  1.00  0.00    -0.023 A 
ATOM     29  C   UNL A   1      29.758  25.980  23.762  1.00  0.00     0.007 A 
ATOM     30  C   UNL A   1      30.440  27.992  22.624  1.00  0.00     0.007 A 
ATOM     31  C   UNL A   1      28.457  26.491  23.865  1.00  0.00     0.021 A 
ATOM     32  C   UNL A   1      29.149  28.511  22.747  1.00  0.00     0.021 A 
ATOM     33  C   UNL A   1      28.159  27.755  23.364  1.00  0.00     0.041 A 
ATOM     34  Cl  UNL A   1      26.569  28.390  23.520  1.00  0.00    -0.084 Cl
ENDBRANCH  17  28
ENDBRANCH   8  13
ENDBRANCH   4   7
ENDBRANCH   2   3
ENDBRANCH   1   2
BRANCH   1  35
ATOM     35  C   UNL A   1      35.808  31.030  31.028  1.00  0.00     0.023 C 
BRANCH  35  36
ATOM     36  C   UNL A   1      36.158  31.073  32.508  1.00  0.00     0.116 C 
BRANCH  36  37
ATOM     37  N   UNL A   1      36.232  32.423  33.044  1.00  0.00    -0.352 N 
ATOM     38  C   UNL A   1      37.319  33.272  33.053  1.00  0.00     0.251 C 
ATOM     39  H   UNL A   1      35.406  32.774  33.449  1.00  0.00     0.163 HD
ATOM     40  O   UNL A   1      37.278  34.349  33.615  1.00  0.00    -0.269 OA
BRANCH  38  41
ATOM     41  C   UNL A   1      38.561  32.815  32.395  1.00  0.00     0.039 A 
ATOM     42  C   UNL A   1      39.476  32.059  33.132  1.00  0.00     0.014 A 
ATOM     43  C   UNL A   1      38.769  33.067  31.038  1.00  0.00     0.014 A 
ATOM     44  C   UNL A   1      40.571  31.484  32.483  1.00  0.00     0.010 A 
ATOM     45  C   UNL A   1      39.823  32.443  30.383  1.00  0.00     0.010 A 
ATOM     46  C   UNL A   1      40.726  31.639  31.097  1.00  0.00    -0.014 A 
BRANCH  46  47
ATOM     47  C   UNL A   1      41.826  30.981  30.352  1.00  0.00     0.031 A 
ATOM     48  C   UNL A   1      43.077  31.753  30.054  1.00  0.00     0.074 A 
ATOM     49  C   UNL A   1      41.652  29.742  29.851  1.00  0.00     0.049 A 
ATOM     50  N   UNL A   1      44.071  31.448  29.260  1.00  0.00    -0.248 NA
ATOM     51  C   UNL A   1      43.210  33.061  30.713  1.00  0.00     0.031 C 
ATOM     52  C   UNL A   1      40.468  28.906  30.048  1.00  0.00     0.029 A 
ATOM     53  N   UNL A   1      42.466  28.984  29.047  1.00  0.00    -0.354 N 
ATOM     54  C   UNL A   1      44.926  32.540  29.296  1.00  0.00     0.074 A 
ATOM     55  C   UNL A   1      44.322  33.527  30.163  1.00  0.00     0.031 C 
ATOM     56  C   UNL A   1      40.634  27.748  29.386  1.00  0.00     0.029 A 
ATOM     57  C   UNL A   1      41.913  27.780  28.684  1.00  0.00     0.049 A 
ATOM     58  H   UNL A   1      43.361  29.276  28.758  1.00  0.00     0.167 HD
ATOM     59  C   UNL A   1      46.117  32.696  28.670  1.00  0.00     0.037 A 
ATOM     60  C   UNL A   1      42.379  26.822  27.860  1.00  0.00     0.037 A 
ATOM     61  C   UNL A   1      46.732  31.693  27.843  1.00  0.00     0.049 A 
ATOM     62  C   UNL A   1      43.709  27.016  27.185  1.00  0.00     0.074 A 
ATOM     63  C   UNL A   1      47.963  31.730  27.214  1.00  0.00     0.029 A 
ATOM     64  N   UNL A   1      46.161  30.466  27.539  1.00  0.00    -0.354 N 
ATOM     65  N   UNL A   1      44.531  28.034  27.257  1.00  0.00    -0.248 NA
ATOM     66  C   UNL A   1      44.177  25.929  26.313  1.00  0.00     0.031 C 
ATOM     67  C   UNL A   1      48.126  30.537  26.504  1.00  0.00     0.029 A 
ATOM     68  C   UNL A   1      47.012  29.741  26.722  1.00  0.00     0.049 A 
ATOM     69  H   UNL A   1      45.283  30.157  27.857  1.00  0.00     0.167 HD
ATOM     70  C   UNL A   1      45.624  27.700  26.470  1.00  0.00     0.074 A 
ATOM     71  C   UNL A   1      45.363  26.382  25.929  1.00  0.00     0.031 C 
ATOM     72  C   UNL A   1      46.744  28.420  26.218  1.00  0.00     0.037 A 
BRANCH  59  73
ATOM     73  C   UNL A   1      46.831  34.001  28.858  1.00  0.00     0.064 A 
ATOM     74  C   UNL A   1      47.762  34.186  29.890  1.00  0.00     0.173 A 
ATOM     75  C   UNL A   1      46.601  35.069  27.979  1.00  0.00     0.173 A 
ATOM     76  F   UNL A   1      48.006  33.199  30.765  1.00  0.00    -0.203 F 
ATOM     77  C   UNL A   1      48.417  35.404  30.052  1.00  0.00     0.198 A 
ATOM     78  C   UNL A   1      47.279  36.276  28.127  1.00  0.00     0.198 A 
ATOM     79  F   UNL A   1      45.723  34.941  26.973  1.00  0.00    -0.203 F 
ATOM     80  F   UNL A   1      49.267  35.574  31.074  1.00  0.00    -0.200 F 
ATOM     81  C   UNL A   1      48.180  36.445  29.167  1.00  0.00     0.200 A 
ATOM     82  F   UNL A   1      47.057  37.278  27.265  1.00  0.00    -0.200 F 
ATOM     83  F   UNL A   1      48.815  37.614  29.321  1.00  0.00    -0.200 F 
ENDBRANCH  59  73
BRANCH  60  84
ATOM     84  C   UNL A   1      41.587  25.585  27.639  1.00  0.00     0.064 A 
ATOM     85  C   UNL A   1      41.925  24.393  28.292  1.00  0.00     0.173 A 
ATOM     86  C   UNL A   1      40.483  25.566  26.773  1.00  0.00     0.173 A 
ATOM     87  F   UNL A   1      42.986  24.357  29.112  1.00  0.00    -0.203 F 
ATOM     88  C   UNL A   1      41.200  23.223  28.077  1.00  0.00     0.198 A 
ATOM     89  C   UNL A   1      39.745  24.402  26.577  1.00  0.00     0.198 A 
ATOM     90  F   UNL A   1      40.117  26.683  26.127  1.00  0.00    -0.203 F 
ATOM     91  F   UNL A   1      41.570  22.087  28.684  1.00  0.00    -0.200 F 
ATOM     92  C   UNL A   1      40.107  23.230  27.223  1.00  0.00     0.200 A 
ATOM     93  F   UNL A   1      38.682  24.414  25.760  1.00  0.00    -0.200 F 
ATOM     94  F   UNL A   1      39.408  22.105  27.019  1.00  0.00    -0.200 F 
ENDBRANCH  60  84
BRANCH  72  95
ATOM     95  C   UNL A   1      47.797  27.784  25.363  1.00  0.00     0.064 A 
ATOM     96  C   UNL A   1      47.733  27.825  23.964  1.00  0.00     0.173 A 
ATOM     97  C   UNL A   1      48.923  27.192  25.956  1.00  0.00     0.173 A 
ATOM     98  F   UNL A   1      46.668  28.369  23.353  1.00  0.00    -0.203 F 
ATOM     99  C   UNL A   1      48.756  27.289  23.187  1.00  0.00     0.198 A 
ATOM    100  C   UNL A   1      49.954  26.677  25.176  1.00  0.00     0.198 A 
ATOM    101  F   UNL A   1      49.032  27.133  27.292  1.00  0.00    -0.203 F 
ATOM    102  F   UNL A   1      48.663  27.315  21.850  1.00  0.00    -0.200 F 
ATOM    103  C   UNL A   1      49.868  26.724  23.793  1.00  0.00     0.200 A 
ATOM    104  F   UNL A   1      51.034  26.142  25.763  1.00  0.00    -0.200 F 
ATOM    105  F   UNL A   1      50.859  26.222  23.042  1.00  0.00    -0.200 F 
ENDBRANCH  72  95
ENDBRANCH  46  47
ENDBRANCH  38  41
ENDBRANCH  36  37
ENDBRANCH  35  36
ENDBRANCH   1  35
TORSDOF 15
ENDMDL
MODEL 3
REMARK VINA RESULT:     -11.3      5.485      9.364
REMARK SMILES CS(=O)(=O)c1ccc(C2=NN(c3ccc(C(=O)NCCCCNC(=O)c4ccc(-c5c6nc(c(-c7c(F)c(F)c(F)c(F)c7F)c7ccc([nH]7)c(-c7c(F)c(F)c(F)c(F)c7F)c7nc(c(-c8c(F)c(F)c(F)c(F)c8F)c8ccc5[nH]8)C=C7)C=C6)cc4)cc3)[C@H](c3ccc(Cl)cc3)C2)cc1
REMARK SMILES IDX 20 1 19 2 18 3 16 4 17 5 15 7 12 8 13 9 90 10 14 11 89 12
REMARK SMILES IDX 11 13 9 14 10 15 99 16 91 17 8 18 5 19 6 20 101 21 7 22
REMARK SMILES IDX 100 23 2 24 1 25 3 26 4 27 92 28 93 29 98 30 94 31 97 32
REMARK SMILES IDX 95 33 96 34 21 35 22 36 23 37 24 38 25 40 26 41 27 42 88 43
REMARK SMILES IDX 28 44 87 45 29 46 30 47 31 48 81 49 32 50 86 51 80 52 82 53
REMARK SMILES IDX 33 54 85 55 79 56 78 57 34 59 66 60 46 61 65 62 47 63 50 64
REMARK SMILES IDX 64 65 83 66 48 67 49 68 63 70 84 71 51 72 35 73 36 74 44 75
REMARK SMILES IDX 37 76 38 77 42 78 45 79 39 80 40 81 43 82 41 83 67 84 68 85
REMARK SMILES IDX 76 86 69 87 70 88 74 89 77 90 71 91 72 92 75 93 73 94 52 95
REMARK SMILES IDX 53 96 61 97 54 98 55 99 59 100 62 101 56 102 57 103 60 104
REMARK SMILES IDX 58 105
REMARK H PARENT 18 6 23 39 82 58 50 69
REMARK Flexibility Score: inf
ROOT
ATOM      1  C   UNL A   1      40.972  25.671  26.248  1.00  0.00     0.023 C 
ENDROOT
BRANCH   1   2
ATOM      2  C   UNL A   1      39.606  24.991  26.360  1.00  0.00     0.116 C 
BRANCH   2   3
ATOM      3  N   UNL A   1      39.711  23.554  26.190  1.00  0.00    -0.352 N 
ATOM      4  C   UNL A   1      38.761  22.640  25.802  1.00  0.00     0.251 C 
ATOM      5  O   UNL A   1      39.096  21.477  25.593  1.00  0.00    -0.269 OA
ATOM      6  H   UNL A   1      40.600  23.174  26.382  1.00  0.00     0.163 HD
BRANCH   4   7
ATOM      7  C   UNL A   1      37.357  23.053  25.563  1.00  0.00     0.039 A 
ATOM      8  C   UNL A   1      34.647  23.693  25.193  1.00  0.00     0.060 A 
ATOM      9  C   UNL A   1      35.148  23.433  26.473  1.00  0.00     0.029 A 
ATOM     10  C   UNL A   1      35.534  23.702  24.115  1.00  0.00     0.029 A 
ATOM     11  C   UNL A   1      36.499  23.127  26.664  1.00  0.00     0.016 A 
ATOM     12  C   UNL A   1      36.880  23.391  24.297  1.00  0.00     0.016 A 
BRANCH   8  13
ATOM     13  N   UNL A   1      33.303  23.926  24.982  1.00  0.00    -0.257 N 
ATOM     14  C   UNL A   1      31.616  25.115  24.522  1.00  0.00     0.071 C 
ATOM     15  N   UNL A   1      32.897  25.040  24.336  1.00  0.00    -0.176 NA
ATOM     16  C   UNL A   1      31.023  24.005  25.355  1.00  0.00     0.091 C 
ATOM     17  C   UNL A   1      32.222  23.043  25.410  1.00  0.00     0.144 C 
BRANCH  14  18
ATOM     18  C   UNL A   1      30.816  26.242  24.008  1.00  0.00    -0.002 A 
ATOM     19  C   UNL A   1      29.360  28.470  23.178  1.00  0.00     0.067 A 
ATOM     20  C   UNL A   1      30.752  28.552  23.292  1.00  0.00     0.021 A 
ATOM     21  C   UNL A   1      28.691  27.279  23.477  1.00  0.00     0.021 A 
ATOM     22  C   UNL A   1      31.476  27.440  23.713  1.00  0.00     0.011 A 
ATOM     23  C   UNL A   1      29.425  26.159  23.887  1.00  0.00     0.011 A 
BRANCH  19  24
ATOM     24  S   UNL A   1      28.509  29.945  22.666  1.00  0.00     0.175 S 
ATOM     25  C   UNL A   1      29.144  31.289  23.624  1.00  0.00     0.163 C 
ATOM     26  O   UNL A   1      27.121  29.758  23.037  1.00  0.00    -0.224 OA
ATOM     27  O   UNL A   1      28.896  30.183  21.288  1.00  0.00    -0.224 OA
ENDBRANCH  19  24
ENDBRANCH  14  18
BRANCH  17  28
ATOM     28  C   UNL A   1      32.183  21.803  24.513  1.00  0.00    -0.023 A 
ATOM     29  C   UNL A   1      32.017  21.852  23.119  1.00  0.00     0.007 A 
ATOM     30  C   UNL A   1      32.397  20.541  25.105  1.00  0.00     0.007 A 
ATOM     31  C   UNL A   1      32.045  20.679  22.351  1.00  0.00     0.021 A 
ATOM     32  C   UNL A   1      32.447  19.374  24.337  1.00  0.00     0.021 A 
ATOM     33  C   UNL A   1      32.265  19.448  22.961  1.00  0.00     0.041 A 
ATOM     34  Cl  UNL A   1      32.328  18.016  22.011  1.00  0.00    -0.084 Cl
ENDBRANCH  17  28
ENDBRANCH   8  13
ENDBRANCH   4   7
ENDBRANCH   2   3
ENDBRANCH   1   2
BRANCH   1  35
ATOM     35  C   UNL A   1      41.830  25.181  25.082  1.00  0.00     0.023 C 
BRANCH  35  36
ATOM     36  C   UNL A   1      42.818  24.080  25.438  1.00  0.00     0.116 C 
BRANCH  36  37
ATOM     37  N   UNL A   1      44.161  24.327  24.937  1.00  0.00    -0.352 N 
ATOM     38  C   UNL A   1      45.064  25.277  25.367  1.00  0.00     0.251 C 
ATOM     39  H   UNL A   1      44.463  23.745  24.203  1.00  0.00     0.163 HD
ATOM     40  O   UNL A   1      46.129  25.441  24.803  1.00  0.00    -0.269 OA
BRANCH  38  41
ATOM     41  C   UNL A   1      44.682  26.128  26.514  1.00  0.00     0.039 A 
ATOM     42  C   UNL A   1      44.589  27.509  26.326  1.00  0.00     0.014 A 
ATOM     43  C   UNL A   1      44.342  25.546  27.736  1.00  0.00     0.014 A 
ATOM     44  C   UNL A   1      44.073  28.307  27.350  1.00  0.00     0.010 A 
ATOM     45  C   UNL A   1      43.771  26.332  28.729  1.00  0.00     0.010 A 
ATOM     46  C   UNL A   1      43.623  27.716  28.540  1.00  0.00    -0.014 A 
BRANCH  46  47
ATOM     47  C   UNL A   1      42.994  28.512  29.623  1.00  0.00     0.031 A 
ATOM     48  C   UNL A   1      43.663  28.587  30.963  1.00  0.00     0.074 A 
ATOM     49  C   UNL A   1      41.780  29.062  29.433  1.00  0.00     0.049 A 
ATOM     50  N   UNL A   1      43.203  29.055  32.095  1.00  0.00    -0.248 NA
ATOM     51  C   UNL A   1      45.021  28.029  31.048  1.00  0.00     0.031 C 
ATOM     52  C   UNL A   1      41.018  29.029  28.184  1.00  0.00     0.029 A 
ATOM     53  N   UNL A   1      40.960  29.735  30.306  1.00  0.00    -0.354 N 
ATOM     54  C   UNL A   1      44.198  28.814  33.031  1.00  0.00     0.074 A 
ATOM     55  C   UNL A   1      45.273  28.132  32.345  1.00  0.00     0.031 C 
ATOM     56  C   UNL A   1      39.844  29.656  28.370  1.00  0.00     0.029 A 
ATOM     57  C   UNL A   1      39.753  30.095  29.759  1.00  0.00     0.049 A 
ATOM     58  H   UNL A   1      41.214  29.938  31.235  1.00  0.00     0.167 HD
ATOM     59  C   UNL A   1      44.215  29.146  34.344  1.00  0.00     0.037 A 
ATOM     60  C   UNL A   1      38.686  30.694  30.323  1.00  0.00     0.037 A 
ATOM     61  C   UNL A   1      43.161  29.862  35.009  1.00  0.00     0.049 A 
ATOM     62  C   UNL A   1      38.736  31.061  31.781  1.00  0.00     0.074 A 
ATOM     63  C   UNL A   1      43.110  30.299  36.321  1.00  0.00     0.029 A 
ATOM     64  N   UNL A   1      41.974  30.253  34.408  1.00  0.00    -0.354 N 
ATOM     65  N   UNL A   1      39.698  30.867  32.650  1.00  0.00    -0.248 NA
ATOM     66  C   UNL A   1      37.551  31.731  32.338  1.00  0.00     0.031 C 
ATOM     67  C   UNL A   1      41.878  30.930  36.522  1.00  0.00     0.029 A 
ATOM     68  C   UNL A   1      41.178  30.918  35.325  1.00  0.00     0.049 A 
ATOM     69  H   UNL A   1      41.733  30.083  33.469  1.00  0.00     0.167 HD
ATOM     70  C   UNL A   1      39.251  31.416  33.844  1.00  0.00     0.074 A 
ATOM     71  C   UNL A   1      37.931  31.954  33.589  1.00  0.00     0.031 C 
ATOM     72  C   UNL A   1      39.879  31.470  35.043  1.00  0.00     0.037 A 
BRANCH  59  73
ATOM     73  C   UNL A   1      45.415  28.737  35.144  1.00  0.00     0.064 A 
ATOM     74  C   UNL A   1      46.538  29.569  35.262  1.00  0.00     0.173 A 
ATOM     75  C   UNL A   1      45.431  27.510  35.824  1.00  0.00     0.173 A 
ATOM     76  F   UNL A   1      46.577  30.746  34.619  1.00  0.00    -0.203 F 
ATOM     77  C   UNL A   1      47.645  29.175  36.009  1.00  0.00     0.198 A 
ATOM     78  C   UNL A   1      46.528  27.133  36.593  1.00  0.00     0.198 A 
ATOM     79  F   UNL A   1      44.380  26.680  35.747  1.00  0.00    -0.203 F 
ATOM     80  F   UNL A   1      48.725  29.966  36.068  1.00  0.00    -0.200 F 
ATOM     81  C   UNL A   1      47.636  27.962  36.679  1.00  0.00     0.200 A 
ATOM     82  F   UNL A   1      46.515  25.964  37.248  1.00  0.00    -0.200 F 
ATOM     83  F   UNL A   1      48.701  27.587  37.401  1.00  0.00    -0.200 F 
ENDBRANCH  59  73
BRANCH  60  84
ATOM     84  C   UNL A   1      37.485  30.996  29.503  1.00  0.00     0.064 A 
ATOM     85  C   UNL A   1      36.553  29.994  29.204  1.00  0.00     0.173 A 
ATOM     86  C   UNL A   1      37.245  32.283  29.001  1.00  0.00     0.173 A 
ATOM     87  F   UNL A   1      36.751  28.742  29.645  1.00  0.00    -0.203 F 
ATOM     88  C   UNL A   1      35.432  30.263  28.421  1.00  0.00     0.198 A 
ATOM     89  C   UNL A   1      36.113  32.556  28.237  1.00  0.00     0.198 A 
ATOM     90  F   UNL A   1      38.107  33.277  29.261  1.00  0.00    -0.203 F 
ATOM     91  F   UNL A   1      34.578  29.277  28.117  1.00  0.00    -0.200 F 
ATOM     92  C   UNL A   1      35.211  31.545  27.941  1.00  0.00     0.200 A 
ATOM     93  F   UNL A   1      35.896  33.799  27.784  1.00  0.00    -0.200 F 
ATOM     94  F   UNL A   1      34.132  31.804  27.190  1.00  0.00    -0.200 F 
ENDBRANCH  60  84
BRANCH  72  95
ATOM     95  C   UNL A   1      39.175  32.177  36.161  1.00  0.00     0.064 A 
ATOM     96  C   UNL A   1      38.226  31.526  36.960  1.00  0.00     0.173 A 
ATOM     97  C   UNL A   1      39.514  33.501  36.481  1.00  0.00     0.173 A 
ATOM     98  F   UNL A   1      37.862  30.265  36.683  1.00  0.00    -0.203 F 
ATOM     99  C   UNL A   1      37.634  32.179  38.037  1.00  0.00     0.198 A 
ATOM    100  C   UNL A   1      38.935  34.143  37.571  1.00  0.00     0.198 A 
ATOM    101  F   UNL A   1      40.421  34.163  35.747  1.00  0.00    -0.203 F 
ATOM    102  F   UNL A   1      36.708  31.549  38.774  1.00  0.00    -0.200 F 
ATOM    103  C   UNL A   1      37.995  33.482  38.347  1.00  0.00     0.200 A 
ATOM    104  F   UNL A   1      39.294  35.397  37.877  1.00  0.00    -0.200 F 
ATOM    105  F   UNL A   1      37.434  34.104  39.394  1.00  0.00    -0.200 F 
ENDBRANCH  72  95
ENDBRANCH  46  47
ENDBRANCH  38  41
ENDBRANCH  36  37
ENDBRANCH  35  36
ENDBRANCH   1  35
TORSDOF 15
ENDMDL
