MODEL 1
REMARK VINA RESULT:     -13.0      0.000      0.000
REMARK SMILES CCn1c(N2CCC(C(=O)NCCCCNC(=O)c3ccc(-c4c5nc(c(-c6c(F)c(F)c(F)c(F)c6F)c6ccc([nH]6)c(-c6c(F)c(F)c(F)c(F)c6F)c6nc(c(-c7c(F)c(F)c(F)c(F)c7F)c7ccc4[nH]7)C=C6)C=C5)cc3)CC2)nc2cc(C)ccc21
REMARK SMILES IDX 13 1 12 2 11 3 9 4 10 5 8 7 5 8 6 9 83 10 7 11 82 12 4 13
REMARK SMILES IDX 3 14 91 15 84 16 85 17 90 18 86 19 89 20 87 21 88 22 2 23
REMARK SMILES IDX 1 24 14 25 15 26 16 27 17 28 18 30 19 31 20 32 81 33 21 34
REMARK SMILES IDX 80 35 22 36 23 37 24 38 74 39 25 40 79 41 73 42 75 43 26 44
REMARK SMILES IDX 78 45 72 46 71 47 27 49 59 50 39 51 58 52 40 53 43 54 57 55
REMARK SMILES IDX 76 56 41 57 42 58 56 60 77 61 44 62 28 63 29 64 37 65 30 66
REMARK SMILES IDX 31 67 35 68 38 69 32 70 33 71 36 72 34 73 60 74 61 75 69 76
REMARK SMILES IDX 62 77 63 78 67 79 70 80 64 81 65 82 68 83 66 84 45 85 46 86
REMARK SMILES IDX 54 87 47 88 48 89 52 90 55 91 49 92 50 93 53 94 51 95
REMARK H PARENT 11 6 16 29 75 48 43 59
REMARK Flexibility Score: inf
ROOT
ATOM      1  C   UNL A   1      37.639  23.612  25.998  1.00  0.00     0.023 C 
ENDROOT
BRANCH   1   2
ATOM      2  C   UNL A   1      36.156  23.273  26.084  1.00  0.00     0.116 C 
BRANCH   2   3
ATOM      3  N   UNL A   1      35.891  21.884  25.744  1.00  0.00    -0.356 N 
ATOM      4  C   UNL A   1      34.941  21.338  24.937  1.00  0.00     0.223 C 
ATOM      5  O   UNL A   1      34.955  20.114  24.782  1.00  0.00    -0.275 OA
ATOM      6  H   UNL A   1      36.498  21.234  26.165  1.00  0.00     0.163 HD
BRANCH   4   7
ATOM      7  C   UNL A   1      33.895  22.192  24.234  1.00  0.00     0.082 C 
ATOM      8  N   UNL A   1      32.703  24.757  23.846  1.00  0.00    -0.342 N 
ATOM      9  C   UNL A   1      31.941  23.772  24.597  1.00  0.00     0.120 C 
ATOM     10  C   UNL A   1      33.556  24.258  22.780  1.00  0.00     0.120 C 
ATOM     11  C   UNL A   1      32.858  22.736  25.226  1.00  0.00     0.035 C 
ATOM     12  C   UNL A   1      34.550  23.239  23.322  1.00  0.00     0.035 C 
BRANCH   8  13
ATOM     13  C   UNL A   1      32.847  26.008  24.347  1.00  0.00     0.206 A 
ATOM     14  N   UNL A   1      31.949  27.015  24.050  1.00  0.00    -0.310 N 
ATOM     15  C   UNL A   1      32.257  28.109  24.831  1.00  0.00     0.070 A 
ATOM     16  N   UNL A   1      33.717  26.410  25.249  1.00  0.00    -0.213 NA
ATOM     17  C   UNL A   1      33.379  27.711  25.547  1.00  0.00     0.091 A 
ATOM     18  C   UNL A   1      31.662  29.367  24.989  1.00  0.00     0.029 A 
ATOM     19  C   UNL A   1      33.970  28.616  26.447  1.00  0.00     0.034 A 
ATOM     20  C   UNL A   1      32.258  30.250  25.894  1.00  0.00     0.006 A 
ATOM     21  C   UNL A   1      33.403  29.896  26.617  1.00  0.00    -0.049 A 
ATOM     22  C   UNL A   1      34.020  30.866  27.583  1.00  0.00     0.044 C 
BRANCH  14  23
ATOM     23  C   UNL A   1      30.774  26.913  23.207  1.00  0.00     0.122 C 
ATOM     24  C   UNL A   1      29.515  26.564  23.983  1.00  0.00     0.028 C 
ENDBRANCH  14  23
ENDBRANCH   8  13
ENDBRANCH   4   7
ENDBRANCH   2   3
ENDBRANCH   1   2
BRANCH   1  25
ATOM     25  C   UNL A   1      38.559  22.421  25.718  1.00  0.00     0.023 C 
BRANCH  25  26
ATOM     26  C   UNL A   1      39.667  22.194  26.752  1.00  0.00     0.116 C 
BRANCH  26  27
ATOM     27  N   UNL A   1      41.008  22.243  26.202  1.00  0.00    -0.352 N 
ATOM     28  C   UNL A   1      42.032  23.148  26.227  1.00  0.00     0.251 C 
ATOM     29  H   UNL A   1      41.235  21.435  25.690  1.00  0.00     0.163 HD
ATOM     30  O   UNL A   1      43.104  22.768  25.744  1.00  0.00    -0.269 OA
BRANCH  28  31
ATOM     31  C   UNL A   1      41.946  24.540  26.751  1.00  0.00     0.039 A 
ATOM     32  C   UNL A   1      42.519  24.990  27.936  1.00  0.00     0.014 A 
ATOM     33  C   UNL A   1      41.169  25.446  26.000  1.00  0.00     0.014 A 
ATOM     34  C   UNL A   1      42.273  26.280  28.394  1.00  0.00     0.010 A 
ATOM     35  C   UNL A   1      40.937  26.748  26.443  1.00  0.00     0.010 A 
ATOM     36  C   UNL A   1      41.463  27.157  27.663  1.00  0.00    -0.014 A 
BRANCH  36  37
ATOM     37  C   UNL A   1      41.281  28.499  28.212  1.00  0.00     0.031 A 
ATOM     38  C   UNL A   1      42.383  29.459  27.935  1.00  0.00     0.074 A 
ATOM     39  C   UNL A   1      40.203  28.915  28.906  1.00  0.00     0.049 A 
ATOM     40  N   UNL A   1      43.171  30.029  28.789  1.00  0.00    -0.248 NA
ATOM     41  C   UNL A   1      42.689  29.774  26.533  1.00  0.00     0.031 C 
ATOM     42  C   UNL A   1      38.910  28.241  29.040  1.00  0.00     0.029 A 
ATOM     43  N   UNL A   1      40.022  30.087  29.592  1.00  0.00    -0.354 N 
ATOM     44  C   UNL A   1      43.975  30.899  28.054  1.00  0.00     0.074 A 
ATOM     45  C   UNL A   1      43.706  30.629  26.665  1.00  0.00     0.031 C 
ATOM     46  C   UNL A   1      38.020  29.096  29.589  1.00  0.00     0.029 A 
ATOM     47  C   UNL A   1      38.714  30.311  29.987  1.00  0.00     0.049 A 
ATOM     48  H   UNL A   1      40.756  30.714  29.786  1.00  0.00     0.167 HD
ATOM     49  C   UNL A   1      44.643  31.919  28.658  1.00  0.00     0.037 A 
ATOM     50  C   UNL A   1      38.217  31.420  30.582  1.00  0.00     0.037 A 
ATOM     51  C   UNL A   1      44.724  31.736  30.080  1.00  0.00     0.049 A 
ATOM     52  C   UNL A   1      39.314  32.117  31.289  1.00  0.00     0.074 A 
ATOM     53  C   UNL A   1      45.518  31.043  30.967  1.00  0.00     0.029 A 
ATOM     54  N   UNL A   1      43.629  32.172  30.769  1.00  0.00    -0.354 N 
ATOM     55  N   UNL A   1      39.922  31.641  32.340  1.00  0.00    -0.248 NA
ATOM     56  C   UNL A   1      39.928  33.302  30.697  1.00  0.00     0.031 C 
ATOM     57  C   UNL A   1      44.774  30.943  32.182  1.00  0.00     0.029 A 
ATOM     58  C   UNL A   1      43.548  31.574  31.998  1.00  0.00     0.049 A 
ATOM     59  H   UNL A   1      42.982  32.830  30.426  1.00  0.00     0.167 HD
ATOM     60  C   UNL A   1      41.181  32.195  32.283  1.00  0.00     0.074 A 
ATOM     61  C   UNL A   1      41.068  33.338  31.391  1.00  0.00     0.031 C 
ATOM     62  C   UNL A   1      42.274  31.481  32.670  1.00  0.00     0.037 A 
BRANCH  49  63
ATOM     63  C   UNL A   1      44.848  33.293  28.057  1.00  0.00     0.064 A 
ATOM     64  C   UNL A   1      46.156  33.713  27.727  1.00  0.00     0.173 A 
ATOM     65  C   UNL A   1      43.879  34.317  28.111  1.00  0.00     0.173 A 
ATOM     66  F   UNL A   1      47.162  32.828  27.664  1.00  0.00    -0.203 F 
ATOM     67  C   UNL A   1      46.478  35.061  27.542  1.00  0.00     0.198 A 
ATOM     68  C   UNL A   1      44.195  35.657  27.875  1.00  0.00     0.198 A 
ATOM     69  F   UNL A   1      42.622  34.083  28.505  1.00  0.00    -0.203 F 
ATOM     70  F   UNL A   1      47.754  35.422  27.351  1.00  0.00    -0.200 F 
ATOM     71  C   UNL A   1      45.498  36.032  27.622  1.00  0.00     0.200 A 
ATOM     72  F   UNL A   1      43.237  36.588  27.980  1.00  0.00    -0.200 F 
ATOM     73  F   UNL A   1      45.813  37.329  27.504  1.00  0.00    -0.200 F 
ENDBRANCH  49  63
BRANCH  50  74
ATOM     74  C   UNL A   1      36.875  32.026  30.438  1.00  0.00     0.064 A 
ATOM     75  C   UNL A   1      35.933  31.950  31.479  1.00  0.00     0.173 A 
ATOM     76  C   UNL A   1      36.599  32.942  29.406  1.00  0.00     0.173 A 
ATOM     77  F   UNL A   1      36.136  31.125  32.516  1.00  0.00    -0.203 F 
ATOM     78  C   UNL A   1      34.811  32.782  31.512  1.00  0.00     0.198 A 
ATOM     79  C   UNL A   1      35.471  33.763  29.435  1.00  0.00     0.198 A 
ATOM     80  F   UNL A   1      37.468  33.131  28.402  1.00  0.00    -0.203 F 
ATOM     81  F   UNL A   1      33.982  32.739  32.563  1.00  0.00    -0.200 F 
ATOM     82  C   UNL A   1      34.590  33.698  30.498  1.00  0.00     0.200 A 
ATOM     83  F   UNL A   1      35.283  34.667  28.462  1.00  0.00    -0.200 F 
ATOM     84  F   UNL A   1      33.554  34.546  30.567  1.00  0.00    -0.200 F 
ENDBRANCH  50  74
BRANCH  62  85
ATOM     85  C   UNL A   1      42.064  30.398  33.675  1.00  0.00     0.064 A 
ATOM     86  C   UNL A   1      41.652  29.096  33.353  1.00  0.00     0.173 A 
ATOM     87  C   UNL A   1      42.341  30.682  35.018  1.00  0.00     0.173 A 
ATOM     88  F   UNL A   1      41.445  28.734  32.079  1.00  0.00    -0.203 F 
ATOM     89  C   UNL A   1      41.479  28.134  34.347  1.00  0.00     0.198 A 
ATOM     90  C   UNL A   1      42.201  29.711  36.004  1.00  0.00     0.198 A 
ATOM     91  F   UNL A   1      42.777  31.902  35.372  1.00  0.00    -0.203 F 
ATOM     92  F   UNL A   1      41.060  26.902  34.024  1.00  0.00    -0.200 F 
ATOM     93  C   UNL A   1      41.758  28.442  35.670  1.00  0.00     0.200 A 
ATOM     94  F   UNL A   1      42.510  30.002  37.275  1.00  0.00    -0.200 F 
ATOM     95  F   UNL A   1      41.619  27.509  36.622  1.00  0.00    -0.200 F 
ENDBRANCH  62  85
ENDBRANCH  36  37
ENDBRANCH  28  31
ENDBRANCH  26  27
ENDBRANCH  25  26
ENDBRANCH   1  25
TORSDOF 13
ENDMDL
MODEL 2
REMARK VINA RESULT:     -12.9      3.574      9.073
REMARK SMILES CCn1c(N2CCC(C(=O)NCCCCNC(=O)c3ccc(-c4c5nc(c(-c6c(F)c(F)c(F)c(F)c6F)c6ccc([nH]6)c(-c6c(F)c(F)c(F)c(F)c6F)c6nc(c(-c7c(F)c(F)c(F)c(F)c7F)c7ccc4[nH]7)C=C6)C=C5)cc3)CC2)nc2cc(C)ccc21
REMARK SMILES IDX 13 1 12 2 11 3 9 4 10 5 8 7 5 8 6 9 83 10 7 11 82 12 4 13
REMARK SMILES IDX 3 14 91 15 84 16 85 17 90 18 86 19 89 20 87 21 88 22 2 23
REMARK SMILES IDX 1 24 14 25 15 26 16 27 17 28 18 30 19 31 20 32 81 33 21 34
REMARK SMILES IDX 80 35 22 36 23 37 24 38 74 39 25 40 79 41 73 42 75 43 26 44
REMARK SMILES IDX 78 45 72 46 71 47 27 49 59 50 39 51 58 52 40 53 43 54 57 55
REMARK SMILES IDX 76 56 41 57 42 58 56 60 77 61 44 62 28 63 29 64 37 65 30 66
REMARK SMILES IDX 31 67 35 68 38 69 32 70 33 71 36 72 34 73 60 74 61 75 69 76
REMARK SMILES IDX 62 77 63 78 67 79 70 80 64 81 65 82 68 83 66 84 45 85 46 86
REMARK SMILES IDX 54 87 47 88 48 89 52 90 55 91 49 92 50 93 53 94 51 95
REMARK H PARENT 11 6 16 29 75 48 43 59
REMARK Flexibility Score: inf
ROOT
ATOM      1  C   UNL A   1      34.000  29.109  26.749  1.00  0.00     0.023 C 
ENDROOT
BRANCH   1   2
ATOM      2  C   UNL A   1      33.666  28.846  25.285  1.00  0.00     0.116 C 
BRANCH   2   3
ATOM      3  N   UNL A   1      32.434  29.504  24.878  1.00  0.00    -0.356 N 
ATOM      4  C   UNL A   1      31.277  28.985  24.385  1.00  0.00     0.223 C 
ATOM      5  O   UNL A   1      30.352  29.767  24.151  1.00  0.00    -0.275 OA
ATOM      6  H   UNL A   1      32.439  30.484  24.974  1.00  0.00     0.163 HD
BRANCH   4   7
ATOM      7  C   UNL A   1      31.106  27.494  24.136  1.00  0.00     0.082 C 
ATOM      8  N   UNL A   1      32.183  24.855  24.308  1.00  0.00    -0.342 N 
ATOM      9  C   UNL A   1      32.118  25.466  22.990  1.00  0.00     0.120 C 
ATOM     10  C   UNL A   1      31.129  25.199  25.248  1.00  0.00     0.120 C 
ATOM     11  C   UNL A   1      32.107  26.982  23.091  1.00  0.00     0.035 C 
ATOM     12  C   UNL A   1      31.068  26.707  25.455  1.00  0.00     0.035 C 
BRANCH   8  13
ATOM     13  C   UNL A   1      33.339  24.276  24.715  1.00  0.00     0.206 A 
ATOM     14  N   UNL A   1      33.571  22.925  24.545  1.00  0.00    -0.310 N 
ATOM     15  C   UNL A   1      34.880  22.667  24.894  1.00  0.00     0.070 A 
ATOM     16  N   UNL A   1      34.416  24.879  25.173  1.00  0.00    -0.213 NA
ATOM     17  C   UNL A   1      35.372  23.898  25.307  1.00  0.00     0.091 A 
ATOM     18  C   UNL A   1      35.664  21.506  24.868  1.00  0.00     0.029 A 
ATOM     19  C   UNL A   1      36.703  23.988  25.750  1.00  0.00     0.034 A 
ATOM     20  C   UNL A   1      36.988  21.615  25.304  1.00  0.00     0.006 A 
ATOM     21  C   UNL A   1      37.514  22.834  25.750  1.00  0.00    -0.049 A 
ATOM     22  C   UNL A   1      38.940  22.920  26.212  1.00  0.00     0.044 C 
BRANCH  14  23
ATOM     23  C   UNL A   1      32.677  21.957  23.941  1.00  0.00     0.122 C 
ATOM     24  C   UNL A   1      32.152  20.933  24.934  1.00  0.00     0.028 C 
ENDBRANCH  14  23
ENDBRANCH   8  13
ENDBRANCH   4   7
ENDBRANCH   2   3
ENDBRANCH   1   2
BRANCH   1  25
ATOM     25  C   UNL A   1      33.483  30.441  27.300  1.00  0.00     0.023 C 
BRANCH  25  26
ATOM     26  C   UNL A   1      34.564  31.476  27.627  1.00  0.00     0.116 C 
BRANCH  26  27
ATOM     27  N   UNL A   1      34.502  31.988  28.983  1.00  0.00    -0.352 N 
ATOM     28  C   UNL A   1      35.330  31.953  30.069  1.00  0.00     0.251 C 
ATOM     29  H   UNL A   1      33.667  32.475  29.163  1.00  0.00     0.163 HD
ATOM     30  O   UNL A   1      34.985  32.638  31.037  1.00  0.00    -0.269 OA
BRANCH  28  31
ATOM     31  C   UNL A   1      36.574  31.141  30.185  1.00  0.00     0.039 A 
ATOM     32  C   UNL A   1      37.866  31.616  29.978  1.00  0.00     0.014 A 
ATOM     33  C   UNL A   1      36.406  29.772  30.474  1.00  0.00     0.014 A 
ATOM     34  C   UNL A   1      38.948  30.743  29.992  1.00  0.00     0.010 A 
ATOM     35  C   UNL A   1      37.489  28.895  30.510  1.00  0.00     0.010 A 
ATOM     36  C   UNL A   1      38.764  29.377  30.234  1.00  0.00    -0.014 A 
BRANCH  36  37
ATOM     37  C   UNL A   1      39.964  28.542  30.250  1.00  0.00     0.031 A 
ATOM     38  C   UNL A   1      40.648  28.431  31.567  1.00  0.00     0.074 A 
ATOM     39  C   UNL A   1      40.456  27.869  29.192  1.00  0.00     0.049 A 
ATOM     40  N   UNL A   1      41.836  28.839  31.879  1.00  0.00    -0.248 NA
ATOM     41  C   UNL A   1      39.896  27.855  32.690  1.00  0.00     0.031 C 
ATOM     42  C   UNL A   1      39.798  27.610  27.911  1.00  0.00     0.029 A 
ATOM     43  N   UNL A   1      41.650  27.206  29.074  1.00  0.00    -0.354 N 
ATOM     44  C   UNL A   1      42.050  28.433  33.196  1.00  0.00     0.074 A 
ATOM     45  C   UNL A   1      40.793  27.924  33.677  1.00  0.00     0.031 C 
ATOM     46  C   UNL A   1      40.509  26.687  27.225  1.00  0.00     0.029 A 
ATOM     47  C   UNL A   1      41.744  26.412  27.944  1.00  0.00     0.049 A 
ATOM     48  H   UNL A   1      42.376  27.287  29.735  1.00  0.00     0.167 HD
ATOM     49  C   UNL A   1      43.307  28.358  33.712  1.00  0.00     0.037 A 
ATOM     50  C   UNL A   1      42.749  25.568  27.617  1.00  0.00     0.037 A 
ATOM     51  C   UNL A   1      44.257  29.083  32.915  1.00  0.00     0.049 A 
ATOM     52  C   UNL A   1      43.990  26.017  28.289  1.00  0.00     0.074 A 
ATOM     53  C   UNL A   1      44.676  30.388  32.780  1.00  0.00     0.029 A 
ATOM     54  N   UNL A   1      44.754  28.383  31.854  1.00  0.00    -0.354 N 
ATOM     55  N   UNL A   1      44.617  27.121  27.996  1.00  0.00    -0.248 NA
ATOM     56  C   UNL A   1      44.458  25.333  29.491  1.00  0.00     0.031 C 
ATOM     57  C   UNL A   1      45.313  30.477  31.505  1.00  0.00     0.029 A 
ATOM     58  C   UNL A   1      45.259  29.226  30.899  1.00  0.00     0.049 A 
ATOM     59  H   UNL A   1      44.749  27.402  31.784  1.00  0.00     0.167 HD
ATOM     60  C   UNL A   1      45.249  27.473  29.169  1.00  0.00     0.074 A 
ATOM     61  C   UNL A   1      45.283  26.264  29.974  1.00  0.00     0.031 C 
ATOM     62  C   UNL A   1      45.365  28.780  29.531  1.00  0.00     0.037 A 
BRANCH  49  63
ATOM     63  C   UNL A   1      43.783  27.291  34.675  1.00  0.00     0.064 A 
ATOM     64  C   UNL A   1      43.844  25.948  34.242  1.00  0.00     0.173 A 
ATOM     65  C   UNL A   1      43.850  27.481  36.072  1.00  0.00     0.173 A 
ATOM     66  F   UNL A   1      43.772  25.647  32.937  1.00  0.00    -0.203 F 
ATOM     67  C   UNL A   1      43.892  24.880  35.143  1.00  0.00     0.198 A 
ATOM     68  C   UNL A   1      43.949  26.413  36.966  1.00  0.00     0.198 A 
ATOM     69  F   UNL A   1      43.706  28.688  36.631  1.00  0.00    -0.203 F 
ATOM     70  F   UNL A   1      43.826  23.621  34.688  1.00  0.00    -0.200 F 
ATOM     71  C   UNL A   1      43.939  25.113  36.504  1.00  0.00     0.200 A 
ATOM     72  F   UNL A   1      43.970  26.656  38.284  1.00  0.00    -0.200 F 
ATOM     73  F   UNL A   1      43.925  24.092  37.372  1.00  0.00    -0.200 F 
ENDBRANCH  49  63
BRANCH  50  74
ATOM     74  C   UNL A   1      42.679  24.279  26.894  1.00  0.00     0.064 A 
ATOM     75  C   UNL A   1      43.242  24.139  25.613  1.00  0.00     0.173 A 
ATOM     76  C   UNL A   1      42.329  23.091  27.560  1.00  0.00     0.173 A 
ATOM     77  F   UNL A   1      43.632  25.220  24.923  1.00  0.00    -0.203 F 
ATOM     78  C   UNL A   1      43.490  22.882  25.058  1.00  0.00     0.198 A 
ATOM     79  C   UNL A   1      42.566  21.836  26.998  1.00  0.00     0.198 A 
ATOM     80  F   UNL A   1      41.843  23.120  28.810  1.00  0.00    -0.203 F 
ATOM     81  F   UNL A   1      44.105  22.788  23.871  1.00  0.00    -0.200 F 
ATOM     82  C   UNL A   1      43.166  21.732  25.757  1.00  0.00     0.200 A 
ATOM     83  F   UNL A   1      42.275  20.730  27.698  1.00  0.00    -0.200 F 
ATOM     84  F   UNL A   1      43.471  20.527  25.256  1.00  0.00    -0.200 F 
ENDBRANCH  50  74
BRANCH  62  85
ATOM     85  C   UNL A   1      45.368  29.797  28.439  1.00  0.00     0.064 A 
ATOM     86  C   UNL A   1      44.208  30.365  27.891  1.00  0.00     0.173 A 
ATOM     87  C   UNL A   1      46.605  30.249  27.961  1.00  0.00     0.173 A 
ATOM     88  F   UNL A   1      42.994  30.035  28.354  1.00  0.00    -0.203 F 
ATOM     89  C   UNL A   1      44.288  31.313  26.872  1.00  0.00     0.198 A 
ATOM     90  C   UNL A   1      46.683  31.220  26.969  1.00  0.00     0.198 A 
ATOM     91  F   UNL A   1      47.744  29.766  28.482  1.00  0.00    -0.203 F 
ATOM     92  F   UNL A   1      43.168  31.826  26.342  1.00  0.00    -0.200 F 
ATOM     93  C   UNL A   1      45.525  31.742  26.415  1.00  0.00     0.200 A 
ATOM     94  F   UNL A   1      47.880  31.661  26.560  1.00  0.00    -0.200 F 
ATOM     95  F   UNL A   1      45.602  32.674  25.455  1.00  0.00    -0.200 F 
ENDBRANCH  62  85
ENDBRANCH  36  37
ENDBRANCH  28  31
ENDBRANCH  26  27
ENDBRANCH  25  26
ENDBRANCH   1  25
TORSDOF 13
ENDMDL
MODEL 3
REMARK VINA RESULT:     -12.9      3.426      8.978
REMARK SMILES CCn1c(N2CCC(C(=O)NCCCCNC(=O)c3ccc(-c4c5nc(c(-c6c(F)c(F)c(F)c(F)c6F)c6ccc([nH]6)c(-c6c(F)c(F)c(F)c(F)c6F)c6nc(c(-c7c(F)c(F)c(F)c(F)c7F)c7ccc4[nH]7)C=C6)C=C5)cc3)CC2)nc2cc(C)ccc21
REMARK SMILES IDX 13 1 12 2 11 3 9 4 10 5 8 7 5 8 6 9 83 10 7 11 82 12 4 13
REMARK SMILES IDX 3 14 91 15 84 16 85 17 90 18 86 19 89 20 87 21 88 22 2 23
REMARK SMILES IDX 1 24 14 25 15 26 16 27 17 28 18 30 19 31 20 32 81 33 21 34
REMARK SMILES IDX 80 35 22 36 23 37 24 38 74 39 25 40 79 41 73 42 75 43 26 44
REMARK SMILES IDX 78 45 72 46 71 47 27 49 59 50 39 51 58 52 40 53 43 54 57 55
REMARK SMILES IDX 76 56 41 57 42 58 56 60 77 61 44 62 28 63 29 64 37 65 30 66
REMARK SMILES IDX 31 67 35 68 38 69 32 70 33 71 36 72 34 73 60 74 61 75 69 76
REMARK SMILES IDX 62 77 63 78 67 79 70 80 64 81 65 82 68 83 66 84 45 85 46 86
REMARK SMILES IDX 54 87 47 88 48 89 52 90 55 91 49 92 50 93 53 94 51 95
REMARK H PARENT 11 6 16 29 75 48 43 59
REMARK Flexibility Score: inf
ROOT
ATOM      1  C   UNL A   1      33.630  28.923  25.161  1.00  0.00     0.023 C 
ENDROOT
BRANCH   1   2
ATOM      2  C   UNL A   1      33.245  28.759  23.696  1.00  0.00     0.116 C 
BRANCH   2   3
ATOM      3  N   UNL A   1      31.948  29.346  23.402  1.00  0.00    -0.356 N 
ATOM      4  C   UNL A   1      30.725  28.765  23.268  1.00  0.00     0.223 C 
ATOM      5  O   UNL A   1      29.759  29.502  23.053  1.00  0.00    -0.275 OA
ATOM      6  H   UNL A   1      31.956  30.323  23.279  1.00  0.00     0.163 HD
BRANCH   4   7
ATOM      7  C   UNL A   1      30.532  27.260  23.388  1.00  0.00     0.082 C 
ATOM      8  N   UNL A   1      31.599  24.718  24.132  1.00  0.00    -0.342 N 
ATOM      9  C   UNL A   1      31.474  25.001  22.711  1.00  0.00     0.120 C 
ATOM     10  C   UNL A   1      30.594  25.294  25.010  1.00  0.00     0.120 C 
ATOM     11  C   UNL A   1      31.479  26.498  22.450  1.00  0.00     0.035 C 
ATOM     12  C   UNL A   1      30.552  26.809  24.856  1.00  0.00     0.035 C 
BRANCH   8  13
ATOM     13  C   UNL A   1      32.770  24.231  24.612  1.00  0.00     0.206 A 
ATOM     14  N   UNL A   1      32.967  22.877  24.802  1.00  0.00    -0.310 N 
ATOM     15  C   UNL A   1      34.291  22.678  25.130  1.00  0.00     0.070 A 
ATOM     16  N   UNL A   1      33.884  24.899  24.825  1.00  0.00    -0.213 NA
ATOM     17  C   UNL A   1      34.830  23.958  25.163  1.00  0.00     0.091 A 
ATOM     18  C   UNL A   1      35.053  21.528  25.374  1.00  0.00     0.029 A 
ATOM     19  C   UNL A   1      36.189  24.118  25.487  1.00  0.00     0.034 A 
ATOM     20  C   UNL A   1      36.404  21.705  25.685  1.00  0.00     0.006 A 
ATOM     21  C   UNL A   1      36.978  22.981  25.752  1.00  0.00    -0.049 A 
ATOM     22  C   UNL A   1      38.433  23.140  26.088  1.00  0.00     0.044 C 
BRANCH  14  23
ATOM     23  C   UNL A   1      32.019  21.813  24.537  1.00  0.00     0.122 C 
ATOM     24  C   UNL A   1      32.250  21.130  23.200  1.00  0.00     0.028 C 
ENDBRANCH  14  23
ENDBRANCH   8  13
ENDBRANCH   4   7
ENDBRANCH   2   3
ENDBRANCH   1   2
BRANCH   1  25
ATOM     25  C   UNL A   1      32.897  30.045  25.900  1.00  0.00     0.023 C 
BRANCH  25  26
ATOM     26  C   UNL A   1      33.275  30.212  27.376  1.00  0.00     0.116 C 
BRANCH  26  27
ATOM     27  N   UNL A   1      33.823  31.515  27.702  1.00  0.00    -0.352 N 
ATOM     28  C   UNL A   1      35.072  32.003  27.960  1.00  0.00     0.251 C 
ATOM     29  H   UNL A   1      33.130  32.213  27.747  1.00  0.00     0.163 HD
ATOM     30  O   UNL A   1      35.165  33.230  28.066  1.00  0.00    -0.269 OA
BRANCH  28  31
ATOM     31  C   UNL A   1      36.300  31.182  28.155  1.00  0.00     0.039 A 
ATOM     32  C   UNL A   1      36.430  29.838  27.816  1.00  0.00     0.014 A 
ATOM     33  C   UNL A   1      37.389  31.818  28.785  1.00  0.00     0.014 A 
ATOM     34  C   UNL A   1      37.581  29.134  28.153  1.00  0.00     0.010 A 
ATOM     35  C   UNL A   1      38.554  31.123  29.107  1.00  0.00     0.010 A 
ATOM     36  C   UNL A   1      38.637  29.765  28.820  1.00  0.00    -0.014 A 
BRANCH  36  37
ATOM     37  C   UNL A   1      39.814  28.948  29.113  1.00  0.00     0.031 A 
ATOM     38  C   UNL A   1      40.150  28.804  30.555  1.00  0.00     0.074 A 
ATOM     39  C   UNL A   1      40.569  28.317  28.193  1.00  0.00     0.049 A 
ATOM     40  N   UNL A   1      41.213  29.219  31.166  1.00  0.00    -0.248 NA
ATOM     41  C   UNL A   1      39.155  28.181  31.438  1.00  0.00     0.031 C 
ATOM     42  C   UNL A   1      40.258  28.090  26.781  1.00  0.00     0.029 A 
ATOM     43  N   UNL A   1      41.769  27.676  28.359  1.00  0.00    -0.354 N 
ATOM     44  C   UNL A   1      41.101  28.774  32.482  1.00  0.00     0.074 A 
ATOM     45  C   UNL A   1      39.775  28.231  32.619  1.00  0.00     0.031 C 
ATOM     46  C   UNL A   1      41.138  27.201  26.270  1.00  0.00     0.029 A 
ATOM     47  C   UNL A   1      42.160  26.921  27.267  1.00  0.00     0.049 A 
ATOM     48  H   UNL A   1      42.305  27.746  29.182  1.00  0.00     0.167 HD
ATOM     49  C   UNL A   1      42.191  28.700  33.294  1.00  0.00     0.037 A 
ATOM     50  C   UNL A   1      43.233  26.103  27.178  1.00  0.00     0.037 A 
ATOM     51  C   UNL A   1      43.293  29.465  32.781  1.00  0.00     0.049 A 
ATOM     52  C   UNL A   1      44.257  26.548  28.151  1.00  0.00     0.074 A 
ATOM     53  C   UNL A   1      43.703  30.780  32.791  1.00  0.00     0.029 A 
ATOM     54  N   UNL A   1      44.054  28.808  31.859  1.00  0.00    -0.354 N 
ATOM     55  N   UNL A   1      44.913  27.670  28.055  1.00  0.00    -0.248 NA
ATOM     56  C   UNL A   1      44.425  25.832  29.412  1.00  0.00     0.031 C 
ATOM     57  C   UNL A   1      44.636  30.919  31.718  1.00  0.00     0.029 A 
ATOM     58  C   UNL A   1      44.762  29.688  31.084  1.00  0.00     0.049 A 
ATOM     59  H   UNL A   1      44.089  27.829  31.762  1.00  0.00     0.167 HD
ATOM     60  C   UNL A   1      45.223  27.993  29.358  1.00  0.00     0.074 A 
ATOM     61  C   UNL A   1      45.083  26.758  30.112  1.00  0.00     0.031 C 
ATOM     62  C   UNL A   1      45.217  29.289  29.774  1.00  0.00     0.037 A 
BRANCH  49  63
ATOM     63  C   UNL A   1      42.435  27.610  34.316  1.00  0.00     0.064 A 
ATOM     64  C   UNL A   1      42.978  26.377  33.892  1.00  0.00     0.173 A 
ATOM     65  C   UNL A   1      41.851  27.605  35.601  1.00  0.00     0.173 A 
ATOM     66  F   UNL A   1      43.543  26.259  32.681  1.00  0.00    -0.203 F 
ATOM     67  C   UNL A   1      42.875  25.217  34.665  1.00  0.00     0.198 A 
ATOM     68  C   UNL A   1      41.796  26.456  36.391  1.00  0.00     0.198 A 
ATOM     69  F   UNL A   1      41.213  28.673  36.093  1.00  0.00    -0.203 F 
ATOM     70  F   UNL A   1      43.297  24.045  34.170  1.00  0.00    -0.200 F 
ATOM     71  C   UNL A   1      42.279  25.256  35.911  1.00  0.00     0.200 A 
ATOM     72  F   UNL A   1      41.194  26.507  37.588  1.00  0.00    -0.200 F 
ATOM     73  F   UNL A   1      42.126  24.135  36.630  1.00  0.00    -0.200 F 
ENDBRANCH  49  63
BRANCH  50  74
ATOM     74  C   UNL A   1      43.375  24.837  26.424  1.00  0.00     0.064 A 
ATOM     75  C   UNL A   1      44.282  24.731  25.356  1.00  0.00     0.173 A 
ATOM     76  C   UNL A   1      42.848  23.632  26.924  1.00  0.00     0.173 A 
ATOM     77  F   UNL A   1      44.854  25.829  24.843  1.00  0.00    -0.203 F 
ATOM     78  C   UNL A   1      44.680  23.489  24.856  1.00  0.00     0.198 A 
ATOM     79  C   UNL A   1      43.237  22.393  26.414  1.00  0.00     0.198 A 
ATOM     80  F   UNL A   1      42.023  23.627  27.981  1.00  0.00    -0.203 F 
ATOM     81  F   UNL A   1      45.611  23.426  23.894  1.00  0.00    -0.200 F 
ATOM     82  C   UNL A   1      44.169  22.322  25.396  1.00  0.00     0.200 A 
ATOM     83  F   UNL A   1      42.757  21.269  26.965  1.00  0.00    -0.200 F 
ATOM     84  F   UNL A   1      44.606  21.130  24.966  1.00  0.00    -0.200 F 
ENDBRANCH  50  74
BRANCH  62  85
ATOM     85  C   UNL A   1      45.469  30.340  28.746  1.00  0.00     0.064 A 
ATOM     86  C   UNL A   1      44.470  30.912  27.944  1.00  0.00     0.173 A 
ATOM     87  C   UNL A   1      46.776  30.823  28.604  1.00  0.00     0.173 A 
ATOM     88  F   UNL A   1      43.186  30.552  28.082  1.00  0.00    -0.203 F 
ATOM     89  C   UNL A   1      44.780  31.892  27.004  1.00  0.00     0.198 A 
ATOM     90  C   UNL A   1      47.078  31.827  27.689  1.00  0.00     0.198 A 
ATOM     91  F   UNL A   1      47.761  30.339  29.377  1.00  0.00    -0.203 F 
ATOM     92  F   UNL A   1      43.816  32.409  26.227  1.00  0.00    -0.200 F 
ATOM     93  C   UNL A   1      46.083  32.352  26.881  1.00  0.00     0.200 A 
ATOM     94  F   UNL A   1      48.330  32.296  27.603  1.00  0.00    -0.200 F 
ATOM     95  F   UNL A   1      46.377  33.316  25.997  1.00  0.00    -0.200 F 
ENDBRANCH  62  85
ENDBRANCH  36  37
ENDBRANCH  28  31
ENDBRANCH  26  27
ENDBRANCH  25  26
ENDBRANCH   1  25
TORSDOF 13
ENDMDL
