MODEL 1
REMARK VINA RESULT:     -13.6      0.000      0.000
REMARK SMILES CC(C)n1c2c(c3ccccc31)[C@@H](c1ccccc1)N(CC(=O)NCCCCNC(=O)c1ccc(-c3c4nc(c(-c5c(F)c(F)c(F)c(F)c5F)c5ccc([nH]5)c(-c5c(F)c(F)c(F)c(F)c5F)c5nc(c(-c6c(F)c(F)c(F)c(F)c6F)c6ccc3[nH]6)C=C5)C=C4)cc1)C2=O
REMARK SMILES IDX 26 1 25 2 24 3 22 4 23 5 21 7 20 8 4 9 5 10 12 11 6 12 95 13
REMARK SMILES IDX 7 14 11 15 13 16 96 17 8 18 10 19 9 20 2 21 1 22 3 23 14 24
REMARK SMILES IDX 15 25 19 26 16 27 18 28 17 29 27 30 28 31 29 32 30 33 31 35
REMARK SMILES IDX 32 36 33 37 94 38 34 39 93 40 35 41 36 42 37 43 87 44 38 45
REMARK SMILES IDX 92 46 86 47 88 48 39 49 91 50 85 51 84 52 40 54 72 55 52 56
REMARK SMILES IDX 71 57 53 58 56 59 70 60 89 61 54 62 55 63 69 65 90 66 57 67
REMARK SMILES IDX 41 68 42 69 50 70 43 71 44 72 48 73 51 74 45 75 46 76 49 77
REMARK SMILES IDX 47 78 73 79 74 80 82 81 75 82 76 83 80 84 83 85 77 86 78 87
REMARK SMILES IDX 81 88 79 89 58 90 59 91 67 92 60 93 61 94 65 95 68 96 62 97
REMARK SMILES IDX 63 98 66 99 64 100
REMARK H PARENT 24 6 29 34 88 53 56 64
REMARK Flexibility Score: inf
ROOT
ATOM      1  C   UNL A   1      32.206  29.001  27.194  1.00  0.00     0.023 C 
ENDROOT
BRANCH   1   2
ATOM      2  C   UNL A   1      31.454  27.680  27.351  1.00  0.00     0.116 C 
BRANCH   2   3
ATOM      3  N   UNL A   1      30.778  27.300  26.131  1.00  0.00    -0.355 N 
ATOM      4  C   UNL A   1      30.570  26.040  25.647  1.00  0.00     0.239 C 
ATOM      5  O   UNL A   1      30.018  25.913  24.552  1.00  0.00    -0.273 OA
ATOM      6  H   UNL A   1      30.426  28.038  25.582  1.00  0.00     0.163 HD
BRANCH   4   7
ATOM      7  C   UNL A   1      31.066  24.820  26.436  1.00  0.00     0.220 C 
BRANCH   7   8
ATOM      8  N   UNL A   1      32.135  24.138  25.728  1.00  0.00    -0.317 N 
ATOM      9  N   UNL A   1      34.117  21.282  24.887  1.00  0.00    -0.334 N 
ATOM     10  C   UNL A   1      33.406  22.420  25.119  1.00  0.00     0.114 A 
ATOM     11  C   UNL A   1      35.470  21.594  25.054  1.00  0.00     0.049 A 
ATOM     12  C   UNL A   1      34.254  23.469  25.343  1.00  0.00     0.018 A 
ATOM     13  C   UNL A   1      32.050  22.808  25.310  1.00  0.00     0.272 C 
ATOM     14  C   UNL A   1      35.564  22.978  25.333  1.00  0.00     0.006 A 
ATOM     15  C   UNL A   1      36.633  20.808  25.004  1.00  0.00     0.027 A 
ATOM     16  C   UNL A   1      33.501  24.718  25.618  1.00  0.00     0.150 C 
ATOM     17  O   UNL A   1      31.051  22.103  25.251  1.00  0.00    -0.267 OA
ATOM     18  C   UNL A   1      36.822  23.569  25.546  1.00  0.00     0.011 A 
ATOM     19  C   UNL A   1      37.875  21.424  25.203  1.00  0.00     0.002 A 
ATOM     20  C   UNL A   1      37.972  22.784  25.469  1.00  0.00     0.001 A 
BRANCH   9  21
ATOM     21  C   UNL A   1      33.496  19.996  24.571  1.00  0.00     0.082 C 
ATOM     22  C   UNL A   1      32.820  19.295  25.750  1.00  0.00     0.031 C 
ATOM     23  C   UNL A   1      32.547  20.096  23.378  1.00  0.00     0.031 C 
ENDBRANCH   9  21
BRANCH  16  24
ATOM     24  C   UNL A   1      33.609  25.669  24.437  1.00  0.00    -0.021 A 
ATOM     25  C   UNL A   1      33.959  27.008  24.697  1.00  0.00     0.006 A 
ATOM     26  C   UNL A   1      33.332  25.323  23.100  1.00  0.00     0.006 A 
ATOM     27  C   UNL A   1      33.991  27.964  23.677  1.00  0.00     0.000 A 
ATOM     28  C   UNL A   1      33.388  26.272  22.077  1.00  0.00     0.000 A 
ATOM     29  C   UNL A   1      33.704  27.595  22.367  1.00  0.00     0.000 A 
ENDBRANCH  16  24
ENDBRANCH   7   8
ENDBRANCH   4   7
ENDBRANCH   2   3
ENDBRANCH   1   2
BRANCH   1  30
ATOM     30  C   UNL A   1      33.698  28.940  27.539  1.00  0.00     0.023 C 
BRANCH  30  31
ATOM     31  C   UNL A   1      34.449  30.244  27.265  1.00  0.00     0.116 C 
BRANCH  31  32
ATOM     32  N   UNL A   1      34.266  31.236  28.306  1.00  0.00    -0.352 N 
ATOM     33  C   UNL A   1      35.038  31.733  29.314  1.00  0.00     0.251 C 
ATOM     34  H   UNL A   1      33.373  31.649  28.279  1.00  0.00     0.163 HD
ATOM     35  O   UNL A   1      34.562  32.673  29.955  1.00  0.00    -0.269 OA
BRANCH  33  36
ATOM     36  C   UNL A   1      36.347  31.174  29.734  1.00  0.00     0.039 A 
ATOM     37  C   UNL A   1      37.543  31.888  29.822  1.00  0.00     0.014 A 
ATOM     38  C   UNL A   1      36.370  29.784  29.949  1.00  0.00     0.014 A 
ATOM     39  C   UNL A   1      38.749  31.223  29.961  1.00  0.00     0.010 A 
ATOM     40  C   UNL A   1      37.570  29.114  30.118  1.00  0.00     0.010 A 
ATOM     41  C   UNL A   1      38.757  29.833  30.035  1.00  0.00    -0.014 A 
BRANCH  41  42
ATOM     42  C   UNL A   1      40.049  29.163  30.032  1.00  0.00     0.031 A 
ATOM     43  C   UNL A   1      40.698  29.020  31.369  1.00  0.00     0.074 A 
ATOM     44  C   UNL A   1      40.534  28.630  28.892  1.00  0.00     0.049 A 
ATOM     45  N   UNL A   1      41.898  29.348  31.732  1.00  0.00    -0.248 NA
ATOM     46  C   UNL A   1      39.857  28.530  32.477  1.00  0.00     0.031 C 
ATOM     47  C   UNL A   1      39.871  28.509  27.589  1.00  0.00     0.029 A 
ATOM     48  N   UNL A   1      41.703  27.970  28.690  1.00  0.00    -0.354 N 
ATOM     49  C   UNL A   1      42.013  28.974  33.072  1.00  0.00     0.074 A 
ATOM     50  C   UNL A   1      40.700  28.574  33.507  1.00  0.00     0.031 C 
ATOM     51  C   UNL A   1      40.528  27.601  26.834  1.00  0.00     0.029 A 
ATOM     52  C   UNL A   1      41.724  27.190  27.543  1.00  0.00     0.049 A 
ATOM     53  H   UNL A   1      42.470  28.039  29.304  1.00  0.00     0.167 HD
ATOM     54  C   UNL A   1      43.213  28.854  33.704  1.00  0.00     0.037 A 
ATOM     55  C   UNL A   1      42.613  26.200  27.277  1.00  0.00     0.037 A 
ATOM     56  C   UNL A   1      44.258  29.561  33.026  1.00  0.00     0.049 A 
ATOM     57  C   UNL A   1      43.787  26.416  28.162  1.00  0.00     0.074 A 
ATOM     58  C   UNL A   1      44.522  30.897  32.795  1.00  0.00     0.029 A 
ATOM     59  N   UNL A   1      45.060  28.870  32.155  1.00  0.00    -0.354 N 
ATOM     60  N   UNL A   1      44.596  27.433  28.056  1.00  0.00    -0.248 NA
ATOM     61  C   UNL A   1      43.774  25.754  29.461  1.00  0.00     0.031 C 
ATOM     62  C   UNL A   1      45.070  30.941  31.481  1.00  0.00     0.029 A 
ATOM     63  C   UNL A   1      45.159  29.629  31.016  1.00  0.00     0.049 A 
ATOM     64  H   UNL A   1      45.484  27.996  32.316  1.00  0.00     0.167 HD
ATOM     65  C   UNL A   1      44.888  27.792  29.365  1.00  0.00     0.074 A 
ATOM     66  C   UNL A   1      44.397  26.687  30.186  1.00  0.00     0.031 C 
ATOM     67  C   UNL A   1      45.237  29.072  29.688  1.00  0.00     0.037 A 
BRANCH  54  68
ATOM     68  C   UNL A   1      43.479  27.857  34.793  1.00  0.00     0.064 A 
ATOM     69  C   UNL A   1      43.811  28.284  36.092  1.00  0.00     0.173 A 
ATOM     70  C   UNL A   1      43.680  26.486  34.523  1.00  0.00     0.173 A 
ATOM     71  F   UNL A   1      43.692  29.574  36.436  1.00  0.00    -0.203 F 
ATOM     72  C   UNL A   1      44.337  27.402  37.041  1.00  0.00     0.198 A 
ATOM     73  C   UNL A   1      44.159  25.601  35.486  1.00  0.00     0.198 A 
ATOM     74  F   UNL A   1      43.519  25.983  33.292  1.00  0.00    -0.203 F 
ATOM     75  F   UNL A   1      44.729  27.865  38.236  1.00  0.00    -0.200 F 
ATOM     76  C   UNL A   1      44.510  26.063  36.738  1.00  0.00     0.200 A 
ATOM     77  F   UNL A   1      44.342  24.312  35.165  1.00  0.00    -0.200 F 
ATOM     78  F   UNL A   1      45.057  25.227  37.630  1.00  0.00    -0.200 F 
ENDBRANCH  54  68
BRANCH  55  79
ATOM     79  C   UNL A   1      42.312  24.883  26.662  1.00  0.00     0.064 A 
ATOM     80  C   UNL A   1      43.079  24.396  25.591  1.00  0.00     0.173 A 
ATOM     81  C   UNL A   1      41.453  23.956  27.288  1.00  0.00     0.173 A 
ATOM     82  F   UNL A   1      43.957  25.199  24.974  1.00  0.00    -0.203 F 
ATOM     83  C   UNL A   1      43.007  23.057  25.187  1.00  0.00     0.198 A 
ATOM     84  C   UNL A   1      41.377  22.625  26.879  1.00  0.00     0.198 A 
ATOM     85  F   UNL A   1      40.742  24.297  28.372  1.00  0.00    -0.203 F 
ATOM     86  F   UNL A   1      43.799  22.613  24.201  1.00  0.00    -0.200 F 
ATOM     87  C   UNL A   1      42.163  22.172  25.838  1.00  0.00     0.200 A 
ATOM     88  F   UNL A   1      40.584  21.770  27.542  1.00  0.00    -0.200 F 
ATOM     89  F   UNL A   1      42.140  20.878  25.491  1.00  0.00    -0.200 F 
ENDBRANCH  55  79
BRANCH  67  90
ATOM     90  C   UNL A   1      45.477  30.038  28.561  1.00  0.00     0.064 A 
ATOM     91  C   UNL A   1      44.461  30.804  27.963  1.00  0.00     0.173 A 
ATOM     92  C   UNL A   1      46.797  30.322  28.190  1.00  0.00     0.173 A 
ATOM     93  F   UNL A   1      43.184  30.669  28.341  1.00  0.00    -0.203 F 
ATOM     94  C   UNL A   1      44.750  31.780  27.010  1.00  0.00     0.198 A 
ATOM     95  C   UNL A   1      47.088  31.322  27.264  1.00  0.00     0.198 A 
ATOM     96  F   UNL A   1      47.813  29.666  28.771  1.00  0.00    -0.203 F 
ATOM     97  F   UNL A   1      43.760  32.495  26.453  1.00  0.00    -0.200 F 
ATOM     98  C   UNL A   1      46.066  32.044  26.669  1.00  0.00     0.200 A 
ATOM     99  F   UNL A   1      48.364  31.610  26.976  1.00  0.00    -0.200 F 
ATOM    100  F   UNL A   1      46.351  33.015  25.790  1.00  0.00    -0.200 F 
ENDBRANCH  67  90
ENDBRANCH  41  42
ENDBRANCH  33  36
ENDBRANCH  31  32
ENDBRANCH  30  31
ENDBRANCH   1  30
TORSDOF 14
ENDMDL
MODEL 2
REMARK VINA RESULT:     -13.6      1.198      2.050
REMARK SMILES CC(C)n1c2c(c3ccccc31)[C@@H](c1ccccc1)N(CC(=O)NCCCCNC(=O)c1ccc(-c3c4nc(c(-c5c(F)c(F)c(F)c(F)c5F)c5ccc([nH]5)c(-c5c(F)c(F)c(F)c(F)c5F)c5nc(c(-c6c(F)c(F)c(F)c(F)c6F)c6ccc3[nH]6)C=C5)C=C4)cc1)C2=O
REMARK SMILES IDX 26 1 25 2 24 3 22 4 23 5 21 7 20 8 4 9 5 10 12 11 6 12 95 13
REMARK SMILES IDX 7 14 11 15 13 16 96 17 8 18 10 19 9 20 2 21 1 22 3 23 14 24
REMARK SMILES IDX 15 25 19 26 16 27 18 28 17 29 27 30 28 31 29 32 30 33 31 35
REMARK SMILES IDX 32 36 33 37 94 38 34 39 93 40 35 41 36 42 37 43 87 44 38 45
REMARK SMILES IDX 92 46 86 47 88 48 39 49 91 50 85 51 84 52 40 54 72 55 52 56
REMARK SMILES IDX 71 57 53 58 56 59 70 60 89 61 54 62 55 63 69 65 90 66 57 67
REMARK SMILES IDX 41 68 42 69 50 70 43 71 44 72 48 73 51 74 45 75 46 76 49 77
REMARK SMILES IDX 47 78 73 79 74 80 82 81 75 82 76 83 80 84 83 85 77 86 78 87
REMARK SMILES IDX 81 88 79 89 58 90 59 91 67 92 60 93 61 94 65 95 68 96 62 97
REMARK SMILES IDX 63 98 66 99 64 100
REMARK H PARENT 24 6 29 34 88 53 56 64
REMARK Flexibility Score: inf
ROOT
ATOM      1  C   UNL A   1      31.559  28.933  27.539  1.00  0.00     0.023 C 
ENDROOT
BRANCH   1   2
ATOM      2  C   UNL A   1      31.824  27.471  27.182  1.00  0.00     0.116 C 
BRANCH   2   3
ATOM      3  N   UNL A   1      30.917  26.997  26.161  1.00  0.00    -0.355 N 
ATOM      4  C   UNL A   1      30.566  25.705  25.889  1.00  0.00     0.239 C 
ATOM      5  O   UNL A   1      29.816  25.488  24.934  1.00  0.00    -0.273 OA
ATOM      6  H   UNL A   1      30.504  27.687  25.593  1.00  0.00     0.163 HD
BRANCH   4   7
ATOM      7  C   UNL A   1      31.142  24.557  26.728  1.00  0.00     0.220 C 
BRANCH   7   8
ATOM      8  N   UNL A   1      31.997  23.699  25.924  1.00  0.00    -0.317 N 
ATOM      9  N   UNL A   1      33.405  20.551  24.976  1.00  0.00    -0.334 N 
ATOM     10  C   UNL A   1      32.907  21.791  25.243  1.00  0.00     0.114 A 
ATOM     11  C   UNL A   1      34.799  20.657  24.958  1.00  0.00     0.049 A 
ATOM     12  C   UNL A   1      33.923  22.703  25.309  1.00  0.00     0.018 A 
ATOM     13  C   UNL A   1      31.661  22.387  25.583  1.00  0.00     0.272 C 
ATOM     14  C   UNL A   1      35.133  22.017  25.157  1.00  0.00     0.006 A 
ATOM     15  C   UNL A   1      35.816  19.700  24.800  1.00  0.00     0.027 A 
ATOM     16  C   UNL A   1      33.407  24.059  25.617  1.00  0.00     0.150 C 
ATOM     17  O   UNL A   1      30.570  21.842  25.683  1.00  0.00    -0.267 OA
ATOM     18  C   UNL A   1      36.483  22.414  25.183  1.00  0.00     0.011 A 
ATOM     19  C   UNL A   1      37.151  20.123  24.813  1.00  0.00     0.002 A 
ATOM     20  C   UNL A   1      37.483  21.459  25.000  1.00  0.00     0.001 A 
BRANCH   9  21
ATOM     21  C   UNL A   1      32.563  19.367  24.802  1.00  0.00     0.082 C 
ATOM     22  C   UNL A   1      32.571  18.767  23.395  1.00  0.00     0.031 C 
ATOM     23  C   UNL A   1      32.853  18.299  25.854  1.00  0.00     0.031 C 
ENDBRANCH   9  21
BRANCH  16  24
ATOM     24  C   UNL A   1      33.499  24.950  24.388  1.00  0.00    -0.021 A 
ATOM     25  C   UNL A   1      33.853  26.300  24.575  1.00  0.00     0.006 A 
ATOM     26  C   UNL A   1      33.205  24.537  23.074  1.00  0.00     0.006 A 
ATOM     27  C   UNL A   1      33.872  27.204  23.508  1.00  0.00     0.000 A 
ATOM     28  C   UNL A   1      33.248  25.434  22.003  1.00  0.00     0.000 A 
ATOM     29  C   UNL A   1      33.567  26.769  22.222  1.00  0.00     0.000 A 
ENDBRANCH  16  24
ENDBRANCH   7   8
ENDBRANCH   4   7
ENDBRANCH   2   3
ENDBRANCH   1   2
BRANCH   1  30
ATOM     30  C   UNL A   1      32.174  29.955  26.576  1.00  0.00     0.023 C 
BRANCH  30  31
ATOM     31  C   UNL A   1      33.652  30.244  26.841  1.00  0.00     0.116 C 
BRANCH  31  32
ATOM     32  N   UNL A   1      33.874  31.019  28.045  1.00  0.00    -0.352 N 
ATOM     33  C   UNL A   1      34.966  31.363  28.786  1.00  0.00     0.251 C 
ATOM     34  H   UNL A   1      33.038  31.386  28.415  1.00  0.00     0.163 HD
ATOM     35  O   UNL A   1      34.769  32.146  29.719  1.00  0.00    -0.269 OA
BRANCH  33  36
ATOM     36  C   UNL A   1      36.327  30.802  28.600  1.00  0.00     0.039 A 
ATOM     37  C   UNL A   1      36.619  29.495  28.206  1.00  0.00     0.014 A 
ATOM     38  C   UNL A   1      37.387  31.653  28.965  1.00  0.00     0.014 A 
ATOM     39  C   UNL A   1      37.905  28.998  28.323  1.00  0.00     0.010 A 
ATOM     40  C   UNL A   1      38.681  31.171  29.056  1.00  0.00     0.010 A 
ATOM     41  C   UNL A   1      38.913  29.821  28.817  1.00  0.00    -0.014 A 
BRANCH  41  42
ATOM     42  C   UNL A   1      40.216  29.222  29.063  1.00  0.00     0.031 A 
ATOM     43  C   UNL A   1      40.538  28.957  30.497  1.00  0.00     0.074 A 
ATOM     44  C   UNL A   1      40.997  28.849  28.028  1.00  0.00     0.049 A 
ATOM     45  N   UNL A   1      41.589  29.300  31.173  1.00  0.00    -0.248 NA
ATOM     46  C   UNL A   1      39.498  28.300  31.310  1.00  0.00     0.031 C 
ATOM     47  C   UNL A   1      40.673  28.847  26.597  1.00  0.00     0.029 A 
ATOM     48  N   UNL A   1      42.227  28.276  28.052  1.00  0.00    -0.354 N 
ATOM     49  C   UNL A   1      41.411  28.779  32.455  1.00  0.00     0.074 A 
ATOM     50  C   UNL A   1      40.067  28.266  32.514  1.00  0.00     0.031 C 
ATOM     51  C   UNL A   1      41.558  28.067  25.939  1.00  0.00     0.029 A 
ATOM     52  C   UNL A   1      42.580  27.636  26.873  1.00  0.00     0.049 A 
ATOM     53  H   UNL A   1      42.819  28.311  28.839  1.00  0.00     0.167 HD
ATOM     54  C   UNL A   1      42.432  28.646  33.346  1.00  0.00     0.037 A 
ATOM     55  C   UNL A   1      43.578  26.730  26.734  1.00  0.00     0.037 A 
ATOM     56  C   UNL A   1      43.551  29.479  33.019  1.00  0.00     0.049 A 
ATOM     57  C   UNL A   1      44.489  26.899  27.896  1.00  0.00     0.074 A 
ATOM     58  C   UNL A   1      43.760  30.843  32.995  1.00  0.00     0.029 A 
ATOM     59  N   UNL A   1      44.588  28.934  32.305  1.00  0.00    -0.354 N 
ATOM     60  N   UNL A   1      45.221  27.961  28.094  1.00  0.00    -0.248 NA
ATOM     61  C   UNL A   1      44.220  26.091  29.079  1.00  0.00     0.031 C 
ATOM     62  C   UNL A   1      44.599  31.067  31.866  1.00  0.00     0.029 A 
ATOM     63  C   UNL A   1      44.896  29.824  31.307  1.00  0.00     0.049 A 
ATOM     64  H   UNL A   1      45.027  28.069  32.476  1.00  0.00     0.167 HD
ATOM     65  C   UNL A   1      45.165  28.180  29.464  1.00  0.00     0.074 A 
ATOM     66  C   UNL A   1      44.580  26.963  30.024  1.00  0.00     0.031 C 
ATOM     67  C   UNL A   1      45.329  29.429  29.989  1.00  0.00     0.037 A 
BRANCH  54  68
ATOM     68  C   UNL A   1      42.508  27.544  34.362  1.00  0.00     0.064 A 
ATOM     69  C   UNL A   1      43.054  26.292  34.024  1.00  0.00     0.173 A 
ATOM     70  C   UNL A   1      41.808  27.602  35.586  1.00  0.00     0.173 A 
ATOM     71  F   UNL A   1      43.704  26.124  32.863  1.00  0.00    -0.203 F 
ATOM     72  C   UNL A   1      42.881  25.172  34.843  1.00  0.00     0.198 A 
ATOM     73  C   UNL A   1      41.679  26.496  36.423  1.00  0.00     0.198 A 
ATOM     74  F   UNL A   1      41.139  28.702  35.959  1.00  0.00    -0.203 F 
ATOM     75  F   UNL A   1      43.334  23.977  34.442  1.00  0.00    -0.200 F 
ATOM     76  C   UNL A   1      42.195  25.276  36.041  1.00  0.00     0.200 A 
ATOM     77  F   UNL A   1      40.990  26.612  37.567  1.00  0.00    -0.200 F 
ATOM     78  F   UNL A   1      41.989  24.194  36.803  1.00  0.00    -0.200 F 
ENDBRANCH  54  68
BRANCH  55  79
ATOM     79  C   UNL A   1      43.534  25.480  25.935  1.00  0.00     0.064 A 
ATOM     80  C   UNL A   1      44.623  25.096  25.136  1.00  0.00     0.173 A 
ATOM     81  C   UNL A   1      42.544  24.499  26.154  1.00  0.00     0.173 A 
ATOM     82  F   UNL A   1      45.632  25.951  24.920  1.00  0.00    -0.203 F 
ATOM     83  C   UNL A   1      44.726  23.802  24.609  1.00  0.00     0.198 A 
ATOM     84  C   UNL A   1      42.643  23.214  25.621  1.00  0.00     0.198 A 
ATOM     85  F   UNL A   1      41.507  24.737  26.970  1.00  0.00    -0.203 F 
ATOM     86  F   UNL A   1      45.810  23.453  23.902  1.00  0.00    -0.200 F 
ATOM     87  C   UNL A   1      43.740  22.862  24.860  1.00  0.00     0.200 A 
ATOM     88  F   UNL A   1      41.701  22.303  25.904  1.00  0.00    -0.200 F 
ATOM     89  F   UNL A   1      43.869  21.607  24.407  1.00  0.00    -0.200 F 
ENDBRANCH  55  79
BRANCH  67  90
ATOM     90  C   UNL A   1      45.755  30.530  29.058  1.00  0.00     0.064 A 
ATOM     91  C   UNL A   1      47.095  30.784  28.715  1.00  0.00     0.173 A 
ATOM     92  C   UNL A   1      44.769  31.239  28.360  1.00  0.00     0.173 A 
ATOM     93  F   UNL A   1      48.091  30.074  29.257  1.00  0.00    -0.203 F 
ATOM     94  C   UNL A   1      47.432  31.732  27.749  1.00  0.00     0.198 A 
ATOM     95  C   UNL A   1      45.105  32.159  27.369  1.00  0.00     0.198 A 
ATOM     96  F   UNL A   1      43.472  30.995  28.600  1.00  0.00    -0.203 F 
ATOM     97  F   UNL A   1      48.719  31.957  27.444  1.00  0.00    -0.200 F 
ATOM     98  C   UNL A   1      46.434  32.412  27.070  1.00  0.00     0.200 A 
ATOM     99  F   UNL A   1      44.137  32.776  26.679  1.00  0.00    -0.200 F 
ATOM    100  F   UNL A   1      46.753  33.287  26.107  1.00  0.00    -0.200 F 
ENDBRANCH  67  90
ENDBRANCH  41  42
ENDBRANCH  33  36
ENDBRANCH  31  32
ENDBRANCH  30  31
ENDBRANCH   1  30
TORSDOF 14
ENDMDL
MODEL 3
REMARK VINA RESULT:     -13.4      3.023      8.550
REMARK SMILES CC(C)n1c2c(c3ccccc31)[C@@H](c1ccccc1)N(CC(=O)NCCCCNC(=O)c1ccc(-c3c4nc(c(-c5c(F)c(F)c(F)c(F)c5F)c5ccc([nH]5)c(-c5c(F)c(F)c(F)c(F)c5F)c5nc(c(-c6c(F)c(F)c(F)c(F)c6F)c6ccc3[nH]6)C=C5)C=C4)cc1)C2=O
REMARK SMILES IDX 26 1 25 2 24 3 22 4 23 5 21 7 20 8 4 9 5 10 12 11 6 12 95 13
REMARK SMILES IDX 7 14 11 15 13 16 96 17 8 18 10 19 9 20 2 21 1 22 3 23 14 24
REMARK SMILES IDX 15 25 19 26 16 27 18 28 17 29 27 30 28 31 29 32 30 33 31 35
REMARK SMILES IDX 32 36 33 37 94 38 34 39 93 40 35 41 36 42 37 43 87 44 38 45
REMARK SMILES IDX 92 46 86 47 88 48 39 49 91 50 85 51 84 52 40 54 72 55 52 56
REMARK SMILES IDX 71 57 53 58 56 59 70 60 89 61 54 62 55 63 69 65 90 66 57 67
REMARK SMILES IDX 41 68 42 69 50 70 43 71 44 72 48 73 51 74 45 75 46 76 49 77
REMARK SMILES IDX 47 78 73 79 74 80 82 81 75 82 76 83 80 84 83 85 77 86 78 87
REMARK SMILES IDX 81 88 79 89 58 90 59 91 67 92 60 93 61 94 65 95 68 96 62 97
REMARK SMILES IDX 63 98 66 99 64 100
REMARK H PARENT 24 6 29 34 88 53 56 64
REMARK Flexibility Score: inf
ROOT
ATOM      1  C   UNL A   1      35.916  23.149  24.722  1.00  0.00     0.023 C 
ENDROOT
BRANCH   1   2
ATOM      2  C   UNL A   1      35.433  23.166  23.273  1.00  0.00     0.116 C 
BRANCH   2   3
ATOM      3  N   UNL A   1      34.066  22.712  23.158  1.00  0.00    -0.355 N 
ATOM      4  C   UNL A   1      32.984  23.417  22.712  1.00  0.00     0.239 C 
ATOM      5  O   UNL A   1      31.877  22.875  22.739  1.00  0.00    -0.273 OA
ATOM      6  H   UNL A   1      33.892  21.783  23.436  1.00  0.00     0.163 HD
BRANCH   4   7
ATOM      7  C   UNL A   1      33.152  24.868  22.239  1.00  0.00     0.220 C 
BRANCH   7   8
ATOM      8  N   UNL A   1      32.506  25.794  23.153  1.00  0.00    -0.317 N 
ATOM      9  N   UNL A   1      30.966  28.904  24.017  1.00  0.00    -0.334 N 
ATOM     10  C   UNL A   1      31.513  27.679  23.782  1.00  0.00     0.114 A 
ATOM     11  C   UNL A   1      31.597  29.433  25.147  1.00  0.00     0.049 A 
ATOM     12  C   UNL A   1      32.406  27.365  24.768  1.00  0.00     0.018 A 
ATOM     13  C   UNL A   1      31.510  26.690  22.759  1.00  0.00     0.272 C 
ATOM     14  C   UNL A   1      32.502  28.460  25.633  1.00  0.00     0.006 A 
ATOM     15  C   UNL A   1      31.485  30.674  25.797  1.00  0.00     0.027 A 
ATOM     16  C   UNL A   1      33.030  26.040  24.524  1.00  0.00     0.150 C 
ATOM     17  O   UNL A   1      30.878  26.695  21.711  1.00  0.00    -0.267 OA
ATOM     18  C   UNL A   1      33.279  28.729  26.775  1.00  0.00     0.011 A 
ATOM     19  C   UNL A   1      32.256  30.910  26.941  1.00  0.00     0.002 A 
ATOM     20  C   UNL A   1      33.140  29.953  27.427  1.00  0.00     0.001 A 
BRANCH   9  21
ATOM     21  C   UNL A   1      29.942  29.504  23.162  1.00  0.00     0.082 C 
ATOM     22  C   UNL A   1      30.398  29.847  21.744  1.00  0.00     0.031 C 
ATOM     23  C   UNL A   1      28.659  28.675  23.138  1.00  0.00     0.031 C 
ENDBRANCH   9  21
BRANCH  16  24
ATOM     24  C   UNL A   1      32.500  25.017  25.516  1.00  0.00    -0.021 A 
ATOM     25  C   UNL A   1      33.433  24.305  26.294  1.00  0.00     0.006 A 
ATOM     26  C   UNL A   1      31.140  24.689  25.680  1.00  0.00     0.006 A 
ATOM     27  C   UNL A   1      33.031  23.286  27.162  1.00  0.00     0.000 A 
ATOM     28  C   UNL A   1      30.736  23.687  26.566  1.00  0.00     0.000 A 
ATOM     29  C   UNL A   1      31.681  22.977  27.297  1.00  0.00     0.000 A 
ENDBRANCH  16  24
ENDBRANCH   7   8
ENDBRANCH   4   7
ENDBRANCH   2   3
ENDBRANCH   1   2
BRANCH   1  30
ATOM     30  C   UNL A   1      37.381  23.552  24.921  1.00  0.00     0.023 C 
BRANCH  30  31
ATOM     31  C   UNL A   1      38.026  22.946  26.168  1.00  0.00     0.116 C 
BRANCH  31  32
ATOM     32  N   UNL A   1      39.336  22.381  25.915  1.00  0.00    -0.352 N 
ATOM     33  C   UNL A   1      40.618  22.747  26.202  1.00  0.00     0.251 C 
ATOM     34  H   UNL A   1      39.290  21.532  25.419  1.00  0.00     0.163 HD
ATOM     35  O   UNL A   1      41.498  21.935  25.904  1.00  0.00    -0.269 OA
BRANCH  33  36
ATOM     36  C   UNL A   1      41.020  24.063  26.757  1.00  0.00     0.039 A 
ATOM     37  C   UNL A   1      41.816  24.256  27.888  1.00  0.00     0.014 A 
ATOM     38  C   UNL A   1      40.445  25.185  26.133  1.00  0.00     0.014 A 
ATOM     39  C   UNL A   1      41.909  25.507  28.475  1.00  0.00     0.010 A 
ATOM     40  C   UNL A   1      40.558  26.443  26.698  1.00  0.00     0.010 A 
ATOM     41  C   UNL A   1      41.218  26.577  27.914  1.00  0.00    -0.014 A 
BRANCH  41  42
ATOM     42  C   UNL A   1      41.221  27.838  28.640  1.00  0.00     0.031 A 
ATOM     43  C   UNL A   1      42.363  28.751  28.331  1.00  0.00     0.074 A 
ATOM     44  C   UNL A   1      40.186  28.162  29.442  1.00  0.00     0.049 A 
ATOM     45  N   UNL A   1      43.184  29.333  29.147  1.00  0.00    -0.248 NA
ATOM     46  C   UNL A   1      42.689  28.964  26.909  1.00  0.00     0.031 C 
ATOM     47  C   UNL A   1      38.917  27.447  29.624  1.00  0.00     0.029 A 
ATOM     48  N   UNL A   1      40.005  29.280  30.189  1.00  0.00    -0.354 N 
ATOM     49  C   UNL A   1      44.038  30.101  28.355  1.00  0.00     0.074 A 
ATOM     50  C   UNL A   1      43.757  29.756  26.985  1.00  0.00     0.031 C 
ATOM     51  C   UNL A   1      38.019  28.273  30.205  1.00  0.00     0.029 A 
ATOM     52  C   UNL A   1      38.687  29.509  30.558  1.00  0.00     0.049 A 
ATOM     53  H   UNL A   1      40.744  29.877  30.448  1.00  0.00     0.167 HD
ATOM     54  C   UNL A   1      44.813  31.101  28.858  1.00  0.00     0.037 A 
ATOM     55  C   UNL A   1      38.187  30.686  31.012  1.00  0.00     0.037 A 
ATOM     56  C   UNL A   1      45.001  30.983  30.274  1.00  0.00     0.049 A 
ATOM     57  C   UNL A   1      39.339  31.501  31.478  1.00  0.00     0.074 A 
ATOM     58  C   UNL A   1      45.656  30.077  31.084  1.00  0.00     0.029 A 
ATOM     59  N   UNL A   1      44.177  31.696  31.106  1.00  0.00    -0.354 N 
ATOM     60  N   UNL A   1      40.072  31.194  32.512  1.00  0.00    -0.248 NA
ATOM     61  C   UNL A   1      39.961  32.393  30.508  1.00  0.00     0.031 C 
ATOM     62  C   UNL A   1      44.832  29.955  32.240  1.00  0.00     0.029 A 
ATOM     63  C   UNL A   1      43.758  30.833  32.088  1.00  0.00     0.049 A 
ATOM     64  H   UNL A   1      43.933  32.646  31.017  1.00  0.00     0.167 HD
ATOM     65  C   UNL A   1      41.369  31.513  32.134  1.00  0.00     0.074 A 
ATOM     66  C   UNL A   1      41.231  32.300  30.911  1.00  0.00     0.031 C 
ATOM     67  C   UNL A   1      42.444  30.874  32.681  1.00  0.00     0.037 A 
BRANCH  54  68
ATOM     68  C   UNL A   1      45.167  32.340  28.091  1.00  0.00     0.064 A 
ATOM     69  C   UNL A   1      44.190  33.308  27.799  1.00  0.00     0.173 A 
ATOM     70  C   UNL A   1      46.392  32.472  27.401  1.00  0.00     0.173 A 
ATOM     71  F   UNL A   1      42.979  33.249  28.373  1.00  0.00    -0.203 F 
ATOM     72  C   UNL A   1      44.415  34.317  26.858  1.00  0.00     0.198 A 
ATOM     73  C   UNL A   1      46.631  33.507  26.500  1.00  0.00     0.198 A 
ATOM     74  F   UNL A   1      47.355  31.545  27.501  1.00  0.00    -0.203 F 
ATOM     75  F   UNL A   1      43.427  35.164  26.537  1.00  0.00    -0.200 F 
ATOM     76  C   UNL A   1      45.635  34.415  26.210  1.00  0.00     0.200 A 
ATOM     77  F   UNL A   1      47.810  33.569  25.866  1.00  0.00    -0.200 F 
ATOM     78  F   UNL A   1      45.836  35.352  25.274  1.00  0.00    -0.200 F 
ENDBRANCH  54  68
BRANCH  55  79
ATOM     79  C   UNL A   1      36.880  31.289  30.650  1.00  0.00     0.064 A 
ATOM     80  C   UNL A   1      36.002  31.754  31.642  1.00  0.00     0.173 A 
ATOM     81  C   UNL A   1      36.589  31.678  29.325  1.00  0.00     0.173 A 
ATOM     82  F   UNL A   1      36.235  31.472  32.932  1.00  0.00    -0.203 F 
ATOM     83  C   UNL A   1      34.912  32.577  31.330  1.00  0.00     0.198 A 
ATOM     84  C   UNL A   1      35.499  32.491  29.015  1.00  0.00     0.198 A 
ATOM     85  F   UNL A   1      37.412  31.359  28.317  1.00  0.00    -0.203 F 
ATOM     86  F   UNL A   1      34.131  33.052  32.310  1.00  0.00    -0.200 F 
ATOM     87  C   UNL A   1      34.668  32.951  30.018  1.00  0.00     0.200 A 
ATOM     88  F   UNL A   1      35.296  32.876  27.747  1.00  0.00    -0.200 F 
ATOM     89  F   UNL A   1      33.662  33.787  29.727  1.00  0.00    -0.200 F 
ENDBRANCH  55  79
BRANCH  67  90
ATOM     90  C   UNL A   1      42.193  29.945  33.837  1.00  0.00     0.064 A 
ATOM     91  C   UNL A   1      41.803  28.602  33.685  1.00  0.00     0.173 A 
ATOM     92  C   UNL A   1      42.522  30.375  35.128  1.00  0.00     0.173 A 
ATOM     93  F   UNL A   1      41.576  28.084  32.473  1.00  0.00    -0.203 F 
ATOM     94  C   UNL A   1      41.708  27.744  34.781  1.00  0.00     0.198 A 
ATOM     95  C   UNL A   1      42.461  29.508  36.217  1.00  0.00     0.198 A 
ATOM     96  F   UNL A   1      42.959  31.628  35.326  1.00  0.00    -0.203 F 
ATOM     97  F   UNL A   1      41.329  26.468  34.608  1.00  0.00    -0.200 F 
ATOM     98  C   UNL A   1      42.046  28.198  36.045  1.00  0.00     0.200 A 
ATOM     99  F   UNL A   1      42.839  29.935  37.428  1.00  0.00    -0.200 F 
ATOM    100  F   UNL A   1      42.003  27.362  37.092  1.00  0.00    -0.200 F 
ENDBRANCH  67  90
ENDBRANCH  41  42
ENDBRANCH  33  36
ENDBRANCH  31  32
ENDBRANCH  30  31
ENDBRANCH   1  30
TORSDOF 14
ENDMDL
