MODEL 1
REMARK VINA RESULT:     -12.6      0.000      0.000
REMARK SMILES CC(C)(C)c1cc2c(cc1Cl)C=C(C(=O)NCCCCNC(=O)c1ccc(-c3c4nc(c(-c5c(F)c(F)c(F)c(F)c5F)c5ccc([nH]5)c(-c5c(F)c(F)c(F)c(F)c5F)c5nc(c(-c6c(F)c(F)c(F)c(F)c6F)c6ccc3[nH]6)C=C5)C=C4)cc1)[C@@H](C(F)(F)F)O2
REMARK SMILES IDX 19 1 18 2 17 3 16 4 14 5 15 6 13 8 5 9 6 10 10 11 7 12 9 13
REMARK SMILES IDX 11 14 8 15 92 16 12 17 87 18 2 19 1 20 3 21 4 22 88 23 89 24
REMARK SMILES IDX 90 25 91 26 20 27 21 28 22 29 23 31 24 32 25 33 86 34 26 35
REMARK SMILES IDX 85 36 27 37 28 38 29 39 79 40 30 41 84 42 78 43 80 44 31 45
REMARK SMILES IDX 83 46 77 47 76 48 32 50 64 51 44 52 63 53 45 54 48 55 62 56
REMARK SMILES IDX 81 57 46 58 47 59 61 61 82 62 49 63 33 64 34 65 42 66 35 67
REMARK SMILES IDX 36 68 40 69 43 70 37 71 38 72 41 73 39 74 65 75 66 76 74 77
REMARK SMILES IDX 67 78 68 79 72 80 75 81 69 82 70 83 73 84 71 85 50 86 51 87
REMARK SMILES IDX 59 88 52 89 53 90 57 91 60 92 54 93 55 94 58 95 56 96
REMARK H PARENT 16 7 21 30 80 49 48 60
REMARK Flexibility Score: inf
ROOT
ATOM      1  C   UNL A   1      36.770  22.764  24.333  1.00  0.00     0.023 C 
ENDROOT
BRANCH   1   2
ATOM      2  C   UNL A   1      36.832  21.238  24.234  1.00  0.00     0.023 C 
BRANCH   2   3
ATOM      3  C   UNL A   1      35.884  20.505  25.180  1.00  0.00     0.116 C 
BRANCH   3   4
ATOM      4  N   UNL A   1      34.593  20.246  24.570  1.00  0.00    -0.352 N 
ATOM      5  C   UNL A   1      33.407  20.892  24.465  1.00  0.00     0.251 C 
ATOM      6  O   UNL A   1      32.531  20.279  23.846  1.00  0.00    -0.270 OA
ATOM      7  H   UNL A   1      34.574  19.373  24.114  1.00  0.00     0.163 HD
BRANCH   5   8
ATOM      8  C   UNL A   1      33.106  22.242  25.026  1.00  0.00     0.067 C 
ATOM      9  C   UNL A   1      32.701  27.267  25.769  1.00  0.00    -0.020 A 
ATOM     10  C   UNL A   1      32.179  26.095  26.375  1.00  0.00     0.053 A 
ATOM     11  C   UNL A   1      33.478  27.061  24.607  1.00  0.00     0.045 A 
ATOM     12  C   UNL A   1      32.430  24.815  25.881  1.00  0.00     0.128 A 
ATOM     13  C   UNL A   1      33.708  25.762  24.103  1.00  0.00     0.032 A 
ATOM     14  Cl  UNL A   1      34.232  28.303  23.673  1.00  0.00    -0.084 Cl
ATOM     15  C   UNL A   1      33.192  24.637  24.739  1.00  0.00     0.019 A 
ATOM     16  O   UNL A   1      31.869  23.769  26.556  1.00  0.00    -0.475 OA
ATOM     17  C   UNL A   1      33.413  23.287  24.233  1.00  0.00     0.025 C 
ATOM     18  C   UNL A   1      32.550  22.492  26.401  1.00  0.00     0.314 C 
BRANCH   9  19
ATOM     19  C   UNL A   1      32.366  28.608  26.471  1.00  0.00    -0.012 C 
ATOM     20  C   UNL A   1      31.577  29.517  25.492  1.00  0.00     0.016 C 
ATOM     21  C   UNL A   1      33.536  29.469  26.986  1.00  0.00     0.016 C 
ATOM     22  C   UNL A   1      31.478  28.316  27.708  1.00  0.00     0.016 C 
ENDBRANCH   9  19
BRANCH  18  23
ATOM     23  C   UNL A   1      33.611  22.341  27.508  1.00  0.00     0.429 C 
ATOM     24  F   UNL A   1      33.930  21.033  27.683  1.00  0.00    -0.167 F 
ATOM     25  F   UNL A   1      34.767  22.980  27.207  1.00  0.00    -0.167 F 
ATOM     26  F   UNL A   1      33.197  22.820  28.702  1.00  0.00    -0.167 F 
ENDBRANCH  18  23
ENDBRANCH   5   8
ENDBRANCH   3   4
ENDBRANCH   2   3
ENDBRANCH   1   2
BRANCH   1  27
ATOM     27  C   UNL A   1      37.592  23.386  25.462  1.00  0.00     0.116 C 
BRANCH  27  28
ATOM     28  N   UNL A   1      38.857  22.716  25.725  1.00  0.00    -0.352 N 
ATOM     29  C   UNL A   1      39.930  23.206  26.438  1.00  0.00     0.251 C 
ATOM     30  H   UNL A   1      38.959  21.811  25.351  1.00  0.00     0.163 HD
ATOM     31  O   UNL A   1      40.966  22.564  26.554  1.00  0.00    -0.269 OA
BRANCH  29  32
ATOM     32  C   UNL A   1      39.821  24.563  27.002  1.00  0.00     0.039 A 
ATOM     33  C   UNL A   1      40.390  25.647  26.329  1.00  0.00     0.014 A 
ATOM     34  C   UNL A   1      39.286  24.712  28.284  1.00  0.00     0.014 A 
ATOM     35  C   UNL A   1      40.577  26.845  27.008  1.00  0.00     0.010 A 
ATOM     36  C   UNL A   1      39.431  25.931  28.944  1.00  0.00     0.010 A 
ATOM     37  C   UNL A   1      40.138  26.980  28.335  1.00  0.00    -0.014 A 
BRANCH  37  38
ATOM     38  C   UNL A   1      40.522  28.180  29.115  1.00  0.00     0.031 A 
ATOM     39  C   UNL A   1      41.951  28.361  29.552  1.00  0.00     0.074 A 
ATOM     40  C   UNL A   1      39.611  29.136  29.371  1.00  0.00     0.049 A 
ATOM     41  N   UNL A   1      42.481  29.313  30.279  1.00  0.00    -0.248 NA
ATOM     42  C   UNL A   1      42.914  27.337  29.114  1.00  0.00     0.031 C 
ATOM     43  C   UNL A   1      38.210  29.096  28.955  1.00  0.00     0.029 A 
ATOM     44  N   UNL A   1      39.739  30.336  30.020  1.00  0.00    -0.354 N 
ATOM     45  C   UNL A   1      43.825  28.988  30.408  1.00  0.00     0.074 A 
ATOM     46  C   UNL A   1      44.035  27.749  29.691  1.00  0.00     0.031 C 
ATOM     47  C   UNL A   1      37.615  30.241  29.327  1.00  0.00     0.029 A 
ATOM     48  C   UNL A   1      38.579  31.067  30.048  1.00  0.00     0.049 A 
ATOM     49  H   UNL A   1      40.580  30.643  30.428  1.00  0.00     0.167 HD
ATOM     50  C   UNL A   1      44.796  29.667  31.062  1.00  0.00     0.037 A 
ATOM     51  C   UNL A   1      38.321  32.264  30.606  1.00  0.00     0.037 A 
ATOM     52  C   UNL A   1      44.598  30.916  31.747  1.00  0.00     0.049 A 
ATOM     53  C   UNL A   1      39.408  32.979  31.354  1.00  0.00     0.074 A 
ATOM     54  C   UNL A   1      45.521  31.677  32.442  1.00  0.00     0.029 A 
ATOM     55  N   UNL A   1      43.391  31.593  31.807  1.00  0.00    -0.354 N 
ATOM     56  N   UNL A   1      40.660  32.632  31.522  1.00  0.00    -0.248 NA
ATOM     57  C   UNL A   1      39.039  34.240  32.010  1.00  0.00     0.031 C 
ATOM     58  C   UNL A   1      44.866  32.809  32.941  1.00  0.00     0.029 A 
ATOM     59  C   UNL A   1      43.542  32.762  32.535  1.00  0.00     0.049 A 
ATOM     60  H   UNL A   1      42.551  31.289  31.394  1.00  0.00     0.167 HD
ATOM     61  C   UNL A   1      41.226  33.622  32.311  1.00  0.00     0.074 A 
ATOM     62  C   UNL A   1      40.188  34.600  32.565  1.00  0.00     0.031 C 
ATOM     63  C   UNL A   1      42.489  33.708  32.793  1.00  0.00     0.037 A 
BRANCH  50  64
ATOM     64  C   UNL A   1      46.168  29.065  31.084  1.00  0.00     0.064 A 
ATOM     65  C   UNL A   1      47.123  29.381  30.108  1.00  0.00     0.173 A 
ATOM     66  C   UNL A   1      46.545  28.198  32.120  1.00  0.00     0.173 A 
ATOM     67  F   UNL A   1      46.801  30.192  29.089  1.00  0.00    -0.203 F 
ATOM     68  C   UNL A   1      48.407  28.846  30.165  1.00  0.00     0.198 A 
ATOM     69  C   UNL A   1      47.834  27.676  32.183  1.00  0.00     0.198 A 
ATOM     70  F   UNL A   1      45.664  27.864  33.076  1.00  0.00    -0.203 F 
ATOM     71  F   UNL A   1      49.298  29.140  29.209  1.00  0.00    -0.200 F 
ATOM     72  C   UNL A   1      48.763  27.999  31.206  1.00  0.00     0.200 A 
ATOM     73  F   UNL A   1      48.177  26.861  33.190  1.00  0.00    -0.200 F 
ATOM     74  F   UNL A   1      50.000  27.489  31.262  1.00  0.00    -0.200 F 
ENDBRANCH  50  64
BRANCH  51  75
ATOM     75  C   UNL A   1      36.964  32.847  30.484  1.00  0.00     0.064 A 
ATOM     76  C   UNL A   1      36.023  32.690  31.508  1.00  0.00     0.173 A 
ATOM     77  C   UNL A   1      36.594  33.594  29.357  1.00  0.00     0.173 A 
ATOM     78  F   UNL A   1      36.331  31.964  32.594  1.00  0.00    -0.203 F 
ATOM     79  C   UNL A   1      34.758  33.262  31.412  1.00  0.00     0.198 A 
ATOM     80  C   UNL A   1      35.335  34.181  29.270  1.00  0.00     0.198 A 
ATOM     81  F   UNL A   1      37.464  33.769  28.352  1.00  0.00    -0.203 F 
ATOM     82  F   UNL A   1      33.866  33.082  32.397  1.00  0.00    -0.200 F 
ATOM     83  C   UNL A   1      34.416  34.012  30.296  1.00  0.00     0.200 A 
ATOM     84  F   UNL A   1      35.012  34.912  28.195  1.00  0.00    -0.200 F 
ATOM     85  F   UNL A   1      33.202  34.571  30.208  1.00  0.00    -0.200 F 
ENDBRANCH  51  75
BRANCH  63  86
ATOM     86  C   UNL A   1      42.808  34.886  33.659  1.00  0.00     0.064 A 
ATOM     87  C   UNL A   1      43.186  36.112  33.095  1.00  0.00     0.173 A 
ATOM     88  C   UNL A   1      42.698  34.802  35.053  1.00  0.00     0.173 A 
ATOM     89  F   UNL A   1      43.317  36.231  31.765  1.00  0.00    -0.203 F 
ATOM     90  C   UNL A   1      43.456  37.214  33.901  1.00  0.00     0.198 A 
ATOM     91  C   UNL A   1      42.954  35.910  35.855  1.00  0.00     0.198 A 
ATOM     92  F   UNL A   1      42.337  33.648  35.635  1.00  0.00    -0.203 F 
ATOM     93  F   UNL A   1      43.844  38.369  33.345  1.00  0.00    -0.200 F 
ATOM     94  C   UNL A   1      43.336  37.113  35.279  1.00  0.00     0.200 A 
ATOM     95  F   UNL A   1      42.834  35.814  37.187  1.00  0.00    -0.200 F 
ATOM     96  F   UNL A   1      43.595  38.175  36.054  1.00  0.00    -0.200 F 
ENDBRANCH  63  86
ENDBRANCH  37  38
ENDBRANCH  29  32
ENDBRANCH  27  28
ENDBRANCH   1  27
TORSDOF 13
ENDMDL
MODEL 2
REMARK VINA RESULT:     -12.5      3.585      8.927
REMARK SMILES CC(C)(C)c1cc2c(cc1Cl)C=C(C(=O)NCCCCNC(=O)c1ccc(-c3c4nc(c(-c5c(F)c(F)c(F)c(F)c5F)c5ccc([nH]5)c(-c5c(F)c(F)c(F)c(F)c5F)c5nc(c(-c6c(F)c(F)c(F)c(F)c6F)c6ccc3[nH]6)C=C5)C=C4)cc1)[C@@H](C(F)(F)F)O2
REMARK SMILES IDX 19 1 18 2 17 3 16 4 14 5 15 6 13 8 5 9 6 10 10 11 7 12 9 13
REMARK SMILES IDX 11 14 8 15 92 16 12 17 87 18 2 19 1 20 3 21 4 22 88 23 89 24
REMARK SMILES IDX 90 25 91 26 20 27 21 28 22 29 23 31 24 32 25 33 86 34 26 35
REMARK SMILES IDX 85 36 27 37 28 38 29 39 79 40 30 41 84 42 78 43 80 44 31 45
REMARK SMILES IDX 83 46 77 47 76 48 32 50 64 51 44 52 63 53 45 54 48 55 62 56
REMARK SMILES IDX 81 57 46 58 47 59 61 61 82 62 49 63 33 64 34 65 42 66 35 67
REMARK SMILES IDX 36 68 40 69 43 70 37 71 38 72 41 73 39 74 65 75 66 76 74 77
REMARK SMILES IDX 67 78 68 79 72 80 75 81 69 82 70 83 73 84 71 85 50 86 51 87
REMARK SMILES IDX 59 88 52 89 53 90 57 91 60 92 54 93 55 94 58 95 56 96
REMARK H PARENT 16 7 21 30 80 49 48 60
REMARK Flexibility Score: inf
ROOT
ATOM      1  C   UNL A   1      32.443  28.633  27.089  1.00  0.00     0.023 C 
ENDROOT
BRANCH   1   2
ATOM      2  C   UNL A   1      31.468  29.765  26.752  1.00  0.00     0.023 C 
BRANCH   2   3
ATOM      3  C   UNL A   1      31.540  30.251  25.308  1.00  0.00     0.116 C 
BRANCH   3   4
ATOM      4  N   UNL A   1      30.595  29.562  24.449  1.00  0.00    -0.352 N 
ATOM      5  C   UNL A   1      30.566  28.404  23.747  1.00  0.00     0.251 C 
ATOM      6  O   UNL A   1      29.525  28.203  23.112  1.00  0.00    -0.270 OA
ATOM      7  H   UNL A   1      29.755  30.068  24.352  1.00  0.00     0.163 HD
BRANCH   5   8
ATOM      8  C   UNL A   1      31.668  27.398  23.695  1.00  0.00     0.067 C 
ATOM      9  C   UNL A   1      34.889  23.591  24.743  1.00  0.00    -0.020 A 
ATOM     10  C   UNL A   1      34.592  24.404  23.618  1.00  0.00     0.053 A 
ATOM     11  C   UNL A   1      34.060  23.783  25.872  1.00  0.00     0.045 A 
ATOM     12  C   UNL A   1      33.570  25.352  23.622  1.00  0.00     0.128 A 
ATOM     13  C   UNL A   1      33.013  24.730  25.857  1.00  0.00     0.032 A 
ATOM     14  Cl  UNL A   1      34.196  22.933  27.369  1.00  0.00    -0.084 Cl
ATOM     15  C   UNL A   1      32.768  25.521  24.738  1.00  0.00     0.019 A 
ATOM     16  O   UNL A   1      33.386  26.071  22.474  1.00  0.00    -0.475 OA
ATOM     17  C   UNL A   1      31.688  26.500  24.699  1.00  0.00     0.025 C 
ATOM     18  C   UNL A   1      32.748  27.367  22.648  1.00  0.00     0.314 C 
BRANCH   9  19
ATOM     19  C   UNL A   1      36.088  22.621  24.590  1.00  0.00    -0.012 C 
ATOM     20  C   UNL A   1      35.603  21.165  24.815  1.00  0.00     0.016 C 
ATOM     21  C   UNL A   1      37.296  22.807  25.529  1.00  0.00     0.016 C 
ATOM     22  C   UNL A   1      36.649  22.744  23.150  1.00  0.00     0.016 C 
ENDBRANCH   9  19
BRANCH  18  23
ATOM     23  C   UNL A   1      33.830  28.441  22.879  1.00  0.00     0.429 C 
ATOM     24  F   UNL A   1      34.847  28.284  21.994  1.00  0.00    -0.167 F 
ATOM     25  F   UNL A   1      33.357  29.698  22.700  1.00  0.00    -0.167 F 
ATOM     26  F   UNL A   1      34.361  28.394  24.120  1.00  0.00    -0.167 F 
ENDBRANCH  18  23
ENDBRANCH   5   8
ENDBRANCH   3   4
ENDBRANCH   2   3
ENDBRANCH   1   2
BRANCH   1  27
ATOM     27  C   UNL A   1      33.888  29.060  27.342  1.00  0.00     0.116 C 
BRANCH  27  28
ATOM     28  N   UNL A   1      34.028  30.352  27.999  1.00  0.00    -0.352 N 
ATOM     29  C   UNL A   1      35.155  30.865  28.604  1.00  0.00     0.251 C 
ATOM     30  H   UNL A   1      33.227  30.924  28.013  1.00  0.00     0.163 HD
ATOM     31  O   UNL A   1      35.138  31.951  29.168  1.00  0.00    -0.269 OA
BRANCH  29  32
ATOM     32  C   UNL A   1      36.371  30.032  28.616  1.00  0.00     0.039 A 
ATOM     33  C   UNL A   1      36.722  29.325  29.768  1.00  0.00     0.014 A 
ATOM     34  C   UNL A   1      37.233  30.095  27.519  1.00  0.00     0.014 A 
ATOM     35  C   UNL A   1      38.012  28.821  29.888  1.00  0.00     0.010 A 
ATOM     36  C   UNL A   1      38.510  29.545  27.624  1.00  0.00     0.010 A 
ATOM     37  C   UNL A   1      38.928  28.967  28.834  1.00  0.00    -0.014 A 
BRANCH  37  38
ATOM     38  C   UNL A   1      40.352  28.615  29.046  1.00  0.00     0.031 A 
ATOM     39  C   UNL A   1      41.235  29.528  29.852  1.00  0.00     0.074 A 
ATOM     40  C   UNL A   1      40.833  27.450  28.578  1.00  0.00     0.049 A 
ATOM     41  N   UNL A   1      42.514  29.426  30.114  1.00  0.00    -0.248 NA
ATOM     42  C   UNL A   1      40.597  30.716  30.446  1.00  0.00     0.031 C 
ATOM     43  C   UNL A   1      40.060  26.461  27.827  1.00  0.00     0.029 A 
ATOM     44  N   UNL A   1      42.080  26.893  28.689  1.00  0.00    -0.354 N 
ATOM     45  C   UNL A   1      42.837  30.543  30.873  1.00  0.00     0.074 A 
ATOM     46  C   UNL A   1      41.625  31.318  31.029  1.00  0.00     0.031 C 
ATOM     47  C   UNL A   1      40.842  25.399  27.578  1.00  0.00     0.029 A 
ATOM     48  C   UNL A   1      42.179  25.656  28.106  1.00  0.00     0.049 A 
ATOM     49  H   UNL A   1      42.832  27.339  29.141  1.00  0.00     0.167 HD
ATOM     50  C   UNL A   1      44.037  30.888  31.396  1.00  0.00     0.037 A 
ATOM     51  C   UNL A   1      43.236  24.830  27.999  1.00  0.00     0.037 A 
ATOM     52  C   UNL A   1      45.236  30.103  31.271  1.00  0.00     0.049 A 
ATOM     53  C   UNL A   1      44.562  25.252  28.559  1.00  0.00     0.074 A 
ATOM     54  C   UNL A   1      46.500  30.372  31.764  1.00  0.00     0.029 A 
ATOM     55  N   UNL A   1      45.310  28.884  30.616  1.00  0.00    -0.354 N 
ATOM     56  N   UNL A   1      44.870  26.340  29.221  1.00  0.00    -0.248 NA
ATOM     57  C   UNL A   1      45.694  24.341  28.336  1.00  0.00     0.031 C 
ATOM     58  C   UNL A   1      47.347  29.322  31.389  1.00  0.00     0.029 A 
ATOM     59  C   UNL A   1      46.602  28.390  30.684  1.00  0.00     0.049 A 
ATOM     60  H   UNL A   1      44.557  28.436  30.169  1.00  0.00     0.167 HD
ATOM     61  C   UNL A   1      46.230  26.252  29.483  1.00  0.00     0.074 A 
ATOM     62  C   UNL A   1      46.683  24.991  28.934  1.00  0.00     0.031 C 
ATOM     63  C   UNL A   1      47.034  27.143  30.111  1.00  0.00     0.037 A 
BRANCH  50  64
ATOM     64  C   UNL A   1      44.121  32.184  32.143  1.00  0.00     0.064 A 
ATOM     65  C   UNL A   1      44.373  33.394  31.483  1.00  0.00     0.173 A 
ATOM     66  C   UNL A   1      43.901  32.219  33.527  1.00  0.00     0.173 A 
ATOM     67  F   UNL A   1      44.607  33.406  30.162  1.00  0.00    -0.203 F 
ATOM     68  C   UNL A   1      44.407  34.596  32.185  1.00  0.00     0.198 A 
ATOM     69  C   UNL A   1      43.921  33.424  34.224  1.00  0.00     0.198 A 
ATOM     70  F   UNL A   1      43.659  31.085  34.202  1.00  0.00    -0.203 F 
ATOM     71  F   UNL A   1      44.674  35.740  31.541  1.00  0.00    -0.200 F 
ATOM     72  C   UNL A   1      44.175  34.611  33.554  1.00  0.00     0.200 A 
ATOM     73  F   UNL A   1      43.694  33.437  35.545  1.00  0.00    -0.200 F 
ATOM     74  F   UNL A   1      44.203  35.769  34.226  1.00  0.00    -0.200 F 
ENDBRANCH  50  64
BRANCH  51  75
ATOM     75  C   UNL A   1      43.073  23.524  27.317  1.00  0.00     0.064 A 
ATOM     76  C   UNL A   1      42.450  22.451  27.964  1.00  0.00     0.173 A 
ATOM     77  C   UNL A   1      43.511  23.335  25.999  1.00  0.00     0.173 A 
ATOM     78  F   UNL A   1      42.035  22.585  29.233  1.00  0.00    -0.203 F 
ATOM     79  C   UNL A   1      42.267  21.232  27.317  1.00  0.00     0.198 A 
ATOM     80  C   UNL A   1      43.313  22.122  25.346  1.00  0.00     0.198 A 
ATOM     81  F   UNL A   1      44.115  24.336  25.341  1.00  0.00    -0.203 F 
ATOM     82  F   UNL A   1      41.685  20.213  27.963  1.00  0.00    -0.200 F 
ATOM     83  C   UNL A   1      42.693  21.070  26.006  1.00  0.00     0.200 A 
ATOM     84  F   UNL A   1      43.716  21.972  24.078  1.00  0.00    -0.200 F 
ATOM     85  F   UNL A   1      42.508  19.901  25.380  1.00  0.00    -0.200 F 
ENDBRANCH  51  75
BRANCH  63  86
ATOM     86  C   UNL A   1      48.485  26.793  30.217  1.00  0.00     0.064 A 
ATOM     87  C   UNL A   1      49.407  27.252  29.266  1.00  0.00     0.173 A 
ATOM     88  C   UNL A   1      48.962  26.031  31.292  1.00  0.00     0.173 A 
ATOM     89  F   UNL A   1      48.990  27.971  28.214  1.00  0.00    -0.203 F 
ATOM     90  C   UNL A   1      50.760  26.947  29.382  1.00  0.00     0.198 A 
ATOM     91  C   UNL A   1      50.318  25.742  31.413  1.00  0.00     0.198 A 
ATOM     92  F   UNL A   1      48.114  25.574  32.227  1.00  0.00    -0.203 F 
ATOM     93  F   UNL A   1      51.621  27.370  28.447  1.00  0.00    -0.200 F 
ATOM     94  C   UNL A   1      51.215  26.197  30.456  1.00  0.00     0.200 A 
ATOM     95  F   UNL A   1      50.758  25.020  32.453  1.00  0.00    -0.200 F 
ATOM     96  F   UNL A   1      52.518  25.906  30.567  1.00  0.00    -0.200 F 
ENDBRANCH  63  86
ENDBRANCH  37  38
ENDBRANCH  29  32
ENDBRANCH  27  28
ENDBRANCH   1  27
TORSDOF 13
ENDMDL
MODEL 3
REMARK VINA RESULT:     -12.3      0.602      7.195
REMARK SMILES CC(C)(C)c1cc2c(cc1Cl)C=C(C(=O)NCCCCNC(=O)c1ccc(-c3c4nc(c(-c5c(F)c(F)c(F)c(F)c5F)c5ccc([nH]5)c(-c5c(F)c(F)c(F)c(F)c5F)c5nc(c(-c6c(F)c(F)c(F)c(F)c6F)c6ccc3[nH]6)C=C5)C=C4)cc1)[C@@H](C(F)(F)F)O2
REMARK SMILES IDX 19 1 18 2 17 3 16 4 14 5 15 6 13 8 5 9 6 10 10 11 7 12 9 13
REMARK SMILES IDX 11 14 8 15 92 16 12 17 87 18 2 19 1 20 3 21 4 22 88 23 89 24
REMARK SMILES IDX 90 25 91 26 20 27 21 28 22 29 23 31 24 32 25 33 86 34 26 35
REMARK SMILES IDX 85 36 27 37 28 38 29 39 79 40 30 41 84 42 78 43 80 44 31 45
REMARK SMILES IDX 83 46 77 47 76 48 32 50 64 51 44 52 63 53 45 54 48 55 62 56
REMARK SMILES IDX 81 57 46 58 47 59 61 61 82 62 49 63 33 64 34 65 42 66 35 67
REMARK SMILES IDX 36 68 40 69 43 70 37 71 38 72 41 73 39 74 65 75 66 76 74 77
REMARK SMILES IDX 67 78 68 79 72 80 75 81 69 82 70 83 73 84 71 85 50 86 51 87
REMARK SMILES IDX 59 88 52 89 53 90 57 91 60 92 54 93 55 94 58 95 56 96
REMARK H PARENT 16 7 21 30 80 49 48 60
REMARK Flexibility Score: inf
ROOT
ATOM      1  C   UNL A   1      36.732  22.851  24.546  1.00  0.00     0.023 C 
ENDROOT
BRANCH   1   2
ATOM      2  C   UNL A   1      36.854  21.337  24.351  1.00  0.00     0.023 C 
BRANCH   2   3
ATOM      3  C   UNL A   1      35.938  20.510  25.250  1.00  0.00     0.116 C 
BRANCH   3   4
ATOM      4  N   UNL A   1      34.653  20.247  24.629  1.00  0.00    -0.352 N 
ATOM      5  C   UNL A   1      33.468  20.892  24.510  1.00  0.00     0.251 C 
ATOM      6  O   UNL A   1      32.597  20.276  23.886  1.00  0.00    -0.270 OA
ATOM      7  H   UNL A   1      34.639  19.373  24.177  1.00  0.00     0.163 HD
BRANCH   5   8
ATOM      8  C   UNL A   1      33.161  22.244  25.062  1.00  0.00     0.067 C 
ATOM      9  C   UNL A   1      32.735  27.272  25.772  1.00  0.00    -0.020 A 
ATOM     10  C   UNL A   1      32.216  26.102  26.385  1.00  0.00     0.053 A 
ATOM     11  C   UNL A   1      33.515  27.062  24.613  1.00  0.00     0.045 A 
ATOM     12  C   UNL A   1      32.473  24.820  25.900  1.00  0.00     0.128 A 
ATOM     13  C   UNL A   1      33.750  25.761  24.118  1.00  0.00     0.032 A 
ATOM     14  Cl  UNL A   1      34.265  28.301  23.673  1.00  0.00    -0.084 Cl
ATOM     15  C   UNL A   1      33.238  24.637  24.760  1.00  0.00     0.019 A 
ATOM     16  O   UNL A   1      31.914  23.776  26.580  1.00  0.00    -0.475 OA
ATOM     17  C   UNL A   1      33.464  23.286  24.262  1.00  0.00     0.025 C 
ATOM     18  C   UNL A   1      32.600  22.500  26.434  1.00  0.00     0.314 C 
BRANCH   9  19
ATOM     19  C   UNL A   1      32.393  28.616  26.465  1.00  0.00    -0.012 C 
ATOM     20  C   UNL A   1      31.408  28.355  27.635  1.00  0.00     0.016 C 
ATOM     21  C   UNL A   1      31.743  29.726  25.615  1.00  0.00     0.016 C 
ATOM     22  C   UNL A   1      33.696  29.230  27.037  1.00  0.00     0.016 C 
ENDBRANCH   9  19
BRANCH  18  23
ATOM     23  C   UNL A   1      33.660  22.361  27.545  1.00  0.00     0.429 C 
ATOM     24  F   UNL A   1      34.050  21.066  27.666  1.00  0.00    -0.167 F 
ATOM     25  F   UNL A   1      34.780  23.075  27.283  1.00  0.00    -0.167 F 
ATOM     26  F   UNL A   1      33.211  22.763  28.754  1.00  0.00    -0.167 F 
ENDBRANCH  18  23
ENDBRANCH   5   8
ENDBRANCH   3   4
ENDBRANCH   2   3
ENDBRANCH   1   2
BRANCH   1  27
ATOM     27  C   UNL A   1      37.625  23.450  25.633  1.00  0.00     0.116 C 
BRANCH  27  28
ATOM     28  N   UNL A   1      38.908  22.782  25.796  1.00  0.00    -0.352 N 
ATOM     29  C   UNL A   1      40.019  23.253  26.461  1.00  0.00     0.251 C 
ATOM     30  H   UNL A   1      38.993  21.892  25.382  1.00  0.00     0.163 HD
ATOM     31  O   UNL A   1      41.063  22.616  26.490  1.00  0.00    -0.269 OA
BRANCH  29  32
ATOM     32  C   UNL A   1      39.935  24.588  27.081  1.00  0.00     0.039 A 
ATOM     33  C   UNL A   1      40.567  25.678  26.478  1.00  0.00     0.014 A 
ATOM     34  C   UNL A   1      39.356  24.700  28.347  1.00  0.00     0.014 A 
ATOM     35  C   UNL A   1      40.769  26.839  27.217  1.00  0.00     0.010 A 
ATOM     36  C   UNL A   1      39.518  25.884  29.067  1.00  0.00     0.010 A 
ATOM     37  C   UNL A   1      40.284  26.932  28.531  1.00  0.00    -0.014 A 
BRANCH  37  38
ATOM     38  C   UNL A   1      40.680  28.082  29.378  1.00  0.00     0.031 A 
ATOM     39  C   UNL A   1      39.694  29.186  29.648  1.00  0.00     0.074 A 
ATOM     40  C   UNL A   1      41.892  28.102  29.959  1.00  0.00     0.049 A 
ATOM     41  N   UNL A   1      39.857  30.297  30.320  1.00  0.00    -0.248 NA
ATOM     42  C   UNL A   1      38.341  29.020  29.088  1.00  0.00     0.031 C 
ATOM     43  C   UNL A   1      42.914  27.066  29.813  1.00  0.00     0.029 A 
ATOM     44  N   UNL A   1      42.458  29.019  30.807  1.00  0.00    -0.354 N 
ATOM     45  C   UNL A   1      38.646  30.971  30.240  1.00  0.00     0.074 A 
ATOM     46  C   UNL A   1      37.753  30.152  29.450  1.00  0.00     0.031 C 
ATOM     47  C   UNL A   1      43.968  27.386  30.580  1.00  0.00     0.029 A 
ATOM     48  C   UNL A   1      43.716  28.670  31.227  1.00  0.00     0.049 A 
ATOM     49  H   UNL A   1      42.005  29.847  31.086  1.00  0.00     0.167 HD
ATOM     50  C   UNL A   1      38.309  32.165  30.782  1.00  0.00     0.037 A 
ATOM     51  C   UNL A   1      44.573  29.323  32.033  1.00  0.00     0.037 A 
ATOM     52  C   UNL A   1      39.183  32.966  31.597  1.00  0.00     0.049 A 
ATOM     53  C   UNL A   1      44.186  30.660  32.594  1.00  0.00     0.074 A 
ATOM     54  C   UNL A   1      38.932  34.192  32.188  1.00  0.00     0.029 A 
ATOM     55  N   UNL A   1      40.475  32.608  31.947  1.00  0.00    -0.354 N 
ATOM     56  N   UNL A   1      43.061  31.317  32.459  1.00  0.00    -0.248 NA
ATOM     57  C   UNL A   1      45.199  31.357  33.398  1.00  0.00     0.031 C 
ATOM     58  C   UNL A   1      40.083  34.586  32.881  1.00  0.00     0.029 A 
ATOM     59  C   UNL A   1      41.039  33.593  32.740  1.00  0.00     0.049 A 
ATOM     60  H   UNL A   1      40.925  31.777  31.672  1.00  0.00     0.167 HD
ATOM     61  C   UNL A   1      43.232  32.508  33.150  1.00  0.00     0.074 A 
ATOM     62  C   UNL A   1      44.560  32.471  33.726  1.00  0.00     0.031 C 
ATOM     63  C   UNL A   1      42.370  33.544  33.284  1.00  0.00     0.037 A 
BRANCH  50  64
ATOM     64  C   UNL A   1      36.935  32.692  30.500  1.00  0.00     0.064 A 
ATOM     65  C   UNL A   1      35.896  32.565  31.432  1.00  0.00     0.173 A 
ATOM     66  C   UNL A   1      36.669  33.372  29.303  1.00  0.00     0.173 A 
ATOM     67  F   UNL A   1      36.100  31.906  32.583  1.00  0.00    -0.203 F 
ATOM     68  C   UNL A   1      34.635  33.096  31.173  1.00  0.00     0.198 A 
ATOM     69  C   UNL A   1      35.412  33.915  29.053  1.00  0.00     0.198 A 
ATOM     70  F   UNL A   1      37.632  33.516  28.379  1.00  0.00    -0.203 F 
ATOM     71  F   UNL A   1      33.648  32.942  32.065  1.00  0.00    -0.200 F 
ATOM     72  C   UNL A   1      34.396  33.776  29.986  1.00  0.00     0.200 A 
ATOM     73  F   UNL A   1      35.183  34.573  27.908  1.00  0.00    -0.200 F 
ATOM     74  F   UNL A   1      33.184  34.290  29.741  1.00  0.00    -0.200 F 
ENDBRANCH  50  64
BRANCH  51  75
ATOM     75  C   UNL A   1      45.889  28.715  32.341  1.00  0.00     0.064 A 
ATOM     76  C   UNL A   1      46.053  27.891  33.460  1.00  0.00     0.173 A 
ATOM     77  C   UNL A   1      46.997  28.925  31.508  1.00  0.00     0.173 A 
ATOM     78  F   UNL A   1      45.023  27.683  34.294  1.00  0.00    -0.203 F 
ATOM     79  C   UNL A   1      47.280  27.294  33.736  1.00  0.00     0.198 A 
ATOM     80  C   UNL A   1      48.219  28.313  31.774  1.00  0.00     0.198 A 
ATOM     81  F   UNL A   1      46.885  29.708  30.425  1.00  0.00    -0.203 F 
ATOM     82  F   UNL A   1      47.419  26.524  34.824  1.00  0.00    -0.200 F 
ATOM     83  C   UNL A   1      48.361  27.500  32.890  1.00  0.00     0.200 A 
ATOM     84  F   UNL A   1      49.256  28.506  30.949  1.00  0.00    -0.200 F 
ATOM     85  F   UNL A   1      49.538  26.917  33.150  1.00  0.00    -0.200 F 
ENDBRANCH  51  75
BRANCH  63  86
ATOM     86  C   UNL A   1      42.847  34.728  34.064  1.00  0.00     0.064 A 
ATOM     87  C   UNL A   1      43.418  35.834  33.419  1.00  0.00     0.173 A 
ATOM     88  C   UNL A   1      42.698  34.777  35.457  1.00  0.00     0.173 A 
ATOM     89  F   UNL A   1      43.593  35.822  32.089  1.00  0.00    -0.203 F 
ATOM     90  C   UNL A   1      43.836  36.945  34.144  1.00  0.00     0.198 A 
ATOM     91  C   UNL A   1      43.103  35.896  36.178  1.00  0.00     0.198 A 
ATOM     92  F   UNL A   1      42.154  33.742  36.116  1.00  0.00    -0.203 F 
ATOM     93  F   UNL A   1      44.406  37.979  33.512  1.00  0.00    -0.200 F 
ATOM     94  C   UNL A   1      43.674  36.977  35.522  1.00  0.00     0.200 A 
ATOM     95  F   UNL A   1      42.943  35.929  37.508  1.00  0.00    -0.200 F 
ATOM     96  F   UNL A   1      44.076  38.049  36.219  1.00  0.00    -0.200 F 
ENDBRANCH  63  86
ENDBRANCH  37  38
ENDBRANCH  29  32
ENDBRANCH  27  28
ENDBRANCH   1  27
TORSDOF 13
ENDMDL
