MODEL 1
REMARK VINA RESULT:     -11.9      0.000      0.000
REMARK SMILES COc1cc(C[N@H+]2CCC[C@@](O)(CO)C2)cc(Cl)c1OCC(=O)NCCCCNC(=O)c1ccc(-c2c3nc(c(-c4c(F)c(F)c(F)c(F)c4F)c4ccc([nH]4)c(-c4c(F)c(F)c(F)c(F)c4F)c4nc(c(-c5c(F)c(F)c(F)c(F)c5F)c5ccc2[nH]5)C=C4)C=C3)cc1
REMARK SMILES IDX 22 1 23 2 24 3 21 5 20 6 19 7 3 8 4 9 5 10 17 11 16 12 18 13
REMARK SMILES IDX 2 14 1 15 6 16 7 17 8 18 15 19 9 21 11 22 10 23 13 24 14 25
REMARK SMILES IDX 12 27 25 29 26 30 27 31 28 32 29 33 30 34 31 36 32 37 33 38
REMARK SMILES IDX 94 39 34 40 93 41 35 42 36 43 37 44 87 45 38 46 92 47 86 48
REMARK SMILES IDX 88 49 39 50 91 51 85 52 84 53 40 55 72 56 52 57 71 58 53 59
REMARK SMILES IDX 56 60 70 61 89 62 54 63 55 64 69 66 90 67 57 68 41 69 42 70
REMARK SMILES IDX 50 71 43 72 44 73 48 74 51 75 45 76 46 77 49 78 47 79 73 80
REMARK SMILES IDX 74 81 82 82 75 83 76 84 80 85 83 86 77 87 78 88 81 89 79 90
REMARK SMILES IDX 58 91 59 92 67 93 60 94 61 95 65 96 68 97 62 98 63 99 66 100
REMARK SMILES IDX 64 101
REMARK H PARENT 24 4 7 20 14 26 12 28 29 35 88 54 56 65
REMARK Flexibility Score: inf
ROOT
ATOM      1  C   UNL A   1      32.854  26.307  21.970  1.00  0.00     0.257 C 
ATOM      2  O   UNL A   1      33.281  25.784  20.938  1.00  0.00    -0.271 OA
ATOM      3  N   UNL A   1      33.106  27.635  22.139  1.00  0.00    -0.353 N 
ATOM      4  H   UNL A   1      33.743  28.030  21.502  1.00  0.00     0.163 HD
ENDROOT
BRANCH   1   5
ATOM      5  C   UNL A   1      31.995  25.533  22.984  1.00  0.00     0.329 C 
BRANCH   5   6
ATOM      6  O   UNL A   1      32.574  24.985  24.149  1.00  0.00    -0.478 OA
BRANCH   6   7
ATOM      7  C   UNL A   1      32.813  23.651  24.311  1.00  0.00     0.180 A 
ATOM      8  C   UNL A   1      31.786  22.988  25.016  1.00  0.00     0.162 A 
ATOM      9  C   UNL A   1      31.869  21.629  25.340  1.00  0.00     0.060 A 
ATOM     10  C   UNL A   1      33.041  20.918  25.104  1.00  0.00     0.012 A 
ATOM     11  C   UNL A   1      33.891  22.869  23.882  1.00  0.00     0.087 A 
ATOM     12  C   UNL A   1      34.021  21.537  24.319  1.00  0.00     0.034 A 
ATOM     13  Cl  UNL A   1      35.092  23.364  22.749  1.00  0.00    -0.080 Cl
BRANCH   8  14
ATOM     14  O   UNL A   1      30.633  23.674  25.327  1.00  0.00    -0.493 OA
ATOM     15  C   UNL A   1      30.281  23.530  26.702  1.00  0.00     0.278 C 
ENDBRANCH   8  14
BRANCH  10  16
ATOM     16  C   UNL A   1      33.289  19.548  25.696  1.00  0.00     0.299 C 
BRANCH  16  17
ATOM     17  N   UNL A   1      32.519  18.436  25.139  1.00  0.00    -0.329 N 
ATOM     18  C   UNL A   1      32.149  18.435  23.735  1.00  0.00     0.262 C 
ATOM     19  C   UNL A   1      32.765  17.085  25.620  1.00  0.00     0.300 C 
ATOM     20  H   UNL A   1      31.683  18.759  25.625  1.00  0.00     0.348 HD
ATOM     21  C   UNL A   1      33.235  17.840  22.842  1.00  0.00     0.065 C 
ATOM     22  C   UNL A   1      33.828  16.248  24.863  1.00  0.00     0.136 C 
ATOM     23  C   UNL A   1      33.844  16.519  23.337  1.00  0.00     0.049 C 
BRANCH  22  24
ATOM     24  C   UNL A   1      35.250  16.315  25.466  1.00  0.00     0.197 C 
BRANCH  24  25
ATOM     25  O   UNL A   1      35.951  15.078  25.376  1.00  0.00    -0.393 OA
ATOM     26  H   UNL A   1      35.853  14.714  24.483  1.00  0.00     0.210 HD
ENDBRANCH  24  25
ENDBRANCH  22  24
BRANCH  22  27
ATOM     27  O   UNL A   1      33.433  14.857  25.000  1.00  0.00    -0.382 OA
ATOM     28  H   UNL A   1      34.100  14.382  25.521  1.00  0.00     0.211 HD
ENDBRANCH  22  27
ENDBRANCH  16  17
ENDBRANCH  10  16
ENDBRANCH   6   7
ENDBRANCH   5   6
ENDBRANCH   1   5
BRANCH   3  29
ATOM     29  C   UNL A   1      32.569  28.549  23.124  1.00  0.00     0.116 C 
BRANCH  29  30
ATOM     30  C   UNL A   1      33.473  28.667  24.348  1.00  0.00     0.023 C 
BRANCH  30  31
ATOM     31  C   UNL A   1      32.998  27.944  25.610  1.00  0.00     0.023 C 
BRANCH  31  32
ATOM     32  C   UNL A   1      33.758  28.259  26.892  1.00  0.00     0.116 C 
BRANCH  32  33
ATOM     33  N   UNL A   1      33.603  29.636  27.327  1.00  0.00    -0.352 N 
ATOM     34  C   UNL A   1      34.489  30.450  27.987  1.00  0.00     0.251 C 
ATOM     35  H   UNL A   1      32.734  30.046  27.116  1.00  0.00     0.163 HD
ATOM     36  O   UNL A   1      34.118  31.560  28.374  1.00  0.00    -0.269 OA
BRANCH  34  37
ATOM     37  C   UNL A   1      35.870  30.001  28.273  1.00  0.00     0.039 A 
ATOM     38  C   UNL A   1      36.821  30.080  27.251  1.00  0.00     0.014 A 
ATOM     39  C   UNL A   1      36.234  29.491  29.522  1.00  0.00     0.014 A 
ATOM     40  C   UNL A   1      38.143  29.703  27.500  1.00  0.00     0.010 A 
ATOM     41  C   UNL A   1      37.569  29.196  29.793  1.00  0.00     0.010 A 
ATOM     42  C   UNL A   1      38.538  29.289  28.783  1.00  0.00    -0.014 A 
BRANCH  42  43
ATOM     43  C   UNL A   1      39.956  28.946  29.068  1.00  0.00     0.031 A 
ATOM     44  C   UNL A   1      40.834  29.896  29.838  1.00  0.00     0.074 A 
ATOM     45  C   UNL A   1      40.467  27.790  28.604  1.00  0.00     0.049 A 
ATOM     46  N   UNL A   1      42.091  29.768  30.185  1.00  0.00    -0.248 NA
ATOM     47  C   UNL A   1      40.228  31.171  30.252  1.00  0.00     0.031 C 
ATOM     48  C   UNL A   1      39.741  26.809  27.794  1.00  0.00     0.029 A 
ATOM     49  N   UNL A   1      41.718  27.241  28.745  1.00  0.00    -0.354 N 
ATOM     50  C   UNL A   1      42.423  30.942  30.847  1.00  0.00     0.074 A 
ATOM     51  C   UNL A   1      41.258  31.797  30.800  1.00  0.00     0.031 C 
ATOM     52  C   UNL A   1      40.546  25.765  27.542  1.00  0.00     0.029 A 
ATOM     53  C   UNL A   1      41.853  26.014  28.139  1.00  0.00     0.049 A 
ATOM     54  H   UNL A   1      42.449  27.683  29.234  1.00  0.00     0.167 HD
ATOM     55  C   UNL A   1      43.585  31.267  31.466  1.00  0.00     0.037 A 
ATOM     56  C   UNL A   1      42.912  25.185  28.075  1.00  0.00     0.037 A 
ATOM     57  C   UNL A   1      44.739  30.408  31.528  1.00  0.00     0.049 A 
ATOM     58  C   UNL A   1      44.190  25.569  28.771  1.00  0.00     0.074 A 
ATOM     59  C   UNL A   1      45.942  30.622  32.178  1.00  0.00     0.029 A 
ATOM     60  N   UNL A   1      44.835  29.168  30.911  1.00  0.00    -0.354 N 
ATOM     61  N   UNL A   1      44.465  26.647  29.465  1.00  0.00    -0.248 NA
ATOM     62  C   UNL A   1      45.302  24.613  28.685  1.00  0.00     0.031 C 
ATOM     63  C   UNL A   1      46.784  29.537  31.911  1.00  0.00     0.029 A 
ATOM     64  C   UNL A   1      46.086  28.618  31.145  1.00  0.00     0.049 A 
ATOM     65  H   UNL A   1      44.120  28.743  30.383  1.00  0.00     0.167 HD
ATOM     66  C   UNL A   1      45.767  26.487  29.920  1.00  0.00     0.074 A 
ATOM     67  C   UNL A   1      46.217  25.196  29.444  1.00  0.00     0.031 C 
ATOM     68  C   UNL A   1      46.524  27.332  30.663  1.00  0.00     0.037 A 
BRANCH  55  69
ATOM     69  C   UNL A   1      43.664  32.612  32.131  1.00  0.00     0.064 A 
ATOM     70  C   UNL A   1      43.292  32.794  33.473  1.00  0.00     0.173 A 
ATOM     71  C   UNL A   1      44.146  33.728  31.430  1.00  0.00     0.173 A 
ATOM     72  F   UNL A   1      42.814  31.763  34.186  1.00  0.00    -0.203 F 
ATOM     73  C   UNL A   1      43.370  34.047  34.077  1.00  0.00     0.198 A 
ATOM     74  C   UNL A   1      44.255  34.971  32.047  1.00  0.00     0.198 A 
ATOM     75  F   UNL A   1      44.521  33.611  30.147  1.00  0.00    -0.203 F 
ATOM     76  F   UNL A   1      42.958  34.206  35.341  1.00  0.00    -0.200 F 
ATOM     77  C   UNL A   1      43.859  35.133  33.366  1.00  0.00     0.200 A 
ATOM     78  F   UNL A   1      44.741  36.017  31.362  1.00  0.00    -0.200 F 
ATOM     79  F   UNL A   1      43.940  36.336  33.950  1.00  0.00    -0.200 F 
ENDBRANCH  55  69
BRANCH  56  80
ATOM     80  C   UNL A   1      42.801  23.890  27.352  1.00  0.00     0.064 A 
ATOM     81  C   UNL A   1      42.340  22.738  28.002  1.00  0.00     0.173 A 
ATOM     82  C   UNL A   1      43.169  23.774  26.003  1.00  0.00     0.173 A 
ATOM     83  F   UNL A   1      41.996  22.792  29.298  1.00  0.00    -0.203 F 
ATOM     84  C   UNL A   1      42.275  21.512  27.340  1.00  0.00     0.198 A 
ATOM     85  C   UNL A   1      43.074  22.556  25.333  1.00  0.00     0.198 A 
ATOM     86  F   UNL A   1      43.612  24.848  25.333  1.00  0.00    -0.203 F 
ATOM     87  F   UNL A   1      41.882  20.416  28.002  1.00  0.00    -0.200 F 
ATOM     88  C   UNL A   1      42.637  21.424  26.004  1.00  0.00     0.200 A 
ATOM     89  F   UNL A   1      43.410  22.479  24.039  1.00  0.00    -0.200 F 
ATOM     90  F   UNL A   1      42.573  20.248  25.368  1.00  0.00    -0.200 F 
ENDBRANCH  56  80
BRANCH  68  91
ATOM     91  C   UNL A   1      47.906  26.871  31.031  1.00  0.00     0.064 A 
ATOM     92  C   UNL A   1      49.038  27.285  30.312  1.00  0.00     0.173 A 
ATOM     93  C   UNL A   1      48.101  26.011  32.122  1.00  0.00     0.173 A 
ATOM     94  F   UNL A   1      48.906  28.096  29.252  1.00  0.00    -0.203 F 
ATOM     95  C   UNL A   1      50.308  26.821  30.647  1.00  0.00     0.198 A 
ATOM     96  C   UNL A   1      49.376  25.578  32.476  1.00  0.00     0.198 A 
ATOM     97  F   UNL A   1      47.055  25.592  32.849  1.00  0.00    -0.203 F 
ATOM     98  F   UNL A   1      51.366  27.177  29.905  1.00  0.00    -0.200 F 
ATOM     99  C   UNL A   1      50.476  25.973  31.731  1.00  0.00     0.200 A 
ATOM    100  F   UNL A   1      49.538  24.771  33.534  1.00  0.00    -0.200 F 
ATOM    101  F   UNL A   1      51.699  25.526  32.051  1.00  0.00    -0.200 F 
ENDBRANCH  68  91
ENDBRANCH  42  43
ENDBRANCH  34  37
ENDBRANCH  32  33
ENDBRANCH  31  32
ENDBRANCH  30  31
ENDBRANCH  29  30
ENDBRANCH   3  29
TORSDOF 19
ENDMDL
MODEL 2
REMARK VINA RESULT:     -11.9      2.838      3.868
REMARK SMILES COc1cc(C[N@H+]2CCC[C@@](O)(CO)C2)cc(Cl)c1OCC(=O)NCCCCNC(=O)c1ccc(-c2c3nc(c(-c4c(F)c(F)c(F)c(F)c4F)c4ccc([nH]4)c(-c4c(F)c(F)c(F)c(F)c4F)c4nc(c(-c5c(F)c(F)c(F)c(F)c5F)c5ccc2[nH]5)C=C4)C=C3)cc1
REMARK SMILES IDX 22 1 23 2 24 3 21 5 20 6 19 7 3 8 4 9 5 10 17 11 16 12 18 13
REMARK SMILES IDX 2 14 1 15 6 16 7 17 8 18 15 19 9 21 11 22 10 23 13 24 14 25
REMARK SMILES IDX 12 27 25 29 26 30 27 31 28 32 29 33 30 34 31 36 32 37 33 38
REMARK SMILES IDX 94 39 34 40 93 41 35 42 36 43 37 44 87 45 38 46 92 47 86 48
REMARK SMILES IDX 88 49 39 50 91 51 85 52 84 53 40 55 72 56 52 57 71 58 53 59
REMARK SMILES IDX 56 60 70 61 89 62 54 63 55 64 69 66 90 67 57 68 41 69 42 70
REMARK SMILES IDX 50 71 43 72 44 73 48 74 51 75 45 76 46 77 49 78 47 79 73 80
REMARK SMILES IDX 74 81 82 82 75 83 76 84 80 85 83 86 77 87 78 88 81 89 79 90
REMARK SMILES IDX 58 91 59 92 67 93 60 94 61 95 65 96 68 97 62 98 63 99 66 100
REMARK SMILES IDX 64 101
REMARK H PARENT 24 4 7 20 14 26 12 28 29 35 88 54 56 65
REMARK Flexibility Score: inf
ROOT
ATOM      1  C   UNL A   1      32.960  26.460  22.254  1.00  0.00     0.257 C 
ATOM      2  O   UNL A   1      33.658  25.969  21.364  1.00  0.00    -0.271 OA
ATOM      3  N   UNL A   1      32.917  27.820  22.327  1.00  0.00    -0.353 N 
ATOM      4  H   UNL A   1      33.571  28.294  21.765  1.00  0.00     0.163 HD
ENDROOT
BRANCH   1   5
ATOM      5  C   UNL A   1      32.097  25.595  23.188  1.00  0.00     0.329 C 
BRANCH   5   6
ATOM      6  O   UNL A   1      32.657  24.994  24.336  1.00  0.00    -0.478 OA
BRANCH   6   7
ATOM      7  C   UNL A   1      32.864  23.649  24.453  1.00  0.00     0.180 A 
ATOM      8  C   UNL A   1      31.859  23.000  25.199  1.00  0.00     0.162 A 
ATOM      9  C   UNL A   1      31.918  21.631  25.487  1.00  0.00     0.060 A 
ATOM     10  C   UNL A   1      33.053  20.893  25.169  1.00  0.00     0.012 A 
ATOM     11  C   UNL A   1      33.893  22.848  23.946  1.00  0.00     0.087 A 
ATOM     12  C   UNL A   1      34.006  21.502  24.344  1.00  0.00     0.034 A 
ATOM     13  Cl  UNL A   1      35.043  23.335  22.758  1.00  0.00    -0.080 Cl
BRANCH   8  14
ATOM     14  O   UNL A   1      30.746  23.711  25.591  1.00  0.00    -0.493 OA
ATOM     15  C   UNL A   1      30.201  23.218  26.814  1.00  0.00     0.278 C 
ENDBRANCH   8  14
BRANCH  10  16
ATOM     16  C   UNL A   1      33.292  19.502  25.714  1.00  0.00     0.299 C 
BRANCH  16  17
ATOM     17  N   UNL A   1      32.510  18.415  25.125  1.00  0.00    -0.329 N 
ATOM     18  C   UNL A   1      32.181  18.436  23.711  1.00  0.00     0.262 C 
ATOM     19  C   UNL A   1      32.707  17.054  25.599  1.00  0.00     0.300 C 
ATOM     20  H   UNL A   1      31.669  18.755  25.590  1.00  0.00     0.348 HD
ATOM     21  C   UNL A   1      33.276  17.821  22.844  1.00  0.00     0.065 C 
ATOM     22  C   UNL A   1      33.770  16.197  24.865  1.00  0.00     0.136 C 
ATOM     23  C   UNL A   1      33.837  16.481  23.343  1.00  0.00     0.049 C 
BRANCH  22  24
ATOM     24  C   UNL A   1      35.175  16.221  25.509  1.00  0.00     0.197 C 
BRANCH  24  25
ATOM     25  O   UNL A   1      35.907  15.017  25.295  1.00  0.00    -0.393 OA
ATOM     26  H   UNL A   1      35.608  14.341  25.922  1.00  0.00     0.210 HD
ENDBRANCH  24  25
ENDBRANCH  22  24
BRANCH  22  27
ATOM     27  O   UNL A   1      33.335  14.815  24.977  1.00  0.00    -0.382 OA
ATOM     28  H   UNL A   1      33.110  14.621  25.901  1.00  0.00     0.211 HD
ENDBRANCH  22  27
ENDBRANCH  16  17
ENDBRANCH  10  16
ENDBRANCH   6   7
ENDBRANCH   5   6
ENDBRANCH   1   5
BRANCH   3  29
ATOM     29  C   UNL A   1      32.046  28.666  23.113  1.00  0.00     0.116 C 
BRANCH  29  30
ATOM     30  C   UNL A   1      32.657  29.014  24.468  1.00  0.00     0.023 C 
BRANCH  30  31
ATOM     31  C   UNL A   1      31.847  28.600  25.699  1.00  0.00     0.023 C 
BRANCH  31  32
ATOM     32  C   UNL A   1      32.207  29.297  27.005  1.00  0.00     0.116 C 
BRANCH  32  33
ATOM     33  N   UNL A   1      32.152  30.746  26.916  1.00  0.00    -0.352 N 
ATOM     34  C   UNL A   1      33.040  31.686  27.376  1.00  0.00     0.251 C 
ATOM     35  H   UNL A   1      31.360  31.107  26.457  1.00  0.00     0.163 HD
ATOM     36  O   UNL A   1      32.749  32.881  27.303  1.00  0.00    -0.269 OA
BRANCH  34  37
ATOM     37  C   UNL A   1      34.326  31.283  27.989  1.00  0.00     0.039 A 
ATOM     38  C   UNL A   1      35.031  32.228  28.740  1.00  0.00     0.014 A 
ATOM     39  C   UNL A   1      34.850  29.999  27.822  1.00  0.00     0.014 A 
ATOM     40  C   UNL A   1      36.227  31.868  29.366  1.00  0.00     0.010 A 
ATOM     41  C   UNL A   1      35.997  29.617  28.515  1.00  0.00     0.010 A 
ATOM     42  C   UNL A   1      36.705  30.549  29.288  1.00  0.00    -0.014 A 
BRANCH  42  43
ATOM     43  C   UNL A   1      37.944  30.147  30.004  1.00  0.00     0.031 A 
ATOM     44  C   UNL A   1      38.206  30.623  31.407  1.00  0.00     0.074 A 
ATOM     45  C   UNL A   1      38.854  29.376  29.377  1.00  0.00     0.049 A 
ATOM     46  N   UNL A   1      39.227  30.373  32.191  1.00  0.00    -0.248 NA
ATOM     47  C   UNL A   1      37.203  31.519  32.002  1.00  0.00     0.031 C 
ATOM     48  C   UNL A   1      38.749  28.896  27.998  1.00  0.00     0.029 A 
ATOM     49  N   UNL A   1      40.047  28.859  29.817  1.00  0.00    -0.354 N 
ATOM     50  C   UNL A   1      38.990  31.084  33.360  1.00  0.00     0.074 A 
ATOM     51  C   UNL A   1      37.763  31.824  33.162  1.00  0.00     0.031 C 
ATOM     52  C   UNL A   1      39.813  28.127  27.717  1.00  0.00     0.029 A 
ATOM     53  C   UNL A   1      40.693  28.087  28.881  1.00  0.00     0.049 A 
ATOM     54  H   UNL A   1      40.407  29.025  30.719  1.00  0.00     0.167 HD
ATOM     55  C   UNL A   1      39.713  31.096  34.507  1.00  0.00     0.037 A 
ATOM     56  C   UNL A   1      41.860  27.421  28.954  1.00  0.00     0.037 A 
ATOM     57  C   UNL A   1      40.924  30.344  34.709  1.00  0.00     0.049 A 
ATOM     58  C   UNL A   1      42.643  27.449  30.239  1.00  0.00     0.074 A 
ATOM     59  C   UNL A   1      41.699  30.245  35.852  1.00  0.00     0.029 A 
ATOM     60  N   UNL A   1      41.542  29.565  33.741  1.00  0.00    -0.354 N 
ATOM     61  N   UNL A   1      42.366  28.059  31.367  1.00  0.00    -0.248 NA
ATOM     62  C   UNL A   1      43.897  26.684  30.265  1.00  0.00     0.031 C 
ATOM     63  C   UNL A   1      42.812  29.449  35.560  1.00  0.00     0.029 A 
ATOM     64  C   UNL A   1      42.701  29.002  34.254  1.00  0.00     0.049 A 
ATOM     65  H   UNL A   1      41.207  29.433  32.824  1.00  0.00     0.167 HD
ATOM     66  C   UNL A   1      43.394  27.730  32.241  1.00  0.00     0.074 A 
ATOM     67  C   UNL A   1      44.285  26.846  31.521  1.00  0.00     0.031 C 
ATOM     68  C   UNL A   1      43.583  28.126  33.525  1.00  0.00     0.037 A 
BRANCH  55  69
ATOM     69  C   UNL A   1      39.208  31.948  35.636  1.00  0.00     0.064 A 
ATOM     70  C   UNL A   1      38.358  31.431  36.628  1.00  0.00     0.173 A 
ATOM     71  C   UNL A   1      39.601  33.290  35.749  1.00  0.00     0.173 A 
ATOM     72  F   UNL A   1      37.942  30.157  36.562  1.00  0.00    -0.203 F 
ATOM     73  C   UNL A   1      37.898  32.232  37.669  1.00  0.00     0.198 A 
ATOM     74  C   UNL A   1      39.166  34.079  36.810  1.00  0.00     0.198 A 
ATOM     75  F   UNL A   1      40.416  33.835  34.833  1.00  0.00    -0.203 F 
ATOM     76  F   UNL A   1      37.045  31.730  38.571  1.00  0.00    -0.200 F 
ATOM     77  C   UNL A   1      38.308  33.554  37.764  1.00  0.00     0.200 A 
ATOM     78  F   UNL A   1      39.575  35.353  36.909  1.00  0.00    -0.200 F 
ATOM     79  F   UNL A   1      37.870  34.322  38.771  1.00  0.00    -0.200 F 
ENDBRANCH  55  69
BRANCH  56  80
ATOM     80  C   UNL A   1      42.347  26.640  27.786  1.00  0.00     0.064 A 
ATOM     81  C   UNL A   1      41.955  25.308  27.595  1.00  0.00     0.173 A 
ATOM     82  C   UNL A   1      43.225  27.202  26.848  1.00  0.00     0.173 A 
ATOM     83  F   UNL A   1      41.133  24.718  28.476  1.00  0.00    -0.203 F 
ATOM     84  C   UNL A   1      42.443  24.559  26.524  1.00  0.00     0.198 A 
ATOM     85  C   UNL A   1      43.687  26.463  25.760  1.00  0.00     0.198 A 
ATOM     86  F   UNL A   1      43.627  28.475  26.981  1.00  0.00    -0.203 F 
ATOM     87  F   UNL A   1      42.094  23.272  26.396  1.00  0.00    -0.200 F 
ATOM     88  C   UNL A   1      43.304  25.139  25.605  1.00  0.00     0.200 A 
ATOM     89  F   UNL A   1      44.507  27.031  24.867  1.00  0.00    -0.200 F 
ATOM     90  F   UNL A   1      43.771  24.420  24.576  1.00  0.00    -0.200 F 
ENDBRANCH  56  80
BRANCH  68  91
ATOM     91  C   UNL A   1      44.787  27.578  34.240  1.00  0.00     0.064 A 
ATOM     92  C   UNL A   1      44.748  26.350  34.916  1.00  0.00     0.173 A 
ATOM     93  C   UNL A   1      45.996  28.290  34.240  1.00  0.00     0.173 A 
ATOM     94  F   UNL A   1      43.613  25.637  34.958  1.00  0.00    -0.203 F 
ATOM     95  C   UNL A   1      45.864  25.874  35.601  1.00  0.00     0.198 A 
ATOM     96  C   UNL A   1      47.120  27.793  34.896  1.00  0.00     0.198 A 
ATOM     97  F   UNL A   1      46.092  29.465  33.602  1.00  0.00    -0.203 F 
ATOM     98  F   UNL A   1      45.783  24.730  36.296  1.00  0.00    -0.200 F 
ATOM     99  C   UNL A   1      47.049  26.593  35.586  1.00  0.00     0.200 A 
ATOM    100  F   UNL A   1      48.269  28.482  34.867  1.00  0.00    -0.200 F 
ATOM    101  F   UNL A   1      48.121  26.135  36.247  1.00  0.00    -0.200 F 
ENDBRANCH  68  91
ENDBRANCH  42  43
ENDBRANCH  34  37
ENDBRANCH  32  33
ENDBRANCH  31  32
ENDBRANCH  30  31
ENDBRANCH  29  30
ENDBRANCH   3  29
TORSDOF 19
ENDMDL
MODEL 3
REMARK VINA RESULT:     -11.8      3.263      4.820
REMARK SMILES COc1cc(C[N@H+]2CCC[C@@](O)(CO)C2)cc(Cl)c1OCC(=O)NCCCCNC(=O)c1ccc(-c2c3nc(c(-c4c(F)c(F)c(F)c(F)c4F)c4ccc([nH]4)c(-c4c(F)c(F)c(F)c(F)c4F)c4nc(c(-c5c(F)c(F)c(F)c(F)c5F)c5ccc2[nH]5)C=C4)C=C3)cc1
REMARK SMILES IDX 22 1 23 2 24 3 21 5 20 6 19 7 3 8 4 9 5 10 17 11 16 12 18 13
REMARK SMILES IDX 2 14 1 15 6 16 7 17 8 18 15 19 9 21 11 22 10 23 13 24 14 25
REMARK SMILES IDX 12 27 25 29 26 30 27 31 28 32 29 33 30 34 31 36 32 37 33 38
REMARK SMILES IDX 94 39 34 40 93 41 35 42 36 43 37 44 87 45 38 46 92 47 86 48
REMARK SMILES IDX 88 49 39 50 91 51 85 52 84 53 40 55 72 56 52 57 71 58 53 59
REMARK SMILES IDX 56 60 70 61 89 62 54 63 55 64 69 66 90 67 57 68 41 69 42 70
REMARK SMILES IDX 50 71 43 72 44 73 48 74 51 75 45 76 46 77 49 78 47 79 73 80
REMARK SMILES IDX 74 81 82 82 75 83 76 84 80 85 83 86 77 87 78 88 81 89 79 90
REMARK SMILES IDX 58 91 59 92 67 93 60 94 61 95 65 96 68 97 62 98 63 99 66 100
REMARK SMILES IDX 64 101
REMARK H PARENT 24 4 7 20 14 26 12 28 29 35 88 54 56 65
REMARK Flexibility Score: inf
ROOT
ATOM      1  C   UNL A   1      33.717  27.573  25.201  1.00  0.00     0.257 C 
ATOM      2  O   UNL A   1      34.017  27.439  24.013  1.00  0.00    -0.271 OA
ATOM      3  N   UNL A   1      33.570  28.847  25.662  1.00  0.00    -0.353 N 
ATOM      4  H   UNL A   1      33.871  29.555  25.050  1.00  0.00     0.163 HD
ENDROOT
BRANCH   1   5
ATOM      5  C   UNL A   1      33.426  26.368  26.113  1.00  0.00     0.329 C 
BRANCH   5   6
ATOM      6  O   UNL A   1      32.444  25.417  25.760  1.00  0.00    -0.478 OA
BRANCH   6   7
ATOM      7  C   UNL A   1      32.731  24.112  25.481  1.00  0.00     0.180 A 
ATOM      8  C   UNL A   1      32.052  23.207  26.324  1.00  0.00     0.162 A 
ATOM      9  C   UNL A   1      32.255  21.825  26.243  1.00  0.00     0.060 A 
ATOM     10  C   UNL A   1      33.252  21.306  25.423  1.00  0.00     0.012 A 
ATOM     11  C   UNL A   1      33.569  23.561  24.506  1.00  0.00     0.087 A 
ATOM     12  C   UNL A   1      33.859  22.183  24.516  1.00  0.00     0.034 A 
ATOM     13  Cl  UNL A   1      34.247  24.418  23.174  1.00  0.00    -0.080 Cl
BRANCH   8  14
ATOM     14  O   UNL A   1      31.101  23.686  27.198  1.00  0.00    -0.493 OA
ATOM     15  C   UNL A   1      29.860  22.994  27.069  1.00  0.00     0.278 C 
ENDBRANCH   8  14
BRANCH  10  16
ATOM     16  C   UNL A   1      33.711  19.868  25.519  1.00  0.00     0.299 C 
BRANCH  16  17
ATOM     17  N   UNL A   1      32.738  18.836  25.161  1.00  0.00    -0.329 N 
ATOM     18  C   UNL A   1      32.161  18.808  23.829  1.00  0.00     0.262 C 
ATOM     19  C   UNL A   1      32.892  17.492  25.697  1.00  0.00     0.300 C 
ATOM     20  H   UNL A   1      32.031  19.289  25.739  1.00  0.00     0.348 HD
ATOM     21  C   UNL A   1      33.018  18.032  22.833  1.00  0.00     0.065 C 
ATOM     22  C   UNL A   1      33.719  16.487  24.855  1.00  0.00     0.136 C 
ATOM     23  C   UNL A   1      33.534  16.672  23.328  1.00  0.00     0.049 C 
BRANCH  22  24
ATOM     24  C   UNL A   1      35.214  16.402  25.240  1.00  0.00     0.197 C 
BRANCH  24  25
ATOM     25  O   UNL A   1      35.679  15.061  25.376  1.00  0.00    -0.393 OA
ATOM     26  H   UNL A   1      35.553  14.589  24.539  1.00  0.00     0.210 HD
ENDBRANCH  24  25
ENDBRANCH  22  24
BRANCH  22  27
ATOM     27  O   UNL A   1      33.187  15.167  25.148  1.00  0.00    -0.382 OA
ATOM     28  H   UNL A   1      33.073  15.070  26.107  1.00  0.00     0.211 HD
ENDBRANCH  22  27
ENDBRANCH  16  17
ENDBRANCH  10  16
ENDBRANCH   6   7
ENDBRANCH   5   6
ENDBRANCH   1   5
BRANCH   3  29
ATOM     29  C   UNL A   1      33.035  29.306  26.925  1.00  0.00     0.116 C 
BRANCH  29  30
ATOM     30  C   UNL A   1      31.613  29.842  26.783  1.00  0.00     0.023 C 
BRANCH  30  31
ATOM     31  C   UNL A   1      31.477  31.358  26.622  1.00  0.00     0.023 C 
BRANCH  31  32
ATOM     32  C   UNL A   1      32.737  32.176  26.876  1.00  0.00     0.116 C 
BRANCH  32  33
ATOM     33  N   UNL A   1      32.462  33.512  27.378  1.00  0.00    -0.352 N 
ATOM     34  C   UNL A   1      33.085  34.217  28.376  1.00  0.00     0.251 C 
ATOM     35  H   UNL A   1      31.719  33.981  26.934  1.00  0.00     0.163 HD
ATOM     36  O   UNL A   1      32.621  35.301  28.733  1.00  0.00    -0.269 OA
BRANCH  34  37
ATOM     37  C   UNL A   1      34.286  33.678  29.054  1.00  0.00     0.039 A 
ATOM     38  C   UNL A   1      34.112  32.715  30.053  1.00  0.00     0.014 A 
ATOM     39  C   UNL A   1      35.572  34.118  28.732  1.00  0.00     0.014 A 
ATOM     40  C   UNL A   1      35.226  32.156  30.683  1.00  0.00     0.010 A 
ATOM     41  C   UNL A   1      36.685  33.500  29.301  1.00  0.00     0.010 A 
ATOM     42  C   UNL A   1      36.526  32.518  30.290  1.00  0.00    -0.014 A 
BRANCH  42  43
ATOM     43  C   UNL A   1      37.714  31.881  30.915  1.00  0.00     0.031 A 
ATOM     44  C   UNL A   1      38.163  32.286  32.293  1.00  0.00     0.074 A 
ATOM     45  C   UNL A   1      38.413  30.957  30.228  1.00  0.00     0.049 A 
ATOM     46  N   UNL A   1      39.171  31.839  33.001  1.00  0.00    -0.248 NA
ATOM     47  C   UNL A   1      37.394  33.351  32.955  1.00  0.00     0.031 C 
ATOM     48  C   UNL A   1      38.119  30.518  28.862  1.00  0.00     0.029 A 
ATOM     49  N   UNL A   1      39.515  30.219  30.582  1.00  0.00    -0.354 N 
ATOM     50  C   UNL A   1      39.160  32.571  34.181  1.00  0.00     0.074 A 
ATOM     51  C   UNL A   1      38.085  33.533  34.070  1.00  0.00     0.031 C 
ATOM     52  C   UNL A   1      38.994  29.564  28.508  1.00  0.00     0.029 A 
ATOM     53  C   UNL A   1      39.932  29.347  29.605  1.00  0.00     0.049 A 
ATOM     54  H   UNL A   1      39.964  30.305  31.454  1.00  0.00     0.167 HD
ATOM     55  C   UNL A   1      39.953  32.435  35.272  1.00  0.00     0.037 A 
ATOM     56  C   UNL A   1      40.953  28.469  29.596  1.00  0.00     0.037 A 
ATOM     57  C   UNL A   1      41.010  31.465  35.390  1.00  0.00     0.049 A 
ATOM     58  C   UNL A   1      41.818  28.337  30.821  1.00  0.00     0.074 A 
ATOM     59  C   UNL A   1      41.832  31.209  36.473  1.00  0.00     0.029 A 
ATOM     60  N   UNL A   1      41.397  30.591  34.383  1.00  0.00    -0.354 N 
ATOM     61  N   UNL A   1      41.745  28.978  31.962  1.00  0.00    -0.248 NA
ATOM     62  C   UNL A   1      42.902  27.347  30.759  1.00  0.00     0.031 C 
ATOM     63  C   UNL A   1      42.749  30.219  36.105  1.00  0.00     0.029 A 
ATOM     64  C   UNL A   1      42.461  29.814  34.812  1.00  0.00     0.049 A 
ATOM     65  H   UNL A   1      40.977  30.533  33.493  1.00  0.00     0.167 HD
ATOM     66  C   UNL A   1      42.751  28.451  32.761  1.00  0.00     0.074 A 
ATOM     67  C   UNL A   1      43.404  27.420  31.982  1.00  0.00     0.031 C 
ATOM     68  C   UNL A   1      43.105  28.792  34.026  1.00  0.00     0.037 A 
BRANCH  55  69
ATOM     69  C   UNL A   1      39.702  33.357  36.432  1.00  0.00     0.064 A 
ATOM     70  C   UNL A   1      40.346  34.601  36.537  1.00  0.00     0.173 A 
ATOM     71  C   UNL A   1      38.784  33.011  37.434  1.00  0.00     0.173 A 
ATOM     72  F   UNL A   1      41.241  34.978  35.611  1.00  0.00    -0.203 F 
ATOM     73  C   UNL A   1      40.104  35.446  37.617  1.00  0.00     0.198 A 
ATOM     74  C   UNL A   1      38.519  33.873  38.495  1.00  0.00     0.198 A 
ATOM     75  F   UNL A   1      38.136  31.837  37.381  1.00  0.00    -0.203 F 
ATOM     76  F   UNL A   1      40.771  36.603  37.722  1.00  0.00    -0.200 F 
ATOM     77  C   UNL A   1      39.185  35.085  38.591  1.00  0.00     0.200 A 
ATOM     78  F   UNL A   1      37.620  33.529  39.428  1.00  0.00    -0.200 F 
ATOM     79  F   UNL A   1      38.948  35.903  39.626  1.00  0.00    -0.200 F 
ENDBRANCH  55  69
BRANCH  56  80
ATOM     80  C   UNL A   1      41.197  27.621  28.399  1.00  0.00     0.064 A 
ATOM     81  C   UNL A   1      42.211  27.937  27.485  1.00  0.00     0.173 A 
ATOM     82  C   UNL A   1      40.413  26.488  28.136  1.00  0.00     0.173 A 
ATOM     83  F   UNL A   1      42.975  29.023  27.681  1.00  0.00    -0.203 F 
ATOM     84  C   UNL A   1      42.416  27.169  26.340  1.00  0.00     0.198 A 
ATOM     85  C   UNL A   1      40.638  25.702  27.007  1.00  0.00     0.198 A 
ATOM     86  F   UNL A   1      39.432  26.138  28.982  1.00  0.00    -0.203 F 
ATOM     87  F   UNL A   1      43.357  27.526  25.456  1.00  0.00    -0.200 F 
ATOM     88  C   UNL A   1      41.632  26.049  26.105  1.00  0.00     0.200 A 
ATOM     89  F   UNL A   1      39.889  24.613  26.792  1.00  0.00    -0.200 F 
ATOM     90  F   UNL A   1      41.830  25.310  25.006  1.00  0.00    -0.200 F 
ENDBRANCH  56  80
BRANCH  68  91
ATOM     91  C   UNL A   1      44.231  28.019  34.654  1.00  0.00     0.064 A 
ATOM     92  C   UNL A   1      44.005  26.830  35.363  1.00  0.00     0.173 A 
ATOM     93  C   UNL A   1      45.555  28.470  34.535  1.00  0.00     0.173 A 
ATOM     94  F   UNL A   1      42.757  26.363  35.519  1.00  0.00    -0.203 F 
ATOM     95  C   UNL A   1      45.056  26.146  35.967  1.00  0.00     0.198 A 
ATOM     96  C   UNL A   1      46.608  27.762  35.110  1.00  0.00     0.198 A 
ATOM     97  F   UNL A   1      45.829  29.595  33.859  1.00  0.00    -0.203 F 
ATOM     98  F   UNL A   1      44.807  25.049  36.697  1.00  0.00    -0.200 F 
ATOM     99  C   UNL A   1      46.356  26.609  35.836  1.00  0.00     0.200 A 
ATOM    100  F   UNL A   1      47.865  28.204  34.967  1.00  0.00    -0.200 F 
ATOM    101  F   UNL A   1      47.367  25.949  36.418  1.00  0.00    -0.200 F 
ENDBRANCH  68  91
ENDBRANCH  42  43
ENDBRANCH  34  37
ENDBRANCH  32  33
ENDBRANCH  31  32
ENDBRANCH  30  31
ENDBRANCH  29  30
ENDBRANCH   3  29
TORSDOF 19
ENDMDL
