MODEL 1
REMARK VINA RESULT:     -11.2      0.000      0.000
REMARK SMILES C#CC[N@@H+](CC(=O)NCCCCNC(=O)c1ccc(-c2c3nc(c(-c4c(F)c(F)c(F)c(F)c4F)c4ccc([nH]4)c(-c4c(F)c(F)c(F)c(F)c4F)c4nc(c(-c5c(F)c(F)c(F)c(F)c5F)c5ccc2[nH]5)C=C4)C=C3)cc1)[C@@H]1CCO[C@@](C)(CC)C1
REMARK SMILES IDX 10 1 9 2 8 3 6 4 7 5 5 7 4 8 3 10 2 11 1 12 79 13 80 14
REMARK SMILES IDX 87 15 81 16 83 17 82 18 84 19 85 20 86 21 11 22 12 23 13 24
REMARK SMILES IDX 14 25 15 27 16 28 17 29 78 30 18 31 77 32 19 33 20 34 21 35
REMARK SMILES IDX 71 36 22 37 76 38 70 39 72 40 23 41 75 42 69 43 68 44 24 46
REMARK SMILES IDX 56 47 36 48 55 49 37 50 40 51 54 52 73 53 38 54 39 55 53 57
REMARK SMILES IDX 74 58 41 59 25 60 26 61 34 62 27 63 28 64 32 65 35 66 29 67
REMARK SMILES IDX 30 68 33 69 31 70 57 71 58 72 66 73 59 74 60 75 64 76 67 77
REMARK SMILES IDX 61 78 62 79 65 80 63 81 42 82 43 83 51 84 44 85 45 86 49 87
REMARK SMILES IDX 52 88 46 89 47 90 50 91 48 92
REMARK H PARENT 8 6 4 9 13 26 72 45 40 56
REMARK Flexibility Score: inf
ROOT
ATOM      1  C   UNL A   1      31.868  30.743  26.553  1.00  0.00     0.023 C 
ENDROOT
BRANCH   1   2
ATOM      2  C   UNL A   1      33.371  30.337  26.508  1.00  0.00     0.116 C 
BRANCH   2   3
ATOM      3  N   UNL A   1      33.788  29.420  25.442  1.00  0.00    -0.351 N 
ATOM      4  C   UNL A   1      33.741  28.070  25.217  1.00  0.00     0.275 C 
ATOM      5  O   UNL A   1      33.983  27.730  24.048  1.00  0.00    -0.269 OA
ATOM      6  H   UNL A   1      34.211  29.900  24.693  1.00  0.00     0.163 HD
BRANCH   4   7
ATOM      7  C   UNL A   1      33.378  26.976  26.246  1.00  0.00     0.364 C 
BRANCH   7   8
ATOM      8  N   UNL A   1      32.714  25.757  25.723  1.00  0.00    -0.314 N 
ATOM      9  H   UNL A   1      32.737  25.684  24.706  1.00  0.00     0.349 HD
BRANCH   8  10
ATOM     10  C   UNL A   1      31.297  25.871  26.027  1.00  0.00     0.354 C 
BRANCH  10  11
ATOM     11  C   UNL A   1      30.381  26.337  24.907  1.00  0.00    -0.047 C 
ATOM     12  C   UNL A   1      29.595  26.737  23.946  1.00  0.00     0.010 C 
ENDBRANCH  10  11
ENDBRANCH   8  10
BRANCH   8  13
ATOM     13  C   UNL A   1      33.485  24.471  25.795  1.00  0.00     0.190 C 
ATOM     14  C   UNL A   1      34.844  24.395  25.067  1.00  0.00     0.093 C 
ATOM     15  C   UNL A   1      32.846  23.056  25.589  1.00  0.00     0.100 C 
ATOM     16  C   UNL A   1      34.692  23.970  23.611  1.00  0.00     0.167 C 
ATOM     17  C   UNL A   1      32.832  22.508  24.137  1.00  0.00     0.071 C 
ATOM     18  O   UNL A   1      34.105  22.680  23.504  1.00  0.00    -0.375 OA
ATOM     19  C   UNL A   1      31.736  23.179  23.323  1.00  0.00     0.042 C 
BRANCH  17  20
ATOM     20  C   UNL A   1      32.495  20.990  24.061  1.00  0.00     0.032 C 
ATOM     21  C   UNL A   1      33.539  20.040  24.631  1.00  0.00     0.007 C 
ENDBRANCH  17  20
ENDBRANCH   8  13
ENDBRANCH   7   8
ENDBRANCH   4   7
ENDBRANCH   2   3
ENDBRANCH   1   2
BRANCH   1  22
ATOM     22  C   UNL A   1      31.603  32.194  26.887  1.00  0.00     0.023 C 
BRANCH  22  23
ATOM     23  C   UNL A   1      32.803  32.829  27.522  1.00  0.00     0.116 C 
BRANCH  23  24
ATOM     24  N   UNL A   1      32.624  34.274  27.664  1.00  0.00    -0.352 N 
ATOM     25  C   UNL A   1      33.074  35.099  28.667  1.00  0.00     0.251 C 
ATOM     26  H   UNL A   1      32.114  34.713  26.946  1.00  0.00     0.163 HD
ATOM     27  O   UNL A   1      32.607  36.207  28.838  1.00  0.00    -0.269 OA
BRANCH  25  28
ATOM     28  C   UNL A   1      34.150  34.572  29.520  1.00  0.00     0.039 A 
ATOM     29  C   UNL A   1      33.849  33.886  30.693  1.00  0.00     0.014 A 
ATOM     30  C   UNL A   1      35.462  34.679  29.059  1.00  0.00     0.014 A 
ATOM     31  C   UNL A   1      34.884  33.254  31.376  1.00  0.00     0.010 A 
ATOM     32  C   UNL A   1      36.435  33.882  29.616  1.00  0.00     0.010 A 
ATOM     33  C   UNL A   1      36.175  33.220  30.820  1.00  0.00    -0.014 A 
BRANCH  33  34
ATOM     34  C   UNL A   1      37.320  32.597  31.512  1.00  0.00     0.031 A 
ATOM     35  C   UNL A   1      38.043  31.464  30.830  1.00  0.00     0.074 A 
ATOM     36  C   UNL A   1      37.651  32.990  32.755  1.00  0.00     0.049 A 
ATOM     37  N   UNL A   1      38.994  30.693  31.288  1.00  0.00    -0.248 NA
ATOM     38  C   UNL A   1      37.593  31.103  29.470  1.00  0.00     0.031 C 
ATOM     39  C   UNL A   1      36.965  34.026  33.533  1.00  0.00     0.029 A 
ATOM     40  N   UNL A   1      38.652  32.560  33.583  1.00  0.00    -0.354 N 
ATOM     41  C   UNL A   1      39.221  29.753  30.290  1.00  0.00     0.074 A 
ATOM     42  C   UNL A   1      38.245  29.976  29.253  1.00  0.00     0.031 C 
ATOM     43  C   UNL A   1      37.601  34.185  34.705  1.00  0.00     0.029 A 
ATOM     44  C   UNL A   1      38.705  33.234  34.778  1.00  0.00     0.049 A 
ATOM     45  H   UNL A   1      39.275  31.836  33.345  1.00  0.00     0.167 HD
ATOM     46  C   UNL A   1      40.196  28.820  30.219  1.00  0.00     0.037 A 
ATOM     47  C   UNL A   1      39.559  33.093  35.808  1.00  0.00     0.037 A 
ATOM     48  C   UNL A   1      41.202  28.658  31.229  1.00  0.00     0.049 A 
ATOM     49  C   UNL A   1      40.652  32.062  35.695  1.00  0.00     0.074 A 
ATOM     50  C   UNL A   1      42.285  27.801  31.238  1.00  0.00     0.029 A 
ATOM     51  N   UNL A   1      41.249  29.387  32.409  1.00  0.00    -0.354 N 
ATOM     52  N   UNL A   1      40.909  31.229  34.713  1.00  0.00    -0.248 NA
ATOM     53  C   UNL A   1      41.577  31.958  36.829  1.00  0.00     0.031 C 
ATOM     54  C   UNL A   1      42.962  27.976  32.449  1.00  0.00     0.029 A 
ATOM     55  C   UNL A   1      42.334  28.984  33.166  1.00  0.00     0.049 A 
ATOM     56  H   UNL A   1      40.605  30.085  32.668  1.00  0.00     0.167 HD
ATOM     57  C   UNL A   1      42.041  30.525  35.097  1.00  0.00     0.074 A 
ATOM     58  C   UNL A   1      42.432  31.044  36.393  1.00  0.00     0.031 C 
ATOM     59  C   UNL A   1      42.701  29.535  34.445  1.00  0.00     0.037 A 
BRANCH  46  60
ATOM     60  C   UNL A   1      40.231  27.940  29.004  1.00  0.00     0.064 A 
ATOM     61  C   UNL A   1      40.943  28.301  27.848  1.00  0.00     0.173 A 
ATOM     62  C   UNL A   1      39.554  26.711  28.997  1.00  0.00     0.173 A 
ATOM     63  F   UNL A   1      41.590  29.475  27.792  1.00  0.00    -0.203 F 
ATOM     64  C   UNL A   1      40.947  27.483  26.722  1.00  0.00     0.198 A 
ATOM     65  C   UNL A   1      39.591  25.878  27.881  1.00  0.00     0.198 A 
ATOM     66  F   UNL A   1      38.854  26.318  30.072  1.00  0.00    -0.203 F 
ATOM     67  F   UNL A   1      41.580  27.880  25.610  1.00  0.00    -0.200 F 
ATOM     68  C   UNL A   1      40.280  26.268  26.743  1.00  0.00     0.200 A 
ATOM     69  F   UNL A   1      38.955  24.700  27.907  1.00  0.00    -0.200 F 
ATOM     70  F   UNL A   1      40.292  25.477  25.661  1.00  0.00    -0.200 F 
ENDBRANCH  46  60
BRANCH  47  71
ATOM     71  C   UNL A   1      39.442  33.966  37.004  1.00  0.00     0.064 A 
ATOM     72  C   UNL A   1      38.723  33.547  38.133  1.00  0.00     0.173 A 
ATOM     73  C   UNL A   1      40.033  35.237  37.046  1.00  0.00     0.173 A 
ATOM     74  F   UNL A   1      38.128  32.344  38.139  1.00  0.00    -0.203 F 
ATOM     75  C   UNL A   1      38.571  34.377  39.242  1.00  0.00     0.198 A 
ATOM     76  C   UNL A   1      39.909  36.054  38.169  1.00  0.00     0.198 A 
ATOM     77  F   UNL A   1      40.742  35.682  35.999  1.00  0.00    -0.203 F 
ATOM     78  F   UNL A   1      37.830  33.971  40.282  1.00  0.00    -0.200 F 
ATOM     79  C   UNL A   1      39.167  35.628  39.260  1.00  0.00     0.200 A 
ATOM     80  F   UNL A   1      40.501  37.256  38.189  1.00  0.00    -0.200 F 
ATOM     81  F   UNL A   1      39.019  36.427  40.326  1.00  0.00    -0.200 F 
ENDBRANCH  47  71
BRANCH  59  82
ATOM     82  C   UNL A   1      43.930  28.982  35.102  1.00  0.00     0.064 A 
ATOM     83  C   UNL A   1      45.196  29.541  34.882  1.00  0.00     0.173 A 
ATOM     84  C   UNL A   1      43.826  27.912  36.003  1.00  0.00     0.173 A 
ATOM     85  F   UNL A   1      45.345  30.558  34.020  1.00  0.00    -0.203 F 
ATOM     86  C   UNL A   1      46.321  29.027  35.518  1.00  0.00     0.198 A 
ATOM     87  C   UNL A   1      44.948  27.425  36.666  1.00  0.00     0.198 A 
ATOM     88  F   UNL A   1      42.634  27.352  36.257  1.00  0.00    -0.203 F 
ATOM     89  F   UNL A   1      47.531  29.541  35.255  1.00  0.00    -0.200 F 
ATOM     90  C   UNL A   1      46.196  27.977  36.417  1.00  0.00     0.200 A 
ATOM     91  F   UNL A   1      44.821  26.423  37.547  1.00  0.00    -0.200 F 
ATOM     92  F   UNL A   1      47.280  27.491  37.036  1.00  0.00    -0.200 F 
ENDBRANCH  59  82
ENDBRANCH  33  34
ENDBRANCH  25  28
ENDBRANCH  23  24
ENDBRANCH  22  23
ENDBRANCH   1  22
TORSDOF 16
ENDMDL
MODEL 2
REMARK VINA RESULT:     -11.2      2.080      8.153
REMARK SMILES C#CC[N@@H+](CC(=O)NCCCCNC(=O)c1ccc(-c2c3nc(c(-c4c(F)c(F)c(F)c(F)c4F)c4ccc([nH]4)c(-c4c(F)c(F)c(F)c(F)c4F)c4nc(c(-c5c(F)c(F)c(F)c(F)c5F)c5ccc2[nH]5)C=C4)C=C3)cc1)[C@@H]1CCO[C@@](C)(CC)C1
REMARK SMILES IDX 10 1 9 2 8 3 6 4 7 5 5 7 4 8 3 10 2 11 1 12 79 13 80 14
REMARK SMILES IDX 87 15 81 16 83 17 82 18 84 19 85 20 86 21 11 22 12 23 13 24
REMARK SMILES IDX 14 25 15 27 16 28 17 29 78 30 18 31 77 32 19 33 20 34 21 35
REMARK SMILES IDX 71 36 22 37 76 38 70 39 72 40 23 41 75 42 69 43 68 44 24 46
REMARK SMILES IDX 56 47 36 48 55 49 37 50 40 51 54 52 73 53 38 54 39 55 53 57
REMARK SMILES IDX 74 58 41 59 25 60 26 61 34 62 27 63 28 64 32 65 35 66 29 67
REMARK SMILES IDX 30 68 33 69 31 70 57 71 58 72 66 73 59 74 60 75 64 76 67 77
REMARK SMILES IDX 61 78 62 79 65 80 63 81 42 82 43 83 51 84 44 85 45 86 49 87
REMARK SMILES IDX 52 88 46 89 47 90 50 91 48 92
REMARK H PARENT 8 6 4 9 13 26 72 45 40 56
REMARK Flexibility Score: inf
ROOT
ATOM      1  C   UNL A   1      32.377  27.476  26.816  1.00  0.00     0.023 C 
ENDROOT
BRANCH   1   2
ATOM      2  C   UNL A   1      32.116  26.162  26.021  1.00  0.00     0.116 C 
BRANCH   2   3
ATOM      3  N   UNL A   1      31.435  25.072  26.729  1.00  0.00    -0.351 N 
ATOM      4  C   UNL A   1      31.324  23.715  26.591  1.00  0.00     0.275 C 
ATOM      5  O   UNL A   1      30.847  23.130  27.576  1.00  0.00    -0.269 OA
ATOM      6  H   UNL A   1      30.927  25.403  27.504  1.00  0.00     0.163 HD
BRANCH   4   7
ATOM      7  C   UNL A   1      31.772  22.871  25.375  1.00  0.00     0.364 C 
BRANCH   7   8
ATOM      8  N   UNL A   1      33.165  22.360  25.390  1.00  0.00    -0.314 N 
ATOM      9  H   UNL A   1      33.495  22.049  24.477  1.00  0.00     0.349 HD
BRANCH   8  10
ATOM     10  C   UNL A   1      33.172  21.144  26.189  1.00  0.00     0.354 C 
BRANCH  10  11
ATOM     11  C   UNL A   1      33.025  19.825  25.448  1.00  0.00    -0.047 C 
ATOM     12  C   UNL A   1      32.900  18.693  24.813  1.00  0.00     0.010 C 
ENDBRANCH  10  11
ENDBRANCH   8  10
BRANCH   8  13
ATOM     13  C   UNL A   1      34.269  23.376  25.402  1.00  0.00     0.190 C 
ATOM     14  C   UNL A   1      34.627  24.078  24.075  1.00  0.00     0.093 C 
ATOM     15  C   UNL A   1      35.645  23.164  26.121  1.00  0.00     0.100 C 
ATOM     16  C   UNL A   1      35.653  23.292  23.268  1.00  0.00     0.167 C 
ATOM     17  C   UNL A   1      36.776  22.523  25.273  1.00  0.00     0.071 C 
ATOM     18  O   UNL A   1      36.871  23.139  23.983  1.00  0.00    -0.375 OA
ATOM     19  C   UNL A   1      36.558  21.025  25.135  1.00  0.00     0.042 C 
BRANCH  17  20
ATOM     20  C   UNL A   1      38.180  22.650  25.935  1.00  0.00     0.032 C 
ATOM     21  C   UNL A   1      38.521  24.008  26.533  1.00  0.00     0.007 C 
ENDBRANCH  17  20
ENDBRANCH   8  13
ENDBRANCH   7   8
ENDBRANCH   4   7
ENDBRANCH   2   3
ENDBRANCH   1   2
BRANCH   1  22
ATOM     22  C   UNL A   1      32.023  28.751  26.085  1.00  0.00     0.023 C 
BRANCH  22  23
ATOM     23  C   UNL A   1      33.219  29.645  25.950  1.00  0.00     0.116 C 
BRANCH  23  24
ATOM     24  N   UNL A   1      32.890  31.026  26.300  1.00  0.00    -0.352 N 
ATOM     25  C   UNL A   1      33.439  31.816  27.282  1.00  0.00     0.251 C 
ATOM     26  H   UNL A   1      32.181  31.445  25.762  1.00  0.00     0.163 HD
ATOM     27  O   UNL A   1      32.882  32.819  27.679  1.00  0.00    -0.269 OA
BRANCH  25  28
ATOM     28  C   UNL A   1      34.737  31.385  27.825  1.00  0.00     0.039 A 
ATOM     29  C   UNL A   1      35.784  32.293  27.957  1.00  0.00     0.014 A 
ATOM     30  C   UNL A   1      34.843  30.081  28.308  1.00  0.00     0.014 A 
ATOM     31  C   UNL A   1      36.930  31.889  28.635  1.00  0.00     0.010 A 
ATOM     32  C   UNL A   1      35.880  29.762  29.155  1.00  0.00     0.010 A 
ATOM     33  C   UNL A   1      36.967  30.634  29.267  1.00  0.00    -0.014 A 
BRANCH  33  34
ATOM     34  C   UNL A   1      38.166  30.136  29.971  1.00  0.00     0.031 A 
ATOM     35  C   UNL A   1      38.410  30.593  31.386  1.00  0.00     0.074 A 
ATOM     36  C   UNL A   1      39.050  29.355  29.325  1.00  0.00     0.049 A 
ATOM     37  N   UNL A   1      39.444  30.383  32.158  1.00  0.00    -0.248 NA
ATOM     38  C   UNL A   1      37.382  31.458  31.999  1.00  0.00     0.031 C 
ATOM     39  C   UNL A   1      38.944  28.919  27.930  1.00  0.00     0.029 A 
ATOM     40  N   UNL A   1      40.217  28.788  29.763  1.00  0.00    -0.354 N 
ATOM     41  C   UNL A   1      39.197  31.113  33.313  1.00  0.00     0.074 A 
ATOM     42  C   UNL A   1      37.979  31.854  33.108  1.00  0.00     0.031 C 
ATOM     43  C   UNL A   1      39.977  28.110  27.645  1.00  0.00     0.029 A 
ATOM     44  C   UNL A   1      40.838  28.010  28.819  1.00  0.00     0.049 A 
ATOM     45  H   UNL A   1      40.576  28.926  30.670  1.00  0.00     0.167 HD
ATOM     46  C   UNL A   1      39.897  31.119  34.470  1.00  0.00     0.037 A 
ATOM     47  C   UNL A   1      41.975  27.296  28.906  1.00  0.00     0.037 A 
ATOM     48  C   UNL A   1      41.071  30.322  34.682  1.00  0.00     0.049 A 
ATOM     49  C   UNL A   1      42.725  27.301  30.212  1.00  0.00     0.074 A 
ATOM     50  C   UNL A   1      41.825  30.185  35.830  1.00  0.00     0.029 A 
ATOM     51  N   UNL A   1      41.650  29.513  33.715  1.00  0.00    -0.354 N 
ATOM     52  N   UNL A   1      42.443  27.932  31.328  1.00  0.00    -0.248 NA
ATOM     53  C   UNL A   1      43.946  26.489  30.273  1.00  0.00     0.031 C 
ATOM     54  C   UNL A   1      42.892  29.328  35.544  1.00  0.00     0.029 A 
ATOM     55  C   UNL A   1      42.768  28.887  34.235  1.00  0.00     0.049 A 
ATOM     56  H   UNL A   1      41.316  29.402  32.795  1.00  0.00     0.167 HD
ATOM     57  C   UNL A   1      43.432  27.569  32.232  1.00  0.00     0.074 A 
ATOM     58  C   UNL A   1      44.309  26.648  31.538  1.00  0.00     0.031 C 
ATOM     59  C   UNL A   1      43.608  27.962  33.518  1.00  0.00     0.037 A 
BRANCH  46  60
ATOM     60  C   UNL A   1      39.392  31.988  35.585  1.00  0.00     0.064 A 
ATOM     61  C   UNL A   1      39.780  33.331  35.712  1.00  0.00     0.173 A 
ATOM     62  C   UNL A   1      38.496  31.474  36.535  1.00  0.00     0.173 A 
ATOM     63  F   UNL A   1      40.651  33.868  34.844  1.00  0.00    -0.203 F 
ATOM     64  C   UNL A   1      39.319  34.116  36.765  1.00  0.00     0.198 A 
ATOM     65  C   UNL A   1      38.008  32.274  37.566  1.00  0.00     0.198 A 
ATOM     66  F   UNL A   1      38.095  30.196  36.466  1.00  0.00    -0.203 F 
ATOM     67  F   UNL A   1      39.756  35.376  36.899  1.00  0.00    -0.200 F 
ATOM     68  C   UNL A   1      38.426  33.590  37.685  1.00  0.00     0.200 A 
ATOM     69  F   UNL A   1      37.137  31.767  38.448  1.00  0.00    -0.200 F 
ATOM     70  F   UNL A   1      37.976  34.350  38.693  1.00  0.00    -0.200 F 
ENDBRANCH  46  60
BRANCH  47  71
ATOM     71  C   UNL A   1      42.447  26.494  27.748  1.00  0.00     0.064 A 
ATOM     72  C   UNL A   1      43.374  27.021  26.837  1.00  0.00     0.173 A 
ATOM     73  C   UNL A   1      41.980  25.192  27.518  1.00  0.00     0.173 A 
ATOM     74  F   UNL A   1      43.843  28.267  27.005  1.00  0.00    -0.203 F 
ATOM     75  C   UNL A   1      43.788  26.292  25.724  1.00  0.00     0.198 A 
ATOM     76  C   UNL A   1      42.419  24.450  26.423  1.00  0.00     0.198 A 
ATOM     77  F   UNL A   1      41.101  24.634  28.365  1.00  0.00    -0.203 F 
ATOM     78  F   UNL A   1      44.631  26.844  24.841  1.00  0.00    -0.200 F 
ATOM     79  C   UNL A   1      43.314  25.006  25.520  1.00  0.00     0.200 A 
ATOM     80  F   UNL A   1      41.972  23.201  26.238  1.00  0.00    -0.200 F 
ATOM     81  F   UNL A   1      43.710  24.305  24.449  1.00  0.00    -0.200 F 
ENDBRANCH  47  71
BRANCH  59  82
ATOM     82  C   UNL A   1      44.764  27.366  34.264  1.00  0.00     0.064 A 
ATOM     83  C   UNL A   1      44.647  26.151  34.952  1.00  0.00     0.173 A 
ATOM     84  C   UNL A   1      46.016  27.999  34.245  1.00  0.00     0.173 A 
ATOM     85  F   UNL A   1      43.466  25.516  35.007  1.00  0.00    -0.203 F 
ATOM     86  C   UNL A   1      45.737  25.603  35.620  1.00  0.00     0.198 A 
ATOM     87  C   UNL A   1      47.113  27.429  34.883  1.00  0.00     0.198 A 
ATOM     88  F   UNL A   1      46.181  29.157  33.590  1.00  0.00    -0.203 F 
ATOM     89  F   UNL A   1      45.592  24.467  36.316  1.00  0.00    -0.200 F 
ATOM     90  C   UNL A   1      46.971  26.237  35.577  1.00  0.00     0.200 A 
ATOM     91  F   UNL A   1      48.308  28.033  34.825  1.00  0.00    -0.200 F 
ATOM     92  F   UNL A   1      48.022  25.702  36.213  1.00  0.00    -0.200 F 
ENDBRANCH  59  82
ENDBRANCH  33  34
ENDBRANCH  25  28
ENDBRANCH  23  24
ENDBRANCH  22  23
ENDBRANCH   1  22
TORSDOF 16
ENDMDL
MODEL 3
REMARK VINA RESULT:     -11.2      0.334      1.653
REMARK SMILES C#CC[N@@H+](CC(=O)NCCCCNC(=O)c1ccc(-c2c3nc(c(-c4c(F)c(F)c(F)c(F)c4F)c4ccc([nH]4)c(-c4c(F)c(F)c(F)c(F)c4F)c4nc(c(-c5c(F)c(F)c(F)c(F)c5F)c5ccc2[nH]5)C=C4)C=C3)cc1)[C@@H]1CCO[C@@](C)(CC)C1
REMARK SMILES IDX 10 1 9 2 8 3 6 4 7 5 5 7 4 8 3 10 2 11 1 12 79 13 80 14
REMARK SMILES IDX 87 15 81 16 83 17 82 18 84 19 85 20 86 21 11 22 12 23 13 24
REMARK SMILES IDX 14 25 15 27 16 28 17 29 78 30 18 31 77 32 19 33 20 34 21 35
REMARK SMILES IDX 71 36 22 37 76 38 70 39 72 40 23 41 75 42 69 43 68 44 24 46
REMARK SMILES IDX 56 47 36 48 55 49 37 50 40 51 54 52 73 53 38 54 39 55 53 57
REMARK SMILES IDX 74 58 41 59 25 60 26 61 34 62 27 63 28 64 32 65 35 66 29 67
REMARK SMILES IDX 30 68 33 69 31 70 57 71 58 72 66 73 59 74 60 75 64 76 67 77
REMARK SMILES IDX 61 78 62 79 65 80 63 81 42 82 43 83 51 84 44 85 45 86 49 87
REMARK SMILES IDX 52 88 46 89 47 90 50 91 48 92
REMARK H PARENT 8 6 4 9 13 26 72 45 40 56
REMARK Flexibility Score: inf
ROOT
ATOM      1  C   UNL A   1      31.858  30.635  26.716  1.00  0.00     0.023 C 
ENDROOT
BRANCH   1   2
ATOM      2  C   UNL A   1      31.574  30.076  25.290  1.00  0.00     0.116 C 
BRANCH   2   3
ATOM      3  N   UNL A   1      32.713  29.531  24.543  1.00  0.00    -0.351 N 
ATOM      4  C   UNL A   1      33.515  28.424  24.621  1.00  0.00     0.275 C 
ATOM      5  O   UNL A   1      34.213  28.216  23.616  1.00  0.00    -0.269 OA
ATOM      6  H   UNL A   1      32.965  30.111  23.788  1.00  0.00     0.163 HD
BRANCH   4   7
ATOM      7  C   UNL A   1      33.587  27.418  25.793  1.00  0.00     0.364 C 
BRANCH   7   8
ATOM      8  N   UNL A   1      32.833  26.150  25.636  1.00  0.00    -0.314 N 
ATOM      9  H   UNL A   1      32.721  25.859  24.665  1.00  0.00     0.349 HD
BRANCH   8  10
ATOM     10  C   UNL A   1      31.470  26.398  26.080  1.00  0.00     0.354 C 
BRANCH  10  11
ATOM     11  C   UNL A   1      30.396  26.484  25.008  1.00  0.00    -0.047 C 
ATOM     12  C   UNL A   1      29.473  26.558  24.089  1.00  0.00     0.010 C 
ENDBRANCH  10  11
ENDBRANCH   8  10
BRANCH   8  13
ATOM     13  C   UNL A   1      33.577  24.873  25.892  1.00  0.00     0.190 C 
ATOM     14  C   UNL A   1      34.848  24.591  25.062  1.00  0.00     0.093 C 
ATOM     15  C   UNL A   1      32.889  23.475  26.048  1.00  0.00     0.100 C 
ATOM     16  C   UNL A   1      34.531  23.888  23.748  1.00  0.00     0.167 C 
ATOM     17  C   UNL A   1      32.706  22.646  24.747  1.00  0.00     0.071 C 
ATOM     18  O   UNL A   1      33.907  22.630  23.969  1.00  0.00    -0.375 OA
ATOM     19  C   UNL A   1      31.544  23.186  23.928  1.00  0.00     0.042 C 
BRANCH  17  20
ATOM     20  C   UNL A   1      32.328  21.160  25.020  1.00  0.00     0.032 C 
ATOM     21  C   UNL A   1      33.322  20.114  24.535  1.00  0.00     0.007 C 
ENDBRANCH  17  20
ENDBRANCH   8  13
ENDBRANCH   7   8
ENDBRANCH   4   7
ENDBRANCH   2   3
ENDBRANCH   1   2
BRANCH   1  22
ATOM     22  C   UNL A   1      31.628  32.120  26.883  1.00  0.00     0.023 C 
BRANCH  22  23
ATOM     23  C   UNL A   1      32.830  32.788  27.481  1.00  0.00     0.116 C 
BRANCH  23  24
ATOM     24  N   UNL A   1      32.611  34.225  27.643  1.00  0.00    -0.352 N 
ATOM     25  C   UNL A   1      33.031  35.047  28.661  1.00  0.00     0.251 C 
ATOM     26  H   UNL A   1      32.093  34.661  26.928  1.00  0.00     0.163 HD
ATOM     27  O   UNL A   1      32.533  36.139  28.845  1.00  0.00    -0.269 OA
BRANCH  25  28
ATOM     28  C   UNL A   1      34.116  34.537  29.514  1.00  0.00     0.039 A 
ATOM     29  C   UNL A   1      33.827  33.897  30.715  1.00  0.00     0.014 A 
ATOM     30  C   UNL A   1      35.421  34.611  29.027  1.00  0.00     0.014 A 
ATOM     31  C   UNL A   1      34.867  33.277  31.403  1.00  0.00     0.010 A 
ATOM     32  C   UNL A   1      36.394  33.821  29.595  1.00  0.00     0.010 A 
ATOM     33  C   UNL A   1      36.147  33.206  30.826  1.00  0.00    -0.014 A 
BRANCH  33  34
ATOM     34  C   UNL A   1      37.296  32.593  31.520  1.00  0.00     0.031 A 
ATOM     35  C   UNL A   1      38.034  31.469  30.837  1.00  0.00     0.074 A 
ATOM     36  C   UNL A   1      37.619  32.986  32.765  1.00  0.00     0.049 A 
ATOM     37  N   UNL A   1      38.991  30.707  31.296  1.00  0.00    -0.248 NA
ATOM     38  C   UNL A   1      37.592  31.108  29.475  1.00  0.00     0.031 C 
ATOM     39  C   UNL A   1      36.920  34.012  33.544  1.00  0.00     0.029 A 
ATOM     40  N   UNL A   1      38.622  32.564  33.596  1.00  0.00    -0.354 N 
ATOM     41  C   UNL A   1      39.231  29.773  30.297  1.00  0.00     0.074 A 
ATOM     42  C   UNL A   1      38.256  29.988  29.257  1.00  0.00     0.031 C 
ATOM     43  C   UNL A   1      37.550  34.175  34.719  1.00  0.00     0.029 A 
ATOM     44  C   UNL A   1      38.664  33.236  34.792  1.00  0.00     0.049 A 
ATOM     45  H   UNL A   1      39.254  31.848  33.357  1.00  0.00     0.167 HD
ATOM     46  C   UNL A   1      40.217  28.851  30.226  1.00  0.00     0.037 A 
ATOM     47  C   UNL A   1      39.516  33.101  35.825  1.00  0.00     0.037 A 
ATOM     48  C   UNL A   1      41.221  28.696  31.238  1.00  0.00     0.049 A 
ATOM     49  C   UNL A   1      40.620  32.082  35.712  1.00  0.00     0.074 A 
ATOM     50  C   UNL A   1      42.313  27.851  31.249  1.00  0.00     0.029 A 
ATOM     51  N   UNL A   1      41.256  29.422  32.421  1.00  0.00    -0.354 N 
ATOM     52  N   UNL A   1      40.889  31.255  34.729  1.00  0.00    -0.248 NA
ATOM     53  C   UNL A   1      41.543  31.984  36.849  1.00  0.00     0.031 C 
ATOM     54  C   UNL A   1      42.984  28.030  32.462  1.00  0.00     0.029 A 
ATOM     55  C   UNL A   1      42.343  29.029  33.180  1.00  0.00     0.049 A 
ATOM     56  H   UNL A   1      40.605  30.113  32.680  1.00  0.00     0.167 HD
ATOM     57  C   UNL A   1      42.028  30.562  35.115  1.00  0.00     0.074 A 
ATOM     58  C   UNL A   1      42.409  31.080  36.413  1.00  0.00     0.031 C 
ATOM     59  C   UNL A   1      42.700  29.581  34.462  1.00  0.00     0.037 A 
BRANCH  46  60
ATOM     60  C   UNL A   1      40.265  27.974  29.008  1.00  0.00     0.064 A 
ATOM     61  C   UNL A   1      40.985  28.342  27.860  1.00  0.00     0.173 A 
ATOM     62  C   UNL A   1      39.592  26.743  28.992  1.00  0.00     0.173 A 
ATOM     63  F   UNL A   1      41.628  29.518  27.812  1.00  0.00    -0.203 F 
ATOM     64  C   UNL A   1      41.001  27.527  26.731  1.00  0.00     0.198 A 
ATOM     65  C   UNL A   1      39.642  25.913  27.874  1.00  0.00     0.198 A 
ATOM     66  F   UNL A   1      38.885  26.344  30.060  1.00  0.00    -0.203 F 
ATOM     67  F   UNL A   1      41.642  27.930  25.625  1.00  0.00    -0.200 F 
ATOM     68  C   UNL A   1      40.338  26.309  26.743  1.00  0.00     0.200 A 
ATOM     69  F   UNL A   1      39.010  24.733  27.891  1.00  0.00    -0.200 F 
ATOM     70  F   UNL A   1      40.362  25.522  25.658  1.00  0.00    -0.200 F 
ENDBRANCH  46  60
BRANCH  47  71
ATOM     71  C   UNL A   1      39.386  33.969  37.023  1.00  0.00     0.064 A 
ATOM     72  C   UNL A   1      39.946  35.254  37.045  1.00  0.00     0.173 A 
ATOM     73  C   UNL A   1      38.713  33.535  38.174  1.00  0.00     0.173 A 
ATOM     74  F   UNL A   1      40.612  35.712  35.973  1.00  0.00    -0.203 F 
ATOM     75  C   UNL A   1      39.868  36.058  38.181  1.00  0.00     0.198 A 
ATOM     76  C   UNL A   1      38.606  34.351  39.299  1.00  0.00     0.198 A 
ATOM     77  F   UNL A   1      38.148  32.318  38.204  1.00  0.00    -0.203 F 
ATOM     78  F   UNL A   1      40.462  37.258  38.191  1.00  0.00    -0.200 F 
ATOM     79  C   UNL A   1      39.194  35.607  39.305  1.00  0.00     0.200 A 
ATOM     80  F   UNL A   1      37.939  33.919  40.378  1.00  0.00    -0.200 F 
ATOM     81  F   UNL A   1      39.120  36.378  40.398  1.00  0.00    -0.200 F 
ENDBRANCH  47  71
BRANCH  59  82
ATOM     82  C   UNL A   1      43.932  29.039  35.122  1.00  0.00     0.064 A 
ATOM     83  C   UNL A   1      43.874  27.959  36.014  1.00  0.00     0.173 A 
ATOM     84  C   UNL A   1      45.191  29.576  34.814  1.00  0.00     0.173 A 
ATOM     85  F   UNL A   1      42.691  27.421  36.347  1.00  0.00    -0.203 F 
ATOM     86  C   UNL A   1      45.032  27.457  36.600  1.00  0.00     0.198 A 
ATOM     87  C   UNL A   1      46.349  29.046  35.373  1.00  0.00     0.198 A 
ATOM     88  F   UNL A   1      45.299  30.601  33.956  1.00  0.00    -0.203 F 
ATOM     89  F   UNL A   1      44.950  26.459  37.491  1.00  0.00    -0.200 F 
ATOM     90  C   UNL A   1      46.269  27.993  36.271  1.00  0.00     0.200 A 
ATOM     91  F   UNL A   1      47.544  29.554  35.040  1.00  0.00    -0.200 F 
ATOM     92  F   UNL A   1      47.383  27.500  36.828  1.00  0.00    -0.200 F 
ENDBRANCH  59  82
ENDBRANCH  33  34
ENDBRANCH  25  28
ENDBRANCH  23  24
ENDBRANCH  22  23
ENDBRANCH   1  22
TORSDOF 16
ENDMDL
