MODEL 1
REMARK VINA RESULT:     -10.3      0.000      0.000
REMARK SMILES C[C@@H](C(=O)NCCCCNC(=O)c1ccc(-c2c3nc(c(-c4c(F)c(F)c(F)c(F)c4F)c4ccc([nH]4)c(-c4c(F)c(F)c(F)c(F)c4F)c4nc(c(-c5c(F)c(F)c(F)c(F)c5F)c5ccc2[nH]5)C=C4)C=C3)cc1)c1ccc(Cc2cccs2)cc1F
REMARK SMILES IDX 7 1 6 2 5 3 3 4 4 5 2 7 1 8 76 9 77 10 87 11 78 12 86 13
REMARK SMILES IDX 88 14 79 15 80 16 81 17 82 18 85 19 83 20 84 21 8 22 9 23
REMARK SMILES IDX 10 24 11 25 12 27 13 28 14 29 75 30 15 31 74 32 16 33 17 34
REMARK SMILES IDX 18 35 68 36 19 37 73 38 67 39 69 40 20 41 72 42 66 43 65 44
REMARK SMILES IDX 21 46 53 47 33 48 52 49 34 50 37 51 51 52 70 53 35 54 36 55
REMARK SMILES IDX 50 57 71 58 38 59 22 60 23 61 31 62 24 63 25 64 29 65 32 66
REMARK SMILES IDX 26 67 27 68 30 69 28 70 54 71 55 72 63 73 56 74 57 75 61 76
REMARK SMILES IDX 64 77 58 78 59 79 62 80 60 81 39 82 40 83 48 84 41 85 42 86
REMARK SMILES IDX 46 87 49 88 43 89 44 90 47 91 45 92
REMARK H PARENT 5 6 10 26 69 45 37 56
REMARK Flexibility Score: inf
ROOT
ATOM      1  C   UNL A   1      33.671  36.356  29.074  1.00  0.00     0.023 C 
ENDROOT
BRANCH   1   2
ATOM      2  C   UNL A   1      32.881  35.953  30.324  1.00  0.00     0.116 C 
BRANCH   2   3
ATOM      3  N   UNL A   1      33.481  36.504  31.523  1.00  0.00    -0.356 N 
ATOM      4  C   UNL A   1      34.215  35.892  32.502  1.00  0.00     0.227 C 
ATOM      5  O   UNL A   1      34.400  36.542  33.533  1.00  0.00    -0.274 OA
ATOM      6  H   UNL A   1      33.340  37.470  31.653  1.00  0.00     0.163 HD
BRANCH   4   7
ATOM      7  C   UNL A   1      34.775  34.472  32.276  1.00  0.00     0.108 C 
ATOM      8  C   UNL A   1      34.187  33.556  33.357  1.00  0.00     0.023 C 
BRANCH   7   9
ATOM      9  C   UNL A   1      36.306  34.418  32.188  1.00  0.00    -0.000 A 
ATOM     10  C   UNL A   1      36.942  34.166  30.960  1.00  0.00     0.008 A 
ATOM     11  C   UNL A   1      37.141  34.573  33.305  1.00  0.00     0.127 A 
ATOM     12  C   UNL A   1      38.338  34.187  30.842  1.00  0.00     0.004 A 
ATOM     13  C   UNL A   1      38.533  34.572  33.200  1.00  0.00     0.043 A 
ATOM     14  F   UNL A   1      36.632  34.736  34.534  1.00  0.00    -0.207 F 
ATOM     15  C   UNL A   1      39.149  34.411  31.959  1.00  0.00    -0.040 A 
BRANCH  15  16
ATOM     16  C   UNL A   1      40.652  34.505  31.829  1.00  0.00     0.082 C 
BRANCH  16  17
ATOM     17  C   UNL A   1      41.302  33.233  31.365  1.00  0.00     0.009 A 
ATOM     18  C   UNL A   1      41.008  32.479  30.244  1.00  0.00     0.016 A 
ATOM     19  S   UNL A   1      42.619  32.567  32.236  1.00  0.00    -0.149 S 
ATOM     20  C   UNL A   1      41.868  31.353  30.104  1.00  0.00     0.012 A 
ATOM     21  C   UNL A   1      42.799  31.290  31.115  1.00  0.00     0.065 A 
ENDBRANCH  16  17
ENDBRANCH  15  16
ENDBRANCH   7   9
ENDBRANCH   4   7
ENDBRANCH   2   3
ENDBRANCH   1   2
BRANCH   1  22
ATOM     22  C   UNL A   1      34.354  35.201  28.340  1.00  0.00     0.023 C 
BRANCH  22  23
ATOM     23  C   UNL A   1      34.038  33.820  28.891  1.00  0.00     0.116 C 
BRANCH  23  24
ATOM     24  N   UNL A   1      33.355  32.968  27.929  1.00  0.00    -0.352 N 
ATOM     25  C   UNL A   1      33.751  31.744  27.443  1.00  0.00     0.251 C 
ATOM     26  H   UNL A   1      32.500  33.311  27.581  1.00  0.00     0.163 HD
ATOM     27  O   UNL A   1      33.128  31.192  26.542  1.00  0.00    -0.269 OA
BRANCH  25  28
ATOM     28  C   UNL A   1      34.965  31.120  28.000  1.00  0.00     0.039 A 
ATOM     29  C   UNL A   1      36.157  31.849  28.021  1.00  0.00     0.014 A 
ATOM     30  C   UNL A   1      34.899  29.843  28.561  1.00  0.00     0.014 A 
ATOM     31  C   UNL A   1      37.270  31.325  28.682  1.00  0.00     0.010 A 
ATOM     32  C   UNL A   1      35.985  29.354  29.275  1.00  0.00     0.010 A 
ATOM     33  C   UNL A   1      37.177  30.094  29.346  1.00  0.00    -0.014 A 
BRANCH  33  34
ATOM     34  C   UNL A   1      38.304  29.536  30.132  1.00  0.00     0.031 A 
ATOM     35  C   UNL A   1      38.539  30.023  31.531  1.00  0.00     0.074 A 
ATOM     36  C   UNL A   1      39.184  28.703  29.546  1.00  0.00     0.049 A 
ATOM     37  N   UNL A   1      39.567  29.830  32.317  1.00  0.00    -0.248 NA
ATOM     38  C   UNL A   1      37.491  30.879  32.107  1.00  0.00     0.031 C 
ATOM     39  C   UNL A   1      39.088  28.198  28.176  1.00  0.00     0.029 A 
ATOM     40  N   UNL A   1      40.354  28.164  30.020  1.00  0.00    -0.354 N 
ATOM     41  C   UNL A   1      39.308  30.574  33.459  1.00  0.00     0.074 A 
ATOM     42  C   UNL A   1      38.046  31.248  33.252  1.00  0.00     0.031 C 
ATOM     43  C   UNL A   1      40.156  27.425  27.917  1.00  0.00     0.029 A 
ATOM     44  C   UNL A   1      41.030  27.416  29.087  1.00  0.00     0.049 A 
ATOM     45  H   UNL A   1      40.677  28.301  30.939  1.00  0.00     0.167 HD
ATOM     46  C   UNL A   1      40.055  30.675  34.584  1.00  0.00     0.037 A 
ATOM     47  C   UNL A   1      42.231  26.812  29.161  1.00  0.00     0.037 A 
ATOM     48  C   UNL A   1      41.288  29.966  34.800  1.00  0.00     0.049 A 
ATOM     49  C   UNL A   1      43.026  26.905  30.432  1.00  0.00     0.074 A 
ATOM     50  C   UNL A   1      42.079  29.933  35.935  1.00  0.00     0.029 A 
ATOM     51  N   UNL A   1      41.910  29.161  33.855  1.00  0.00    -0.354 N 
ATOM     52  N   UNL A   1      42.749  27.565  31.532  1.00  0.00    -0.248 NA
ATOM     53  C   UNL A   1      44.298  26.171  30.478  1.00  0.00     0.031 C 
ATOM     54  C   UNL A   1      43.197  29.137  35.665  1.00  0.00     0.029 A 
ATOM     55  C   UNL A   1      43.082  28.640  34.376  1.00  0.00     0.049 A 
ATOM     56  H   UNL A   1      41.567  28.988  32.948  1.00  0.00     0.167 HD
ATOM     57  C   UNL A   1      43.795  27.305  32.406  1.00  0.00     0.074 A 
ATOM     58  C   UNL A   1      44.712  26.425  31.712  1.00  0.00     0.031 C 
ATOM     59  C   UNL A   1      43.976  27.755  33.672  1.00  0.00     0.037 A 
BRANCH  46  60
ATOM     60  C   UNL A   1      39.556  31.595  35.659  1.00  0.00     0.064 A 
ATOM     61  C   UNL A   1      38.532  31.215  36.540  1.00  0.00     0.173 A 
ATOM     62  C   UNL A   1      40.109  32.876  35.807  1.00  0.00     0.173 A 
ATOM     63  F   UNL A   1      37.961  30.006  36.430  1.00  0.00    -0.203 F 
ATOM     64  C   UNL A   1      38.051  32.099  37.503  1.00  0.00     0.198 A 
ATOM     65  C   UNL A   1      39.646  33.745  36.792  1.00  0.00     0.198 A 
ATOM     66  F   UNL A   1      41.094  33.287  34.995  1.00  0.00    -0.203 F 
ATOM     67  F   UNL A   1      37.028  31.737  38.290  1.00  0.00    -0.200 F 
ATOM     68  C   UNL A   1      38.611  33.361  37.630  1.00  0.00     0.200 A 
ATOM     69  F   UNL A   1      40.195  34.961  36.921  1.00  0.00    -0.200 F 
ATOM     70  F   UNL A   1      38.144  34.212  38.554  1.00  0.00    -0.200 F 
ENDBRANCH  46  60
BRANCH  47  71
ATOM     71  C   UNL A   1      42.736  26.050  27.991  1.00  0.00     0.064 A 
ATOM     72  C   UNL A   1      42.365  24.713  27.792  1.00  0.00     0.173 A 
ATOM     73  C   UNL A   1      43.563  26.650  27.030  1.00  0.00     0.173 A 
ATOM     74  F   UNL A   1      41.591  24.093  28.695  1.00  0.00    -0.203 F 
ATOM     75  C   UNL A   1      42.807  24.003  26.679  1.00  0.00     0.198 A 
ATOM     76  C   UNL A   1      43.986  25.946  25.906  1.00  0.00     0.198 A 
ATOM     77  F   UNL A   1      43.938  27.930  27.174  1.00  0.00    -0.203 F 
ATOM     78  F   UNL A   1      42.459  22.718  26.525  1.00  0.00    -0.200 F 
ATOM     79  C   UNL A   1      43.611  24.622  25.732  1.00  0.00     0.200 A 
ATOM     80  F   UNL A   1      44.750  26.551  24.987  1.00  0.00    -0.200 F 
ATOM     81  F   UNL A   1      44.024  23.942  24.654  1.00  0.00    -0.200 F 
ENDBRANCH  47  71
BRANCH  59  82
ATOM     82  C   UNL A   1      45.190  27.274  34.408  1.00  0.00     0.064 A 
ATOM     83  C   UNL A   1      46.411  27.961  34.338  1.00  0.00     0.173 A 
ATOM     84  C   UNL A   1      45.110  26.153  35.247  1.00  0.00     0.173 A 
ATOM     85  F   UNL A   1      46.540  29.029  33.538  1.00  0.00    -0.203 F 
ATOM     86  C   UNL A   1      47.512  27.532  35.074  1.00  0.00     0.198 A 
ATOM     87  C   UNL A   1      46.206  25.742  36.000  1.00  0.00     0.198 A 
ATOM     88  F   UNL A   1      43.962  25.467  35.351  1.00  0.00    -0.203 F 
ATOM     89  F   UNL A   1      48.678  28.184  34.971  1.00  0.00    -0.200 F 
ATOM     90  C   UNL A   1      47.406  26.430  35.911  1.00  0.00     0.200 A 
ATOM     91  F   UNL A   1      46.099  24.684  36.816  1.00  0.00    -0.200 F 
ATOM     92  F   UNL A   1      48.465  26.028  36.629  1.00  0.00    -0.200 F 
ENDBRANCH  59  82
ENDBRANCH  33  34
ENDBRANCH  25  28
ENDBRANCH  23  24
ENDBRANCH  22  23
ENDBRANCH   1  22
TORSDOF 14
ENDMDL
MODEL 2
REMARK VINA RESULT:      -9.7      4.142     10.159
REMARK SMILES C[C@@H](C(=O)NCCCCNC(=O)c1ccc(-c2c3nc(c(-c4c(F)c(F)c(F)c(F)c4F)c4ccc([nH]4)c(-c4c(F)c(F)c(F)c(F)c4F)c4nc(c(-c5c(F)c(F)c(F)c(F)c5F)c5ccc2[nH]5)C=C4)C=C3)cc1)c1ccc(Cc2cccs2)cc1F
REMARK SMILES IDX 7 1 6 2 5 3 3 4 4 5 2 7 1 8 76 9 77 10 87 11 78 12 86 13
REMARK SMILES IDX 88 14 79 15 80 16 81 17 82 18 85 19 83 20 84 21 8 22 9 23
REMARK SMILES IDX 10 24 11 25 12 27 13 28 14 29 75 30 15 31 74 32 16 33 17 34
REMARK SMILES IDX 18 35 68 36 19 37 73 38 67 39 69 40 20 41 72 42 66 43 65 44
REMARK SMILES IDX 21 46 53 47 33 48 52 49 34 50 37 51 51 52 70 53 35 54 36 55
REMARK SMILES IDX 50 57 71 58 38 59 22 60 23 61 31 62 24 63 25 64 29 65 32 66
REMARK SMILES IDX 26 67 27 68 30 69 28 70 54 71 55 72 63 73 56 74 57 75 61 76
REMARK SMILES IDX 64 77 58 78 59 79 62 80 60 81 39 82 40 83 48 84 41 85 42 86
REMARK SMILES IDX 46 87 49 88 43 89 44 90 47 91 45 92
REMARK H PARENT 5 6 10 26 69 45 37 56
REMARK Flexibility Score: inf
ROOT
ATOM      1  C   UNL A   1      32.366  27.166  26.404  1.00  0.00     0.023 C 
ENDROOT
BRANCH   1   2
ATOM      2  C   UNL A   1      33.472  26.581  25.518  1.00  0.00     0.116 C 
BRANCH   2   3
ATOM      3  N   UNL A   1      33.315  25.147  25.366  1.00  0.00    -0.356 N 
ATOM      4  C   UNL A   1      32.730  24.427  24.361  1.00  0.00     0.227 C 
ATOM      5  O   UNL A   1      32.518  23.236  24.595  1.00  0.00    -0.274 OA
ATOM      6  H   UNL A   1      33.690  24.608  26.100  1.00  0.00     0.163 HD
BRANCH   4   7
ATOM      7  C   UNL A   1      32.387  25.107  23.018  1.00  0.00     0.108 C 
ATOM      8  C   UNL A   1      33.672  25.743  22.472  1.00  0.00     0.023 C 
BRANCH   7   9
ATOM      9  C   UNL A   1      31.204  26.080  23.102  1.00  0.00    -0.000 A 
ATOM     10  C   UNL A   1      31.262  27.331  22.462  1.00  0.00     0.008 A 
ATOM     11  C   UNL A   1      30.041  25.806  23.838  1.00  0.00     0.127 A 
ATOM     12  C   UNL A   1      30.166  28.203  22.463  1.00  0.00     0.004 A 
ATOM     13  C   UNL A   1      28.953  26.680  23.862  1.00  0.00     0.043 A 
ATOM     14  F   UNL A   1      29.922  24.678  24.550  1.00  0.00    -0.207 F 
ATOM     15  C   UNL A   1      28.989  27.877  23.147  1.00  0.00    -0.040 A 
BRANCH  15  16
ATOM     16  C   UNL A   1      27.778  28.780  23.096  1.00  0.00     0.082 C 
BRANCH  16  17
ATOM     17  C   UNL A   1      28.106  30.221  22.828  1.00  0.00     0.009 A 
ATOM     18  C   UNL A   1      28.516  31.189  23.726  1.00  0.00     0.016 A 
ATOM     19  S   UNL A   1      28.043  30.839  21.231  1.00  0.00    -0.149 S 
ATOM     20  C   UNL A   1      28.778  32.439  23.097  1.00  0.00     0.012 A 
ATOM     21  C   UNL A   1      28.571  32.383  21.738  1.00  0.00     0.065 A 
ENDBRANCH  16  17
ENDBRANCH  15  16
ENDBRANCH   7   9
ENDBRANCH   4   7
ENDBRANCH   2   3
ENDBRANCH   1   2
BRANCH   1  22
ATOM     22  C   UNL A   1      31.898  28.569  26.012  1.00  0.00     0.023 C 
BRANCH  22  23
ATOM     23  C   UNL A   1      33.002  29.612  25.935  1.00  0.00     0.116 C 
BRANCH  23  24
ATOM     24  N   UNL A   1      32.557  30.938  26.338  1.00  0.00    -0.352 N 
ATOM     25  C   UNL A   1      33.172  31.817  27.197  1.00  0.00     0.251 C 
ATOM     26  H   UNL A   1      31.709  31.245  25.944  1.00  0.00     0.163 HD
ATOM     27  O   UNL A   1      32.620  32.859  27.536  1.00  0.00    -0.269 OA
BRANCH  25  28
ATOM     28  C   UNL A   1      34.500  31.469  27.738  1.00  0.00     0.039 A 
ATOM     29  C   UNL A   1      35.468  32.469  27.859  1.00  0.00     0.014 A 
ATOM     30  C   UNL A   1      34.753  30.171  28.185  1.00  0.00     0.014 A 
ATOM     31  C   UNL A   1      36.671  32.183  28.507  1.00  0.00     0.010 A 
ATOM     32  C   UNL A   1      35.920  29.908  28.889  1.00  0.00     0.010 A 
ATOM     33  C   UNL A   1      36.886  30.913  29.061  1.00  0.00    -0.014 A 
BRANCH  33  34
ATOM     34  C   UNL A   1      38.111  30.586  29.832  1.00  0.00     0.031 A 
ATOM     35  C   UNL A   1      39.099  29.611  29.263  1.00  0.00     0.074 A 
ATOM     36  C   UNL A   1      38.263  31.056  31.083  1.00  0.00     0.049 A 
ATOM     37  N   UNL A   1      40.120  29.031  29.840  1.00  0.00    -0.248 NA
ATOM     38  C   UNL A   1      38.883  29.204  27.866  1.00  0.00     0.031 C 
ATOM     39  C   UNL A   1      37.344  31.971  31.761  1.00  0.00     0.029 A 
ATOM     40  N   UNL A   1      39.230  30.797  32.022  1.00  0.00    -0.354 N 
ATOM     41  C   UNL A   1      40.639  28.160  28.892  1.00  0.00     0.074 A 
ATOM     42  C   UNL A   1      39.803  28.262  27.717  1.00  0.00     0.031 C 
ATOM     43  C   UNL A   1      37.789  32.195  33.008  1.00  0.00     0.029 A 
ATOM     44  C   UNL A   1      38.998  31.407  33.230  1.00  0.00     0.049 A 
ATOM     45  H   UNL A   1      40.014  30.229  31.845  1.00  0.00     0.167 HD
ATOM     46  C   UNL A   1      41.723  27.356  28.994  1.00  0.00     0.037 A 
ATOM     47  C   UNL A   1      39.673  31.320  34.392  1.00  0.00     0.037 A 
ATOM     48  C   UNL A   1      42.576  27.293  30.151  1.00  0.00     0.049 A 
ATOM     49  C   UNL A   1      40.896  30.451  34.471  1.00  0.00     0.074 A 
ATOM     50  C   UNL A   1      43.746  26.575  30.324  1.00  0.00     0.029 A 
ATOM     51  N   UNL A   1      42.347  27.979  31.335  1.00  0.00    -0.354 N 
ATOM     52  N   UNL A   1      41.415  29.673  33.553  1.00  0.00    -0.248 NA
ATOM     53  C   UNL A   1      41.629  30.447  35.745  1.00  0.00     0.031 C 
ATOM     54  C   UNL A   1      44.206  26.799  31.626  1.00  0.00     0.029 A 
ATOM     55  C   UNL A   1      43.345  27.689  32.250  1.00  0.00     0.049 A 
ATOM     56  H   UNL A   1      41.587  28.582  31.501  1.00  0.00     0.167 HD
ATOM     57  C   UNL A   1      42.547  29.108  34.125  1.00  0.00     0.074 A 
ATOM     58  C   UNL A   1      42.641  29.636  35.471  1.00  0.00     0.031 C 
ATOM     59  C   UNL A   1      43.428  28.234  33.582  1.00  0.00     0.037 A 
BRANCH  46  60
ATOM     60  C   UNL A   1      42.037  26.475  27.820  1.00  0.00     0.064 A 
ATOM     61  C   UNL A   1      41.435  25.217  27.659  1.00  0.00     0.173 A 
ATOM     62  C   UNL A   1      42.955  26.894  26.846  1.00  0.00     0.173 A 
ATOM     63  F   UNL A   1      40.562  24.765  28.571  1.00  0.00    -0.203 F 
ATOM     64  C   UNL A   1      41.773  24.395  26.587  1.00  0.00     0.198 A 
ATOM     65  C   UNL A   1      43.266  26.081  25.759  1.00  0.00     0.198 A 
ATOM     66  F   UNL A   1      43.555  28.089  26.950  1.00  0.00    -0.203 F 
ATOM     67  F   UNL A   1      41.233  23.171  26.489  1.00  0.00    -0.200 F 
ATOM     68  C   UNL A   1      42.684  24.828  25.637  1.00  0.00     0.200 A 
ATOM     69  F   UNL A   1      44.139  26.505  24.835  1.00  0.00    -0.200 F 
ATOM     70  F   UNL A   1      43.011  24.034  24.608  1.00  0.00    -0.200 F 
ENDBRANCH  46  60
BRANCH  47  71
ATOM     71  C   UNL A   1      39.205  32.100  35.566  1.00  0.00     0.064 A 
ATOM     72  C   UNL A   1      38.354  31.521  36.517  1.00  0.00     0.173 A 
ATOM     73  C   UNL A   1      39.628  33.419  35.782  1.00  0.00     0.173 A 
ATOM     74  F   UNL A   1      37.909  30.268  36.342  1.00  0.00    -0.203 F 
ATOM     75  C   UNL A   1      37.939  32.234  37.639  1.00  0.00     0.198 A 
ATOM     76  C   UNL A   1      39.231  34.124  36.916  1.00  0.00     0.198 A 
ATOM     77  F   UNL A   1      40.449  34.013  34.904  1.00  0.00    -0.203 F 
ATOM     78  F   UNL A   1      37.105  31.666  38.521  1.00  0.00    -0.200 F 
ATOM     79  C   UNL A   1      38.384  33.533  37.842  1.00  0.00     0.200 A 
ATOM     80  F   UNL A   1      39.673  35.373  37.116  1.00  0.00    -0.200 F 
ATOM     81  F   UNL A   1      37.996  34.214  38.929  1.00  0.00    -0.200 F 
ENDBRANCH  47  71
BRANCH  59  82
ATOM     82  C   UNL A   1      44.598  27.820  34.424  1.00  0.00     0.064 A 
ATOM     83  C   UNL A   1      44.553  26.671  35.227  1.00  0.00     0.173 A 
ATOM     84  C   UNL A   1      45.797  28.543  34.372  1.00  0.00     0.173 A 
ATOM     85  F   UNL A   1      43.423  25.955  35.319  1.00  0.00    -0.203 F 
ATOM     86  C   UNL A   1      45.668  26.269  35.958  1.00  0.00     0.198 A 
ATOM     87  C   UNL A   1      46.917  28.125  35.085  1.00  0.00     0.198 A 
ATOM     88  F   UNL A   1      45.890  29.646  33.614  1.00  0.00    -0.203 F 
ATOM     89  F   UNL A   1      45.597  25.185  36.742  1.00  0.00    -0.200 F 
ATOM     90  C   UNL A   1      46.851  26.991  35.879  1.00  0.00     0.200 A 
ATOM     91  F   UNL A   1      48.062  28.816  34.999  1.00  0.00    -0.200 F 
ATOM     92  F   UNL A   1      47.926  26.593  36.573  1.00  0.00    -0.200 F 
ENDBRANCH  59  82
ENDBRANCH  33  34
ENDBRANCH  25  28
ENDBRANCH  23  24
ENDBRANCH  22  23
ENDBRANCH   1  22
TORSDOF 14
ENDMDL
MODEL 3
REMARK VINA RESULT:      -9.7      4.209     10.062
REMARK SMILES C[C@@H](C(=O)NCCCCNC(=O)c1ccc(-c2c3nc(c(-c4c(F)c(F)c(F)c(F)c4F)c4ccc([nH]4)c(-c4c(F)c(F)c(F)c(F)c4F)c4nc(c(-c5c(F)c(F)c(F)c(F)c5F)c5ccc2[nH]5)C=C4)C=C3)cc1)c1ccc(Cc2cccs2)cc1F
REMARK SMILES IDX 7 1 6 2 5 3 3 4 4 5 2 7 1 8 76 9 77 10 87 11 78 12 86 13
REMARK SMILES IDX 88 14 79 15 80 16 81 17 82 18 85 19 83 20 84 21 8 22 9 23
REMARK SMILES IDX 10 24 11 25 12 27 13 28 14 29 75 30 15 31 74 32 16 33 17 34
REMARK SMILES IDX 18 35 68 36 19 37 73 38 67 39 69 40 20 41 72 42 66 43 65 44
REMARK SMILES IDX 21 46 53 47 33 48 52 49 34 50 37 51 51 52 70 53 35 54 36 55
REMARK SMILES IDX 50 57 71 58 38 59 22 60 23 61 31 62 24 63 25 64 29 65 32 66
REMARK SMILES IDX 26 67 27 68 30 69 28 70 54 71 55 72 63 73 56 74 57 75 61 76
REMARK SMILES IDX 64 77 58 78 59 79 62 80 60 81 39 82 40 83 48 84 41 85 42 86
REMARK SMILES IDX 46 87 49 88 43 89 44 90 47 91 45 92
REMARK H PARENT 5 6 10 26 69 45 37 56
REMARK Flexibility Score: inf
ROOT
ATOM      1  C   UNL A   1      32.155  30.153  26.772  1.00  0.00     0.023 C 
ENDROOT
BRANCH   1   2
ATOM      2  C   UNL A   1      32.595  29.698  25.376  1.00  0.00     0.116 C 
BRANCH   2   3
ATOM      3  N   UNL A   1      31.696  28.690  24.847  1.00  0.00    -0.356 N 
ATOM      4  C   UNL A   1      31.943  27.654  23.988  1.00  0.00     0.227 C 
ATOM      5  O   UNL A   1      30.954  27.093  23.512  1.00  0.00    -0.274 OA
ATOM      6  H   UNL A   1      30.763  28.761  25.156  1.00  0.00     0.163 HD
BRANCH   4   7
ATOM      7  C   UNL A   1      33.395  27.235  23.676  1.00  0.00     0.108 C 
ATOM      8  C   UNL A   1      33.614  27.385  22.165  1.00  0.00     0.023 C 
BRANCH   7   9
ATOM      9  C   UNL A   1      33.769  25.850  24.219  1.00  0.00    -0.000 A 
ATOM     10  C   UNL A   1      34.143  24.816  23.342  1.00  0.00     0.008 A 
ATOM     11  C   UNL A   1      33.721  25.527  25.584  1.00  0.00     0.127 A 
ATOM     12  C   UNL A   1      34.559  23.567  23.821  1.00  0.00     0.004 A 
ATOM     13  C   UNL A   1      34.113  24.277  26.067  1.00  0.00     0.043 A 
ATOM     14  F   UNL A   1      33.299  26.416  26.492  1.00  0.00    -0.207 F 
ATOM     15  C   UNL A   1      34.569  23.291  25.192  1.00  0.00    -0.040 A 
BRANCH  15  16
ATOM     16  C   UNL A   1      35.082  21.971  25.721  1.00  0.00     0.082 C 
BRANCH  16  17
ATOM     17  C   UNL A   1      34.316  20.779  25.225  1.00  0.00     0.009 A 
ATOM     18  C   UNL A   1      34.810  19.582  24.740  1.00  0.00     0.016 A 
ATOM     19  S   UNL A   1      32.603  20.775  25.265  1.00  0.00    -0.149 S 
ATOM     20  C   UNL A   1      33.776  18.663  24.402  1.00  0.00     0.012 A 
ATOM     21  C   UNL A   1      32.526  19.182  24.651  1.00  0.00     0.065 A 
ENDBRANCH  16  17
ENDBRANCH  15  16
ENDBRANCH   7   9
ENDBRANCH   4   7
ENDBRANCH   2   3
ENDBRANCH   1   2
BRANCH   1  22
ATOM     22  C   UNL A   1      31.801  31.636  26.886  1.00  0.00     0.023 C 
BRANCH  22  23
ATOM     23  C   UNL A   1      32.915  32.518  27.428  1.00  0.00     0.116 C 
BRANCH  23  24
ATOM     24  N   UNL A   1      32.493  33.894  27.647  1.00  0.00    -0.352 N 
ATOM     25  C   UNL A   1      33.005  34.810  28.536  1.00  0.00     0.251 C 
ATOM     26  H   UNL A   1      31.748  34.210  27.088  1.00  0.00     0.163 HD
ATOM     27  O   UNL A   1      32.470  35.903  28.694  1.00  0.00    -0.269 OA
BRANCH  25  28
ATOM     28  C   UNL A   1      34.193  34.441  29.328  1.00  0.00     0.039 A 
ATOM     29  C   UNL A   1      34.018  33.857  30.585  1.00  0.00     0.014 A 
ATOM     30  C   UNL A   1      35.471  34.613  28.792  1.00  0.00     0.014 A 
ATOM     31  C   UNL A   1      35.129  33.368  31.275  1.00  0.00     0.010 A 
ATOM     32  C   UNL A   1      36.565  34.066  29.448  1.00  0.00     0.010 A 
ATOM     33  C   UNL A   1      36.403  33.433  30.692  1.00  0.00    -0.014 A 
BRANCH  33  34
ATOM     34  C   UNL A   1      37.600  32.853  31.347  1.00  0.00     0.031 A 
ATOM     35  C   UNL A   1      38.303  31.695  30.702  1.00  0.00     0.074 A 
ATOM     36  C   UNL A   1      37.968  33.275  32.570  1.00  0.00     0.049 A 
ATOM     37  N   UNL A   1      39.230  30.911  31.188  1.00  0.00    -0.248 NA
ATOM     38  C   UNL A   1      37.873  31.348  29.339  1.00  0.00     0.031 C 
ATOM     39  C   UNL A   1      37.331  34.360  33.318  1.00  0.00     0.029 A 
ATOM     40  N   UNL A   1      38.945  32.815  33.417  1.00  0.00    -0.354 N 
ATOM     41  C   UNL A   1      39.462  29.955  30.209  1.00  0.00     0.074 A 
ATOM     42  C   UNL A   1      38.555  30.235  29.118  1.00  0.00     0.031 C 
ATOM     43  C   UNL A   1      37.931  34.480  34.513  1.00  0.00     0.029 A 
ATOM     44  C   UNL A   1      38.964  33.454  34.631  1.00  0.00     0.049 A 
ATOM     45  H   UNL A   1      39.572  32.095  33.175  1.00  0.00     0.167 HD
ATOM     46  C   UNL A   1      40.358  28.940  30.220  1.00  0.00     0.037 A 
ATOM     47  C   UNL A   1      39.715  33.223  35.725  1.00  0.00     0.037 A 
ATOM     48  C   UNL A   1      41.286  28.694  31.291  1.00  0.00     0.049 A 
ATOM     49  C   UNL A   1      40.730  32.116  35.701  1.00  0.00     0.074 A 
ATOM     50  C   UNL A   1      42.291  27.746  31.363  1.00  0.00     0.029 A 
ATOM     51  N   UNL A   1      41.321  29.408  32.481  1.00  0.00    -0.354 N 
ATOM     52  N   UNL A   1      40.984  31.250  34.749  1.00  0.00    -0.248 NA
ATOM     53  C   UNL A   1      41.566  31.953  36.898  1.00  0.00     0.031 C 
ATOM     54  C   UNL A   1      42.911  27.863  32.612  1.00  0.00     0.029 A 
ATOM     55  C   UNL A   1      42.321  28.911  33.300  1.00  0.00     0.049 A 
ATOM     56  H   UNL A   1      40.724  30.157  32.708  1.00  0.00     0.167 HD
ATOM     57  C   UNL A   1      42.022  30.458  35.220  1.00  0.00     0.074 A 
ATOM     58  C   UNL A   1      42.355  30.948  36.542  1.00  0.00     0.031 C 
ATOM     59  C   UNL A   1      42.644  29.420  34.609  1.00  0.00     0.037 A 
BRANCH  46  60
ATOM     60  C   UNL A   1      40.365  28.018  29.036  1.00  0.00     0.064 A 
ATOM     61  C   UNL A   1      41.118  28.299  27.885  1.00  0.00     0.173 A 
ATOM     62  C   UNL A   1      39.605  26.839  29.053  1.00  0.00     0.173 A 
ATOM     63  F   UNL A   1      41.849  29.420  27.815  1.00  0.00    -0.203 F 
ATOM     64  C   UNL A   1      41.076  27.454  26.779  1.00  0.00     0.198 A 
ATOM     65  C   UNL A   1      39.591  25.981  27.956  1.00  0.00     0.198 A 
ATOM     66  F   UNL A   1      38.871  26.521  30.130  1.00  0.00    -0.203 F 
ATOM     67  F   UNL A   1      41.752  27.776  25.667  1.00  0.00    -0.200 F 
ATOM     68  C   UNL A   1      40.316  26.295  26.816  1.00  0.00     0.200 A 
ATOM     69  F   UNL A   1      38.864  24.856  27.997  1.00  0.00    -0.200 F 
ATOM     70  F   UNL A   1      40.273  25.485  25.750  1.00  0.00    -0.200 F 
ENDBRANCH  46  60
BRANCH  47  71
ATOM     71  C   UNL A   1      39.537  34.078  36.925  1.00  0.00     0.064 A 
ATOM     72  C   UNL A   1      38.771  33.636  38.013  1.00  0.00     0.173 A 
ATOM     73  C   UNL A   1      40.158  35.331  37.028  1.00  0.00     0.173 A 
ATOM     74  F   UNL A   1      38.144  32.452  37.951  1.00  0.00    -0.203 F 
ATOM     75  C   UNL A   1      38.628  34.418  39.156  1.00  0.00     0.198 A 
ATOM     76  C   UNL A   1      40.032  36.103  38.181  1.00  0.00     0.198 A 
ATOM     77  F   UNL A   1      40.907  35.793  36.016  1.00  0.00    -0.203 F 
ATOM     78  F   UNL A   1      37.870  33.983  40.172  1.00  0.00    -0.200 F 
ATOM     79  C   UNL A   1      39.265  35.647  39.243  1.00  0.00     0.200 A 
ATOM     80  F   UNL A   1      40.660  37.283  38.267  1.00  0.00    -0.200 F 
ATOM     81  F   UNL A   1      39.138  36.392  40.350  1.00  0.00    -0.200 F 
ENDBRANCH  47  71
BRANCH  59  82
ATOM     82  C   UNL A   1      43.777  28.766  35.343  1.00  0.00     0.064 A 
ATOM     83  C   UNL A   1      43.558  27.704  36.232  1.00  0.00     0.173 A 
ATOM     84  C   UNL A   1      45.099  29.162  35.098  1.00  0.00     0.173 A 
ATOM     85  F   UNL A   1      42.310  27.300  36.508  1.00  0.00    -0.203 F 
ATOM     86  C   UNL A   1      44.627  27.070  36.860  1.00  0.00     0.198 A 
ATOM     87  C   UNL A   1      46.167  28.510  35.710  1.00  0.00     0.198 A 
ATOM     88  F   UNL A   1      45.358  30.169  34.251  1.00  0.00    -0.203 F 
ATOM     89  F   UNL A   1      44.397  26.077  37.730  1.00  0.00    -0.200 F 
ATOM     90  C   UNL A   1      45.929  27.467  36.592  1.00  0.00     0.200 A 
ATOM     91  F   UNL A   1      47.424  28.887  35.440  1.00  0.00    -0.200 F 
ATOM     92  F   UNL A   1      46.957  26.846  37.188  1.00  0.00    -0.200 F 
ENDBRANCH  59  82
ENDBRANCH  33  34
ENDBRANCH  25  28
ENDBRANCH  23  24
ENDBRANCH  22  23
ENDBRANCH   1  22
TORSDOF 14
ENDMDL
