MODEL 1
REMARK VINA RESULT:     -12.2      0.000      0.000
REMARK SMILES CC1=C[C@@H](CNS(=O)(=O)c2cccs2)[C@H](C(C)C)C[C@H]1CC(=O)NCCCCNC(=O)c1ccc(-c2c3nc(c(-c4c(F)c(F)c(F)c(F)c4F)c4ccc([nH]4)c(-c4c(F)c(F)c(F)c(F)c4F)c4nc(c(-c5c(F)c(F)c(F)c(F)c5F)c5ccc2[nH]5)C=C4)C=C3)cc1
REMARK SMILES IDX 25 1 24 2 22 3 23 4 21 6 20 7 1 8 2 9 3 10 4 11 19 12 15 13
REMARK SMILES IDX 5 14 6 15 7 17 8 18 9 19 10 20 11 21 14 22 12 23 13 24 16 25
REMARK SMILES IDX 17 26 18 27 26 28 27 29 28 30 29 31 30 32 31 34 32 35 33 36
REMARK SMILES IDX 94 37 34 38 93 39 35 40 36 41 37 42 87 43 38 44 92 45 86 46
REMARK SMILES IDX 88 47 39 48 91 49 85 50 84 51 40 53 72 54 52 55 71 56 53 57
REMARK SMILES IDX 56 58 70 59 89 60 54 61 55 62 69 64 90 65 57 66 41 67 42 68
REMARK SMILES IDX 50 69 43 70 44 71 48 72 51 73 45 74 46 75 49 76 47 77 73 78
REMARK SMILES IDX 74 79 82 80 75 81 76 82 80 83 83 84 77 85 78 86 81 87 79 88
REMARK SMILES IDX 58 89 59 90 67 91 60 92 61 93 65 94 68 95 62 96 63 97 66 98
REMARK SMILES IDX 64 99
REMARK H PARENT 24 5 6 16 29 33 88 52 56 63
REMARK Flexibility Score: inf
ROOT
ATOM      1  C   UNL A   1      32.408  30.221  25.409  1.00  0.00     0.116 C 
ENDROOT
BRANCH   1   2
ATOM      2  N   UNL A   1      33.600  29.562  25.923  1.00  0.00    -0.356 N 
ATOM      3  C   UNL A   1      33.788  28.292  26.386  1.00  0.00     0.220 C 
ATOM      4  O   UNL A   1      34.907  27.980  26.800  1.00  0.00    -0.275 OA
ATOM      5  H   UNL A   1      34.406  30.127  25.938  1.00  0.00     0.163 HD
BRANCH   3   6
ATOM      6  C   UNL A   1      32.652  27.289  26.393  1.00  0.00     0.108 C 
BRANCH   6   7
ATOM      7  C   UNL A   1      32.945  25.962  25.649  1.00  0.00     0.024 C 
ATOM      8  C   UNL A   1      31.121  24.244  26.234  1.00  0.00     0.039 C 
ATOM      9  C   UNL A   1      31.675  25.236  25.238  1.00  0.00    -0.073 C 
ATOM     10  C   UNL A   1      31.155  25.361  23.997  1.00  0.00    -0.023 C 
ATOM     11  C   UNL A   1      31.937  25.980  22.865  1.00  0.00     0.030 C 
ATOM     12  C   UNL A   1      33.889  26.233  24.440  1.00  0.00     0.013 C 
ATOM     13  C   UNL A   1      33.429  25.575  23.107  1.00  0.00     0.000 C 
BRANCH  11  14
ATOM     14  C   UNL A   1      31.782  27.507  22.695  1.00  0.00     0.107 C 
BRANCH  14  15
ATOM     15  N   UNL A   1      30.475  27.909  22.129  1.00  0.00    -0.210 NA
ATOM     16  H   UNL A   1      30.075  27.101  21.652  1.00  0.00     0.141 HD
BRANCH  15  17
ATOM     17  S   UNL A   1      29.330  28.469  23.268  1.00  0.00     0.250 S 
ATOM     18  O   UNL A   1      28.094  27.762  22.998  1.00  0.00    -0.206 OA
ATOM     19  O   UNL A   1      29.975  28.401  24.555  1.00  0.00    -0.206 OA
BRANCH  17  20
ATOM     20  C   UNL A   1      28.956  30.181  22.916  1.00  0.00     0.134 A 
ATOM     21  C   UNL A   1      29.095  31.331  23.676  1.00  0.00     0.033 A 
ATOM     22  S   UNL A   1      28.369  30.548  21.350  1.00  0.00    -0.131 S 
ATOM     23  C   UNL A   1      28.690  32.506  22.978  1.00  0.00     0.013 A 
ATOM     24  C   UNL A   1      28.290  32.222  21.693  1.00  0.00     0.066 A 
ENDBRANCH  17  20
ENDBRANCH  15  17
ENDBRANCH  14  15
ENDBRANCH  11  14
BRANCH  13  25
ATOM     25  C   UNL A   1      33.647  24.015  23.089  1.00  0.00    -0.014 C 
ATOM     26  C   UNL A   1      33.336  23.400  21.718  1.00  0.00     0.007 C 
ATOM     27  C   UNL A   1      35.059  23.611  23.514  1.00  0.00     0.007 C 
ENDBRANCH  13  25
ENDBRANCH   6   7
ENDBRANCH   3   6
ENDBRANCH   1   2
BRANCH   1  28
ATOM     28  C   UNL A   1      31.517  30.798  26.509  1.00  0.00     0.023 C 
BRANCH  28  29
ATOM     29  C   UNL A   1      31.470  32.315  26.607  1.00  0.00     0.023 C 
BRANCH  29  30
ATOM     30  C   UNL A   1      32.655  32.902  27.341  1.00  0.00     0.116 C 
BRANCH  30  31
ATOM     31  N   UNL A   1      32.446  34.304  27.688  1.00  0.00    -0.352 N 
ATOM     32  C   UNL A   1      33.023  35.051  28.682  1.00  0.00     0.251 C 
ATOM     33  H   UNL A   1      31.796  34.783  27.125  1.00  0.00     0.163 HD
ATOM     34  O   UNL A   1      32.584  36.159  28.966  1.00  0.00    -0.269 OA
BRANCH  32  35
ATOM     35  C   UNL A   1      34.172  34.498  29.421  1.00  0.00     0.039 A 
ATOM     36  C   UNL A   1      33.952  33.829  30.627  1.00  0.00     0.014 A 
ATOM     37  C   UNL A   1      35.465  34.633  28.911  1.00  0.00     0.014 A 
ATOM     38  C   UNL A   1      35.030  33.245  31.293  1.00  0.00     0.010 A 
ATOM     39  C   UNL A   1      36.515  33.961  29.513  1.00  0.00     0.010 A 
ATOM     40  C   UNL A   1      36.311  33.283  30.723  1.00  0.00    -0.014 A 
BRANCH  40  41
ATOM     41  C   UNL A   1      37.482  32.679  31.395  1.00  0.00     0.031 A 
ATOM     42  C   UNL A   1      38.225  31.567  30.707  1.00  0.00     0.074 A 
ATOM     43  C   UNL A   1      37.810  33.061  32.642  1.00  0.00     0.049 A 
ATOM     44  N   UNL A   1      39.183  30.803  31.164  1.00  0.00    -0.248 NA
ATOM     45  C   UNL A   1      37.797  31.236  29.337  1.00  0.00     0.031 C 
ATOM     46  C   UNL A   1      37.117  34.086  33.425  1.00  0.00     0.029 A 
ATOM     47  N   UNL A   1      38.804  32.621  33.476  1.00  0.00    -0.354 N 
ATOM     48  C   UNL A   1      39.440  29.883  30.155  1.00  0.00     0.074 A 
ATOM     49  C   UNL A   1      38.502  30.144  29.087  1.00  0.00     0.031 C 
ATOM     50  C   UNL A   1      37.723  34.212  34.617  1.00  0.00     0.029 A 
ATOM     51  C   UNL A   1      38.822  33.255  34.693  1.00  0.00     0.049 A 
ATOM     52  H   UNL A   1      39.444  31.915  33.226  1.00  0.00     0.167 HD
ATOM     53  C   UNL A   1      40.395  28.926  30.114  1.00  0.00     0.037 A 
ATOM     54  C   UNL A   1      39.640  33.078  35.748  1.00  0.00     0.037 A 
ATOM     55  C   UNL A   1      41.364  28.722  31.156  1.00  0.00     0.049 A 
ATOM     56  C   UNL A   1      40.731  32.048  35.652  1.00  0.00     0.074 A 
ATOM     57  C   UNL A   1      42.426  27.837  31.188  1.00  0.00     0.029 A 
ATOM     58  N   UNL A   1      41.392  29.430  32.349  1.00  0.00    -0.354 N 
ATOM     59  N   UNL A   1      41.007  31.223  34.670  1.00  0.00    -0.248 NA
ATOM     60  C   UNL A   1      41.633  31.931  36.806  1.00  0.00     0.031 C 
ATOM     61  C   UNL A   1      43.083  27.991  32.413  1.00  0.00     0.029 A 
ATOM     62  C   UNL A   1      42.452  28.998  33.128  1.00  0.00     0.049 A 
ATOM     63  H   UNL A   1      40.754  30.134  32.603  1.00  0.00     0.167 HD
ATOM     64  C   UNL A   1      42.125  30.509  35.074  1.00  0.00     0.074 A 
ATOM     65  C   UNL A   1      42.486  31.008  36.386  1.00  0.00     0.031 C 
ATOM     66  C   UNL A   1      42.793  29.526  34.423  1.00  0.00     0.037 A 
BRANCH  53  67
ATOM     67  C   UNL A   1      40.447  28.048  28.898  1.00  0.00     0.064 A 
ATOM     68  C   UNL A   1      41.202  28.401  27.768  1.00  0.00     0.173 A 
ATOM     69  C   UNL A   1      39.748  26.833  28.867  1.00  0.00     0.173 A 
ATOM     70  F   UNL A   1      41.875  29.561  27.742  1.00  0.00    -0.203 F 
ATOM     71  C   UNL A   1      41.230  27.584  26.641  1.00  0.00     0.198 A 
ATOM     72  C   UNL A   1      39.803  26.004  27.749  1.00  0.00     0.198 A 
ATOM     73  F   UNL A   1      39.012  26.448  29.920  1.00  0.00    -0.203 F 
ATOM     74  F   UNL A   1      41.914  27.968  25.555  1.00  0.00    -0.200 F 
ATOM     75  C   UNL A   1      40.537  26.383  26.635  1.00  0.00     0.200 A 
ATOM     76  F   UNL A   1      39.141  24.838  27.748  1.00  0.00    -0.200 F 
ATOM     77  F   UNL A   1      40.569  25.595  25.551  1.00  0.00    -0.200 F 
ENDBRANCH  53  67
BRANCH  54  78
ATOM     78  C   UNL A   1      39.483  33.922  36.959  1.00  0.00     0.064 A 
ATOM     79  C   UNL A   1      40.054  35.201  37.018  1.00  0.00     0.173 A 
ATOM     80  C   UNL A   1      38.757  33.479  38.074  1.00  0.00     0.173 A 
ATOM     81  F   UNL A   1      40.770  35.662  35.982  1.00  0.00    -0.203 F 
ATOM     82  C   UNL A   1      39.925  35.996  38.154  1.00  0.00     0.198 A 
ATOM     83  C   UNL A   1      38.608  34.285  39.201  1.00  0.00     0.198 A 
ATOM     84  F   UNL A   1      38.183  32.267  38.064  1.00  0.00    -0.203 F 
ATOM     85  F   UNL A   1      40.517  37.197  38.200  1.00  0.00    -0.200 F 
ATOM     86  C   UNL A   1      39.198  35.539  39.243  1.00  0.00     0.200 A 
ATOM     87  F   UNL A   1      37.893  33.847  40.246  1.00  0.00    -0.200 F 
ATOM     88  F   UNL A   1      39.072  36.306  40.336  1.00  0.00    -0.200 F 
ENDBRANCH  54  78
BRANCH  66  89
ATOM     89  C   UNL A   1      43.998  28.953  35.105  1.00  0.00     0.064 A 
ATOM     90  C   UNL A   1      43.895  27.862  35.978  1.00  0.00     0.173 A 
ATOM     91  C   UNL A   1      45.274  29.472  34.840  1.00  0.00     0.173 A 
ATOM     92  F   UNL A   1      42.693  27.343  36.270  1.00  0.00    -0.203 F 
ATOM     93  C   UNL A   1      45.027  27.323  36.581  1.00  0.00     0.198 A 
ATOM     94  C   UNL A   1      46.406  28.914  35.424  1.00  0.00     0.198 A 
ATOM     95  F   UNL A   1      45.422  30.512  34.005  1.00  0.00    -0.203 F 
ATOM     96  F   UNL A   1      44.904  26.305  37.444  1.00  0.00    -0.200 F 
ATOM     97  C   UNL A   1      46.282  27.844  36.298  1.00  0.00     0.200 A 
ATOM     98  F   UNL A   1      47.618  29.410  35.142  1.00  0.00    -0.200 F 
ATOM     99  F   UNL A   1      47.372  27.318  36.873  1.00  0.00    -0.200 F 
ENDBRANCH  66  89
ENDBRANCH  40  41
ENDBRANCH  32  35
ENDBRANCH  30  31
ENDBRANCH  29  30
ENDBRANCH  28  29
ENDBRANCH   1  28
TORSDOF 17
ENDMDL
MODEL 2
REMARK VINA RESULT:     -12.1      3.192      8.289
REMARK SMILES CC1=C[C@@H](CNS(=O)(=O)c2cccs2)[C@H](C(C)C)C[C@H]1CC(=O)NCCCCNC(=O)c1ccc(-c2c3nc(c(-c4c(F)c(F)c(F)c(F)c4F)c4ccc([nH]4)c(-c4c(F)c(F)c(F)c(F)c4F)c4nc(c(-c5c(F)c(F)c(F)c(F)c5F)c5ccc2[nH]5)C=C4)C=C3)cc1
REMARK SMILES IDX 25 1 24 2 22 3 23 4 21 6 20 7 1 8 2 9 3 10 4 11 19 12 15 13
REMARK SMILES IDX 5 14 6 15 7 17 8 18 9 19 10 20 11 21 14 22 12 23 13 24 16 25
REMARK SMILES IDX 17 26 18 27 26 28 27 29 28 30 29 31 30 32 31 34 32 35 33 36
REMARK SMILES IDX 94 37 34 38 93 39 35 40 36 41 37 42 87 43 38 44 92 45 86 46
REMARK SMILES IDX 88 47 39 48 91 49 85 50 84 51 40 53 72 54 52 55 71 56 53 57
REMARK SMILES IDX 56 58 70 59 89 60 54 61 55 62 69 64 90 65 57 66 41 67 42 68
REMARK SMILES IDX 50 69 43 70 44 71 48 72 51 73 45 74 46 75 49 76 47 77 73 78
REMARK SMILES IDX 74 79 82 80 75 81 76 82 80 83 83 84 77 85 78 86 81 87 79 88
REMARK SMILES IDX 58 89 59 90 67 91 60 92 61 93 65 94 68 95 62 96 63 97 66 98
REMARK SMILES IDX 64 99
REMARK H PARENT 24 5 6 16 29 33 88 52 56 63
REMARK Flexibility Score: inf
ROOT
ATOM      1  C   UNL A   1      31.207  26.365  25.939  1.00  0.00     0.116 C 
ENDROOT
BRANCH   1   2
ATOM      2  N   UNL A   1      30.953  25.236  26.823  1.00  0.00    -0.356 N 
ATOM      3  C   UNL A   1      30.935  23.894  26.572  1.00  0.00     0.220 C 
ATOM      4  O   UNL A   1      30.660  23.129  27.499  1.00  0.00    -0.275 OA
ATOM      5  H   UNL A   1      30.763  25.480  27.757  1.00  0.00     0.163 HD
BRANCH   3   6
ATOM      6  C   UNL A   1      31.243  23.355  25.189  1.00  0.00     0.108 C 
BRANCH   6   7
ATOM      7  C   UNL A   1      32.562  22.550  25.079  1.00  0.00     0.024 C 
ATOM      8  C   UNL A   1      32.278  20.698  23.316  1.00  0.00     0.039 C 
ATOM      9  C   UNL A   1      32.827  22.062  23.665  1.00  0.00    -0.073 C 
ATOM     10  C   UNL A   1      33.629  22.743  22.817  1.00  0.00    -0.023 C 
ATOM     11  C   UNL A   1      34.535  23.851  23.295  1.00  0.00     0.030 C 
ATOM     12  C   UNL A   1      33.743  23.395  25.644  1.00  0.00     0.013 C 
ATOM     13  C   UNL A   1      35.001  23.432  24.728  1.00  0.00     0.000 C 
BRANCH  11  14
ATOM     14  C   UNL A   1      33.925  25.269  23.286  1.00  0.00     0.107 C 
BRANCH  14  15
ATOM     15  N   UNL A   1      33.450  25.701  21.952  1.00  0.00    -0.210 NA
ATOM     16  H   UNL A   1      33.703  24.979  21.278  1.00  0.00     0.141 HD
BRANCH  15  17
ATOM     17  S   UNL A   1      31.766  25.968  21.832  1.00  0.00     0.250 S 
ATOM     18  O   UNL A   1      31.477  26.178  20.427  1.00  0.00    -0.206 OA
ATOM     19  O   UNL A   1      31.136  24.914  22.585  1.00  0.00    -0.206 OA
BRANCH  17  20
ATOM     20  C   UNL A   1      31.372  27.528  22.610  1.00  0.00     0.134 A 
ATOM     21  C   UNL A   1      32.175  28.565  23.055  1.00  0.00     0.033 A 
ATOM     22  S   UNL A   1      29.715  27.900  22.825  1.00  0.00    -0.131 S 
ATOM     23  C   UNL A   1      31.427  29.650  23.598  1.00  0.00     0.013 A 
ATOM     24  C   UNL A   1      30.072  29.424  23.517  1.00  0.00     0.066 A 
ENDBRANCH  17  20
ENDBRANCH  15  17
ENDBRANCH  14  15
ENDBRANCH  11  14
BRANCH  13  25
ATOM     25  C   UNL A   1      35.801  22.075  24.735  1.00  0.00    -0.014 C 
ATOM     26  C   UNL A   1      37.281  22.270  24.377  1.00  0.00     0.007 C 
ATOM     27  C   UNL A   1      35.699  21.336  26.070  1.00  0.00     0.007 C 
ENDBRANCH  13  25
ENDBRANCH   6   7
ENDBRANCH   3   6
ENDBRANCH   1   2
BRANCH   1  28
ATOM     28  C   UNL A   1      31.968  27.502  26.618  1.00  0.00     0.023 C 
BRANCH  28  29
ATOM     29  C   UNL A   1      33.478  27.341  26.706  1.00  0.00     0.023 C 
BRANCH  29  30
ATOM     30  C   UNL A   1      34.237  28.441  25.995  1.00  0.00     0.116 C 
BRANCH  30  31
ATOM     31  N   UNL A   1      33.840  29.767  26.456  1.00  0.00    -0.352 N 
ATOM     32  C   UNL A   1      34.404  30.558  27.424  1.00  0.00     0.251 C 
ATOM     33  H   UNL A   1      33.053  30.150  26.006  1.00  0.00     0.163 HD
ATOM     34  O   UNL A   1      33.824  31.558  27.830  1.00  0.00    -0.269 OA
BRANCH  32  35
ATOM     35  C   UNL A   1      35.714  30.182  27.987  1.00  0.00     0.039 A 
ATOM     36  C   UNL A   1      35.772  29.613  29.261  1.00  0.00     0.014 A 
ATOM     37  C   UNL A   1      36.879  30.382  27.244  1.00  0.00     0.014 A 
ATOM     38  C   UNL A   1      37.003  29.193  29.766  1.00  0.00     0.010 A 
ATOM     39  C   UNL A   1      38.080  29.866  27.700  1.00  0.00     0.010 A 
ATOM     40  C   UNL A   1      38.157  29.291  28.975  1.00  0.00    -0.014 A 
BRANCH  40  41
ATOM     41  C   UNL A   1      39.482  28.859  29.472  1.00  0.00     0.031 A 
ATOM     42  C   UNL A   1      40.217  29.735  30.449  1.00  0.00     0.074 A 
ATOM     43  C   UNL A   1      40.053  27.746  28.978  1.00  0.00     0.049 A 
ATOM     44  N   UNL A   1      41.437  29.627  30.904  1.00  0.00    -0.248 NA
ATOM     45  C   UNL A   1      39.497  30.923  30.940  1.00  0.00     0.031 C 
ATOM     46  C   UNL A   1      39.455  26.857  27.979  1.00  0.00     0.029 A 
ATOM     47  N   UNL A   1      41.272  27.179  29.239  1.00  0.00    -0.354 N 
ATOM     48  C   UNL A   1      41.640  30.747  31.700  1.00  0.00     0.074 A 
ATOM     49  C   UNL A   1      40.442  31.552  31.620  1.00  0.00     0.031 C 
ATOM     50  C   UNL A   1      40.301  25.844  27.731  1.00  0.00     0.029 A 
ATOM     51  C   UNL A   1      41.510  26.030  28.526  1.00  0.00     0.049 A 
ATOM     52  H   UNL A   1      41.918  27.559  29.878  1.00  0.00     0.167 HD
ATOM     53  C   UNL A   1      42.719  31.060  32.453  1.00  0.00     0.037 A 
ATOM     54  C   UNL A   1      42.587  25.223  28.521  1.00  0.00     0.037 A 
ATOM     55  C   UNL A   1      43.877  30.217  32.574  1.00  0.00     0.049 A 
ATOM     56  C   UNL A   1      43.749  25.562  29.413  1.00  0.00     0.074 A 
ATOM     57  C   UNL A   1      44.995  30.393  33.369  1.00  0.00     0.029 A 
ATOM     58  N   UNL A   1      44.054  29.026  31.886  1.00  0.00    -0.354 N 
ATOM     59  N   UNL A   1      43.908  26.592  30.210  1.00  0.00    -0.248 NA
ATOM     60  C   UNL A   1      44.877  24.621  29.415  1.00  0.00     0.031 C 
ATOM     61  C   UNL A   1      45.861  29.319  33.142  1.00  0.00     0.029 A 
ATOM     62  C   UNL A   1      45.267  28.456  32.234  1.00  0.00     0.049 A 
ATOM     63  H   UNL A   1      43.413  28.642  31.245  1.00  0.00     0.167 HD
ATOM     64  C   UNL A   1      45.137  26.412  30.825  1.00  0.00     0.074 A 
ATOM     65  C   UNL A   1      45.678  25.165  30.320  1.00  0.00     0.031 C 
ATOM     66  C   UNL A   1      45.768  27.206  31.725  1.00  0.00     0.037 A 
BRANCH  53  67
ATOM     67  C   UNL A   1      42.684  32.352  33.215  1.00  0.00     0.064 A 
ATOM     68  C   UNL A   1      43.142  33.552  32.649  1.00  0.00     0.173 A 
ATOM     69  C   UNL A   1      42.174  32.395  34.520  1.00  0.00     0.173 A 
ATOM     70  F   UNL A   1      43.655  33.562  31.410  1.00  0.00    -0.203 F 
ATOM     71  C   UNL A   1      43.117  34.742  33.373  1.00  0.00     0.198 A 
ATOM     72  C   UNL A   1      42.122  33.592  35.230  1.00  0.00     0.198 A 
ATOM     73  F   UNL A   1      41.723  31.277  35.108  1.00  0.00    -0.203 F 
ATOM     74  F   UNL A   1      43.609  35.864  32.831  1.00  0.00    -0.200 F 
ATOM     75  C   UNL A   1      42.601  34.762  34.659  1.00  0.00     0.200 A 
ATOM     76  F   UNL A   1      41.614  33.613  36.471  1.00  0.00    -0.200 F 
ATOM     77  F   UNL A   1      42.573  35.909  35.353  1.00  0.00    -0.200 F 
ENDBRANCH  53  67
BRANCH  54  78
ATOM     78  C   UNL A   1      42.595  24.000  27.678  1.00  0.00     0.064 A 
ATOM     79  C   UNL A   1      42.957  24.067  26.326  1.00  0.00     0.173 A 
ATOM     80  C   UNL A   1      42.251  22.746  28.202  1.00  0.00     0.173 A 
ATOM     81  F   UNL A   1      43.278  25.247  25.777  1.00  0.00    -0.203 F 
ATOM     82  C   UNL A   1      42.955  22.928  25.524  1.00  0.00     0.198 A 
ATOM     83  C   UNL A   1      42.274  21.603  27.404  1.00  0.00     0.198 A 
ATOM     84  F   UNL A   1      41.907  22.627  29.493  1.00  0.00    -0.203 F 
ATOM     85  F   UNL A   1      43.265  23.027  24.224  1.00  0.00    -0.200 F 
ATOM     86  C   UNL A   1      42.617  21.697  26.064  1.00  0.00     0.200 A 
ATOM     87  F   UNL A   1      41.961  20.412  27.933  1.00  0.00    -0.200 F 
ATOM     88  F   UNL A   1      42.618  20.601  25.292  1.00  0.00    -0.200 F 
ENDBRANCH  54  78
BRANCH  66  89
ATOM     89  C   UNL A   1      47.092  26.733  32.243  1.00  0.00     0.064 A 
ATOM     90  C   UNL A   1      47.181  25.873  33.346  1.00  0.00     0.173 A 
ATOM     91  C   UNL A   1      48.279  27.105  31.594  1.00  0.00     0.173 A 
ATOM     92  F   UNL A   1      46.072  25.504  34.004  1.00  0.00    -0.203 F 
ATOM     93  C   UNL A   1      48.417  25.420  33.797  1.00  0.00     0.198 A 
ATOM     94  C   UNL A   1      49.510  26.628  32.031  1.00  0.00     0.198 A 
ATOM     95  F   UNL A   1      48.242  27.921  30.529  1.00  0.00    -0.203 F 
ATOM     96  F   UNL A   1      48.485  24.631  34.878  1.00  0.00    -0.200 F 
ATOM     97  C   UNL A   1      49.579  25.791  33.135  1.00  0.00     0.200 A 
ATOM     98  F   UNL A   1      50.630  26.978  31.386  1.00  0.00    -0.200 F 
ATOM     99  F   UNL A   1      50.767  25.346  33.566  1.00  0.00    -0.200 F 
ENDBRANCH  66  89
ENDBRANCH  40  41
ENDBRANCH  32  35
ENDBRANCH  30  31
ENDBRANCH  29  30
ENDBRANCH  28  29
ENDBRANCH   1  28
TORSDOF 17
ENDMDL
MODEL 3
REMARK VINA RESULT:     -12.0      3.230      8.509
REMARK SMILES CC1=C[C@@H](CNS(=O)(=O)c2cccs2)[C@H](C(C)C)C[C@H]1CC(=O)NCCCCNC(=O)c1ccc(-c2c3nc(c(-c4c(F)c(F)c(F)c(F)c4F)c4ccc([nH]4)c(-c4c(F)c(F)c(F)c(F)c4F)c4nc(c(-c5c(F)c(F)c(F)c(F)c5F)c5ccc2[nH]5)C=C4)C=C3)cc1
REMARK SMILES IDX 25 1 24 2 22 3 23 4 21 6 20 7 1 8 2 9 3 10 4 11 19 12 15 13
REMARK SMILES IDX 5 14 6 15 7 17 8 18 9 19 10 20 11 21 14 22 12 23 13 24 16 25
REMARK SMILES IDX 17 26 18 27 26 28 27 29 28 30 29 31 30 32 31 34 32 35 33 36
REMARK SMILES IDX 94 37 34 38 93 39 35 40 36 41 37 42 87 43 38 44 92 45 86 46
REMARK SMILES IDX 88 47 39 48 91 49 85 50 84 51 40 53 72 54 52 55 71 56 53 57
REMARK SMILES IDX 56 58 70 59 89 60 54 61 55 62 69 64 90 65 57 66 41 67 42 68
REMARK SMILES IDX 50 69 43 70 44 71 48 72 51 73 45 74 46 75 49 76 47 77 73 78
REMARK SMILES IDX 74 79 82 80 75 81 76 82 80 83 83 84 77 85 78 86 81 87 79 88
REMARK SMILES IDX 58 89 59 90 67 91 60 92 61 93 65 94 68 95 62 96 63 97 66 98
REMARK SMILES IDX 64 99
REMARK H PARENT 24 5 6 16 29 33 88 52 56 63
REMARK Flexibility Score: inf
ROOT
ATOM      1  C   UNL A   1      31.162  26.449  25.895  1.00  0.00     0.116 C 
ENDROOT
BRANCH   1   2
ATOM      2  N   UNL A   1      30.762  25.350  26.762  1.00  0.00    -0.356 N 
ATOM      3  C   UNL A   1      30.765  24.001  26.551  1.00  0.00     0.220 C 
ATOM      4  O   UNL A   1      30.343  23.267  27.447  1.00  0.00    -0.275 OA
ATOM      5  H   UNL A   1      30.435  25.624  27.648  1.00  0.00     0.163 HD
BRANCH   3   6
ATOM      6  C   UNL A   1      31.273  23.418  25.247  1.00  0.00     0.108 C 
BRANCH   6   7
ATOM      7  C   UNL A   1      32.685  22.784  25.320  1.00  0.00     0.024 C 
ATOM      8  C   UNL A   1      32.811  20.808  23.678  1.00  0.00     0.039 C 
ATOM      9  C   UNL A   1      33.151  22.250  23.976  1.00  0.00    -0.073 C 
ATOM     10  C   UNL A   1      33.945  22.976  23.159  1.00  0.00    -0.023 C 
ATOM     11  C   UNL A   1      34.655  24.218  23.637  1.00  0.00     0.030 C 
ATOM     12  C   UNL A   1      33.690  23.807  25.929  1.00  0.00     0.013 C 
ATOM     13  C   UNL A   1      35.020  23.951  25.135  1.00  0.00     0.000 C 
BRANCH  11  14
ATOM     14  C   UNL A   1      33.880  25.543  23.468  1.00  0.00     0.107 C 
BRANCH  14  15
ATOM     15  N   UNL A   1      33.535  25.851  22.062  1.00  0.00    -0.210 NA
ATOM     16  H   UNL A   1      33.961  25.139  21.469  1.00  0.00     0.141 HD
BRANCH  15  17
ATOM     17  S   UNL A   1      31.861  25.894  21.717  1.00  0.00     0.250 S 
ATOM     18  O   UNL A   1      31.737  26.079  20.285  1.00  0.00    -0.206 OA
ATOM     19  O   UNL A   1      31.282  24.758  22.387  1.00  0.00    -0.206 OA
BRANCH  17  20
ATOM     20  C   UNL A   1      31.165  27.380  22.425  1.00  0.00     0.134 A 
ATOM     21  C   UNL A   1      29.871  27.708  22.795  1.00  0.00     0.033 A 
ATOM     22  S   UNL A   1      32.249  28.653  22.795  1.00  0.00    -0.131 S 
ATOM     23  C   UNL A   1      29.770  29.015  23.352  1.00  0.00     0.013 A 
ATOM     24  C   UNL A   1      30.997  29.633  23.428  1.00  0.00     0.066 A 
ENDBRANCH  17  20
ENDBRANCH  15  17
ENDBRANCH  14  15
ENDBRANCH  11  14
BRANCH  13  25
ATOM     25  C   UNL A   1      35.976  22.712  25.315  1.00  0.00    -0.014 C 
ATOM     26  C   UNL A   1      37.441  23.128  25.505  1.00  0.00     0.007 C 
ATOM     27  C   UNL A   1      35.556  21.806  26.474  1.00  0.00     0.007 C 
ENDBRANCH  13  25
ENDBRANCH   6   7
ENDBRANCH   3   6
ENDBRANCH   1   2
BRANCH   1  28
ATOM     28  C   UNL A   1      31.809  27.608  26.652  1.00  0.00     0.023 C 
BRANCH  28  29
ATOM     29  C   UNL A   1      33.323  27.560  26.786  1.00  0.00     0.023 C 
BRANCH  29  30
ATOM     30  C   UNL A   1      34.024  28.663  26.025  1.00  0.00     0.116 C 
BRANCH  30  31
ATOM     31  N   UNL A   1      33.761  29.979  26.598  1.00  0.00    -0.352 N 
ATOM     32  C   UNL A   1      34.444  30.656  27.575  1.00  0.00     0.251 C 
ATOM     33  H   UNL A   1      32.979  30.449  26.228  1.00  0.00     0.163 HD
ATOM     34  O   UNL A   1      33.970  31.664  28.085  1.00  0.00    -0.269 OA
BRANCH  32  35
ATOM     35  C   UNL A   1      35.754  30.146  28.022  1.00  0.00     0.039 A 
ATOM     36  C   UNL A   1      36.855  30.255  27.170  1.00  0.00     0.014 A 
ATOM     37  C   UNL A   1      35.889  29.574  29.288  1.00  0.00     0.014 A 
ATOM     38  C   UNL A   1      38.109  29.837  27.617  1.00  0.00     0.010 A 
ATOM     39  C   UNL A   1      37.149  29.263  29.770  1.00  0.00     0.010 A 
ATOM     40  C   UNL A   1      38.266  29.367  28.930  1.00  0.00    -0.014 A 
BRANCH  40  41
ATOM     41  C   UNL A   1      39.576  28.912  29.444  1.00  0.00     0.031 A 
ATOM     42  C   UNL A   1      40.305  29.768  30.443  1.00  0.00     0.074 A 
ATOM     43  C   UNL A   1      40.140  27.796  28.948  1.00  0.00     0.049 A 
ATOM     44  N   UNL A   1      41.517  29.638  30.918  1.00  0.00    -0.248 NA
ATOM     45  C   UNL A   1      39.593  30.960  30.934  1.00  0.00     0.031 C 
ATOM     46  C   UNL A   1      39.547  26.926  27.930  1.00  0.00     0.029 A 
ATOM     47  N   UNL A   1      41.347  27.210  29.224  1.00  0.00    -0.354 N 
ATOM     48  C   UNL A   1      41.720  30.748  31.728  1.00  0.00     0.074 A 
ATOM     49  C   UNL A   1      40.535  31.569  31.637  1.00  0.00     0.031 C 
ATOM     50  C   UNL A   1      40.384  25.904  27.686  1.00  0.00     0.029 A 
ATOM     51  C   UNL A   1      41.581  26.066  28.503  1.00  0.00     0.049 A 
ATOM     52  H   UNL A   1      41.987  27.575  29.878  1.00  0.00     0.167 HD
ATOM     53  C   UNL A   1      42.791  31.038  32.502  1.00  0.00     0.037 A 
ATOM     54  C   UNL A   1      42.647  25.244  28.507  1.00  0.00     0.037 A 
ATOM     55  C   UNL A   1      43.935  30.179  32.635  1.00  0.00     0.049 A 
ATOM     56  C   UNL A   1      43.798  25.559  29.423  1.00  0.00     0.074 A 
ATOM     57  C   UNL A   1      45.041  30.331  33.450  1.00  0.00     0.029 A 
ATOM     58  N   UNL A   1      44.108  28.992  31.937  1.00  0.00    -0.354 N 
ATOM     59  N   UNL A   1      43.958  26.578  30.233  1.00  0.00    -0.248 NA
ATOM     60  C   UNL A   1      44.914  24.602  29.434  1.00  0.00     0.031 C 
ATOM     61  C   UNL A   1      45.897  29.247  33.226  1.00  0.00     0.029 A 
ATOM     62  C   UNL A   1      45.307  28.403  32.299  1.00  0.00     0.049 A 
ATOM     63  H   UNL A   1      43.472  28.624  31.281  1.00  0.00     0.167 HD
ATOM     64  C   UNL A   1      45.174  26.375  30.867  1.00  0.00     0.074 A 
ATOM     65  C   UNL A   1      45.706  25.126  30.358  1.00  0.00     0.031 C 
ATOM     66  C   UNL A   1      45.800  27.151  31.786  1.00  0.00     0.037 A 
BRANCH  53  67
ATOM     67  C   UNL A   1      42.760  32.323  33.277  1.00  0.00     0.064 A 
ATOM     68  C   UNL A   1      42.223  32.389  34.571  1.00  0.00     0.173 A 
ATOM     69  C   UNL A   1      43.289  33.499  32.726  1.00  0.00     0.173 A 
ATOM     70  F   UNL A   1      41.689  31.296  35.137  1.00  0.00    -0.203 F 
ATOM     71  C   UNL A   1      42.188  33.591  35.274  1.00  0.00     0.198 A 
ATOM     72  C   UNL A   1      43.280  34.693  33.443  1.00  0.00     0.198 A 
ATOM     73  F   UNL A   1      43.816  33.491  31.493  1.00  0.00    -0.203 F 
ATOM     74  F   UNL A   1      41.620  33.640  36.487  1.00  0.00    -0.200 F 
ATOM     75  C   UNL A   1      42.723  34.739  34.712  1.00  0.00     0.200 A 
ATOM     76  F   UNL A   1      43.807  35.801  32.903  1.00  0.00    -0.200 F 
ATOM     77  F   UNL A   1      42.694  35.895  35.391  1.00  0.00    -0.200 F 
ENDBRANCH  53  67
BRANCH  54  78
ATOM     78  C   UNL A   1      42.653  24.030  27.652  1.00  0.00     0.064 A 
ATOM     79  C   UNL A   1      42.259  22.789  28.171  1.00  0.00     0.173 A 
ATOM     80  C   UNL A   1      43.042  24.083  26.306  1.00  0.00     0.173 A 
ATOM     81  F   UNL A   1      41.895  22.687  29.457  1.00  0.00    -0.203 F 
ATOM     82  C   UNL A   1      42.274  21.642  27.381  1.00  0.00     0.198 A 
ATOM     83  C   UNL A   1      43.033  22.938  25.511  1.00  0.00     0.198 A 
ATOM     84  F   UNL A   1      43.418  25.248  25.760  1.00  0.00    -0.203 F 
ATOM     85  F   UNL A   1      41.933  20.461  27.914  1.00  0.00    -0.200 F 
ATOM     86  C   UNL A   1      42.657  21.718  26.051  1.00  0.00     0.200 A 
ATOM     87  F   UNL A   1      43.389  23.017  24.222  1.00  0.00    -0.200 F 
ATOM     88  F   UNL A   1      42.668  20.613  25.291  1.00  0.00    -0.200 F 
ENDBRANCH  54  78
BRANCH  66  89
ATOM     89  C   UNL A   1      47.108  26.655  32.321  1.00  0.00     0.064 A 
ATOM     90  C   UNL A   1      48.329  27.074  31.775  1.00  0.00     0.173 A 
ATOM     91  C   UNL A   1      47.138  25.789  33.424  1.00  0.00     0.173 A 
ATOM     92  F   UNL A   1      48.347  27.891  30.711  1.00  0.00    -0.203 F 
ATOM     93  C   UNL A   1      49.536  26.625  32.303  1.00  0.00     0.198 A 
ATOM     94  C   UNL A   1      48.346  25.364  33.965  1.00  0.00     0.198 A 
ATOM     95  F   UNL A   1      45.993  25.366  33.984  1.00  0.00    -0.203 F 
ATOM     96  F   UNL A   1      50.692  27.006  31.742  1.00  0.00    -0.200 F 
ATOM     97  C   UNL A   1      49.544  25.778  33.401  1.00  0.00     0.200 A 
ATOM     98  F   UNL A   1      48.353  24.553  35.032  1.00  0.00    -0.200 F 
ATOM     99  F   UNL A   1      50.708  25.354  33.912  1.00  0.00    -0.200 F 
ENDBRANCH  66  89
ENDBRANCH  40  41
ENDBRANCH  32  35
ENDBRANCH  30  31
ENDBRANCH  29  30
ENDBRANCH  28  29
ENDBRANCH   1  28
TORSDOF 17
ENDMDL
