MODEL 1
REMARK VINA RESULT:     -11.4      0.000      0.000
REMARK SMILES CC(=O)N[C@@H](C(=O)N(CC(=O)NCCCCNC(=O)c1ccc(-c2c3nc(c(-c4c(F)c(F)c(F)c(F)c4F)c4ccc([nH]4)c(-c4c(F)c(F)c(F)c(F)c4F)c4nc(c(-c5c(F)c(F)c(F)c(F)c5F)c5ccc2[nH]5)C=C4)C=C3)cc1)C(C)(C)C)C(C)C
REMARK SMILES IDX 13 1 12 2 10 3 11 4 9 6 8 7 6 8 7 9 5 10 4 11 1 12 2 13 3 14
REMARK SMILES IDX 87 16 88 17 89 18 83 19 84 20 85 21 86 22 14 23 15 24 16 25
REMARK SMILES IDX 17 26 18 27 19 29 20 30 21 31 82 32 22 33 81 34 23 35 24 36
REMARK SMILES IDX 25 37 75 38 26 39 80 40 74 41 76 42 27 43 79 44 73 45 72 46
REMARK SMILES IDX 28 48 60 49 40 50 59 51 41 52 44 53 58 54 77 55 42 56 43 57
REMARK SMILES IDX 57 59 78 60 45 61 29 62 30 63 38 64 31 65 32 66 36 67 39 68
REMARK SMILES IDX 33 69 34 70 37 71 35 72 61 73 62 74 70 75 63 76 64 77 68 78
REMARK SMILES IDX 71 79 65 80 66 81 69 82 67 83 46 84 47 85 55 86 48 87 49 88
REMARK SMILES IDX 53 89 56 90 50 91 51 92 54 93 52 94
REMARK H PARENT 12 5 4 15 17 28 76 47 44 58
REMARK Flexibility Score: inf
ROOT
ATOM      1  C   UNL A   1      33.466  29.718  26.767  1.00  0.00     0.116 C 
ENDROOT
BRANCH   1   2
ATOM      2  N   UNL A   1      33.954  29.443  25.440  1.00  0.00    -0.355 N 
ATOM      3  C   UNL A   1      33.699  28.347  24.663  1.00  0.00     0.239 C 
ATOM      4  O   UNL A   1      33.886  28.459  23.448  1.00  0.00    -0.273 OA
ATOM      5  H   UNL A   1      34.543  30.126  25.045  1.00  0.00     0.163 HD
BRANCH   3   6
ATOM      6  C   UNL A   1      33.069  27.056  25.236  1.00  0.00     0.220 C 
BRANCH   6   7
ATOM      7  N   UNL A   1      32.654  26.012  24.283  1.00  0.00    -0.327 N 
BRANCH   7   8
ATOM      8  C   UNL A   1      33.563  25.096  23.712  1.00  0.00     0.246 C 
ATOM      9  O   UNL A   1      33.946  25.255  22.548  1.00  0.00    -0.272 OA
BRANCH   8  10
ATOM     10  C   UNL A   1      34.089  23.823  24.517  1.00  0.00     0.174 C 
BRANCH  10  11
ATOM     11  N   UNL A   1      33.535  23.740  25.877  1.00  0.00    -0.344 N 
ATOM     12  C   UNL A   1      31.874  21.950  25.495  1.00  0.00     0.114 C 
ATOM     13  C   UNL A   1      32.564  22.938  26.392  1.00  0.00     0.217 C 
ATOM     14  O   UNL A   1      32.281  23.049  27.583  1.00  0.00    -0.275 OA
ATOM     15  H   UNL A   1      33.933  24.370  26.521  1.00  0.00     0.164 HD
ENDBRANCH  10  11
BRANCH  10  16
ATOM     16  C   UNL A   1      35.650  23.881  24.653  1.00  0.00     0.015 C 
ATOM     17  C   UNL A   1      36.162  23.478  26.045  1.00  0.00     0.010 C 
ATOM     18  C   UNL A   1      36.356  23.010  23.610  1.00  0.00     0.010 C 
ENDBRANCH  10  16
ENDBRANCH   8  10
ENDBRANCH   7   8
BRANCH   7  19
ATOM     19  C   UNL A   1      31.198  26.002  23.834  1.00  0.00     0.035 C 
ATOM     20  C   UNL A   1      30.231  26.383  24.970  1.00  0.00     0.034 C 
ATOM     21  C   UNL A   1      31.007  26.973  22.646  1.00  0.00     0.034 C 
ATOM     22  C   UNL A   1      30.703  24.621  23.316  1.00  0.00     0.034 C 
ENDBRANCH   7  19
ENDBRANCH   6   7
ENDBRANCH   3   6
ENDBRANCH   1   2
BRANCH   1  23
ATOM     23  C   UNL A   1      32.025  30.190  26.854  1.00  0.00     0.023 C 
BRANCH  23  24
ATOM     24  C   UNL A   1      31.840  31.687  26.709  1.00  0.00     0.023 C 
BRANCH  24  25
ATOM     25  C   UNL A   1      32.877  32.514  27.454  1.00  0.00     0.116 C 
BRANCH  25  26
ATOM     26  N   UNL A   1      32.477  33.905  27.634  1.00  0.00    -0.352 N 
ATOM     27  C   UNL A   1      32.967  34.837  28.516  1.00  0.00     0.251 C 
ATOM     28  H   UNL A   1      31.756  34.219  27.041  1.00  0.00     0.163 HD
ATOM     29  O   UNL A   1      32.429  35.931  28.647  1.00  0.00    -0.269 OA
BRANCH  27  30
ATOM     30  C   UNL A   1      34.136  34.479  29.339  1.00  0.00     0.039 A 
ATOM     31  C   UNL A   1      33.935  33.929  30.606  1.00  0.00     0.014 A 
ATOM     32  C   UNL A   1      35.423  34.602  28.810  1.00  0.00     0.014 A 
ATOM     33  C   UNL A   1      35.025  33.410  31.305  1.00  0.00     0.010 A 
ATOM     34  C   UNL A   1      36.488  33.998  29.462  1.00  0.00     0.010 A 
ATOM     35  C   UNL A   1      36.299  33.393  30.715  1.00  0.00    -0.014 A 
BRANCH  35  36
ATOM     36  C   UNL A   1      37.455  32.749  31.382  1.00  0.00     0.031 A 
ATOM     37  C   UNL A   1      38.140  31.586  30.725  1.00  0.00     0.074 A 
ATOM     38  C   UNL A   1      37.825  33.150  32.615  1.00  0.00     0.049 A 
ATOM     39  N   UNL A   1      39.093  30.817  31.186  1.00  0.00    -0.248 NA
ATOM     40  C   UNL A   1      37.664  31.213  29.383  1.00  0.00     0.031 C 
ATOM     41  C   UNL A   1      37.195  34.227  33.381  1.00  0.00     0.029 A 
ATOM     42  N   UNL A   1      38.812  32.686  33.447  1.00  0.00    -0.354 N 
ATOM     43  C   UNL A   1      39.311  29.861  30.204  1.00  0.00     0.074 A 
ATOM     44  C   UNL A   1      38.356  30.108  29.147  1.00  0.00     0.031 C 
ATOM     45  C   UNL A   1      37.824  34.354  34.561  1.00  0.00     0.029 A 
ATOM     46  C   UNL A   1      38.875  33.345  34.651  1.00  0.00     0.049 A 
ATOM     47  H   UNL A   1      39.420  31.950  33.204  1.00  0.00     0.167 HD
ATOM     48  C   UNL A   1      40.243  28.879  30.176  1.00  0.00     0.037 A 
ATOM     49  C   UNL A   1      39.684  33.149  35.708  1.00  0.00     0.037 A 
ATOM     50  C   UNL A   1      41.216  28.662  31.211  1.00  0.00     0.049 A 
ATOM     51  C   UNL A   1      40.723  32.063  35.643  1.00  0.00     0.074 A 
ATOM     52  C   UNL A   1      42.252  27.746  31.243  1.00  0.00     0.029 A 
ATOM     53  N   UNL A   1      41.272  29.375  32.400  1.00  0.00    -0.354 N 
ATOM     54  N   UNL A   1      40.971  31.213  34.676  1.00  0.00    -0.248 NA
ATOM     55  C   UNL A   1      41.599  31.913  36.813  1.00  0.00     0.031 C 
ATOM     56  C   UNL A   1      42.912  27.877  32.469  1.00  0.00     0.029 A 
ATOM     57  C   UNL A   1      42.315  28.904  33.182  1.00  0.00     0.049 A 
ATOM     58  H   UNL A   1      40.663  30.106  32.651  1.00  0.00     0.167 HD
ATOM     59  C   UNL A   1      42.043  30.444  35.109  1.00  0.00     0.074 A 
ATOM     60  C   UNL A   1      42.410  30.941  36.420  1.00  0.00     0.031 C 
ATOM     61  C   UNL A   1      42.667  29.418  34.480  1.00  0.00     0.037 A 
BRANCH  48  62
ATOM     62  C   UNL A   1      40.259  27.973  28.980  1.00  0.00     0.064 A 
ATOM     63  C   UNL A   1      41.002  28.286  27.832  1.00  0.00     0.173 A 
ATOM     64  C   UNL A   1      39.549  26.763  28.994  1.00  0.00     0.173 A 
ATOM     65  F   UNL A   1      41.685  29.438  27.762  1.00  0.00    -0.203 F 
ATOM     66  C   UNL A   1      41.010  27.434  26.730  1.00  0.00     0.198 A 
ATOM     67  C   UNL A   1      39.585  25.900  27.903  1.00  0.00     0.198 A 
ATOM     68  F   UNL A   1      38.825  26.416  30.068  1.00  0.00    -0.203 F 
ATOM     69  F   UNL A   1      41.689  27.777  25.626  1.00  0.00    -0.200 F 
ATOM     70  C   UNL A   1      40.309  26.238  26.770  1.00  0.00     0.200 A 
ATOM     71  F   UNL A   1      38.916  24.739  27.946  1.00  0.00    -0.200 F 
ATOM     72  F   UNL A   1      40.326  25.415  25.712  1.00  0.00    -0.200 F 
ENDBRANCH  48  62
BRANCH  49  73
ATOM     73  C   UNL A   1      39.561  34.014  36.911  1.00  0.00     0.064 A 
ATOM     74  C   UNL A   1      40.227  35.246  36.981  1.00  0.00     0.173 A 
ATOM     75  C   UNL A   1      38.786  33.629  38.013  1.00  0.00     0.173 A 
ATOM     76  F   UNL A   1      40.998  35.648  35.960  1.00  0.00    -0.203 F 
ATOM     77  C   UNL A   1      40.142  36.048  38.116  1.00  0.00     0.198 A 
ATOM     78  C   UNL A   1      38.679  34.444  39.138  1.00  0.00     0.198 A 
ATOM     79  F   UNL A   1      38.125  32.462  37.994  1.00  0.00    -0.203 F 
ATOM     80  F   UNL A   1      40.826  37.198  38.175  1.00  0.00    -0.200 F 
ATOM     81  C   UNL A   1      39.362  35.649  39.193  1.00  0.00     0.200 A 
ATOM     82  F   UNL A   1      37.914  34.061  40.170  1.00  0.00    -0.200 F 
ATOM     83  F   UNL A   1      39.278  36.421  40.284  1.00  0.00    -0.200 F 
ENDBRANCH  49  73
BRANCH  61  84
ATOM     84  C   UNL A   1      43.827  28.784  35.188  1.00  0.00     0.064 A 
ATOM     85  C   UNL A   1      45.133  29.271  35.037  1.00  0.00     0.173 A 
ATOM     86  C   UNL A   1      43.622  27.706  36.062  1.00  0.00     0.173 A 
ATOM     87  F   UNL A   1      45.382  30.290  34.201  1.00  0.00    -0.203 F 
ATOM     88  C   UNL A   1      46.197  28.684  35.717  1.00  0.00     0.198 A 
ATOM     89  C   UNL A   1      44.683  27.141  36.763  1.00  0.00     0.198 A 
ATOM     90  F   UNL A   1      42.390  27.209  36.245  1.00  0.00    -0.203 F 
ATOM     91  F   UNL A   1      47.444  29.136  35.524  1.00  0.00    -0.200 F 
ATOM     92  C   UNL A   1      45.971  27.627  36.585  1.00  0.00     0.200 A 
ATOM     93  F   UNL A   1      44.461  26.127  37.611  1.00  0.00    -0.200 F 
ATOM     94  F   UNL A   1      46.995  27.068  37.245  1.00  0.00    -0.200 F 
ENDBRANCH  61  84
ENDBRANCH  35  36
ENDBRANCH  27  30
ENDBRANCH  25  26
ENDBRANCH  24  25
ENDBRANCH  23  24
ENDBRANCH   1  23
TORSDOF 17
ENDMDL
MODEL 2
REMARK VINA RESULT:     -11.3      1.016      7.437
REMARK SMILES CC(=O)N[C@@H](C(=O)N(CC(=O)NCCCCNC(=O)c1ccc(-c2c3nc(c(-c4c(F)c(F)c(F)c(F)c4F)c4ccc([nH]4)c(-c4c(F)c(F)c(F)c(F)c4F)c4nc(c(-c5c(F)c(F)c(F)c(F)c5F)c5ccc2[nH]5)C=C4)C=C3)cc1)C(C)(C)C)C(C)C
REMARK SMILES IDX 13 1 12 2 10 3 11 4 9 6 8 7 6 8 7 9 5 10 4 11 1 12 2 13 3 14
REMARK SMILES IDX 87 16 88 17 89 18 83 19 84 20 85 21 86 22 14 23 15 24 16 25
REMARK SMILES IDX 17 26 18 27 19 29 20 30 21 31 82 32 22 33 81 34 23 35 24 36
REMARK SMILES IDX 25 37 75 38 26 39 80 40 74 41 76 42 27 43 79 44 73 45 72 46
REMARK SMILES IDX 28 48 60 49 40 50 59 51 41 52 44 53 58 54 77 55 42 56 43 57
REMARK SMILES IDX 57 59 78 60 45 61 29 62 30 63 38 64 31 65 32 66 36 67 39 68
REMARK SMILES IDX 33 69 34 70 37 71 35 72 61 73 62 74 70 75 63 76 64 77 68 78
REMARK SMILES IDX 71 79 65 80 66 81 69 82 67 83 46 84 47 85 55 86 48 87 49 88
REMARK SMILES IDX 53 89 56 90 50 91 51 92 54 93 52 94
REMARK H PARENT 12 5 4 15 17 28 76 47 44 58
REMARK Flexibility Score: inf
ROOT
ATOM      1  C   UNL A   1      32.009  29.593  27.270  1.00  0.00     0.116 C 
ENDROOT
BRANCH   1   2
ATOM      2  N   UNL A   1      33.024  28.598  27.035  1.00  0.00    -0.355 N 
ATOM      3  C   UNL A   1      32.863  27.340  26.528  1.00  0.00     0.239 C 
ATOM      4  O   UNL A   1      33.861  26.787  26.055  1.00  0.00    -0.273 OA
ATOM      5  H   UNL A   1      33.945  28.856  27.269  1.00  0.00     0.163 HD
BRANCH   3   6
ATOM      6  C   UNL A   1      31.475  26.667  26.410  1.00  0.00     0.220 C 
BRANCH   6   7
ATOM      7  N   UNL A   1      31.382  25.411  25.645  1.00  0.00    -0.327 N 
BRANCH   7   8
ATOM      8  C   UNL A   1      31.560  24.142  26.238  1.00  0.00     0.246 C 
ATOM      9  O   UNL A   1      30.818  23.786  27.160  1.00  0.00    -0.272 OA
BRANCH   8  10
ATOM     10  C   UNL A   1      32.728  23.157  25.778  1.00  0.00     0.174 C 
BRANCH  10  11
ATOM     11  N   UNL A   1      32.332  21.742  25.829  1.00  0.00    -0.344 N 
ATOM     12  C   UNL A   1      32.596  21.193  23.433  1.00  0.00     0.114 C 
ATOM     13  C   UNL A   1      32.254  20.806  24.844  1.00  0.00     0.217 C 
ATOM     14  O   UNL A   1      31.904  19.666  25.144  1.00  0.00    -0.275 OA
ATOM     15  H   UNL A   1      32.081  21.417  26.725  1.00  0.00     0.164 HD
ENDBRANCH  10  11
BRANCH  10  16
ATOM     16  C   UNL A   1      33.974  23.327  26.714  1.00  0.00     0.015 C 
ATOM     17  C   UNL A   1      33.987  22.353  27.904  1.00  0.00     0.010 C 
ATOM     18  C   UNL A   1      35.295  23.177  25.955  1.00  0.00     0.010 C 
ENDBRANCH  10  16
ENDBRANCH   8  10
ENDBRANCH   7   8
BRANCH   7  19
ATOM     19  C   UNL A   1      31.185  25.512  24.138  1.00  0.00     0.035 C 
ATOM     20  C   UNL A   1      30.365  26.754  23.736  1.00  0.00     0.034 C 
ATOM     21  C   UNL A   1      32.558  25.549  23.428  1.00  0.00     0.034 C 
ATOM     22  C   UNL A   1      30.434  24.302  23.512  1.00  0.00     0.034 C 
ENDBRANCH   7  19
ENDBRANCH   6   7
ENDBRANCH   3   6
ENDBRANCH   1   2
BRANCH   1  23
ATOM     23  C   UNL A   1      31.910  30.692  26.226  1.00  0.00     0.023 C 
BRANCH  23  24
ATOM     24  C   UNL A   1      31.554  32.058  26.778  1.00  0.00     0.023 C 
BRANCH  24  25
ATOM     25  C   UNL A   1      32.731  32.806  27.384  1.00  0.00     0.116 C 
BRANCH  25  26
ATOM     26  N   UNL A   1      32.429  34.203  27.679  1.00  0.00    -0.352 N 
ATOM     27  C   UNL A   1      32.991  35.026  28.624  1.00  0.00     0.251 C 
ATOM     28  H   UNL A   1      31.726  34.611  27.124  1.00  0.00     0.163 HD
ATOM     29  O   UNL A   1      32.531  36.140  28.848  1.00  0.00    -0.269 OA
BRANCH  27  30
ATOM     30  C   UNL A   1      34.142  34.526  29.398  1.00  0.00     0.039 A 
ATOM     31  C   UNL A   1      33.918  33.916  30.633  1.00  0.00     0.014 A 
ATOM     32  C   UNL A   1      35.425  34.579  28.849  1.00  0.00     0.014 A 
ATOM     33  C   UNL A   1      34.974  33.270  31.275  1.00  0.00     0.010 A 
ATOM     34  C   UNL A   1      36.448  33.852  29.439  1.00  0.00     0.010 A 
ATOM     35  C   UNL A   1      36.232  33.188  30.657  1.00  0.00    -0.014 A 
BRANCH  35  36
ATOM     36  C   UNL A   1      37.344  32.414  31.259  1.00  0.00     0.031 A 
ATOM     37  C   UNL A   1      37.855  32.783  32.622  1.00  0.00     0.074 A 
ATOM     38  C   UNL A   1      37.951  31.447  30.543  1.00  0.00     0.049 A 
ATOM     39  N   UNL A   1      38.882  32.309  33.279  1.00  0.00    -0.248 NA
ATOM     40  C   UNL A   1      37.136  33.857  33.327  1.00  0.00     0.031 C 
ATOM     41  C   UNL A   1      37.585  31.041  29.184  1.00  0.00     0.029 A 
ATOM     42  N   UNL A   1      39.016  30.639  30.854  1.00  0.00    -0.354 N 
ATOM     43  C   UNL A   1      38.945  33.041  34.456  1.00  0.00     0.074 A 
ATOM     44  C   UNL A   1      37.889  34.028  34.402  1.00  0.00     0.031 C 
ATOM     45  C   UNL A   1      38.398  30.048  28.787  1.00  0.00     0.029 A 
ATOM     46  C   UNL A   1      39.365  29.773  29.846  1.00  0.00     0.049 A 
ATOM     47  H   UNL A   1      39.485  30.676  31.719  1.00  0.00     0.167 HD
ATOM     48  C   UNL A   1      39.792  32.885  35.500  1.00  0.00     0.037 A 
ATOM     49  C   UNL A   1      40.358  28.867  29.784  1.00  0.00     0.037 A 
ATOM     50  C   UNL A   1      40.814  31.877  35.566  1.00  0.00     0.049 A 
ATOM     51  C   UNL A   1      41.273  28.702  30.966  1.00  0.00     0.074 A 
ATOM     52  C   UNL A   1      41.672  31.584  36.611  1.00  0.00     0.029 A 
ATOM     53  N   UNL A   1      41.113  30.992  34.541  1.00  0.00    -0.354 N 
ATOM     54  N   UNL A   1      41.275  29.348  32.107  1.00  0.00    -0.248 NA
ATOM     55  C   UNL A   1      42.321  27.678  30.855  1.00  0.00     0.031 C 
ATOM     56  C   UNL A   1      42.518  30.548  36.203  1.00  0.00     0.029 A 
ATOM     57  C   UNL A   1      42.158  30.166  34.921  1.00  0.00     0.049 A 
ATOM     58  H   UNL A   1      40.652  30.956  33.672  1.00  0.00     0.167 HD
ATOM     59  C   UNL A   1      42.304  28.795  32.857  1.00  0.00     0.074 A 
ATOM     60  C   UNL A   1      42.894  27.748  32.048  1.00  0.00     0.031 C 
ATOM     61  C   UNL A   1      42.725  29.125  34.103  1.00  0.00     0.037 A 
BRANCH  48  62
ATOM     62  C   UNL A   1      39.639  33.823  36.661  1.00  0.00     0.064 A 
ATOM     63  C   UNL A   1      38.869  33.482  37.784  1.00  0.00     0.173 A 
ATOM     64  C   UNL A   1      40.295  35.063  36.667  1.00  0.00     0.173 A 
ATOM     65  F   UNL A   1      38.209  32.315  37.822  1.00  0.00    -0.203 F 
ATOM     66  C   UNL A   1      38.739  34.361  38.857  1.00  0.00     0.198 A 
ATOM     67  C   UNL A   1      40.188  35.925  37.754  1.00  0.00     0.198 A 
ATOM     68  F   UNL A   1      41.046  35.435  35.619  1.00  0.00    -0.203 F 
ATOM     69  F   UNL A   1      37.959  34.035  39.897  1.00  0.00    -0.200 F 
ATOM     70  C   UNL A   1      39.405  35.578  38.844  1.00  0.00     0.200 A 
ATOM     71  F   UNL A   1      40.840  37.096  37.746  1.00  0.00    -0.200 F 
ATOM     72  F   UNL A   1      39.286  36.418  39.881  1.00  0.00    -0.200 F 
ENDBRANCH  48  62
BRANCH  49  73
ATOM     73  C   UNL A   1      40.526  28.029  28.568  1.00  0.00     0.064 A 
ATOM     74  C   UNL A   1      41.299  28.477  27.487  1.00  0.00     0.173 A 
ATOM     75  C   UNL A   1      39.917  26.771  28.456  1.00  0.00     0.173 A 
ATOM     76  F   UNL A   1      41.885  29.683  27.539  1.00  0.00    -0.203 F 
ATOM     77  C   UNL A   1      41.436  27.711  26.333  1.00  0.00     0.198 A 
ATOM     78  C   UNL A   1      40.077  25.993  27.311  1.00  0.00     0.198 A 
ATOM     79  F   UNL A   1      39.172  26.294  29.464  1.00  0.00    -0.203 F 
ATOM     80  F   UNL A   1      42.142  28.184  25.296  1.00  0.00    -0.200 F 
ATOM     81  C   UNL A   1      40.830  26.466  26.247  1.00  0.00     0.200 A 
ATOM     82  F   UNL A   1      39.500  24.786  27.238  1.00  0.00    -0.200 F 
ATOM     83  F   UNL A   1      40.964  25.728  25.137  1.00  0.00    -0.200 F 
ENDBRANCH  49  73
BRANCH  61  84
ATOM     84  C   UNL A   1      43.857  28.327  34.678  1.00  0.00     0.064 A 
ATOM     85  C   UNL A   1      45.188  28.752  34.560  1.00  0.00     0.173 A 
ATOM     86  C   UNL A   1      43.603  27.147  35.392  1.00  0.00     0.173 A 
ATOM     87  F   UNL A   1      45.483  29.866  33.873  1.00  0.00    -0.203 F 
ATOM     88  C   UNL A   1      46.227  28.011  35.117  1.00  0.00     0.198 A 
ATOM     89  C   UNL A   1      44.640  26.424  35.973  1.00  0.00     0.198 A 
ATOM     90  F   UNL A   1      42.345  26.702  35.538  1.00  0.00    -0.203 F 
ATOM     91  F   UNL A   1      47.495  28.412  34.955  1.00  0.00    -0.200 F 
ATOM     92  C   UNL A   1      45.952  26.853  35.829  1.00  0.00     0.200 A 
ATOM     93  F   UNL A   1      44.372  25.312  36.672  1.00  0.00    -0.200 F 
ATOM     94  F   UNL A   1      46.952  26.145  36.372  1.00  0.00    -0.200 F 
ENDBRANCH  61  84
ENDBRANCH  35  36
ENDBRANCH  27  30
ENDBRANCH  25  26
ENDBRANCH  24  25
ENDBRANCH  23  24
ENDBRANCH   1  23
TORSDOF 17
ENDMDL
MODEL 3
REMARK VINA RESULT:     -11.3      1.023      7.422
REMARK SMILES CC(=O)N[C@@H](C(=O)N(CC(=O)NCCCCNC(=O)c1ccc(-c2c3nc(c(-c4c(F)c(F)c(F)c(F)c4F)c4ccc([nH]4)c(-c4c(F)c(F)c(F)c(F)c4F)c4nc(c(-c5c(F)c(F)c(F)c(F)c5F)c5ccc2[nH]5)C=C4)C=C3)cc1)C(C)(C)C)C(C)C
REMARK SMILES IDX 13 1 12 2 10 3 11 4 9 6 8 7 6 8 7 9 5 10 4 11 1 12 2 13 3 14
REMARK SMILES IDX 87 16 88 17 89 18 83 19 84 20 85 21 86 22 14 23 15 24 16 25
REMARK SMILES IDX 17 26 18 27 19 29 20 30 21 31 82 32 22 33 81 34 23 35 24 36
REMARK SMILES IDX 25 37 75 38 26 39 80 40 74 41 76 42 27 43 79 44 73 45 72 46
REMARK SMILES IDX 28 48 60 49 40 50 59 51 41 52 44 53 58 54 77 55 42 56 43 57
REMARK SMILES IDX 57 59 78 60 45 61 29 62 30 63 38 64 31 65 32 66 36 67 39 68
REMARK SMILES IDX 33 69 34 70 37 71 35 72 61 73 62 74 70 75 63 76 64 77 68 78
REMARK SMILES IDX 71 79 65 80 66 81 69 82 67 83 46 84 47 85 55 86 48 87 49 88
REMARK SMILES IDX 53 89 56 90 50 91 51 92 54 93 52 94
REMARK H PARENT 12 5 4 15 17 28 76 47 44 58
REMARK Flexibility Score: inf
ROOT
ATOM      1  C   UNL A   1      32.297  29.709  27.258  1.00  0.00     0.116 C 
ENDROOT
BRANCH   1   2
ATOM      2  N   UNL A   1      31.590  28.456  27.323  1.00  0.00    -0.355 N 
ATOM      3  C   UNL A   1      31.765  27.352  26.536  1.00  0.00     0.239 C 
ATOM      4  O   UNL A   1      31.350  26.274  26.971  1.00  0.00    -0.273 OA
ATOM      5  H   UNL A   1      30.896  28.385  28.018  1.00  0.00     0.163 HD
BRANCH   3   6
ATOM      6  C   UNL A   1      32.572  27.398  25.216  1.00  0.00     0.220 C 
BRANCH   6   7
ATOM      7  N   UNL A   1      32.319  26.342  24.219  1.00  0.00    -0.327 N 
BRANCH   7   8
ATOM      8  C   UNL A   1      33.096  25.167  24.140  1.00  0.00     0.246 C 
ATOM      9  O   UNL A   1      34.262  25.227  23.733  1.00  0.00    -0.272 OA
BRANCH   8  10
ATOM     10  C   UNL A   1      32.500  23.738  24.525  1.00  0.00     0.174 C 
BRANCH  10  11
ATOM     11  N   UNL A   1      32.725  23.389  25.936  1.00  0.00    -0.344 N 
ATOM     12  C   UNL A   1      30.395  22.852  26.564  1.00  0.00     0.114 C 
ATOM     13  C   UNL A   1      31.853  22.982  26.899  1.00  0.00     0.217 C 
ATOM     14  O   UNL A   1      32.292  22.732  28.020  1.00  0.00    -0.275 OA
ATOM     15  H   UNL A   1      33.660  23.462  26.233  1.00  0.00     0.164 HD
ENDBRANCH  10  11
BRANCH  10  16
ATOM     16  C   UNL A   1      33.174  22.622  23.655  1.00  0.00     0.015 C 
ATOM     17  C   UNL A   1      34.115  21.705  24.453  1.00  0.00     0.010 C 
ATOM     18  C   UNL A   1      32.146  21.746  22.935  1.00  0.00     0.010 C 
ENDBRANCH  10  16
ENDBRANCH   8  10
ENDBRANCH   7   8
BRANCH   7  19
ATOM     19  C   UNL A   1      31.235  26.595  23.179  1.00  0.00     0.035 C 
ATOM     20  C   UNL A   1      31.624  26.066  21.785  1.00  0.00     0.034 C 
ATOM     21  C   UNL A   1      29.910  25.939  23.629  1.00  0.00     0.034 C 
ATOM     22  C   UNL A   1      30.895  28.099  22.970  1.00  0.00     0.034 C 
ENDBRANCH   7  19
ENDBRANCH   6   7
ENDBRANCH   3   6
ENDBRANCH   1   2
BRANCH   1  23
ATOM     23  C   UNL A   1      31.836  30.671  26.177  1.00  0.00     0.023 C 
BRANCH  23  24
ATOM     24  C   UNL A   1      31.497  32.063  26.673  1.00  0.00     0.023 C 
BRANCH  24  25
ATOM     25  C   UNL A   1      32.650  32.772  27.364  1.00  0.00     0.116 C 
BRANCH  25  26
ATOM     26  N   UNL A   1      32.376  34.179  27.634  1.00  0.00    -0.352 N 
ATOM     27  C   UNL A   1      32.962  35.011  28.557  1.00  0.00     0.251 C 
ATOM     28  H   UNL A   1      31.675  34.589  27.077  1.00  0.00     0.163 HD
ATOM     29  O   UNL A   1      32.524  36.137  28.763  1.00  0.00    -0.269 OA
BRANCH  27  30
ATOM     30  C   UNL A   1      34.110  34.505  29.330  1.00  0.00     0.039 A 
ATOM     31  C   UNL A   1      33.882  33.862  30.548  1.00  0.00     0.014 A 
ATOM     32  C   UNL A   1      35.398  34.587  28.797  1.00  0.00     0.014 A 
ATOM     33  C   UNL A   1      34.939  33.213  31.185  1.00  0.00     0.010 A 
ATOM     34  C   UNL A   1      36.425  33.858  29.380  1.00  0.00     0.010 A 
ATOM     35  C   UNL A   1      36.204  33.161  30.578  1.00  0.00    -0.014 A 
BRANCH  35  36
ATOM     36  C   UNL A   1      37.319  32.386  31.172  1.00  0.00     0.031 A 
ATOM     37  C   UNL A   1      37.824  32.739  32.542  1.00  0.00     0.074 A 
ATOM     38  C   UNL A   1      37.934  31.432  30.445  1.00  0.00     0.049 A 
ATOM     39  N   UNL A   1      38.852  32.263  33.195  1.00  0.00    -0.248 NA
ATOM     40  C   UNL A   1      37.096  33.799  33.259  1.00  0.00     0.031 C 
ATOM     41  C   UNL A   1      37.574  31.043  29.080  1.00  0.00     0.029 A 
ATOM     42  N   UNL A   1      39.003  30.627  30.748  1.00  0.00    -0.354 N 
ATOM     43  C   UNL A   1      38.908  32.978  34.382  1.00  0.00     0.074 A 
ATOM     44  C   UNL A   1      37.846  33.960  34.339  1.00  0.00     0.031 C 
ATOM     45  C   UNL A   1      38.394  30.061  28.671  1.00  0.00     0.029 A 
ATOM     46  C   UNL A   1      39.359  29.777  29.729  1.00  0.00     0.049 A 
ATOM     47  H   UNL A   1      39.469  30.655  31.614  1.00  0.00     0.167 HD
ATOM     48  C   UNL A   1      39.753  32.814  35.426  1.00  0.00     0.037 A 
ATOM     49  C   UNL A   1      40.359  28.878  29.657  1.00  0.00     0.037 A 
ATOM     50  C   UNL A   1      40.780  31.810  35.481  1.00  0.00     0.049 A 
ATOM     51  C   UNL A   1      41.271  28.702  30.839  1.00  0.00     0.074 A 
ATOM     52  C   UNL A   1      41.637  31.509  36.524  1.00  0.00     0.029 A 
ATOM     53  N   UNL A   1      41.087  30.942  34.445  1.00  0.00    -0.354 N 
ATOM     54  N   UNL A   1      41.266  29.332  31.989  1.00  0.00    -0.248 NA
ATOM     55  C   UNL A   1      42.326  27.686  30.717  1.00  0.00     0.031 C 
ATOM     56  C   UNL A   1      42.491  30.484  36.105  1.00  0.00     0.029 A 
ATOM     57  C   UNL A   1      42.136  30.117  34.817  1.00  0.00     0.049 A 
ATOM     58  H   UNL A   1      40.629  30.915  33.574  1.00  0.00     0.167 HD
ATOM     59  C   UNL A   1      42.297  28.775  32.734  1.00  0.00     0.074 A 
ATOM     60  C   UNL A   1      42.896  27.743  31.913  1.00  0.00     0.031 C 
ATOM     61  C   UNL A   1      42.712  29.091  33.986  1.00  0.00     0.037 A 
BRANCH  48  62
ATOM     62  C   UNL A   1      39.591  33.734  36.600  1.00  0.00     0.064 A 
ATOM     63  C   UNL A   1      40.209  34.994  36.636  1.00  0.00     0.173 A 
ATOM     64  C   UNL A   1      38.784  33.368  37.687  1.00  0.00     0.173 A 
ATOM     65  F   UNL A   1      41.003  35.386  35.629  1.00  0.00    -0.203 F 
ATOM     66  C   UNL A   1      40.046  35.840  37.730  1.00  0.00     0.198 A 
ATOM     67  C   UNL A   1      38.600  34.229  38.765  1.00  0.00     0.198 A 
ATOM     68  F   UNL A   1      38.169  32.175  37.701  1.00  0.00    -0.203 F 
ATOM     69  F   UNL A   1      40.685  37.018  37.764  1.00  0.00    -0.200 F 
ATOM     70  C   UNL A   1      39.236  35.460  38.790  1.00  0.00     0.200 A 
ATOM     71  F   UNL A   1      37.808  33.865  39.783  1.00  0.00    -0.200 F 
ATOM     72  F   UNL A   1      39.075  36.279  39.838  1.00  0.00    -0.200 F 
ENDBRANCH  48  62
BRANCH  49  73
ATOM     73  C   UNL A   1      40.535  28.057  28.430  1.00  0.00     0.064 A 
ATOM     74  C   UNL A   1      39.944  26.791  28.322  1.00  0.00     0.173 A 
ATOM     75  C   UNL A   1      41.299  28.515  27.348  1.00  0.00     0.173 A 
ATOM     76  F   UNL A   1      39.221  26.301  29.339  1.00  0.00    -0.203 F 
ATOM     77  C   UNL A   1      40.130  26.004  27.188  1.00  0.00     0.198 A 
ATOM     78  C   UNL A   1      41.463  27.738  26.202  1.00  0.00     0.198 A 
ATOM     79  F   UNL A   1      41.881  29.722  27.399  1.00  0.00    -0.203 F 
ATOM     80  F   UNL A   1      39.592  24.777  27.130  1.00  0.00    -0.200 F 
ATOM     81  C   UNL A   1      40.884  26.480  26.126  1.00  0.00     0.200 A 
ATOM     82  F   UNL A   1      42.181  28.208  25.173  1.00  0.00    -0.200 F 
ATOM     83  F   UNL A   1      41.061  25.724  25.034  1.00  0.00    -0.200 F 
ENDBRANCH  49  73
BRANCH  61  84
ATOM     84  C   UNL A   1      43.848  28.292  34.552  1.00  0.00     0.064 A 
ATOM     85  C   UNL A   1      45.177  28.725  34.440  1.00  0.00     0.173 A 
ATOM     86  C   UNL A   1      43.599  27.103  35.254  1.00  0.00     0.173 A 
ATOM     87  F   UNL A   1      45.467  29.847  33.766  1.00  0.00    -0.203 F 
ATOM     88  C   UNL A   1      46.218  27.982  34.990  1.00  0.00     0.198 A 
ATOM     89  C   UNL A   1      44.639  26.379  35.827  1.00  0.00     0.198 A 
ATOM     90  F   UNL A   1      42.343  26.651  35.394  1.00  0.00    -0.203 F 
ATOM     91  F   UNL A   1      47.485  28.390  34.833  1.00  0.00    -0.200 F 
ATOM     92  C   UNL A   1      45.948  26.815  35.689  1.00  0.00     0.200 A 
ATOM     93  F   UNL A   1      44.375  25.258  36.514  1.00  0.00    -0.200 F 
ATOM     94  F   UNL A   1      46.952  26.106  36.225  1.00  0.00    -0.200 F 
ENDBRANCH  61  84
ENDBRANCH  35  36
ENDBRANCH  27  30
ENDBRANCH  25  26
ENDBRANCH  24  25
ENDBRANCH  23  24
ENDBRANCH   1  23
TORSDOF 17
ENDMDL
