MODEL 1
REMARK VINA RESULT:     -12.5      0.000      0.000
REMARK SMILES O=C(NCCCCNC(=O)c1cc(=O)[nH]c2c(Br)cccc12)c1ccc(-c2c3nc(c(-c4c(F)c(F)c(F)c(F)c4F)c4ccc([nH]4)c(-c4c(F)c(F)c(F)c(F)c4F)c4nc(c(-c5c(F)c(F)c(F)c(F)c5F)c5ccc2[nH]5)C=C4)C=C3)cc1
REMARK SMILES IDX 4 1 3 2 1 3 2 4 23 6 24 7 85 8 25 9 84 10 26 11 27 12 28 13
REMARK SMILES IDX 78 14 29 15 83 16 77 17 79 18 30 19 82 20 76 21 75 22 31 24
REMARK SMILES IDX 63 25 43 26 62 27 44 28 47 29 61 30 80 31 45 32 46 33 60 35
REMARK SMILES IDX 81 36 48 37 32 38 33 39 41 40 34 41 35 42 39 43 42 44 36 45
REMARK SMILES IDX 37 46 40 47 38 48 64 49 65 50 73 51 66 52 67 53 71 54 74 55
REMARK SMILES IDX 68 56 69 57 72 58 70 59 49 60 50 61 58 62 51 63 52 64 56 65
REMARK SMILES IDX 59 66 53 67 54 68 57 69 55 70 5 71 6 72 7 73 8 74 9 75 10 77
REMARK SMILES IDX 11 78 12 79 22 80 13 81 16 82 21 83 14 84 15 85 17 86 20 87
REMARK SMILES IDX 18 89 19 90
REMARK H PARENT 3 5 79 23 47 34 8 76 15 88
REMARK Flexibility Score: inf
ROOT
ATOM      1  C   UNL A   1      32.571  32.383  27.031  1.00  0.00     0.116 C 
ENDROOT
BRANCH   1   2
ATOM      2  N   UNL A   1      32.464  33.756  27.495  1.00  0.00    -0.352 N 
ATOM      3  O   UNL A   1      32.835  35.535  28.820  1.00  0.00    -0.269 OA
ATOM      4  C   UNL A   1      33.181  34.413  28.463  1.00  0.00     0.251 C 
ATOM      5  H   UNL A   1      31.772  34.295  27.049  1.00  0.00     0.163 HD
BRANCH   4   6
ATOM      6  C   UNL A   1      34.357  33.774  29.094  1.00  0.00     0.039 A 
ATOM      7  C   UNL A   1      35.632  34.242  28.760  1.00  0.00     0.014 A 
ATOM      8  C   UNL A   1      34.220  32.701  29.979  1.00  0.00     0.014 A 
ATOM      9  C   UNL A   1      36.760  33.655  29.336  1.00  0.00     0.010 A 
ATOM     10  C   UNL A   1      35.341  32.179  30.622  1.00  0.00     0.010 A 
ATOM     11  C   UNL A   1      36.625  32.630  30.287  1.00  0.00    -0.014 A 
BRANCH  11  12
ATOM     12  C   UNL A   1      37.824  31.987  30.887  1.00  0.00     0.031 A 
ATOM     13  C   UNL A   1      38.267  32.371  32.274  1.00  0.00     0.074 A 
ATOM     14  C   UNL A   1      38.513  31.063  30.189  1.00  0.00     0.049 A 
ATOM     15  N   UNL A   1      39.282  31.924  32.970  1.00  0.00    -0.248 NA
ATOM     16  C   UNL A   1      37.482  33.407  32.967  1.00  0.00     0.031 C 
ATOM     17  C   UNL A   1      38.202  30.629  28.827  1.00  0.00     0.029 A 
ATOM     18  N   UNL A   1      39.610  30.310  30.533  1.00  0.00    -0.354 N 
ATOM     19  C   UNL A   1      39.255  32.623  34.170  1.00  0.00     0.074 A 
ATOM     20  C   UNL A   1      38.168  33.571  34.088  1.00  0.00     0.031 C 
ATOM     21  C   UNL A   1      39.059  29.660  28.468  1.00  0.00     0.029 A 
ATOM     22  C   UNL A   1      40.004  29.429  29.557  1.00  0.00     0.049 A 
ATOM     23  H   UNL A   1      40.071  30.397  31.400  1.00  0.00     0.167 HD
ATOM     24  C   UNL A   1      40.041  32.460  35.260  1.00  0.00     0.037 A 
ATOM     25  C   UNL A   1      41.012  28.533  29.541  1.00  0.00     0.037 A 
ATOM     26  C   UNL A   1      41.097  31.491  35.356  1.00  0.00     0.049 A 
ATOM     27  C   UNL A   1      41.888  28.393  30.758  1.00  0.00     0.074 A 
ATOM     28  C   UNL A   1      41.920  31.222  36.435  1.00  0.00     0.029 A 
ATOM     29  N   UNL A   1      41.471  30.626  34.339  1.00  0.00    -0.354 N 
ATOM     30  N   UNL A   1      41.813  29.021  31.907  1.00  0.00    -0.248 NA
ATOM     31  C   UNL A   1      42.987  27.420  30.681  1.00  0.00     0.031 C 
ATOM     32  C   UNL A   1      42.827  30.230  36.055  1.00  0.00     0.029 A 
ATOM     33  C   UNL A   1      42.530  29.839  34.760  1.00  0.00     0.049 A 
ATOM     34  H   UNL A   1      41.048  30.578  33.451  1.00  0.00     0.167 HD
ATOM     35  C   UNL A   1      42.828  28.498  32.696  1.00  0.00     0.074 A 
ATOM     36  C   UNL A   1      43.501  27.492  31.901  1.00  0.00     0.031 C 
ATOM     37  C   UNL A   1      43.172  28.824  33.965  1.00  0.00     0.037 A 
BRANCH  24  38
ATOM     38  C   UNL A   1      39.779  33.325  36.458  1.00  0.00     0.064 A 
ATOM     39  C   UNL A   1      40.407  34.570  36.613  1.00  0.00     0.173 A 
ATOM     40  C   UNL A   1      38.813  32.954  37.407  1.00  0.00     0.173 A 
ATOM     41  F   UNL A   1      41.346  34.965  35.740  1.00  0.00    -0.203 F 
ATOM     42  C   UNL A   1      40.083  35.408  37.675  1.00  0.00     0.198 A 
ATOM     43  C   UNL A   1      38.469  33.810  38.451  1.00  0.00     0.198 A 
ATOM     44  F   UNL A   1      38.178  31.776  37.302  1.00  0.00    -0.203 F 
ATOM     45  F   UNL A   1      40.714  36.582  37.816  1.00  0.00    -0.200 F 
ATOM     46  C   UNL A   1      39.105  35.035  38.584  1.00  0.00     0.200 A 
ATOM     47  F   UNL A   1      37.512  33.454  39.318  1.00  0.00    -0.200 F 
ATOM     48  F   UNL A   1      38.773  35.857  39.590  1.00  0.00    -0.200 F 
ENDBRANCH  24  38
BRANCH  25  49
ATOM     49  C   UNL A   1      41.224  27.672  28.347  1.00  0.00     0.064 A 
ATOM     50  C   UNL A   1      42.102  28.059  27.324  1.00  0.00     0.173 A 
ATOM     51  C   UNL A   1      40.558  26.445  28.200  1.00  0.00     0.173 A 
ATOM     52  F   UNL A   1      42.747  29.232  27.405  1.00  0.00    -0.203 F 
ATOM     53  C   UNL A   1      42.292  27.264  26.196  1.00  0.00     0.198 A 
ATOM     54  C   UNL A   1      40.774  25.635  27.087  1.00  0.00     0.198 A 
ATOM     55  F   UNL A   1      39.709  26.024  29.149  1.00  0.00    -0.203 F 
ATOM     56  F   UNL A   1      43.103  27.681  25.214  1.00  0.00    -0.200 F 
ATOM     57  C   UNL A   1      41.634  26.049  26.082  1.00  0.00     0.200 A 
ATOM     58  F   UNL A   1      40.149  24.454  26.990  1.00  0.00    -0.200 F 
ATOM     59  F   UNL A   1      41.825  25.279  25.002  1.00  0.00    -0.200 F 
ENDBRANCH  25  49
BRANCH  37  60
ATOM     60  C   UNL A   1      44.302  28.073  34.607  1.00  0.00     0.064 A 
ATOM     61  C   UNL A   1      45.612  28.571  34.599  1.00  0.00     0.173 A 
ATOM     62  C   UNL A   1      44.047  26.901  35.338  1.00  0.00     0.173 A 
ATOM     63  F   UNL A   1      45.907  29.681  33.906  1.00  0.00    -0.203 F 
ATOM     64  C   UNL A   1      46.628  27.921  35.295  1.00  0.00     0.198 A 
ATOM     65  C   UNL A   1      45.058  26.273  36.059  1.00  0.00     0.198 A 
ATOM     66  F   UNL A   1      42.808  26.391  35.387  1.00  0.00    -0.203 F 
ATOM     67  F   UNL A   1      47.878  28.404  35.255  1.00  0.00    -0.200 F 
ATOM     68  C   UNL A   1      46.347  26.783  36.036  1.00  0.00     0.200 A 
ATOM     69  F   UNL A   1      44.780  25.185  36.791  1.00  0.00    -0.200 F 
ATOM     70  F   UNL A   1      47.320  26.177  36.730  1.00  0.00    -0.200 F 
ENDBRANCH  37  60
ENDBRANCH  11  12
ENDBRANCH   4   6
ENDBRANCH   1   2
BRANCH   1  71
ATOM     71  C   UNL A   1      31.263  31.847  26.461  1.00  0.00     0.023 C 
BRANCH  71  72
ATOM     72  C   UNL A   1      31.361  30.491  25.766  1.00  0.00     0.023 C 
BRANCH  72  73
ATOM     73  C   UNL A   1      32.757  29.878  25.727  1.00  0.00     0.116 C 
BRANCH  73  74
ATOM     74  N   UNL A   1      33.237  29.666  24.370  1.00  0.00    -0.352 N 
ATOM     75  C   UNL A   1      32.997  28.628  23.516  1.00  0.00     0.252 C 
ATOM     76  H   UNL A   1      33.820  30.376  24.015  1.00  0.00     0.163 HD
ATOM     77  O   UNL A   1      33.556  28.592  22.424  1.00  0.00    -0.269 OA
BRANCH  75  78
ATOM     78  C   UNL A   1      32.084  27.545  23.953  1.00  0.00     0.054 A 
ATOM     79  C   UNL A   1      30.799  27.662  23.578  1.00  0.00     0.086 A 
ATOM     80  C   UNL A   1      32.534  26.364  24.709  1.00  0.00     0.012 A 
ATOM     81  C   UNL A   1      29.783  26.697  24.034  1.00  0.00     0.249 A 
ATOM     82  C   UNL A   1      31.572  25.420  25.107  1.00  0.00     0.063 A 
ATOM     83  C   UNL A   1      33.876  26.147  25.050  1.00  0.00     0.011 A 
ATOM     84  O   UNL A   1      28.598  26.874  23.772  1.00  0.00    -0.270 OA
ATOM     85  N   UNL A   1      30.226  25.637  24.766  1.00  0.00    -0.321 N 
ATOM     86  C   UNL A   1      31.953  24.283  25.831  1.00  0.00     0.042 A 
ATOM     87  C   UNL A   1      34.253  25.009  25.768  1.00  0.00     0.002 A 
ATOM     88  H   UNL A   1      29.560  24.982  25.077  1.00  0.00     0.170 HD
ATOM     89  Br  UNL A   1      30.681  22.986  26.382  1.00  0.00    -0.049 Br
ATOM     90  C   UNL A   1      33.294  24.077  26.158  1.00  0.00     0.018 A 
ENDBRANCH  75  78
ENDBRANCH  73  74
ENDBRANCH  72  73
ENDBRANCH  71  72
ENDBRANCH   1  71
TORSDOF 11
ENDMDL
MODEL 2
REMARK VINA RESULT:     -12.5      0.311      1.303
REMARK SMILES O=C(NCCCCNC(=O)c1cc(=O)[nH]c2c(Br)cccc12)c1ccc(-c2c3nc(c(-c4c(F)c(F)c(F)c(F)c4F)c4ccc([nH]4)c(-c4c(F)c(F)c(F)c(F)c4F)c4nc(c(-c5c(F)c(F)c(F)c(F)c5F)c5ccc2[nH]5)C=C4)C=C3)cc1
REMARK SMILES IDX 4 1 3 2 1 3 2 4 23 6 24 7 85 8 25 9 84 10 26 11 27 12 28 13
REMARK SMILES IDX 78 14 29 15 83 16 77 17 79 18 30 19 82 20 76 21 75 22 31 24
REMARK SMILES IDX 63 25 43 26 62 27 44 28 47 29 61 30 80 31 45 32 46 33 60 35
REMARK SMILES IDX 81 36 48 37 32 38 33 39 41 40 34 41 35 42 39 43 42 44 36 45
REMARK SMILES IDX 37 46 40 47 38 48 64 49 65 50 73 51 66 52 67 53 71 54 74 55
REMARK SMILES IDX 68 56 69 57 72 58 70 59 49 60 50 61 58 62 51 63 52 64 56 65
REMARK SMILES IDX 59 66 53 67 54 68 57 69 55 70 5 71 6 72 7 73 8 74 9 75 10 77
REMARK SMILES IDX 11 78 12 79 22 80 13 81 16 82 21 83 14 84 15 85 17 86 20 87
REMARK SMILES IDX 18 89 19 90
REMARK H PARENT 3 5 79 23 47 34 8 76 15 88
REMARK Flexibility Score: inf
ROOT
ATOM      1  C   UNL A   1      32.646  32.371  27.102  1.00  0.00     0.116 C 
ENDROOT
BRANCH   1   2
ATOM      2  N   UNL A   1      32.603  33.753  27.548  1.00  0.00    -0.352 N 
ATOM      3  O   UNL A   1      33.093  35.540  28.822  1.00  0.00    -0.269 OA
ATOM      4  C   UNL A   1      33.388  34.403  28.467  1.00  0.00     0.251 C 
ATOM      5  H   UNL A   1      31.905  34.306  27.129  1.00  0.00     0.163 HD
BRANCH   4   6
ATOM      6  C   UNL A   1      34.576  33.740  29.048  1.00  0.00     0.039 A 
ATOM      7  C   UNL A   1      34.382  32.668  29.924  1.00  0.00     0.014 A 
ATOM      8  C   UNL A   1      35.872  34.183  28.769  1.00  0.00     0.014 A 
ATOM      9  C   UNL A   1      35.484  32.026  30.492  1.00  0.00     0.010 A 
ATOM     10  C   UNL A   1      36.971  33.484  29.263  1.00  0.00     0.010 A 
ATOM     11  C   UNL A   1      36.790  32.415  30.152  1.00  0.00    -0.014 A 
BRANCH  11  12
ATOM     12  C   UNL A   1      37.967  31.750  30.771  1.00  0.00     0.031 A 
ATOM     13  C   UNL A   1      38.370  32.096  32.180  1.00  0.00     0.074 A 
ATOM     14  C   UNL A   1      38.673  30.840  30.071  1.00  0.00     0.049 A 
ATOM     15  N   UNL A   1      39.361  31.625  32.895  1.00  0.00    -0.248 NA
ATOM     16  C   UNL A   1      37.568  33.118  32.876  1.00  0.00     0.031 C 
ATOM     17  C   UNL A   1      38.402  30.444  28.689  1.00  0.00     0.029 A 
ATOM     18  N   UNL A   1      39.755  30.073  30.429  1.00  0.00    -0.354 N 
ATOM     19  C   UNL A   1      39.300  32.293  34.112  1.00  0.00     0.074 A 
ATOM     20  C   UNL A   1      38.221  33.249  34.021  1.00  0.00     0.031 C 
ATOM     21  C   UNL A   1      39.264  29.479  28.331  1.00  0.00     0.029 A 
ATOM     22  C   UNL A   1      40.175  29.215  29.442  1.00  0.00     0.049 A 
ATOM     23  H   UNL A   1      40.190  30.135  31.311  1.00  0.00     0.167 HD
ATOM     24  C   UNL A   1      40.052  32.098  35.220  1.00  0.00     0.037 A 
ATOM     25  C   UNL A   1      41.178  28.314  29.434  1.00  0.00     0.037 A 
ATOM     26  C   UNL A   1      41.100  31.120  35.323  1.00  0.00     0.049 A 
ATOM     27  C   UNL A   1      42.016  28.138  30.673  1.00  0.00     0.074 A 
ATOM     28  C   UNL A   1      41.888  30.819  36.419  1.00  0.00     0.029 A 
ATOM     29  N   UNL A   1      41.500  30.280  34.296  1.00  0.00    -0.354 N 
ATOM     30  N   UNL A   1      41.909  28.736  31.834  1.00  0.00    -0.248 NA
ATOM     31  C   UNL A   1      43.112  27.161  30.604  1.00  0.00     0.031 C 
ATOM     32  C   UNL A   1      42.801  29.832  36.041  1.00  0.00     0.029 A 
ATOM     33  C   UNL A   1      42.542  29.476  34.728  1.00  0.00     0.049 A 
ATOM     34  H   UNL A   1      41.105  30.258  33.394  1.00  0.00     0.167 HD
ATOM     35  C   UNL A   1      42.897  28.187  32.640  1.00  0.00     0.074 A 
ATOM     36  C   UNL A   1      43.588  27.199  31.841  1.00  0.00     0.031 C 
ATOM     37  C   UNL A   1      43.203  28.478  33.928  1.00  0.00     0.037 A 
BRANCH  24  38
ATOM     38  C   UNL A   1      39.757  32.933  36.432  1.00  0.00     0.064 A 
ATOM     39  C   UNL A   1      40.420  34.148  36.662  1.00  0.00     0.173 A 
ATOM     40  C   UNL A   1      38.730  32.568  37.317  1.00  0.00     0.173 A 
ATOM     41  F   UNL A   1      41.417  34.535  35.852  1.00  0.00    -0.203 F 
ATOM     42  C   UNL A   1      40.070  34.963  37.733  1.00  0.00     0.198 A 
ATOM     43  C   UNL A   1      38.362  33.402  38.369  1.00  0.00     0.198 A 
ATOM     44  F   UNL A   1      38.060  31.419  37.139  1.00  0.00    -0.203 F 
ATOM     45  F   UNL A   1      40.734  36.107  37.946  1.00  0.00    -0.200 F 
ATOM     46  C   UNL A   1      39.032  34.597  38.577  1.00  0.00     0.200 A 
ATOM     47  F   UNL A   1      37.348  33.055  39.173  1.00  0.00    -0.200 F 
ATOM     48  F   UNL A   1      38.677  35.398  39.592  1.00  0.00    -0.200 F 
ENDBRANCH  24  38
BRANCH  25  49
ATOM     49  C   UNL A   1      41.422  27.483  28.224  1.00  0.00     0.064 A 
ATOM     50  C   UNL A   1      40.746  26.269  28.033  1.00  0.00     0.173 A 
ATOM     51  C   UNL A   1      42.330  27.883  27.232  1.00  0.00     0.173 A 
ATOM     52  F   UNL A   1      39.883  25.832  28.962  1.00  0.00    -0.203 F 
ATOM     53  C   UNL A   1      40.982  25.480  26.910  1.00  0.00     0.198 A 
ATOM     54  C   UNL A   1      42.541  27.109  26.092  1.00  0.00     0.198 A 
ATOM     55  F   UNL A   1      43.002  29.037  27.361  1.00  0.00    -0.203 F 
ATOM     56  F   UNL A   1      40.356  24.303  26.777  1.00  0.00    -0.200 F 
ATOM     57  C   UNL A   1      41.874  25.904  25.936  1.00  0.00     0.200 A 
ATOM     58  F   UNL A   1      43.391  27.531  25.146  1.00  0.00    -0.200 F 
ATOM     59  F   UNL A   1      42.094  25.150  24.851  1.00  0.00    -0.200 F 
ENDBRANCH  25  49
BRANCH  37  60
ATOM     60  C   UNL A   1      44.309  27.705  34.583  1.00  0.00     0.064 A 
ATOM     61  C   UNL A   1      45.620  28.197  34.631  1.00  0.00     0.173 A 
ATOM     62  C   UNL A   1      44.027  26.514  35.273  1.00  0.00     0.173 A 
ATOM     63  F   UNL A   1      45.942  29.325  33.980  1.00  0.00    -0.203 F 
ATOM     64  C   UNL A   1      46.611  27.524  35.342  1.00  0.00     0.198 A 
ATOM     65  C   UNL A   1      45.012  25.862  36.007  1.00  0.00     0.198 A 
ATOM     66  F   UNL A   1      42.785  26.008  35.268  1.00  0.00    -0.203 F 
ATOM     67  F   UNL A   1      47.863  28.001  35.355  1.00  0.00    -0.200 F 
ATOM     68  C   UNL A   1      46.303  26.366  36.040  1.00  0.00     0.200 A 
ATOM     69  F   UNL A   1      44.707  24.754  36.699  1.00  0.00    -0.200 F 
ATOM     70  F   UNL A   1      47.251  25.737  36.747  1.00  0.00    -0.200 F 
ENDBRANCH  37  60
ENDBRANCH  11  12
ENDBRANCH   4   6
ENDBRANCH   1   2
BRANCH   1  71
ATOM     71  C   UNL A   1      31.353  31.924  26.431  1.00  0.00     0.023 C 
BRANCH  71  72
ATOM     72  C   UNL A   1      31.372  30.512  25.851  1.00  0.00     0.023 C 
BRANCH  72  73
ATOM     73  C   UNL A   1      32.749  29.862  25.765  1.00  0.00     0.116 C 
BRANCH  73  74
ATOM     74  N   UNL A   1      33.195  29.675  24.393  1.00  0.00    -0.352 N 
ATOM     75  C   UNL A   1      32.936  28.652  23.527  1.00  0.00     0.252 C 
ATOM     76  H   UNL A   1      33.767  30.392  24.036  1.00  0.00     0.163 HD
ATOM     77  O   UNL A   1      33.466  28.637  22.420  1.00  0.00    -0.269 OA
BRANCH  75  78
ATOM     78  C   UNL A   1      32.036  27.559  23.967  1.00  0.00     0.054 A 
ATOM     79  C   UNL A   1      30.749  27.660  23.596  1.00  0.00     0.086 A 
ATOM     80  C   UNL A   1      32.502  26.384  24.724  1.00  0.00     0.012 A 
ATOM     81  C   UNL A   1      29.746  26.685  24.055  1.00  0.00     0.249 A 
ATOM     82  C   UNL A   1      31.552  25.429  25.126  1.00  0.00     0.063 A 
ATOM     83  C   UNL A   1      33.847  26.183  25.061  1.00  0.00     0.011 A 
ATOM     84  O   UNL A   1      28.558  26.847  23.797  1.00  0.00    -0.270 OA
ATOM     85  N   UNL A   1      30.202  25.631  24.788  1.00  0.00    -0.321 N 
ATOM     86  C   UNL A   1      31.948  24.298  25.850  1.00  0.00     0.042 A 
ATOM     87  C   UNL A   1      34.240  25.051  25.780  1.00  0.00     0.002 A 
ATOM     88  H   UNL A   1      29.545  24.968  25.102  1.00  0.00     0.170 HD
ATOM     89  Br  UNL A   1      30.693  22.987  26.407  1.00  0.00    -0.049 Br
ATOM     90  C   UNL A   1      33.292  24.108  26.175  1.00  0.00     0.018 A 
ENDBRANCH  75  78
ENDBRANCH  73  74
ENDBRANCH  72  73
ENDBRANCH  71  72
ENDBRANCH   1  71
TORSDOF 11
ENDMDL
MODEL 3
REMARK VINA RESULT:     -12.4      5.502     10.814
REMARK SMILES O=C(NCCCCNC(=O)c1cc(=O)[nH]c2c(Br)cccc12)c1ccc(-c2c3nc(c(-c4c(F)c(F)c(F)c(F)c4F)c4ccc([nH]4)c(-c4c(F)c(F)c(F)c(F)c4F)c4nc(c(-c5c(F)c(F)c(F)c(F)c5F)c5ccc2[nH]5)C=C4)C=C3)cc1
REMARK SMILES IDX 4 1 3 2 1 3 2 4 23 6 24 7 85 8 25 9 84 10 26 11 27 12 28 13
REMARK SMILES IDX 78 14 29 15 83 16 77 17 79 18 30 19 82 20 76 21 75 22 31 24
REMARK SMILES IDX 63 25 43 26 62 27 44 28 47 29 61 30 80 31 45 32 46 33 60 35
REMARK SMILES IDX 81 36 48 37 32 38 33 39 41 40 34 41 35 42 39 43 42 44 36 45
REMARK SMILES IDX 37 46 40 47 38 48 64 49 65 50 73 51 66 52 67 53 71 54 74 55
REMARK SMILES IDX 68 56 69 57 72 58 70 59 49 60 50 61 58 62 51 63 52 64 56 65
REMARK SMILES IDX 59 66 53 67 54 68 57 69 55 70 5 71 6 72 7 73 8 74 9 75 10 77
REMARK SMILES IDX 11 78 12 79 22 80 13 81 16 82 21 83 14 84 15 85 17 86 20 87
REMARK SMILES IDX 18 89 19 90
REMARK H PARENT 3 5 79 23 47 34 8 76 15 88
REMARK Flexibility Score: inf
ROOT
ATOM      1  C   UNL A   1      38.929  20.113  25.752  1.00  0.00     0.116 C 
ENDROOT
BRANCH   1   2
ATOM      2  N   UNL A   1      40.063  19.214  25.880  1.00  0.00    -0.352 N 
ATOM      3  O   UNL A   1      42.223  18.605  26.037  1.00  0.00    -0.269 OA
ATOM      4  C   UNL A   1      41.384  19.498  26.117  1.00  0.00     0.251 C 
ATOM      5  H   UNL A   1      39.852  18.258  25.780  1.00  0.00     0.163 HD
BRANCH   4   6
ATOM      6  C   UNL A   1      41.812  20.875  26.450  1.00  0.00     0.039 A 
ATOM      7  C   UNL A   1      42.077  21.188  27.786  1.00  0.00     0.014 A 
ATOM      8  C   UNL A   1      41.920  21.865  25.469  1.00  0.00     0.014 A 
ATOM      9  C   UNL A   1      42.477  22.481  28.130  1.00  0.00     0.010 A 
ATOM     10  C   UNL A   1      42.409  23.127  25.801  1.00  0.00     0.010 A 
ATOM     11  C   UNL A   1      42.665  23.458  27.139  1.00  0.00    -0.014 A 
BRANCH  11  12
ATOM     12  C   UNL A   1      43.070  24.842  27.503  1.00  0.00     0.031 A 
ATOM     13  C   UNL A   1      44.480  25.304  27.243  1.00  0.00     0.074 A 
ATOM     14  C   UNL A   1      42.177  25.680  28.065  1.00  0.00     0.049 A 
ATOM     15  N   UNL A   1      45.025  26.470  27.486  1.00  0.00    -0.248 NA
ATOM     16  C   UNL A   1      45.409  24.326  26.651  1.00  0.00     0.031 C 
ATOM     17  C   UNL A   1      40.793  25.340  28.394  1.00  0.00     0.029 A 
ATOM     18  N   UNL A   1      42.295  26.994  28.447  1.00  0.00    -0.354 N 
ATOM     19  C   UNL A   1      46.348  26.361  27.081  1.00  0.00     0.074 A 
ATOM     20  C   UNL A   1      46.549  25.000  26.639  1.00  0.00     0.031 C 
ATOM     21  C   UNL A   1      40.178  26.427  28.888  1.00  0.00     0.029 A 
ATOM     22  C   UNL A   1      41.133  27.531  28.947  1.00  0.00     0.049 A 
ATOM     23  H   UNL A   1      43.135  27.503  28.369  1.00  0.00     0.167 HD
ATOM     24  C   UNL A   1      47.302  27.320  27.044  1.00  0.00     0.037 A 
ATOM     25  C   UNL A   1      40.867  28.772  29.400  1.00  0.00     0.037 A 
ATOM     26  C   UNL A   1      47.092  28.683  27.447  1.00  0.00     0.049 A 
ATOM     27  C   UNL A   1      41.956  29.813  29.372  1.00  0.00     0.074 A 
ATOM     28  C   UNL A   1      47.985  29.739  27.405  1.00  0.00     0.029 A 
ATOM     29  N   UNL A   1      45.903  29.181  27.960  1.00  0.00    -0.354 N 
ATOM     30  N   UNL A   1      43.186  29.710  28.932  1.00  0.00    -0.248 NA
ATOM     31  C   UNL A   1      41.620  31.144  29.899  1.00  0.00     0.031 C 
ATOM     32  C   UNL A   1      47.355  30.864  27.940  1.00  0.00     0.029 A 
ATOM     33  C   UNL A   1      46.050  30.525  28.260  1.00  0.00     0.049 A 
ATOM     34  H   UNL A   1      45.080  28.659  28.092  1.00  0.00     0.167 HD
ATOM     35  C   UNL A   1      43.758  30.963  29.098  1.00  0.00     0.074 A 
ATOM     36  C   UNL A   1      42.739  31.817  29.669  1.00  0.00     0.031 C 
ATOM     37  C   UNL A   1      45.018  31.369  28.804  1.00  0.00     0.037 A 
BRANCH  24  38
ATOM     38  C   UNL A   1      48.659  26.951  26.520  1.00  0.00     0.064 A 
ATOM     39  C   UNL A   1      49.629  26.369  27.349  1.00  0.00     0.173 A 
ATOM     40  C   UNL A   1      48.957  27.084  25.154  1.00  0.00     0.173 A 
ATOM     41  F   UNL A   1      49.398  26.231  28.664  1.00  0.00    -0.203 F 
ATOM     42  C   UNL A   1      50.847  25.938  26.833  1.00  0.00     0.198 A 
ATOM     43  C   UNL A   1      50.164  26.623  24.637  1.00  0.00     0.198 A 
ATOM     44  F   UNL A   1      48.061  27.629  24.317  1.00  0.00    -0.203 F 
ATOM     45  F   UNL A   1      51.768  25.407  27.650  1.00  0.00    -0.200 F 
ATOM     46  C   UNL A   1      51.109  26.052  25.476  1.00  0.00     0.200 A 
ATOM     47  F   UNL A   1      50.408  26.718  23.323  1.00  0.00    -0.200 F 
ATOM     48  F   UNL A   1      52.271  25.609  24.976  1.00  0.00    -0.200 F 
ENDBRANCH  24  38
BRANCH  25  49
ATOM     49  C   UNL A   1      39.502  29.110  29.884  1.00  0.00     0.064 A 
ATOM     50  C   UNL A   1      39.128  28.873  31.215  1.00  0.00     0.173 A 
ATOM     51  C   UNL A   1      38.542  29.679  29.033  1.00  0.00     0.173 A 
ATOM     52  F   UNL A   1      40.001  28.311  32.065  1.00  0.00    -0.203 F 
ATOM     53  C   UNL A   1      37.846  29.174  31.670  1.00  0.00     0.198 A 
ATOM     54  C   UNL A   1      37.270  30.010  29.497  1.00  0.00     0.198 A 
ATOM     55  F   UNL A   1      38.846  29.931  27.751  1.00  0.00    -0.203 F 
ATOM     56  F   UNL A   1      37.503  28.894  32.935  1.00  0.00    -0.200 F 
ATOM     57  C   UNL A   1      36.921  29.749  30.813  1.00  0.00     0.200 A 
ATOM     58  F   UNL A   1      36.385  30.582  28.670  1.00  0.00    -0.200 F 
ATOM     59  F   UNL A   1      35.691  30.048  31.252  1.00  0.00    -0.200 F 
ENDBRANCH  25  49
BRANCH  37  60
ATOM     60  C   UNL A   1      45.374  32.805  29.053  1.00  0.00     0.064 A 
ATOM     61  C   UNL A   1      46.017  33.207  30.232  1.00  0.00     0.173 A 
ATOM     62  C   UNL A   1      45.175  33.768  28.050  1.00  0.00     0.173 A 
ATOM     63  F   UNL A   1      46.221  32.326  31.223  1.00  0.00    -0.203 F 
ATOM     64  C   UNL A   1      46.445  34.521  30.400  1.00  0.00     0.198 A 
ATOM     65  C   UNL A   1      45.632  35.072  28.209  1.00  0.00     0.198 A 
ATOM     66  F   UNL A   1      44.575  33.430  26.899  1.00  0.00    -0.203 F 
ATOM     67  F   UNL A   1      47.038  34.888  31.545  1.00  0.00    -0.200 F 
ATOM     68  C   UNL A   1      46.265  35.448  29.384  1.00  0.00     0.200 A 
ATOM     69  F   UNL A   1      45.476  35.960  27.218  1.00  0.00    -0.200 F 
ATOM     70  F   UNL A   1      46.704  36.704  29.536  1.00  0.00    -0.200 F 
ENDBRANCH  37  60
ENDBRANCH  11  12
ENDBRANCH   4   6
ENDBRANCH   1   2
BRANCH   1  71
ATOM     71  C   UNL A   1      37.894  19.622  24.746  1.00  0.00     0.023 C 
BRANCH  71  72
ATOM     72  C   UNL A   1      36.469  20.119  24.979  1.00  0.00     0.023 C 
BRANCH  72  73
ATOM     73  C   UNL A   1      36.358  21.480  25.658  1.00  0.00     0.116 C 
BRANCH  73  74
ATOM     74  N   UNL A   1      35.331  21.509  26.688  1.00  0.00    -0.352 N 
ATOM     75  C   UNL A   1      34.031  21.918  26.609  1.00  0.00     0.252 C 
ATOM     76  H   UNL A   1      35.616  21.184  27.573  1.00  0.00     0.163 HD
ATOM     77  O   UNL A   1      33.331  21.934  27.617  1.00  0.00    -0.269 OA
BRANCH  75  78
ATOM     78  C   UNL A   1      33.508  22.370  25.297  1.00  0.00     0.054 A 
ATOM     79  C   UNL A   1      32.927  21.430  24.532  1.00  0.00     0.086 A 
ATOM     80  C   UNL A   1      33.554  23.771  24.847  1.00  0.00     0.012 A 
ATOM     81  C   UNL A   1      32.456  21.741  23.172  1.00  0.00     0.249 A 
ATOM     82  C   UNL A   1      33.066  24.078  23.565  1.00  0.00     0.063 A 
ATOM     83  C   UNL A   1      34.068  24.806  25.640  1.00  0.00     0.011 A 
ATOM     84  O   UNL A   1      32.025  20.852  22.446  1.00  0.00    -0.270 OA
ATOM     85  N   UNL A   1      32.551  23.040  22.769  1.00  0.00    -0.321 N 
ATOM     86  C   UNL A   1      33.093  25.396  23.093  1.00  0.00     0.042 A 
ATOM     87  C   UNL A   1      34.090  26.122  25.168  1.00  0.00     0.002 A 
ATOM     88  H   UNL A   1      32.239  23.265  21.863  1.00  0.00     0.170 HD
ATOM     89  Br  UNL A   1      32.439  25.846  21.369  1.00  0.00    -0.049 Br
ATOM     90  C   UNL A   1      33.603  26.418  23.896  1.00  0.00     0.018 A 
ENDBRANCH  75  78
ENDBRANCH  73  74
ENDBRANCH  72  73
ENDBRANCH  71  72
ENDBRANCH   1  71
TORSDOF 11
ENDMDL
