MODEL 1
REMARK VINA RESULT:     -10.6      0.000      0.000
REMARK SMILES O=C(C[C@@H]1CN(C(=O)N2CCC[C@H]2CO)CCO1)NCCCCNC(=O)c1ccc(-c2c3nc(c(-c4c(F)c(F)c(F)c(F)c4F)c4ccc([nH]4)c(-c4c(F)c(F)c(F)c(F)c4F)c4nc(c(-c5c(F)c(F)c(F)c(F)c5F)c5ccc2[nH]5)C=C4)C=C3)cc1
REMARK SMILES IDX 20 1 19 2 1 3 2 4 3 6 4 7 5 8 18 9 6 10 17 11 16 12 7 13
REMARK SMILES IDX 8 14 9 15 10 16 13 17 11 18 12 19 14 20 15 21 21 23 22 24
REMARK SMILES IDX 23 25 24 26 25 27 26 29 27 30 28 31 89 32 29 33 88 34 30 35
REMARK SMILES IDX 31 36 32 37 82 38 33 39 87 40 81 41 83 42 34 43 86 44 80 45
REMARK SMILES IDX 79 46 35 48 67 49 47 50 66 51 48 52 51 53 65 54 84 55 49 56
REMARK SMILES IDX 50 57 64 59 85 60 52 61 36 62 37 63 45 64 38 65 39 66 43 67
REMARK SMILES IDX 46 68 40 69 41 70 44 71 42 72 68 73 69 74 77 75 70 76 71 77
REMARK SMILES IDX 75 78 78 79 72 80 73 81 76 82 74 83 53 84 54 85 62 86 55 87
REMARK SMILES IDX 56 88 60 89 63 90 57 91 58 92 61 93 59 94
REMARK H PARENT 19 5 15 22 24 28 83 47 51 58
REMARK Flexibility Score: inf
ROOT
ATOM      1  C   UNL A   1      42.497  18.833  26.148  1.00  0.00     0.116 C 
ENDROOT
BRANCH   1   2
ATOM      2  N   UNL A   1      43.864  19.317  26.119  1.00  0.00    -0.356 N 
ATOM      3  O   UNL A   1      44.391  18.306  24.123  1.00  0.00    -0.275 OA
ATOM      4  C   UNL A   1      44.697  19.056  25.043  1.00  0.00     0.222 C 
ATOM      5  H   UNL A   1      44.208  19.842  26.878  1.00  0.00     0.163 HD
BRANCH   4   6
ATOM      6  C   UNL A   1      45.988  19.850  25.057  1.00  0.00     0.133 C 
BRANCH   6   7
ATOM      7  C   UNL A   1      45.772  21.351  24.824  1.00  0.00     0.147 C 
ATOM      8  C   UNL A   1      45.838  22.196  26.102  1.00  0.00     0.154 C 
ATOM      9  O   UNL A   1      44.508  21.587  24.170  1.00  0.00    -0.374 OA
ATOM     10  N   UNL A   1      45.710  23.615  25.784  1.00  0.00    -0.320 N 
ATOM     11  C   UNL A   1      44.355  22.979  23.824  1.00  0.00     0.182 C 
ATOM     12  C   UNL A   1      44.486  23.911  25.041  1.00  0.00     0.150 C 
BRANCH  10  13
ATOM     13  C   UNL A   1      46.287  24.574  26.593  1.00  0.00     0.320 C 
ATOM     14  O   UNL A   1      46.309  24.477  27.820  1.00  0.00    -0.248 OA
BRANCH  13  15
ATOM     15  N   UNL A   1      46.882  25.630  25.945  1.00  0.00    -0.319 N 
ATOM     16  C   UNL A   1      47.841  25.576  24.854  1.00  0.00     0.122 C 
ATOM     17  C   UNL A   1      46.589  27.019  26.301  1.00  0.00     0.112 C 
ATOM     18  C   UNL A   1      48.703  26.788  25.125  1.00  0.00     0.024 C 
ATOM     19  C   UNL A   1      47.663  27.821  25.542  1.00  0.00     0.029 C 
BRANCH  17  20
ATOM     20  C   UNL A   1      45.160  27.472  25.953  1.00  0.00     0.181 C 
BRANCH  20  21
ATOM     21  O   UNL A   1      45.091  27.843  24.575  1.00  0.00    -0.394 OA
ATOM     22  H   UNL A   1      44.167  28.010  24.331  1.00  0.00     0.210 HD
ENDBRANCH  20  21
ENDBRANCH  17  20
ENDBRANCH  13  15
ENDBRANCH  10  13
ENDBRANCH   6   7
ENDBRANCH   4   6
ENDBRANCH   1   2
BRANCH   1  23
ATOM     23  C   UNL A   1      41.605  19.601  27.124  1.00  0.00     0.023 C 
BRANCH  23  24
ATOM     24  C   UNL A   1      41.942  21.085  27.311  1.00  0.00     0.023 C 
BRANCH  24  25
ATOM     25  C   UNL A   1      41.540  22.016  26.167  1.00  0.00     0.116 C 
BRANCH  25  26
ATOM     26  N   UNL A   1      40.124  21.938  25.843  1.00  0.00    -0.352 N 
ATOM     27  C   UNL A   1      39.109  22.820  26.129  1.00  0.00     0.251 C 
ATOM     28  H   UNL A   1      39.852  21.134  25.345  1.00  0.00     0.163 HD
ATOM     29  O   UNL A   1      37.940  22.500  25.908  1.00  0.00    -0.269 OA
BRANCH  27  30
ATOM     30  C   UNL A   1      39.398  24.140  26.731  1.00  0.00     0.039 A 
ATOM     31  C   UNL A   1      39.012  24.389  28.051  1.00  0.00     0.014 A 
ATOM     32  C   UNL A   1      40.023  25.148  25.997  1.00  0.00     0.014 A 
ATOM     33  C   UNL A   1      39.332  25.610  28.659  1.00  0.00     0.010 A 
ATOM     34  C   UNL A   1      40.394  26.341  26.625  1.00  0.00     0.010 A 
ATOM     35  C   UNL A   1      40.076  26.583  27.971  1.00  0.00    -0.014 A 
BRANCH  35  36
ATOM     36  C   UNL A   1      40.545  27.830  28.649  1.00  0.00     0.031 A 
ATOM     37  C   UNL A   1      41.976  27.979  29.104  1.00  0.00     0.074 A 
ATOM     38  C   UNL A   1      39.668  28.818  28.929  1.00  0.00     0.049 A 
ATOM     39  N   UNL A   1      42.540  28.968  29.756  1.00  0.00    -0.248 NA
ATOM     40  C   UNL A   1      42.883  26.859  28.818  1.00  0.00     0.031 C 
ATOM     41  C   UNL A   1      38.237  28.794  28.621  1.00  0.00     0.029 A 
ATOM     42  N   UNL A   1      39.848  30.035  29.546  1.00  0.00    -0.354 N 
ATOM     43  C   UNL A   1      43.857  28.580  29.969  1.00  0.00     0.074 A 
ATOM     44  C   UNL A   1      43.990  27.241  29.437  1.00  0.00     0.031 C 
ATOM     45  C   UNL A   1      37.679  29.950  29.015  1.00  0.00     0.029 A 
ATOM     46  C   UNL A   1      38.700  30.784  29.643  1.00  0.00     0.049 A 
ATOM     47  H   UNL A   1      40.720  30.340  29.888  1.00  0.00     0.167 HD
ATOM     48  C   UNL A   1      44.875  29.280  30.528  1.00  0.00     0.037 A 
ATOM     49  C   UNL A   1      38.484  32.004  30.177  1.00  0.00     0.037 A 
ATOM     50  C   UNL A   1      44.765  30.624  31.035  1.00  0.00     0.049 A 
ATOM     51  C   UNL A   1      39.630  32.767  30.786  1.00  0.00     0.074 A 
ATOM     52  C   UNL A   1      45.760  31.434  31.556  1.00  0.00     0.029 A 
ATOM     53  N   UNL A   1      43.588  31.355  31.088  1.00  0.00    -0.354 N 
ATOM     54  N   UNL A   1      40.887  32.417  30.904  1.00  0.00    -0.248 NA
ATOM     55  C   UNL A   1      39.327  34.100  31.329  1.00  0.00     0.031 C 
ATOM     56  C   UNL A   1      45.178  32.638  31.967  1.00  0.00     0.029 A 
ATOM     57  C   UNL A   1      43.830  32.599  31.653  1.00  0.00     0.049 A 
ATOM     58  H   UNL A   1      42.711  31.040  30.771  1.00  0.00     0.167 HD
ATOM     59  C   UNL A   1      41.528  33.493  31.506  1.00  0.00     0.074 A 
ATOM     60  C   UNL A   1      40.526  34.514  31.715  1.00  0.00     0.031 C 
ATOM     61  C   UNL A   1      42.832  33.618  31.852  1.00  0.00     0.037 A 
BRANCH  48  62
ATOM     62  C   UNL A   1      46.216  28.607  30.607  1.00  0.00     0.064 A 
ATOM     63  C   UNL A   1      46.566  27.795  31.697  1.00  0.00     0.173 A 
ATOM     64  C   UNL A   1      47.146  28.741  29.565  1.00  0.00     0.173 A 
ATOM     65  F   UNL A   1      45.715  27.636  32.722  1.00  0.00    -0.203 F 
ATOM     66  C   UNL A   1      47.809  27.172  31.758  1.00  0.00     0.198 A 
ATOM     67  C   UNL A   1      48.376  28.088  29.613  1.00  0.00     0.198 A 
ATOM     68  F   UNL A   1      46.857  29.491  28.492  1.00  0.00    -0.203 F 
ATOM     69  F   UNL A   1      48.140  26.443  32.833  1.00  0.00    -0.200 F 
ATOM     70  C   UNL A   1      48.710  27.313  30.714  1.00  0.00     0.200 A 
ATOM     71  F   UNL A   1      49.237  28.209  28.593  1.00  0.00    -0.200 F 
ATOM     72  F   UNL A   1      49.902  26.704  30.769  1.00  0.00    -0.200 F 
ENDBRANCH  48  62
BRANCH  49  73
ATOM     73  C   UNL A   1      37.121  32.599  30.141  1.00  0.00     0.064 A 
ATOM     74  C   UNL A   1      36.218  32.399  31.196  1.00  0.00     0.173 A 
ATOM     75  C   UNL A   1      36.686  33.363  29.048  1.00  0.00     0.173 A 
ATOM     76  F   UNL A   1      36.579  31.655  32.252  1.00  0.00    -0.203 F 
ATOM     77  C   UNL A   1      34.928  32.921  31.150  1.00  0.00     0.198 A 
ATOM     78  C   UNL A   1      35.404  33.910  29.016  1.00  0.00     0.198 A 
ATOM     79  F   UNL A   1      37.511  33.587  28.015  1.00  0.00    -0.203 F 
ATOM     80  F   UNL A   1      34.070  32.672  32.149  1.00  0.00    -0.200 F 
ATOM     81  C   UNL A   1      34.523  33.681  30.062  1.00  0.00     0.200 A 
ATOM     82  F   UNL A   1      35.023  34.656  27.971  1.00  0.00    -0.200 F 
ATOM     83  F   UNL A   1      33.283  34.186  30.019  1.00  0.00    -0.200 F 
ENDBRANCH  49  73
BRANCH  61  84
ATOM     84  C   UNL A   1      43.267  34.920  32.464  1.00  0.00     0.064 A 
ATOM     85  C   UNL A   1      43.628  36.022  31.676  1.00  0.00     0.173 A 
ATOM     86  C   UNL A   1      43.283  35.078  33.859  1.00  0.00     0.173 A 
ATOM     87  F   UNL A   1      43.646  35.918  30.338  1.00  0.00    -0.203 F 
ATOM     88  C   UNL A   1      44.013  37.226  32.260  1.00  0.00     0.198 A 
ATOM     89  C   UNL A   1      43.637  36.293  34.439  1.00  0.00     0.198 A 
ATOM     90  F   UNL A   1      42.941  34.057  34.659  1.00  0.00    -0.203 F 
ATOM     91  F   UNL A   1      44.399  38.250  31.488  1.00  0.00    -0.200 F 
ATOM     92  C   UNL A   1      44.009  37.363  33.640  1.00  0.00     0.200 A 
ATOM     93  F   UNL A   1      43.621  36.427  35.773  1.00  0.00    -0.200 F 
ATOM     94  F   UNL A   1      44.371  38.525  34.201  1.00  0.00    -0.200 F 
ENDBRANCH  61  84
ENDBRANCH  35  36
ENDBRANCH  27  30
ENDBRANCH  25  26
ENDBRANCH  24  25
ENDBRANCH  23  24
ENDBRANCH   1  23
TORSDOF 16
ENDMDL
MODEL 2
REMARK VINA RESULT:     -10.6      5.237     10.115
REMARK SMILES O=C(C[C@@H]1CN(C(=O)N2CCC[C@H]2CO)CCO1)NCCCCNC(=O)c1ccc(-c2c3nc(c(-c4c(F)c(F)c(F)c(F)c4F)c4ccc([nH]4)c(-c4c(F)c(F)c(F)c(F)c4F)c4nc(c(-c5c(F)c(F)c(F)c(F)c5F)c5ccc2[nH]5)C=C4)C=C3)cc1
REMARK SMILES IDX 20 1 19 2 1 3 2 4 3 6 4 7 5 8 18 9 6 10 17 11 16 12 7 13
REMARK SMILES IDX 8 14 9 15 10 16 13 17 11 18 12 19 14 20 15 21 21 23 22 24
REMARK SMILES IDX 23 25 24 26 25 27 26 29 27 30 28 31 89 32 29 33 88 34 30 35
REMARK SMILES IDX 31 36 32 37 82 38 33 39 87 40 81 41 83 42 34 43 86 44 80 45
REMARK SMILES IDX 79 46 35 48 67 49 47 50 66 51 48 52 51 53 65 54 84 55 49 56
REMARK SMILES IDX 50 57 64 59 85 60 52 61 36 62 37 63 45 64 38 65 39 66 43 67
REMARK SMILES IDX 46 68 40 69 41 70 44 71 42 72 68 73 69 74 77 75 70 76 71 77
REMARK SMILES IDX 75 78 78 79 72 80 73 81 76 82 74 83 53 84 54 85 62 86 55 87
REMARK SMILES IDX 56 88 60 89 63 90 57 91 58 92 61 93 59 94
REMARK H PARENT 19 5 15 22 24 28 83 47 51 58
REMARK Flexibility Score: inf
ROOT
ATOM      1  C   UNL A   1      32.514  29.802  26.280  1.00  0.00     0.116 C 
ENDROOT
BRANCH   1   2
ATOM      2  N   UNL A   1      32.072  28.472  25.905  1.00  0.00    -0.356 N 
ATOM      3  O   UNL A   1      31.229  27.950  27.979  1.00  0.00    -0.275 OA
ATOM      4  C   UNL A   1      31.389  27.663  26.799  1.00  0.00     0.222 C 
ATOM      5  H   UNL A   1      32.260  28.138  24.998  1.00  0.00     0.163 HD
BRANCH   4   6
ATOM      6  C   UNL A   1      30.778  26.428  26.167  1.00  0.00     0.133 C 
BRANCH   6   7
ATOM      7  C   UNL A   1      31.662  25.182  26.309  1.00  0.00     0.147 C 
ATOM      8  C   UNL A   1      32.150  24.609  24.972  1.00  0.00     0.154 C 
ATOM      9  O   UNL A   1      30.971  24.148  27.038  1.00  0.00    -0.374 OA
ATOM     10  N   UNL A   1      33.052  23.483  25.198  1.00  0.00    -0.320 N 
ATOM     11  C   UNL A   1      31.840  23.025  27.296  1.00  0.00     0.182 C 
ATOM     12  C   UNL A   1      32.440  22.432  26.009  1.00  0.00     0.150 C 
BRANCH  10  13
ATOM     13  C   UNL A   1      34.037  23.175  24.280  1.00  0.00     0.320 C 
ATOM     14  O   UNL A   1      33.819  23.114  23.071  1.00  0.00    -0.248 OA
BRANCH  13  15
ATOM     15  N   UNL A   1      35.299  22.982  24.793  1.00  0.00    -0.319 N 
ATOM     16  C   UNL A   1      36.049  23.875  25.662  1.00  0.00     0.122 C 
ATOM     17  C   UNL A   1      36.073  21.774  24.508  1.00  0.00     0.112 C 
ATOM     18  C   UNL A   1      37.474  23.627  25.220  1.00  0.00     0.024 C 
ATOM     19  C   UNL A   1      37.482  22.116  25.029  1.00  0.00     0.029 C 
BRANCH  17  20
ATOM     20  C   UNL A   1      35.503  20.494  25.145  1.00  0.00     0.181 C 
BRANCH  20  21
ATOM     21  O   UNL A   1      36.434  19.422  24.997  1.00  0.00    -0.394 OA
ATOM     22  H   UNL A   1      37.336  19.778  24.973  1.00  0.00     0.210 HD
ENDBRANCH  20  21
ENDBRANCH  17  20
ENDBRANCH  13  15
ENDBRANCH  10  13
ENDBRANCH   6   7
ENDBRANCH   4   6
ENDBRANCH   1   2
BRANCH   1  23
ATOM     23  C   UNL A   1      31.546  30.904  25.850  1.00  0.00     0.023 C 
BRANCH  23  24
ATOM     24  C   UNL A   1      31.365  32.059  26.842  1.00  0.00     0.023 C 
BRANCH  24  25
ATOM     25  C   UNL A   1      32.633  32.823  27.223  1.00  0.00     0.116 C 
BRANCH  25  26
ATOM     26  N   UNL A   1      32.373  34.207  27.589  1.00  0.00    -0.352 N 
ATOM     27  C   UNL A   1      32.955  34.981  28.565  1.00  0.00     0.251 C 
ATOM     28  H   UNL A   1      31.677  34.656  27.058  1.00  0.00     0.163 HD
ATOM     29  O   UNL A   1      32.487  36.089  28.827  1.00  0.00    -0.269 OA
BRANCH  27  30
ATOM     30  C   UNL A   1      34.122  34.488  29.329  1.00  0.00     0.039 A 
ATOM     31  C   UNL A   1      33.921  33.918  30.590  1.00  0.00     0.014 A 
ATOM     32  C   UNL A   1      35.417  34.606  28.827  1.00  0.00     0.014 A 
ATOM     33  C   UNL A   1      35.005  33.388  31.302  1.00  0.00     0.010 A 
ATOM     34  C   UNL A   1      36.488  34.022  29.513  1.00  0.00     0.010 A 
ATOM     35  C   UNL A   1      36.297  33.384  30.749  1.00  0.00    -0.014 A 
BRANCH  35  36
ATOM     36  C   UNL A   1      37.437  32.700  31.434  1.00  0.00     0.031 A 
ATOM     37  C   UNL A   1      38.131  31.520  30.799  1.00  0.00     0.074 A 
ATOM     38  C   UNL A   1      37.813  33.088  32.671  1.00  0.00     0.049 A 
ATOM     39  N   UNL A   1      39.099  30.774  31.276  1.00  0.00    -0.248 NA
ATOM     40  C   UNL A   1      37.656  31.105  29.472  1.00  0.00     0.031 C 
ATOM     41  C   UNL A   1      37.193  34.163  33.448  1.00  0.00     0.029 A 
ATOM     42  N   UNL A   1      38.806  32.617  33.500  1.00  0.00    -0.354 N 
ATOM     43  C   UNL A   1      39.334  29.798  30.315  1.00  0.00     0.074 A 
ATOM     44  C   UNL A   1      38.365  30.006  29.262  1.00  0.00     0.031 C 
ATOM     45  C   UNL A   1      37.838  34.292  34.618  1.00  0.00     0.029 A 
ATOM     46  C   UNL A   1      38.892  33.285  34.698  1.00  0.00     0.049 A 
ATOM     47  H   UNL A   1      39.399  31.870  33.257  1.00  0.00     0.167 HD
ATOM     48  C   UNL A   1      40.287  28.833  30.292  1.00  0.00     0.037 A 
ATOM     49  C   UNL A   1      39.720  33.111  35.748  1.00  0.00     0.037 A 
ATOM     50  C   UNL A   1      41.277  28.633  31.319  1.00  0.00     0.049 A 
ATOM     51  C   UNL A   1      40.776  32.038  35.698  1.00  0.00     0.074 A 
ATOM     52  C   UNL A   1      42.321  27.723  31.346  1.00  0.00     0.029 A 
ATOM     53  N   UNL A   1      41.344  29.350  32.504  1.00  0.00    -0.354 N 
ATOM     54  N   UNL A   1      41.036  31.177  34.745  1.00  0.00    -0.248 NA
ATOM     55  C   UNL A   1      41.659  31.919  36.868  1.00  0.00     0.031 C 
ATOM     56  C   UNL A   1      42.992  27.859  32.566  1.00  0.00     0.029 A 
ATOM     57  C   UNL A   1      42.400  28.888  33.277  1.00  0.00     0.049 A 
ATOM     58  H   UNL A   1      40.734  30.080  32.759  1.00  0.00     0.167 HD
ATOM     59  C   UNL A   1      42.125  30.436  35.186  1.00  0.00     0.074 A 
ATOM     60  C   UNL A   1      42.488  30.958  36.486  1.00  0.00     0.031 C 
ATOM     61  C   UNL A   1      42.764  29.415  34.567  1.00  0.00     0.037 A 
BRANCH  48  62
ATOM     62  C   UNL A   1      40.317  27.919  29.099  1.00  0.00     0.064 A 
ATOM     63  C   UNL A   1      39.582  26.725  29.071  1.00  0.00     0.173 A 
ATOM     64  C   UNL A   1      41.056  28.261  27.956  1.00  0.00     0.173 A 
ATOM     65  F   UNL A   1      38.861  26.350  30.139  1.00  0.00    -0.203 F 
ATOM     66  C   UNL A   1      39.613  25.889  27.959  1.00  0.00     0.198 A 
ATOM     67  C   UNL A   1      41.058  27.438  26.832  1.00  0.00     0.198 A 
ATOM     68  F   UNL A   1      41.764  29.399  27.923  1.00  0.00    -0.203 F 
ATOM     69  F   UNL A   1      38.942  24.728  27.975  1.00  0.00    -0.200 F 
ATOM     70  C   UNL A   1      40.345  26.249  26.838  1.00  0.00     0.200 A 
ATOM     71  F   UNL A   1      41.750  27.799  25.741  1.00  0.00    -0.200 F 
ATOM     72  F   UNL A   1      40.366  25.448  25.764  1.00  0.00    -0.200 F 
ENDBRANCH  48  62
BRANCH  49  73
ATOM     73  C   UNL A   1      39.603  33.993  36.941  1.00  0.00     0.064 A 
ATOM     74  C   UNL A   1      40.264  35.229  36.991  1.00  0.00     0.173 A 
ATOM     75  C   UNL A   1      38.846  33.613  38.059  1.00  0.00     0.173 A 
ATOM     76  F   UNL A   1      41.020  35.625  35.956  1.00  0.00    -0.203 F 
ATOM     77  C   UNL A   1      40.189  36.041  38.120  1.00  0.00     0.198 A 
ATOM     78  C   UNL A   1      38.749  34.441  39.176  1.00  0.00     0.198 A 
ATOM     79  F   UNL A   1      38.192  32.443  38.061  1.00  0.00    -0.203 F 
ATOM     80  F   UNL A   1      40.872  37.194  38.160  1.00  0.00    -0.200 F 
ATOM     81  C   UNL A   1      39.427  35.649  39.210  1.00  0.00     0.200 A 
ATOM     82  F   UNL A   1      37.998  34.064  40.221  1.00  0.00    -0.200 F 
ATOM     83  F   UNL A   1      39.353  36.431  40.295  1.00  0.00    -0.200 F 
ENDBRANCH  49  73
BRANCH  61  84
ATOM     84  C   UNL A   1      43.950  28.810  35.265  1.00  0.00     0.064 A 
ATOM     85  C   UNL A   1      43.811  27.750  36.171  1.00  0.00     0.173 A 
ATOM     86  C   UNL A   1      45.246  29.273  34.991  1.00  0.00     0.173 A 
ATOM     87  F   UNL A   1      42.591  27.281  36.480  1.00  0.00    -0.203 F 
ATOM     88  C   UNL A   1      44.922  27.190  36.796  1.00  0.00     0.198 A 
ATOM     89  C   UNL A   1      46.358  28.690  35.594  1.00  0.00     0.198 A 
ATOM     90  F   UNL A   1      45.436  30.282  34.128  1.00  0.00    -0.203 F 
ATOM     91  F   UNL A   1      44.761  26.209  37.694  1.00  0.00    -0.200 F 
ATOM     92  C   UNL A   1      46.195  27.655  36.501  1.00  0.00     0.200 A 
ATOM     93  F   UNL A   1      47.589  29.133  35.297  1.00  0.00    -0.200 F 
ATOM     94  F   UNL A   1      47.265  27.110  37.096  1.00  0.00    -0.200 F 
ENDBRANCH  61  84
ENDBRANCH  35  36
ENDBRANCH  27  30
ENDBRANCH  25  26
ENDBRANCH  24  25
ENDBRANCH  23  24
ENDBRANCH   1  23
TORSDOF 16
ENDMDL
MODEL 3
REMARK VINA RESULT:     -10.5      4.306     10.539
REMARK SMILES O=C(C[C@@H]1CN(C(=O)N2CCC[C@H]2CO)CCO1)NCCCCNC(=O)c1ccc(-c2c3nc(c(-c4c(F)c(F)c(F)c(F)c4F)c4ccc([nH]4)c(-c4c(F)c(F)c(F)c(F)c4F)c4nc(c(-c5c(F)c(F)c(F)c(F)c5F)c5ccc2[nH]5)C=C4)C=C3)cc1
REMARK SMILES IDX 20 1 19 2 1 3 2 4 3 6 4 7 5 8 18 9 6 10 17 11 16 12 7 13
REMARK SMILES IDX 8 14 9 15 10 16 13 17 11 18 12 19 14 20 15 21 21 23 22 24
REMARK SMILES IDX 23 25 24 26 25 27 26 29 27 30 28 31 89 32 29 33 88 34 30 35
REMARK SMILES IDX 31 36 32 37 82 38 33 39 87 40 81 41 83 42 34 43 86 44 80 45
REMARK SMILES IDX 79 46 35 48 67 49 47 50 66 51 48 52 51 53 65 54 84 55 49 56
REMARK SMILES IDX 50 57 64 59 85 60 52 61 36 62 37 63 45 64 38 65 39 66 43 67
REMARK SMILES IDX 46 68 40 69 41 70 44 71 42 72 68 73 69 74 77 75 70 76 71 77
REMARK SMILES IDX 75 78 78 79 72 80 73 81 76 82 74 83 53 84 54 85 62 86 55 87
REMARK SMILES IDX 56 88 60 89 63 90 57 91 58 92 61 93 59 94
REMARK H PARENT 19 5 15 22 24 28 83 47 51 58
REMARK Flexibility Score: inf
ROOT
ATOM      1  C   UNL A   1      35.947  20.701  25.375  1.00  0.00     0.116 C 
ENDROOT
BRANCH   1   2
ATOM      2  N   UNL A   1      34.852  21.220  24.578  1.00  0.00    -0.356 N 
ATOM      3  O   UNL A   1      33.336  19.634  25.264  1.00  0.00    -0.275 OA
ATOM      4  C   UNL A   1      33.586  20.661  24.645  1.00  0.00     0.222 C 
ATOM      5  H   UNL A   1      35.011  21.984  23.978  1.00  0.00     0.163 HD
BRANCH   4   6
ATOM      6  C   UNL A   1      32.514  21.482  23.956  1.00  0.00     0.133 C 
BRANCH   6   7
ATOM      7  C   UNL A   1      32.540  22.962  24.360  1.00  0.00     0.147 C 
ATOM      8  C   UNL A   1      33.295  23.864  23.376  1.00  0.00     0.154 C 
ATOM      9  O   UNL A   1      33.112  23.120  25.675  1.00  0.00    -0.374 OA
ATOM     10  N   UNL A   1      33.199  25.262  23.786  1.00  0.00    -0.320 N 
ATOM     11  C   UNL A   1      33.017  24.489  26.121  1.00  0.00     0.182 C 
ATOM     12  C   UNL A   1      33.684  25.478  25.148  1.00  0.00     0.150 C 
BRANCH  10  13
ATOM     13  C   UNL A   1      33.263  26.277  22.851  1.00  0.00     0.320 C 
ATOM     14  O   UNL A   1      33.651  26.091  21.699  1.00  0.00    -0.248 OA
BRANCH  13  15
ATOM     15  N   UNL A   1      32.822  27.510  23.270  1.00  0.00    -0.319 N 
ATOM     16  C   UNL A   1      33.608  28.719  23.453  1.00  0.00     0.122 C 
ATOM     17  C   UNL A   1      31.416  27.758  23.593  1.00  0.00     0.112 C 
ATOM     18  C   UNL A   1      32.904  29.385  24.614  1.00  0.00     0.024 C 
ATOM     19  C   UNL A   1      31.440  29.141  24.272  1.00  0.00     0.029 C 
BRANCH  17  20
ATOM     20  C   UNL A   1      30.473  27.715  22.377  1.00  0.00     0.181 C 
BRANCH  20  21
ATOM     21  O   UNL A   1      30.577  28.934  21.639  1.00  0.00    -0.394 OA
ATOM     22  H   UNL A   1      29.767  29.069  21.123  1.00  0.00     0.210 HD
ENDBRANCH  20  21
ENDBRANCH  17  20
ENDBRANCH  13  15
ENDBRANCH  10  13
ENDBRANCH   6   7
ENDBRANCH   4   6
ENDBRANCH   1   2
BRANCH   1  23
ATOM     23  C   UNL A   1      37.284  20.694  24.635  1.00  0.00     0.023 C 
BRANCH  23  24
ATOM     24  C   UNL A   1      38.246  19.558  25.001  1.00  0.00     0.023 C 
BRANCH  24  25
ATOM     25  C   UNL A   1      39.406  19.931  25.925  1.00  0.00     0.116 C 
BRANCH  25  26
ATOM     26  N   UNL A   1      40.449  18.917  25.963  1.00  0.00    -0.352 N 
ATOM     27  C   UNL A   1      41.809  19.062  26.099  1.00  0.00     0.251 C 
ATOM     28  H   UNL A   1      40.133  17.989  25.880  1.00  0.00     0.163 HD
ATOM     29  O   UNL A   1      42.547  18.087  25.950  1.00  0.00    -0.269 OA
BRANCH  27  30
ATOM     30  C   UNL A   1      42.406  20.384  26.394  1.00  0.00     0.039 A 
ATOM     31  C   UNL A   1      43.068  21.076  25.375  1.00  0.00     0.014 A 
ATOM     32  C   UNL A   1      42.343  20.936  27.672  1.00  0.00     0.014 A 
ATOM     33  C   UNL A   1      43.585  22.355  25.617  1.00  0.00     0.010 A 
ATOM     34  C   UNL A   1      42.806  22.238  27.893  1.00  0.00     0.010 A 
ATOM     35  C   UNL A   1      43.413  22.978  26.865  1.00  0.00    -0.014 A 
BRANCH  35  36
ATOM     36  C   UNL A   1      43.834  24.394  27.096  1.00  0.00     0.031 A 
ATOM     37  C   UNL A   1      42.851  25.429  27.584  1.00  0.00     0.074 A 
ATOM     38  C   UNL A   1      45.094  24.781  26.799  1.00  0.00     0.049 A 
ATOM     39  N   UNL A   1      43.031  26.713  27.785  1.00  0.00    -0.248 NA
ATOM     40  C   UNL A   1      41.481  24.971  27.849  1.00  0.00     0.031 C 
ATOM     41  C   UNL A   1      46.140  23.916  26.251  1.00  0.00     0.029 A 
ATOM     42  N   UNL A   1      45.708  26.007  26.909  1.00  0.00    -0.354 N 
ATOM     43  C   UNL A   1      41.797  27.212  28.183  1.00  0.00     0.074 A 
ATOM     44  C   UNL A   1      40.864  26.108  28.131  1.00  0.00     0.031 C 
ATOM     45  C   UNL A   1      47.270  24.625  26.106  1.00  0.00     0.029 A 
ATOM     46  C   UNL A   1      47.024  26.007  26.511  1.00  0.00     0.049 A 
ATOM     47  H   UNL A   1      45.247  26.811  27.242  1.00  0.00     0.167 HD
ATOM     48  C   UNL A   1      41.471  28.465  28.585  1.00  0.00     0.037 A 
ATOM     49  C   UNL A   1      47.934  27.001  26.470  1.00  0.00     0.037 A 
ATOM     50  C   UNL A   1      42.396  29.566  28.670  1.00  0.00     0.049 A 
ATOM     51  C   UNL A   1      47.553  28.383  26.929  1.00  0.00     0.074 A 
ATOM     52  C   UNL A   1      42.167  30.852  29.131  1.00  0.00     0.029 A 
ATOM     53  N   UNL A   1      43.726  29.513  28.283  1.00  0.00    -0.354 N 
ATOM     54  N   UNL A   1      46.402  28.817  27.381  1.00  0.00    -0.248 NA
ATOM     55  C   UNL A   1      48.602  29.413  26.879  1.00  0.00     0.031 C 
ATOM     56  C   UNL A   1      43.346  31.590  28.980  1.00  0.00     0.029 A 
ATOM     57  C   UNL A   1      44.324  30.751  28.475  1.00  0.00     0.049 A 
ATOM     58  H   UNL A   1      44.180  28.716  27.925  1.00  0.00     0.167 HD
ATOM     59  C   UNL A   1      46.595  30.156  27.694  1.00  0.00     0.074 A 
ATOM     60  C   UNL A   1      47.977  30.462  27.397  1.00  0.00     0.031 C 
ATOM     61  C   UNL A   1      45.703  31.050  28.185  1.00  0.00     0.037 A 
BRANCH  48  62
ATOM     62  C   UNL A   1      40.044  28.713  28.985  1.00  0.00     0.064 A 
ATOM     63  C   UNL A   1      39.080  29.119  28.050  1.00  0.00     0.173 A 
ATOM     64  C   UNL A   1      39.626  28.505  30.308  1.00  0.00     0.173 A 
ATOM     65  F   UNL A   1      39.428  29.335  26.772  1.00  0.00    -0.203 F 
ATOM     66  C   UNL A   1      37.759  29.341  28.430  1.00  0.00     0.198 A 
ATOM     67  C   UNL A   1      38.296  28.696  30.678  1.00  0.00     0.198 A 
ATOM     68  F   UNL A   1      40.502  28.102  31.240  1.00  0.00    -0.203 F 
ATOM     69  F   UNL A   1      36.869  29.777  27.528  1.00  0.00    -0.200 F 
ATOM     70  C   UNL A   1      37.367  29.124  29.741  1.00  0.00     0.200 A 
ATOM     71  F   UNL A   1      37.914  28.465  31.942  1.00  0.00    -0.200 F 
ATOM     72  F   UNL A   1      36.094  29.328  30.104  1.00  0.00    -0.200 F 
ENDBRANCH  48  62
BRANCH  49  73
ATOM     73  C   UNL A   1      49.317  26.723  25.996  1.00  0.00     0.064 A 
ATOM     74  C   UNL A   1      50.296  26.235  26.873  1.00  0.00     0.173 A 
ATOM     75  C   UNL A   1      49.692  26.955  24.664  1.00  0.00     0.173 A 
ATOM     76  F   UNL A   1      49.992  26.021  28.162  1.00  0.00    -0.203 F 
ATOM     77  C   UNL A   1      51.601  26.009  26.443  1.00  0.00     0.198 A 
ATOM     78  C   UNL A   1      50.992  26.701  24.229  1.00  0.00     0.198 A 
ATOM     79  F   UNL A   1      48.793  27.417  23.784  1.00  0.00    -0.203 F 
ATOM     80  F   UNL A   1      52.529  25.591  27.315  1.00  0.00    -0.200 F 
ATOM     81  C   UNL A   1      51.948  26.237  25.120  1.00  0.00     0.200 A 
ATOM     82  F   UNL A   1      51.317  26.908  22.945  1.00  0.00    -0.200 F 
ATOM     83  F   UNL A   1      53.203  26.019  24.705  1.00  0.00    -0.200 F 
ENDBRANCH  49  73
BRANCH  61  84
ATOM     84  C   UNL A   1      46.196  32.441  28.469  1.00  0.00     0.064 A 
ATOM     85  C   UNL A   1      46.144  33.455  27.502  1.00  0.00     0.173 A 
ATOM     86  C   UNL A   1      46.690  32.773  29.740  1.00  0.00     0.173 A 
ATOM     87  F   UNL A   1      45.695  33.186  26.265  1.00  0.00    -0.203 F 
ATOM     88  C   UNL A   1      46.589  34.743  27.788  1.00  0.00     0.198 A 
ATOM     89  C   UNL A   1      47.105  34.069  30.032  1.00  0.00     0.198 A 
ATOM     90  F   UNL A   1      46.757  31.842  30.704  1.00  0.00    -0.203 F 
ATOM     91  F   UNL A   1      46.573  35.683  26.834  1.00  0.00    -0.200 F 
ATOM     92  C   UNL A   1      47.062  35.051  29.055  1.00  0.00     0.200 A 
ATOM     93  F   UNL A   1      47.550  34.368  31.262  1.00  0.00    -0.200 F 
ATOM     94  F   UNL A   1      47.482  36.293  29.332  1.00  0.00    -0.200 F 
ENDBRANCH  61  84
ENDBRANCH  35  36
ENDBRANCH  27  30
ENDBRANCH  25  26
ENDBRANCH  24  25
ENDBRANCH  23  24
ENDBRANCH   1  23
TORSDOF 16
ENDMDL
