MODEL 1
REMARK VINA RESULT:     -13.5      0.000      0.000
REMARK SMILES O=C(NCCCCNC(=O)[C@@H]1[C@@H](C(=O)Nc2cccc([N+](=O)[O-])c2)[C@@H]2C=C[C@H]1O2)c1ccc(-c2c3nc(c(-c4c(F)c(F)c(F)c(F)c4F)c4ccc([nH]4)c(-c4c(F)c(F)c(F)c(F)c4F)c4nc(c(-c5c(F)c(F)c(F)c(F)c5F)c5ccc2[nH]5)C=C4)C=C3)cc1
REMARK SMILES IDX 6 1 5 2 4 3 3 4 1 5 2 6 30 8 31 9 92 10 32 11 91 12 33 13
REMARK SMILES IDX 34 14 35 15 85 16 36 17 90 18 84 19 86 20 37 21 89 22 83 23
REMARK SMILES IDX 82 24 38 26 70 27 50 28 69 29 51 30 54 31 68 32 87 33 52 34
REMARK SMILES IDX 53 35 67 37 88 38 55 39 39 40 40 41 48 42 41 43 42 44 46 45
REMARK SMILES IDX 49 46 43 47 44 48 47 49 45 50 71 51 72 52 80 53 73 54 74 55
REMARK SMILES IDX 78 56 81 57 75 58 76 59 79 60 77 61 56 62 57 63 65 64 58 65
REMARK SMILES IDX 59 66 63 67 66 68 60 69 61 70 64 71 62 72 7 73 8 74 9 75
REMARK SMILES IDX 10 77 11 78 12 79 28 80 25 81 27 82 29 83 26 84 13 85 14 86
REMARK SMILES IDX 15 87 16 89 17 90 24 91 18 92 20 93 19 94 21 95 22 96 23 97
REMARK H PARENT 3 7 86 25 54 36 8 76 15 88
REMARK Flexibility Score: inf
ROOT
ATOM      1  C   UNL A   1      31.740  31.057  26.135  1.00  0.00     0.023 C 
ENDROOT
BRANCH   1   2
ATOM      2  C   UNL A   1      31.404  32.334  26.890  1.00  0.00     0.023 C 
BRANCH   2   3
ATOM      3  C   UNL A   1      32.597  33.095  27.427  1.00  0.00     0.116 C 
BRANCH   3   4
ATOM      4  N   UNL A   1      32.322  34.489  27.741  1.00  0.00    -0.352 N 
ATOM      5  O   UNL A   1      32.600  36.424  28.893  1.00  0.00    -0.269 OA
ATOM      6  C   UNL A   1      32.970  35.278  28.662  1.00  0.00     0.251 C 
ATOM      7  H   UNL A   1      31.590  34.915  27.239  1.00  0.00     0.163 HD
BRANCH   6   8
ATOM      8  C   UNL A   1      34.099  34.691  29.408  1.00  0.00     0.039 A 
ATOM      9  C   UNL A   1      35.382  34.714  28.856  1.00  0.00     0.014 A 
ATOM     10  C   UNL A   1      33.851  34.032  30.614  1.00  0.00     0.014 A 
ATOM     11  C   UNL A   1      36.384  33.947  29.429  1.00  0.00     0.010 A 
ATOM     12  C   UNL A   1      34.887  33.341  31.241  1.00  0.00     0.010 A 
ATOM     13  C   UNL A   1      36.152  33.268  30.635  1.00  0.00    -0.014 A 
BRANCH  13  14
ATOM     14  C   UNL A   1      37.275  32.551  31.281  1.00  0.00     0.031 A 
ATOM     15  C   UNL A   1      38.018  31.462  30.569  1.00  0.00     0.074 A 
ATOM     16  C   UNL A   1      37.637  32.933  32.520  1.00  0.00     0.049 A 
ATOM     17  N   UNL A   1      39.019  30.734  30.997  1.00  0.00    -0.248 NA
ATOM     18  C   UNL A   1      37.584  31.137  29.201  1.00  0.00     0.031 C 
ATOM     19  C   UNL A   1      36.979  33.986  33.298  1.00  0.00     0.029 A 
ATOM     20  N   UNL A   1      38.650  32.502  33.334  1.00  0.00    -0.354 N 
ATOM     21  C   UNL A   1      39.320  29.854  29.966  1.00  0.00     0.074 A 
ATOM     22  C   UNL A   1      38.385  30.126  28.893  1.00  0.00     0.031 C 
ATOM     23  C   UNL A   1      37.637  34.156  34.453  1.00  0.00     0.029 A 
ATOM     24  C   UNL A   1      38.715  33.179  34.526  1.00  0.00     0.049 A 
ATOM     25  H   UNL A   1      39.271  31.780  33.087  1.00  0.00     0.167 HD
ATOM     26  C   UNL A   1      40.291  28.911  29.924  1.00  0.00     0.037 A 
ATOM     27  C   UNL A   1      39.541  33.015  35.575  1.00  0.00     0.037 A 
ATOM     28  C   UNL A   1      41.225  28.662  30.994  1.00  0.00     0.049 A 
ATOM     29  C   UNL A   1      40.589  31.946  35.508  1.00  0.00     0.074 A 
ATOM     30  C   UNL A   1      42.257  27.743  31.044  1.00  0.00     0.029 A 
ATOM     31  N   UNL A   1      41.237  29.341  32.205  1.00  0.00    -0.354 N 
ATOM     32  N   UNL A   1      40.864  31.122  34.526  1.00  0.00    -0.248 NA
ATOM     33  C   UNL A   1      41.432  31.776  36.697  1.00  0.00     0.031 C 
ATOM     34  C   UNL A   1      42.871  27.839  32.298  1.00  0.00     0.029 A 
ATOM     35  C   UNL A   1      42.248  28.848  33.015  1.00  0.00     0.049 A 
ATOM     36  H   UNL A   1      40.618  30.065  32.452  1.00  0.00     0.167 HD
ATOM     37  C   UNL A   1      41.918  30.340  34.973  1.00  0.00     0.074 A 
ATOM     38  C   UNL A   1      42.247  30.805  36.307  1.00  0.00     0.031 C 
ATOM     39  C   UNL A   1      42.552  29.323  34.339  1.00  0.00     0.037 A 
BRANCH  26  40
ATOM     40  C   UNL A   1      40.387  28.058  28.692  1.00  0.00     0.064 A 
ATOM     41  C   UNL A   1      41.147  28.452  27.581  1.00  0.00     0.173 A 
ATOM     42  C   UNL A   1      39.753  26.808  28.643  1.00  0.00     0.173 A 
ATOM     43  F   UNL A   1      41.762  29.644  27.572  1.00  0.00    -0.203 F 
ATOM     44  C   UNL A   1      41.257  27.631  26.461  1.00  0.00     0.198 A 
ATOM     45  C   UNL A   1      39.884  25.979  27.531  1.00  0.00     0.198 A 
ATOM     46  F   UNL A   1      39.018  26.381  29.681  1.00  0.00    -0.203 F 
ATOM     47  F   UNL A   1      41.962  28.042  25.398  1.00  0.00    -0.200 F 
ATOM     48  C   UNL A   1      40.631  26.393  26.439  1.00  0.00     0.200 A 
ATOM     49  F   UNL A   1      39.288  24.778  27.517  1.00  0.00    -0.200 F 
ATOM     50  F   UNL A   1      40.746  25.601  25.365  1.00  0.00    -0.200 F 
ENDBRANCH  26  40
BRANCH  27  51
ATOM     51  C   UNL A   1      39.390  33.886  36.766  1.00  0.00     0.064 A 
ATOM     52  C   UNL A   1      38.658  33.460  37.881  1.00  0.00     0.173 A 
ATOM     53  C   UNL A   1      40.008  35.145  36.829  1.00  0.00     0.173 A 
ATOM     54  F   UNL A   1      38.037  32.270  37.858  1.00  0.00    -0.203 F 
ATOM     55  C   UNL A   1      38.543  34.262  39.012  1.00  0.00     0.198 A 
ATOM     56  C   UNL A   1      39.916  35.934  37.973  1.00  0.00     0.198 A 
ATOM     57  F   UNL A   1      40.728  35.593  35.790  1.00  0.00    -0.203 F 
ATOM     58  F   UNL A   1      37.813  33.844  40.055  1.00  0.00    -0.200 F 
ATOM     59  C   UNL A   1      39.180  35.494  39.061  1.00  0.00     0.200 A 
ATOM     60  F   UNL A   1      40.549  37.113  38.022  1.00  0.00    -0.200 F 
ATOM     61  F   UNL A   1      39.081  36.258  40.158  1.00  0.00    -0.200 F 
ENDBRANCH  27  51
BRANCH  39  62
ATOM     62  C   UNL A   1      43.673  28.663  35.081  1.00  0.00     0.064 A 
ATOM     63  C   UNL A   1      43.450  27.550  35.905  1.00  0.00     0.173 A 
ATOM     64  C   UNL A   1      44.987  29.137  34.952  1.00  0.00     0.173 A 
ATOM     65  F   UNL A   1      42.207  27.075  36.073  1.00  0.00    -0.203 F 
ATOM     66  C   UNL A   1      44.501  26.949  36.593  1.00  0.00     0.198 A 
ATOM     67  C   UNL A   1      46.038  28.519  35.622  1.00  0.00     0.198 A 
ATOM     68  F   UNL A   1      45.251  30.197  34.174  1.00  0.00    -0.203 F 
ATOM     69  F   UNL A   1      44.258  25.916  37.411  1.00  0.00    -0.200 F 
ATOM     70  C   UNL A   1      45.793  27.430  36.447  1.00  0.00     0.200 A 
ATOM     71  F   UNL A   1      47.288  28.978  35.475  1.00  0.00    -0.200 F 
ATOM     72  F   UNL A   1      46.803  26.850  37.109  1.00  0.00    -0.200 F 
ENDBRANCH  39  62
ENDBRANCH  13  14
ENDBRANCH   6   8
ENDBRANCH   3   4
ENDBRANCH   2   3
ENDBRANCH   1   2
BRANCH   1  73
ATOM     73  C   UNL A   1      31.747  29.766  26.958  1.00  0.00     0.116 C 
BRANCH  73  74
ATOM     74  N   UNL A   1      33.078  29.257  27.197  1.00  0.00    -0.356 N 
ATOM     75  C   UNL A   1      33.923  28.534  26.425  1.00  0.00     0.227 C 
ATOM     76  H   UNL A   1      33.437  29.477  28.087  1.00  0.00     0.163 HD
ATOM     77  O   UNL A   1      35.079  28.435  26.857  1.00  0.00    -0.275 OA
BRANCH  75  78
ATOM     78  C   UNL A   1      33.570  27.888  25.083  1.00  0.00     0.127 C 
ATOM     79  C   UNL A   1      32.195  28.114  24.375  1.00  0.00     0.127 C 
ATOM     80  C   UNL A   1      33.511  26.351  25.338  1.00  0.00     0.155 C 
ATOM     81  C   UNL A   1      31.556  26.742  24.517  1.00  0.00     0.155 C 
ATOM     82  C   UNL A   1      32.538  26.051  26.444  1.00  0.00     0.004 C 
ATOM     83  O   UNL A   1      32.695  25.907  24.221  1.00  0.00    -0.365 OA
ATOM     84  C   UNL A   1      31.334  26.359  25.954  1.00  0.00     0.004 C 
BRANCH  79  85
ATOM     85  C   UNL A   1      32.438  28.791  23.012  1.00  0.00     0.231 C 
ATOM     86  O   UNL A   1      33.597  28.775  22.566  1.00  0.00    -0.274 OA
ATOM     87  N   UNL A   1      31.499  29.227  22.133  1.00  0.00    -0.325 N 
ATOM     88  H   UNL A   1      31.805  29.235  21.198  1.00  0.00     0.169 HD
BRANCH  87  89
ATOM     89  C   UNL A   1      30.187  29.666  22.299  1.00  0.00     0.048 A 
ATOM     90  C   UNL A   1      29.263  28.789  22.869  1.00  0.00     0.026 A 
ATOM     91  C   UNL A   1      29.767  30.920  21.878  1.00  0.00     0.111 A 
ATOM     92  C   UNL A   1      27.979  29.236  23.193  1.00  0.00     0.009 A 
ATOM     93  C   UNL A   1      28.515  31.397  22.279  1.00  0.00     0.271 A 
ATOM     94  C   UNL A   1      27.615  30.560  22.944  1.00  0.00     0.086 A 
BRANCH  93  95
ATOM     95  N   UNL A   1      28.189  32.812  22.067  1.00  0.00     0.062 N 
ATOM     96  O   UNL A   1      28.478  33.612  22.966  1.00  0.00    -0.258 OA
ATOM     97  O   UNL A   1      27.661  33.124  20.989  1.00  0.00    -0.258 OA
ENDBRANCH  93  95
ENDBRANCH  87  89
ENDBRANCH  79  85
ENDBRANCH  75  78
ENDBRANCH  73  74
ENDBRANCH   1  73
TORSDOF 14
ENDMDL
MODEL 2
REMARK VINA RESULT:     -13.4      0.636      7.239
REMARK SMILES O=C(NCCCCNC(=O)[C@@H]1[C@@H](C(=O)Nc2cccc([N+](=O)[O-])c2)[C@@H]2C=C[C@H]1O2)c1ccc(-c2c3nc(c(-c4c(F)c(F)c(F)c(F)c4F)c4ccc([nH]4)c(-c4c(F)c(F)c(F)c(F)c4F)c4nc(c(-c5c(F)c(F)c(F)c(F)c5F)c5ccc2[nH]5)C=C4)C=C3)cc1
REMARK SMILES IDX 6 1 5 2 4 3 3 4 1 5 2 6 30 8 31 9 92 10 32 11 91 12 33 13
REMARK SMILES IDX 34 14 35 15 85 16 36 17 90 18 84 19 86 20 37 21 89 22 83 23
REMARK SMILES IDX 82 24 38 26 70 27 50 28 69 29 51 30 54 31 68 32 87 33 52 34
REMARK SMILES IDX 53 35 67 37 88 38 55 39 39 40 40 41 48 42 41 43 42 44 46 45
REMARK SMILES IDX 49 46 43 47 44 48 47 49 45 50 71 51 72 52 80 53 73 54 74 55
REMARK SMILES IDX 78 56 81 57 75 58 76 59 79 60 77 61 56 62 57 63 65 64 58 65
REMARK SMILES IDX 59 66 63 67 66 68 60 69 61 70 64 71 62 72 7 73 8 74 9 75
REMARK SMILES IDX 10 77 11 78 12 79 28 80 25 81 27 82 29 83 26 84 13 85 14 86
REMARK SMILES IDX 15 87 16 89 17 90 24 91 18 92 20 93 19 94 21 95 22 96 23 97
REMARK H PARENT 3 7 86 25 54 36 8 76 15 88
REMARK Flexibility Score: inf
ROOT
ATOM      1  C   UNL A   1      31.367  30.931  25.795  1.00  0.00     0.023 C 
ENDROOT
BRANCH   1   2
ATOM      2  C   UNL A   1      31.190  32.268  26.496  1.00  0.00     0.023 C 
BRANCH   2   3
ATOM      3  C   UNL A   1      32.465  32.892  27.020  1.00  0.00     0.116 C 
BRANCH   3   4
ATOM      4  N   UNL A   1      32.283  34.204  27.624  1.00  0.00    -0.352 N 
ATOM      5  O   UNL A   1      32.754  35.867  29.093  1.00  0.00    -0.269 OA
ATOM      6  C   UNL A   1      33.050  34.781  28.608  1.00  0.00     0.251 C 
ATOM      7  H   UNL A   1      31.526  34.737  27.291  1.00  0.00     0.163 HD
BRANCH   6   8
ATOM      8  C   UNL A   1      34.219  34.032  29.107  1.00  0.00     0.039 A 
ATOM      9  C   UNL A   1      34.030  32.899  29.902  1.00  0.00     0.014 A 
ATOM     10  C   UNL A   1      35.502  34.524  28.857  1.00  0.00     0.014 A 
ATOM     11  C   UNL A   1      35.110  32.350  30.575  1.00  0.00     0.010 A 
ATOM     12  C   UNL A   1      36.599  33.908  29.458  1.00  0.00     0.010 A 
ATOM     13  C   UNL A   1      36.406  32.838  30.346  1.00  0.00    -0.014 A 
BRANCH  13  14
ATOM     14  C   UNL A   1      37.552  32.156  30.992  1.00  0.00     0.031 A 
ATOM     15  C   UNL A   1      37.958  32.477  32.398  1.00  0.00     0.074 A 
ATOM     16  C   UNL A   1      38.199  31.208  30.288  1.00  0.00     0.049 A 
ATOM     17  N   UNL A   1      38.940  31.975  33.105  1.00  0.00    -0.248 NA
ATOM     18  C   UNL A   1      37.169  33.496  33.109  1.00  0.00     0.031 C 
ATOM     19  C   UNL A   1      37.878  30.820  28.912  1.00  0.00     0.029 A 
ATOM     20  N   UNL A   1      39.239  30.388  30.632  1.00  0.00    -0.354 N 
ATOM     21  C   UNL A   1      38.903  32.628  34.329  1.00  0.00     0.074 A 
ATOM     22  C   UNL A   1      37.810  33.577  34.268  1.00  0.00     0.031 C 
ATOM     23  C   UNL A   1      38.668  29.801  28.548  1.00  0.00     0.029 A 
ATOM     24  C   UNL A   1      39.595  29.515  29.634  1.00  0.00     0.049 A 
ATOM     25  H   UNL A   1      39.686  30.420  31.507  1.00  0.00     0.167 HD
ATOM     26  C   UNL A   1      39.708  32.445  35.403  1.00  0.00     0.037 A 
ATOM     27  C   UNL A   1      40.576  28.596  29.592  1.00  0.00     0.037 A 
ATOM     28  C   UNL A   1      40.782  31.486  35.456  1.00  0.00     0.049 A 
ATOM     29  C   UNL A   1      41.466  28.435  30.787  1.00  0.00     0.074 A 
ATOM     30  C   UNL A   1      41.644  31.209  36.502  1.00  0.00     0.029 A 
ATOM     31  N   UNL A   1      41.140  30.643  34.411  1.00  0.00    -0.354 N 
ATOM     32  N   UNL A   1      41.418  29.057  31.940  1.00  0.00    -0.248 NA
ATOM     33  C   UNL A   1      42.551  27.453  30.672  1.00  0.00     0.031 C 
ATOM     34  C   UNL A   1      42.547  30.226  36.079  1.00  0.00     0.029 A 
ATOM     35  C   UNL A   1      42.220  29.859  34.783  1.00  0.00     0.049 A 
ATOM     36  H   UNL A   1      40.691  30.608  33.536  1.00  0.00     0.167 HD
ATOM     37  C   UNL A   1      42.460  28.539  32.693  1.00  0.00     0.074 A 
ATOM     38  C   UNL A   1      43.108  27.533  31.873  1.00  0.00     0.031 C 
ATOM     39  C   UNL A   1      42.850  28.870  33.948  1.00  0.00     0.037 A 
BRANCH  26  40
ATOM     40  C   UNL A   1      39.476  33.311  36.607  1.00  0.00     0.064 A 
ATOM     41  C   UNL A   1      40.091  34.564  36.743  1.00  0.00     0.173 A 
ATOM     42  C   UNL A   1      38.588  32.904  37.614  1.00  0.00     0.173 A 
ATOM     43  F   UNL A   1      40.959  34.994  35.814  1.00  0.00    -0.203 F 
ATOM     44  C   UNL A   1      39.836  35.372  37.848  1.00  0.00     0.198 A 
ATOM     45  C   UNL A   1      38.316  33.725  38.707  1.00  0.00     0.198 A 
ATOM     46  F   UNL A   1      37.970  31.716  37.531  1.00  0.00    -0.203 F 
ATOM     47  F   UNL A   1      40.458  36.552  37.972  1.00  0.00    -0.200 F 
ATOM     48  C   UNL A   1      38.944  34.955  38.826  1.00  0.00     0.200 A 
ATOM     49  F   UNL A   1      37.446  33.324  39.645  1.00  0.00    -0.200 F 
ATOM     50  F   UNL A   1      38.692  35.738  39.883  1.00  0.00    -0.200 F 
ENDBRANCH  26  40
BRANCH  27  51
ATOM     51  C   UNL A   1      40.756  27.775  28.370  1.00  0.00     0.064 A 
ATOM     52  C   UNL A   1      41.565  28.221  27.317  1.00  0.00     0.173 A 
ATOM     53  C   UNL A   1      40.156  26.513  28.246  1.00  0.00     0.173 A 
ATOM     54  F   UNL A   1      42.146  29.429  27.386  1.00  0.00    -0.203 F 
ATOM     55  C   UNL A   1      41.762  27.439  26.183  1.00  0.00     0.198 A 
ATOM     56  C   UNL A   1      40.377  25.719  27.124  1.00  0.00     0.198 A 
ATOM     57  F   UNL A   1      39.380  26.039  29.231  1.00  0.00    -0.203 F 
ATOM     58  F   UNL A   1      42.517  27.900  25.177  1.00  0.00    -0.200 F 
ATOM     59  C   UNL A   1      41.175  26.185  26.091  1.00  0.00     0.200 A 
ATOM     60  F   UNL A   1      39.824  24.501  27.049  1.00  0.00    -0.200 F 
ATOM     61  F   UNL A   1      41.379  25.426  25.005  1.00  0.00    -0.200 F 
ENDBRANCH  27  51
BRANCH  39  62
ATOM     62  C   UNL A   1      44.021  28.123  34.508  1.00  0.00     0.064 A 
ATOM     63  C   UNL A   1      43.857  26.903  35.181  1.00  0.00     0.173 A 
ATOM     64  C   UNL A   1      45.323  28.622  34.355  1.00  0.00     0.173 A 
ATOM     65  F   UNL A   1      42.628  26.397  35.368  1.00  0.00    -0.203 F 
ATOM     66  C   UNL A   1      44.953  26.222  35.702  1.00  0.00     0.198 A 
ATOM     67  C   UNL A   1      46.418  27.926  34.856  1.00  0.00     0.198 A 
ATOM     68  F   UNL A   1      45.531  29.783  33.717  1.00  0.00    -0.203 F 
ATOM     69  F   UNL A   1      44.768  25.082  36.381  1.00  0.00    -0.200 F 
ATOM     70  C   UNL A   1      46.232  26.730  35.534  1.00  0.00     0.200 A 
ATOM     71  F   UNL A   1      47.655  28.413  34.687  1.00  0.00    -0.200 F 
ATOM     72  F   UNL A   1      47.286  26.072  36.036  1.00  0.00    -0.200 F 
ENDBRANCH  39  62
ENDBRANCH  13  14
ENDBRANCH   6   8
ENDBRANCH   3   4
ENDBRANCH   2   3
ENDBRANCH   1   2
BRANCH   1  73
ATOM     73  C   UNL A   1      31.411  29.694  26.697  1.00  0.00     0.116 C 
BRANCH  73  74
ATOM     74  N   UNL A   1      32.757  29.277  27.016  1.00  0.00    -0.356 N 
ATOM     75  C   UNL A   1      33.688  28.601  26.302  1.00  0.00     0.227 C 
ATOM     76  H   UNL A   1      33.052  29.531  27.920  1.00  0.00     0.163 HD
ATOM     77  O   UNL A   1      34.823  28.584  26.799  1.00  0.00    -0.275 OA
BRANCH  75  78
ATOM     78  C   UNL A   1      33.453  27.916  24.955  1.00  0.00     0.127 C 
ATOM     79  C   UNL A   1      32.092  28.003  24.192  1.00  0.00     0.127 C 
ATOM     80  C   UNL A   1      33.533  26.382  25.222  1.00  0.00     0.155 C 
ATOM     81  C   UNL A   1      31.583  26.575  24.323  1.00  0.00     0.155 C 
ATOM     82  C   UNL A   1      32.551  25.996  26.293  1.00  0.00     0.004 C 
ATOM     83  O   UNL A   1      32.809  25.854  24.079  1.00  0.00    -0.365 OA
ATOM     84  C   UNL A   1      31.343  26.182  25.754  1.00  0.00     0.004 C 
BRANCH  79  85
ATOM     85  C   UNL A   1      32.321  28.692  22.833  1.00  0.00     0.231 C 
ATOM     86  O   UNL A   1      33.460  28.621  22.343  1.00  0.00    -0.274 OA
ATOM     87  N   UNL A   1      31.376  29.196  21.998  1.00  0.00    -0.325 N 
ATOM     88  H   UNL A   1      31.647  29.205  21.052  1.00  0.00     0.169 HD
BRANCH  87  89
ATOM     89  C   UNL A   1      30.097  29.703  22.222  1.00  0.00     0.048 A 
ATOM     90  C   UNL A   1      29.130  28.849  22.753  1.00  0.00     0.026 A 
ATOM     91  C   UNL A   1      29.750  31.006  21.894  1.00  0.00     0.111 A 
ATOM     92  C   UNL A   1      27.883  29.352  23.134  1.00  0.00     0.009 A 
ATOM     93  C   UNL A   1      28.538  31.532  22.353  1.00  0.00     0.271 A 
ATOM     94  C   UNL A   1      27.599  30.709  22.981  1.00  0.00     0.086 A 
BRANCH  93  95
ATOM     95  N   UNL A   1      28.299  32.975  22.241  1.00  0.00     0.062 N 
ATOM     96  O   UNL A   1      28.772  33.708  23.120  1.00  0.00    -0.258 OA
ATOM     97  O   UNL A   1      27.653  33.377  21.262  1.00  0.00    -0.258 OA
ENDBRANCH  93  95
ENDBRANCH  87  89
ENDBRANCH  79  85
ENDBRANCH  75  78
ENDBRANCH  73  74
ENDBRANCH   1  73
TORSDOF 14
ENDMDL
MODEL 3
REMARK VINA RESULT:     -13.4      0.470      2.032
REMARK SMILES O=C(NCCCCNC(=O)[C@@H]1[C@@H](C(=O)Nc2cccc([N+](=O)[O-])c2)[C@@H]2C=C[C@H]1O2)c1ccc(-c2c3nc(c(-c4c(F)c(F)c(F)c(F)c4F)c4ccc([nH]4)c(-c4c(F)c(F)c(F)c(F)c4F)c4nc(c(-c5c(F)c(F)c(F)c(F)c5F)c5ccc2[nH]5)C=C4)C=C3)cc1
REMARK SMILES IDX 6 1 5 2 4 3 3 4 1 5 2 6 30 8 31 9 92 10 32 11 91 12 33 13
REMARK SMILES IDX 34 14 35 15 85 16 36 17 90 18 84 19 86 20 37 21 89 22 83 23
REMARK SMILES IDX 82 24 38 26 70 27 50 28 69 29 51 30 54 31 68 32 87 33 52 34
REMARK SMILES IDX 53 35 67 37 88 38 55 39 39 40 40 41 48 42 41 43 42 44 46 45
REMARK SMILES IDX 49 46 43 47 44 48 47 49 45 50 71 51 72 52 80 53 73 54 74 55
REMARK SMILES IDX 78 56 81 57 75 58 76 59 79 60 77 61 56 62 57 63 65 64 58 65
REMARK SMILES IDX 59 66 63 67 66 68 60 69 61 70 64 71 62 72 7 73 8 74 9 75
REMARK SMILES IDX 10 77 11 78 12 79 28 80 25 81 27 82 29 83 26 84 13 85 14 86
REMARK SMILES IDX 15 87 16 89 17 90 24 91 18 92 20 93 19 94 21 95 22 96 23 97
REMARK H PARENT 3 7 86 25 54 36 8 76 15 88
REMARK Flexibility Score: inf
ROOT
ATOM      1  C   UNL A   1      31.400  30.966  25.820  1.00  0.00     0.023 C 
ENDROOT
BRANCH   1   2
ATOM      2  C   UNL A   1      31.224  32.304  26.520  1.00  0.00     0.023 C 
BRANCH   2   3
ATOM      3  C   UNL A   1      32.493  32.906  27.082  1.00  0.00     0.116 C 
BRANCH   3   4
ATOM      4  N   UNL A   1      32.318  34.227  27.668  1.00  0.00    -0.352 N 
ATOM      5  O   UNL A   1      32.800  35.910  29.112  1.00  0.00    -0.269 OA
ATOM      6  C   UNL A   1      33.090  34.815  28.642  1.00  0.00     0.251 C 
ATOM      7  H   UNL A   1      31.563  34.760  27.328  1.00  0.00     0.163 HD
BRANCH   6   8
ATOM      8  C   UNL A   1      34.256  34.067  29.150  1.00  0.00     0.039 A 
ATOM      9  C   UNL A   1      34.064  32.983  30.009  1.00  0.00     0.014 A 
ATOM     10  C   UNL A   1      35.541  34.516  28.841  1.00  0.00     0.014 A 
ATOM     11  C   UNL A   1      35.151  32.446  30.682  1.00  0.00     0.010 A 
ATOM     12  C   UNL A   1      36.641  33.909  29.445  1.00  0.00     0.010 A 
ATOM     13  C   UNL A   1      36.450  32.892  30.393  1.00  0.00    -0.014 A 
BRANCH  13  14
ATOM     14  C   UNL A   1      37.599  32.220  31.045  1.00  0.00     0.031 A 
ATOM     15  C   UNL A   1      38.392  31.167  30.334  1.00  0.00     0.074 A 
ATOM     16  C   UNL A   1      37.934  32.613  32.289  1.00  0.00     0.049 A 
ATOM     17  N   UNL A   1      39.420  30.480  30.767  1.00  0.00    -0.248 NA
ATOM     18  C   UNL A   1      37.982  30.830  28.962  1.00  0.00     0.031 C 
ATOM     19  C   UNL A   1      37.226  33.633  33.065  1.00  0.00     0.029 A 
ATOM     20  N   UNL A   1      38.959  32.221  33.108  1.00  0.00    -0.354 N 
ATOM     21  C   UNL A   1      39.766  29.618  29.735  1.00  0.00     0.074 A 
ATOM     22  C   UNL A   1      38.828  29.854  28.656  1.00  0.00     0.031 C 
ATOM     23  C   UNL A   1      37.868  33.826  34.226  1.00  0.00     0.029 A 
ATOM     24  C   UNL A   1      38.986  32.895  34.303  1.00  0.00     0.049 A 
ATOM     25  H   UNL A   1      39.611  31.527  32.863  1.00  0.00     0.167 HD
ATOM     26  C   UNL A   1      40.776  28.717  29.697  1.00  0.00     0.037 A 
ATOM     27  C   UNL A   1      39.810  32.762  35.358  1.00  0.00     0.037 A 
ATOM     28  C   UNL A   1      41.712  28.504  30.772  1.00  0.00     0.049 A 
ATOM     29  C   UNL A   1      40.903  31.738  35.295  1.00  0.00     0.074 A 
ATOM     30  C   UNL A   1      42.782  27.629  30.827  1.00  0.00     0.029 A 
ATOM     31  N   UNL A   1      41.686  29.178  31.987  1.00  0.00    -0.354 N 
ATOM     32  N   UNL A   1      41.221  30.931  34.312  1.00  0.00    -0.248 NA
ATOM     33  C   UNL A   1      41.744  31.600  36.489  1.00  0.00     0.031 C 
ATOM     34  C   UNL A   1      43.382  27.746  32.086  1.00  0.00     0.029 A 
ATOM     35  C   UNL A   1      42.711  28.725  32.802  1.00  0.00     0.049 A 
ATOM     36  H   UNL A   1      41.035  29.874  32.231  1.00  0.00     0.167 HD
ATOM     37  C   UNL A   1      42.304  30.193  34.764  1.00  0.00     0.074 A 
ATOM     38  C   UNL A   1      42.602  30.666  36.101  1.00  0.00     0.031 C 
ATOM     39  C   UNL A   1      42.985  29.207  34.131  1.00  0.00     0.037 A 
BRANCH  26  40
ATOM     40  C   UNL A   1      40.918  27.875  28.462  1.00  0.00     0.064 A 
ATOM     41  C   UNL A   1      40.259  26.644  28.331  1.00  0.00     0.173 A 
ATOM     42  C   UNL A   1      41.681  28.330  27.376  1.00  0.00     0.173 A 
ATOM     43  F   UNL A   1      39.527  26.158  29.345  1.00  0.00    -0.203 F 
ATOM     44  C   UNL A   1      40.370  25.893  27.163  1.00  0.00     0.198 A 
ATOM     45  C   UNL A   1      41.771  27.587  26.201  1.00  0.00     0.198 A 
ATOM     46  F   UNL A   1      42.328  29.503  27.449  1.00  0.00    -0.203 F 
ATOM     47  F   UNL A   1      39.757  24.705  27.071  1.00  0.00    -0.200 F 
ATOM     48  C   UNL A   1      41.119  26.368  26.097  1.00  0.00     0.200 A 
ATOM     49  F   UNL A   1      42.487  28.054  25.168  1.00  0.00    -0.200 F 
ATOM     50  F   UNL A   1      41.217  25.649  24.971  1.00  0.00    -0.200 F 
ENDBRANCH  26  40
BRANCH  27  51
ATOM     51  C   UNL A   1      39.614  33.621  36.551  1.00  0.00     0.064 A 
ATOM     52  C   UNL A   1      40.205  34.889  36.629  1.00  0.00     0.173 A 
ATOM     53  C   UNL A   1      38.801  33.210  37.618  1.00  0.00     0.173 A 
ATOM     54  F   UNL A   1      41.003  35.317  35.639  1.00  0.00    -0.203 F 
ATOM     55  C   UNL A   1      39.996  35.710  37.733  1.00  0.00     0.198 A 
ATOM     56  C   UNL A   1      38.569  34.045  38.708  1.00  0.00     0.198 A 
ATOM     57  F   UNL A   1      38.206  32.009  37.585  1.00  0.00    -0.203 F 
ATOM     58  F   UNL A   1      40.595  36.907  37.797  1.00  0.00    -0.200 F 
ATOM     59  C   UNL A   1      39.170  35.292  38.766  1.00  0.00     0.200 A 
ATOM     60  F   UNL A   1      37.756  33.644  39.694  1.00  0.00    -0.200 F 
ATOM     61  F   UNL A   1      38.957  36.091  39.821  1.00  0.00    -0.200 F 
ENDBRANCH  27  51
BRANCH  39  62
ATOM     62  C   UNL A   1      44.128  28.592  34.878  1.00  0.00     0.064 A 
ATOM     63  C   UNL A   1      45.418  29.140  34.823  1.00  0.00     0.173 A 
ATOM     64  C   UNL A   1      43.927  27.453  35.672  1.00  0.00     0.173 A 
ATOM     65  F   UNL A   1      45.660  30.217  34.060  1.00  0.00    -0.203 F 
ATOM     66  C   UNL A   1      46.472  28.555  35.517  1.00  0.00     0.198 A 
ATOM     67  C   UNL A   1      44.979  26.886  36.385  1.00  0.00     0.198 A 
ATOM     68  F   UNL A   1      42.712  26.894  35.759  1.00  0.00    -0.203 F 
ATOM     69  F   UNL A   1      47.706  29.068  35.414  1.00  0.00    -0.200 F 
ATOM     70  C   UNL A   1      46.252  27.433  36.302  1.00  0.00     0.200 A 
ATOM     71  F   UNL A   1      44.764  25.806  37.149  1.00  0.00    -0.200 F 
ATOM     72  F   UNL A   1      47.268  26.872  36.971  1.00  0.00    -0.200 F 
ENDBRANCH  39  62
ENDBRANCH  13  14
ENDBRANCH   6   8
ENDBRANCH   3   4
ENDBRANCH   2   3
ENDBRANCH   1   2
BRANCH   1  73
ATOM     73  C   UNL A   1      31.481  29.733  26.726  1.00  0.00     0.116 C 
BRANCH  73  74
ATOM     74  N   UNL A   1      32.840  29.339  27.020  1.00  0.00    -0.356 N 
ATOM     75  C   UNL A   1      33.767  28.676  26.289  1.00  0.00     0.227 C 
ATOM     76  H   UNL A   1      33.147  29.600  27.918  1.00  0.00     0.163 HD
ATOM     77  O   UNL A   1      34.912  28.678  26.764  1.00  0.00    -0.275 OA
BRANCH  75  78
ATOM     78  C   UNL A   1      33.516  27.984  24.948  1.00  0.00     0.127 C 
ATOM     79  C   UNL A   1      32.151  28.079  24.194  1.00  0.00     0.127 C 
ATOM     80  C   UNL A   1      33.585  26.451  25.225  1.00  0.00     0.155 C 
ATOM     81  C   UNL A   1      31.630  26.657  24.337  1.00  0.00     0.155 C 
ATOM     82  C   UNL A   1      32.606  26.081  26.305  1.00  0.00     0.004 C 
ATOM     83  O   UNL A   1      32.848  25.922  24.090  1.00  0.00    -0.365 OA
ATOM     84  C   UNL A   1      31.396  26.275  25.773  1.00  0.00     0.004 C 
BRANCH  79  85
ATOM     85  C   UNL A   1      32.378  28.756  22.828  1.00  0.00     0.231 C 
ATOM     86  O   UNL A   1      33.526  28.717  22.357  1.00  0.00    -0.274 OA
ATOM     87  N   UNL A   1      31.429  29.217  21.973  1.00  0.00    -0.325 N 
ATOM     88  H   UNL A   1      31.714  29.223  21.031  1.00  0.00     0.169 HD
BRANCH  87  89
ATOM     89  C   UNL A   1      30.131  29.684  22.171  1.00  0.00     0.048 A 
ATOM     90  C   UNL A   1      29.192  28.814  22.729  1.00  0.00     0.026 A 
ATOM     91  C   UNL A   1      29.738  30.959  21.792  1.00  0.00     0.111 A 
ATOM     92  C   UNL A   1      27.925  29.284  23.085  1.00  0.00     0.009 A 
ATOM     93  C   UNL A   1      28.504  31.457  22.225  1.00  0.00     0.271 A 
ATOM     94  C   UNL A   1      27.592  30.623  22.879  1.00  0.00     0.086 A 
BRANCH  93  95
ATOM     95  N   UNL A   1      28.212  32.885  22.058  1.00  0.00     0.062 N 
ATOM     96  O   UNL A   1      28.643  33.666  22.917  1.00  0.00    -0.258 OA
ATOM     97  O   UNL A   1      27.566  33.226  21.056  1.00  0.00    -0.258 OA
ENDBRANCH  93  95
ENDBRANCH  87  89
ENDBRANCH  79  85
ENDBRANCH  75  78
ENDBRANCH  73  74
ENDBRANCH   1  73
TORSDOF 14
ENDMDL
