MODEL 1
REMARK VINA RESULT:     -11.9      0.000      0.000
REMARK SMILES O=C(NCCCCNC(=O)[C@H]1CC[C@@H]2CCCC[C@H]2[NH2+]1)c1ccc(-c2c3nc(c(-c4c(F)c(F)c(F)c(F)c4F)c4ccc([nH]4)c(-c4c(F)c(F)c(F)c(F)c4F)c4nc(c(-c5c(F)c(F)c(F)c(F)c5F)c5ccc2[nH]5)C=C4)C=C3)cc1
REMARK SMILES IDX 4 1 3 2 1 3 2 4 21 6 22 7 83 8 23 9 82 10 24 11 25 12 26 13
REMARK SMILES IDX 76 14 27 15 81 16 75 17 77 18 28 19 80 20 74 21 73 22 29 24
REMARK SMILES IDX 61 25 41 26 60 27 42 28 45 29 59 30 78 31 43 32 44 33 58 35
REMARK SMILES IDX 79 36 46 37 30 38 31 39 39 40 32 41 33 42 37 43 40 44 34 45
REMARK SMILES IDX 35 46 38 47 36 48 62 49 63 50 71 51 64 52 65 53 69 54 72 55
REMARK SMILES IDX 66 56 67 57 70 58 68 59 47 60 48 61 56 62 49 63 50 64 54 65
REMARK SMILES IDX 57 66 51 67 52 68 55 69 53 70 5 71 6 72 7 73 8 74 9 75 10 77
REMARK SMILES IDX 11 78 12 79 20 80 13 81 19 82 14 85 18 86 15 87 17 88 16 89
REMARK H PARENT 3 5 77 23 45 34 8 76 20 83 20 84
REMARK Flexibility Score: inf
ROOT
ATOM      1  C   UNL A   1      32.609  32.889  27.081  1.00  0.00     0.116 C 
ENDROOT
BRANCH   1   2
ATOM      2  N   UNL A   1      32.431  34.225  27.627  1.00  0.00    -0.352 N 
ATOM      3  O   UNL A   1      32.652  35.897  29.125  1.00  0.00    -0.269 OA
ATOM      4  C   UNL A   1      33.063  34.823  28.691  1.00  0.00     0.251 C 
ATOM      5  H   UNL A   1      31.761  34.781  27.169  1.00  0.00     0.163 HD
BRANCH   4   6
ATOM      6  C   UNL A   1      34.224  34.168  29.328  1.00  0.00     0.039 A 
ATOM      7  C   UNL A   1      34.049  33.271  30.386  1.00  0.00     0.014 A 
ATOM      8  C   UNL A   1      35.507  34.438  28.844  1.00  0.00     0.014 A 
ATOM      9  C   UNL A   1      35.157  32.750  31.045  1.00  0.00     0.010 A 
ATOM     10  C   UNL A   1      36.616  33.846  29.451  1.00  0.00     0.010 A 
ATOM     11  C   UNL A   1      36.452  33.017  30.573  1.00  0.00    -0.014 A 
BRANCH  11  12
ATOM     12  C   UNL A   1      37.621  32.365  31.213  1.00  0.00     0.031 A 
ATOM     13  C   UNL A   1      38.319  31.208  30.560  1.00  0.00     0.074 A 
ATOM     14  C   UNL A   1      38.037  32.814  32.413  1.00  0.00     0.049 A 
ATOM     15  N   UNL A   1      39.315  30.483  31.006  1.00  0.00    -0.248 NA
ATOM     16  C   UNL A   1      37.826  30.801  29.237  1.00  0.00     0.031 C 
ATOM     17  C   UNL A   1      37.428  33.921  33.151  1.00  0.00     0.029 A 
ATOM     18  N   UNL A   1      39.055  32.390  33.228  1.00  0.00    -0.354 N 
ATOM     19  C   UNL A   1      39.555  29.525  30.031  1.00  0.00     0.074 A 
ATOM     20  C   UNL A   1      38.580  29.741  28.982  1.00  0.00     0.031 C 
ATOM     21  C   UNL A   1      38.088  34.097  34.303  1.00  0.00     0.029 A 
ATOM     22  C   UNL A   1      39.122  33.074  34.416  1.00  0.00     0.049 A 
ATOM     23  H   UNL A   1      39.677  31.667  32.984  1.00  0.00     0.167 HD
ATOM     24  C   UNL A   1      40.506  28.559  30.015  1.00  0.00     0.037 A 
ATOM     25  C   UNL A   1      39.899  32.878  35.497  1.00  0.00     0.037 A 
ATOM     26  C   UNL A   1      41.471  28.356  31.067  1.00  0.00     0.049 A 
ATOM     27  C   UNL A   1      40.919  31.776  35.475  1.00  0.00     0.074 A 
ATOM     28  C   UNL A   1      42.508  27.441  31.122  1.00  0.00     0.029 A 
ATOM     29  N   UNL A   1      41.504  29.067  32.259  1.00  0.00    -0.354 N 
ATOM     30  N   UNL A   1      41.177  30.911  34.524  1.00  0.00    -0.248 NA
ATOM     31  C   UNL A   1      41.758  31.623  36.671  1.00  0.00     0.031 C 
ATOM     32  C   UNL A   1      43.123  27.550  32.374  1.00  0.00     0.029 A 
ATOM     33  C   UNL A   1      42.518  28.583  33.072  1.00  0.00     0.049 A 
ATOM     34  H   UNL A   1      40.897  29.806  32.493  1.00  0.00     0.167 HD
ATOM     35  C   UNL A   1      42.218  30.125  34.996  1.00  0.00     0.074 A 
ATOM     36  C   UNL A   1      42.552  30.624  36.314  1.00  0.00     0.031 C 
ATOM     37  C   UNL A   1      42.842  29.087  34.385  1.00  0.00     0.037 A 
BRANCH  24  38
ATOM     38  C   UNL A   1      40.525  27.621  28.840  1.00  0.00     0.064 A 
ATOM     39  C   UNL A   1      41.354  27.836  27.727  1.00  0.00     0.173 A 
ATOM     40  C   UNL A   1      39.710  26.477  28.834  1.00  0.00     0.173 A 
ATOM     41  F   UNL A   1      42.149  28.915  27.675  1.00  0.00    -0.203 F 
ATOM     42  C   UNL A   1      41.333  26.967  26.637  1.00  0.00     0.198 A 
ATOM     43  C   UNL A   1      39.719  25.592  27.758  1.00  0.00     0.198 A 
ATOM     44  F   UNL A   1      38.907  26.213  29.875  1.00  0.00    -0.203 F 
ATOM     45  F   UNL A   1      42.084  27.231  25.559  1.00  0.00    -0.200 F 
ATOM     46  C   UNL A   1      40.519  25.845  26.656  1.00  0.00     0.200 A 
ATOM     47  F   UNL A   1      38.945  24.498  27.787  1.00  0.00    -0.200 F 
ATOM     48  F   UNL A   1      40.500  25.012  25.606  1.00  0.00    -0.200 F 
ENDBRANCH  24  38
BRANCH  25  49
ATOM     49  C   UNL A   1      39.711  33.744  36.688  1.00  0.00     0.064 A 
ATOM     50  C   UNL A   1      40.325  34.999  36.778  1.00  0.00     0.173 A 
ATOM     51  C   UNL A   1      38.867  33.351  37.738  1.00  0.00     0.173 A 
ATOM     52  F   UNL A   1      41.152  35.411  35.807  1.00  0.00    -0.203 F 
ATOM     53  C   UNL A   1      40.105  35.828  37.877  1.00  0.00     0.198 A 
ATOM     54  C   UNL A   1      38.623  34.192  38.821  1.00  0.00     0.198 A 
ATOM     55  F   UNL A   1      38.248  32.162  37.694  1.00  0.00    -0.203 F 
ATOM     56  F   UNL A   1      40.726  37.013  37.953  1.00  0.00    -0.200 F 
ATOM     57  C   UNL A   1      39.248  35.429  38.892  1.00  0.00     0.200 A 
ATOM     58  F   UNL A   1      37.776  33.812  39.786  1.00  0.00    -0.200 F 
ATOM     59  F   UNL A   1      39.020  36.236  39.936  1.00  0.00    -0.200 F 
ENDBRANCH  25  49
BRANCH  37  60
ATOM     60  C   UNL A   1      43.978  28.434  35.118  1.00  0.00     0.064 A 
ATOM     61  C   UNL A   1      43.781  27.320  35.947  1.00  0.00     0.173 A 
ATOM     62  C   UNL A   1      45.292  28.893  34.936  1.00  0.00     0.173 A 
ATOM     63  F   UNL A   1      42.543  26.854  36.169  1.00  0.00    -0.203 F 
ATOM     64  C   UNL A   1      44.857  26.697  36.574  1.00  0.00     0.198 A 
ATOM     65  C   UNL A   1      46.368  28.248  35.538  1.00  0.00     0.198 A 
ATOM     66  F   UNL A   1      45.535  29.953  34.151  1.00  0.00    -0.203 F 
ATOM     67  F   UNL A   1      44.643  25.656  37.391  1.00  0.00    -0.200 F 
ATOM     68  C   UNL A   1      46.149  27.153  36.361  1.00  0.00     0.200 A 
ATOM     69  F   UNL A   1      47.616  28.682  35.318  1.00  0.00    -0.200 F 
ATOM     70  F   UNL A   1      47.184  26.540  36.950  1.00  0.00    -0.200 F 
ENDBRANCH  37  60
ENDBRANCH  11  12
ENDBRANCH   4   6
ENDBRANCH   1   2
BRANCH   1  71
ATOM     71  C   UNL A   1      31.307  32.298  26.559  1.00  0.00     0.023 C 
BRANCH  71  72
ATOM     72  C   UNL A   1      31.416  30.870  26.023  1.00  0.00     0.023 C 
BRANCH  72  73
ATOM     73  C   UNL A   1      32.806  30.242  26.112  1.00  0.00     0.116 C 
BRANCH  73  74
ATOM     74  N   UNL A   1      33.231  29.683  24.844  1.00  0.00    -0.351 N 
ATOM     75  C   UNL A   1      33.332  28.381  24.450  1.00  0.00     0.278 C 
ATOM     76  H   UNL A   1      33.489  30.345  24.163  1.00  0.00     0.163 HD
ATOM     77  O   UNL A   1      33.688  28.173  23.287  1.00  0.00    -0.268 OA
BRANCH  75  78
ATOM     78  C   UNL A   1      33.007  27.248  25.443  1.00  0.00     0.272 C 
ATOM     79  C   UNL A   1      31.555  26.810  25.228  1.00  0.00     0.076 C 
ATOM     80  N   UNL A   1      33.947  26.128  25.234  1.00  0.00    -0.333 N 
ATOM     81  C   UNL A   1      31.207  25.628  26.126  1.00  0.00     0.016 C 
ATOM     82  C   UNL A   1      33.656  25.002  26.126  1.00  0.00     0.186 C 
ATOM     83  H   UNL A   1      34.896  26.455  25.413  1.00  0.00     0.347 HD
ATOM     84  H   UNL A   1      33.847  25.804  24.271  1.00  0.00     0.347 HD
ATOM     85  C   UNL A   1      32.215  24.495  25.912  1.00  0.00     0.048 C 
ATOM     86  C   UNL A   1      34.661  23.868  25.882  1.00  0.00     0.065 C 
ATOM     87  C   UNL A   1      31.918  23.308  26.832  1.00  0.00     0.010 C 
ATOM     88  C   UNL A   1      34.359  22.657  26.766  1.00  0.00     0.006 C 
ATOM     89  C   UNL A   1      32.919  22.177  26.607  1.00  0.00     0.001 C 
ENDBRANCH  75  78
ENDBRANCH  73  74
ENDBRANCH  72  73
ENDBRANCH  71  72
ENDBRANCH   1  71
TORSDOF 11
ENDMDL
MODEL 2
REMARK VINA RESULT:     -11.8      3.926      9.904
REMARK SMILES O=C(NCCCCNC(=O)[C@H]1CC[C@@H]2CCCC[C@H]2[NH2+]1)c1ccc(-c2c3nc(c(-c4c(F)c(F)c(F)c(F)c4F)c4ccc([nH]4)c(-c4c(F)c(F)c(F)c(F)c4F)c4nc(c(-c5c(F)c(F)c(F)c(F)c5F)c5ccc2[nH]5)C=C4)C=C3)cc1
REMARK SMILES IDX 4 1 3 2 1 3 2 4 21 6 22 7 83 8 23 9 82 10 24 11 25 12 26 13
REMARK SMILES IDX 76 14 27 15 81 16 75 17 77 18 28 19 80 20 74 21 73 22 29 24
REMARK SMILES IDX 61 25 41 26 60 27 42 28 45 29 59 30 78 31 43 32 44 33 58 35
REMARK SMILES IDX 79 36 46 37 30 38 31 39 39 40 32 41 33 42 37 43 40 44 34 45
REMARK SMILES IDX 35 46 38 47 36 48 62 49 63 50 71 51 64 52 65 53 69 54 72 55
REMARK SMILES IDX 66 56 67 57 70 58 68 59 47 60 48 61 56 62 49 63 50 64 54 65
REMARK SMILES IDX 57 66 51 67 52 68 55 69 53 70 5 71 6 72 7 73 8 74 9 75 10 77
REMARK SMILES IDX 11 78 12 79 20 80 13 81 19 82 14 85 18 86 15 87 17 88 16 89
REMARK H PARENT 3 5 77 23 45 34 8 76 20 83 20 84
REMARK Flexibility Score: inf
ROOT
ATOM      1  C   UNL A   1      34.797  32.766  28.127  1.00  0.00     0.116 C 
ENDROOT
BRANCH   1   2
ATOM      2  N   UNL A   1      34.073  31.541  27.832  1.00  0.00    -0.352 N 
ATOM      3  O   UNL A   1      33.812  29.376  27.258  1.00  0.00    -0.269 OA
ATOM      4  C   UNL A   1      34.548  30.260  27.690  1.00  0.00     0.251 C 
ATOM      5  H   UNL A   1      33.101  31.644  27.717  1.00  0.00     0.163 HD
BRANCH   4   6
ATOM      6  C   UNL A   1      35.949  29.946  28.037  1.00  0.00     0.039 A 
ATOM      7  C   UNL A   1      36.976  30.131  27.107  1.00  0.00     0.014 A 
ATOM      8  C   UNL A   1      36.244  29.482  29.322  1.00  0.00     0.014 A 
ATOM      9  C   UNL A   1      38.272  29.726  27.413  1.00  0.00     0.010 A 
ATOM     10  C   UNL A   1      37.560  29.157  29.658  1.00  0.00     0.010 A 
ATOM     11  C   UNL A   1      38.581  29.253  28.698  1.00  0.00    -0.014 A 
BRANCH  11  12
ATOM     12  C   UNL A   1      39.986  28.932  29.049  1.00  0.00     0.031 A 
ATOM     13  C   UNL A   1      40.849  29.920  29.778  1.00  0.00     0.074 A 
ATOM     14  C   UNL A   1      40.490  27.740  28.680  1.00  0.00     0.049 A 
ATOM     15  N   UNL A   1      42.113  29.828  30.110  1.00  0.00    -0.248 NA
ATOM     16  C   UNL A   1      40.214  31.184  30.177  1.00  0.00     0.031 C 
ATOM     17  C   UNL A   1      39.752  26.705  27.954  1.00  0.00     0.029 A 
ATOM     18  N   UNL A   1      41.740  27.201  28.848  1.00  0.00    -0.354 N 
ATOM     19  C   UNL A   1      42.430  31.026  30.737  1.00  0.00     0.074 A 
ATOM     20  C   UNL A   1      41.234  31.842  30.713  1.00  0.00     0.031 C 
ATOM     21  C   UNL A   1      40.556  25.654  27.748  1.00  0.00     0.029 A 
ATOM     22  C   UNL A   1      41.883  25.966  28.266  1.00  0.00     0.049 A 
ATOM     23  H   UNL A   1      42.463  27.654  29.338  1.00  0.00     0.167 HD
ATOM     24  C   UNL A   1      43.611  31.403  31.285  1.00  0.00     0.037 A 
ATOM     25  C   UNL A   1      42.969  25.184  28.126  1.00  0.00     0.037 A 
ATOM     26  C   UNL A   1      44.794  30.580  31.302  1.00  0.00     0.049 A 
ATOM     27  C   UNL A   1      44.278  25.639  28.705  1.00  0.00     0.074 A 
ATOM     28  C   UNL A   1      46.024  30.848  31.880  1.00  0.00     0.029 A 
ATOM     29  N   UNL A   1      44.902  29.335  30.698  1.00  0.00    -0.354 N 
ATOM     30  N   UNL A   1      44.554  26.749  29.346  1.00  0.00    -0.248 NA
ATOM     31  C   UNL A   1      45.425  24.736  28.546  1.00  0.00     0.031 C 
ATOM     32  C   UNL A   1      46.894  29.800  31.564  1.00  0.00     0.029 A 
ATOM     33  C   UNL A   1      46.189  28.841  30.854  1.00  0.00     0.049 A 
ATOM     34  H   UNL A   1      44.173  28.870  30.228  1.00  0.00     0.167 HD
ATOM     35  C   UNL A   1      45.897  26.670  29.685  1.00  0.00     0.074 A 
ATOM     36  C   UNL A   1      46.378  25.397  29.187  1.00  0.00     0.031 C 
ATOM     37  C   UNL A   1      46.658  27.572  30.353  1.00  0.00     0.037 A 
BRANCH  24  38
ATOM     38  C   UNL A   1      43.693  32.783  31.877  1.00  0.00     0.064 A 
ATOM     39  C   UNL A   1      43.404  33.035  33.227  1.00  0.00     0.173 A 
ATOM     40  C   UNL A   1      44.086  33.872  31.081  1.00  0.00     0.173 A 
ATOM     41  F   UNL A   1      43.019  32.034  34.033  1.00  0.00    -0.203 F 
ATOM     42  C   UNL A   1      43.460  34.327  33.746  1.00  0.00     0.198 A 
ATOM     43  C   UNL A   1      44.176  35.157  31.612  1.00  0.00     0.198 A 
ATOM     44  F   UNL A   1      44.387  33.691  29.787  1.00  0.00    -0.203 F 
ATOM     45  F   UNL A   1      43.115  34.550  35.022  1.00  0.00    -0.200 F 
ATOM     46  C   UNL A   1      43.849  35.385  32.940  1.00  0.00     0.200 A 
ATOM     47  F   UNL A   1      44.570  36.176  30.835  1.00  0.00    -0.200 F 
ATOM     48  F   UNL A   1      43.901  36.628  33.440  1.00  0.00    -0.200 F 
ENDBRANCH  24  38
BRANCH  25  49
ATOM     49  C   UNL A   1      42.847  23.904  27.384  1.00  0.00     0.064 A 
ATOM     50  C   UNL A   1      43.155  23.822  26.020  1.00  0.00     0.173 A 
ATOM     51  C   UNL A   1      42.471  22.723  28.043  1.00  0.00     0.173 A 
ATOM     52  F   UNL A   1      43.505  24.926  25.346  1.00  0.00    -0.203 F 
ATOM     53  C   UNL A   1      43.086  22.606  25.342  1.00  0.00     0.198 A 
ATOM     54  C   UNL A   1      42.432  21.504  27.371  1.00  0.00     0.198 A 
ATOM     55  F   UNL A   1      42.176  22.747  29.351  1.00  0.00    -0.203 F 
ATOM     56  F   UNL A   1      43.359  22.559  24.030  1.00  0.00    -0.200 F 
ATOM     57  C   UNL A   1      42.735  21.448  26.019  1.00  0.00     0.200 A 
ATOM     58  F   UNL A   1      42.115  20.384  28.034  1.00  0.00    -0.200 F 
ATOM     59  F   UNL A   1      42.690  20.277  25.369  1.00  0.00    -0.200 F 
ENDBRANCH  25  49
BRANCH  37  60
ATOM     60  C   UNL A   1      48.089  27.207  30.620  1.00  0.00     0.064 A 
ATOM     61  C   UNL A   1      48.461  26.427  31.725  1.00  0.00     0.173 A 
ATOM     62  C   UNL A   1      49.096  27.590  29.719  1.00  0.00     0.173 A 
ATOM     63  F   UNL A   1      47.541  26.050  32.625  1.00  0.00    -0.203 F 
ATOM     64  C   UNL A   1      49.787  26.053  31.922  1.00  0.00     0.198 A 
ATOM     65  C   UNL A   1      50.415  27.187  29.902  1.00  0.00     0.198 A 
ATOM     66  F   UNL A   1      48.793  28.334  28.644  1.00  0.00    -0.203 F 
ATOM     67  F   UNL A   1      50.126  25.338  33.005  1.00  0.00    -0.200 F 
ATOM     68  C   UNL A   1      50.761  26.423  31.006  1.00  0.00     0.200 A 
ATOM     69  F   UNL A   1      51.351  27.534  29.008  1.00  0.00    -0.200 F 
ATOM     70  F   UNL A   1      52.034  26.047  31.189  1.00  0.00    -0.200 F 
ENDBRANCH  37  60
ENDBRANCH  11  12
ENDBRANCH   4   6
ENDBRANCH   1   2
BRANCH   1  71
ATOM     71  C   UNL A   1      34.009  33.702  29.033  1.00  0.00     0.023 C 
BRANCH  71  72
ATOM     72  C   UNL A   1      34.630  33.941  30.409  1.00  0.00     0.023 C 
BRANCH  72  73
ATOM     73  C   UNL A   1      34.789  32.697  31.281  1.00  0.00     0.116 C 
BRANCH  73  74
ATOM     74  N   UNL A   1      34.776  33.018  32.694  1.00  0.00    -0.351 N 
ATOM     75  C   UNL A   1      35.754  32.876  33.635  1.00  0.00     0.278 C 
ATOM     76  H   UNL A   1      33.930  33.395  33.028  1.00  0.00     0.163 HD
ATOM     77  O   UNL A   1      35.496  33.268  34.776  1.00  0.00    -0.268 OA
BRANCH  75  78
ATOM     78  C   UNL A   1      37.108  32.249  33.250  1.00  0.00     0.272 C 
ATOM     79  C   UNL A   1      38.162  32.692  34.269  1.00  0.00     0.076 C 
ATOM     80  N   UNL A   1      36.974  30.778  33.214  1.00  0.00    -0.333 N 
ATOM     81  C   UNL A   1      39.504  32.028  33.985  1.00  0.00     0.016 C 
ATOM     82  C   UNL A   1      38.247  30.126  32.893  1.00  0.00     0.186 C 
ATOM     83  H   UNL A   1      36.285  30.526  32.506  1.00  0.00     0.347 HD
ATOM     84  H   UNL A   1      36.681  30.463  34.140  1.00  0.00     0.347 HD
ATOM     85  C   UNL A   1      39.330  30.507  33.923  1.00  0.00     0.048 C 
ATOM     86  C   UNL A   1      38.060  28.603  32.857  1.00  0.00     0.065 C 
ATOM     87  C   UNL A   1      40.655  29.811  33.596  1.00  0.00     0.010 C 
ATOM     88  C   UNL A   1      39.379  27.886  32.568  1.00  0.00     0.006 C 
ATOM     89  C   UNL A   1      40.478  28.296  33.545  1.00  0.00     0.001 C 
ENDBRANCH  75  78
ENDBRANCH  73  74
ENDBRANCH  72  73
ENDBRANCH  71  72
ENDBRANCH   1  71
TORSDOF 11
ENDMDL
MODEL 3
REMARK VINA RESULT:     -11.8      4.817      9.757
REMARK SMILES O=C(NCCCCNC(=O)[C@H]1CC[C@@H]2CCCC[C@H]2[NH2+]1)c1ccc(-c2c3nc(c(-c4c(F)c(F)c(F)c(F)c4F)c4ccc([nH]4)c(-c4c(F)c(F)c(F)c(F)c4F)c4nc(c(-c5c(F)c(F)c(F)c(F)c5F)c5ccc2[nH]5)C=C4)C=C3)cc1
REMARK SMILES IDX 4 1 3 2 1 3 2 4 21 6 22 7 83 8 23 9 82 10 24 11 25 12 26 13
REMARK SMILES IDX 76 14 27 15 81 16 75 17 77 18 28 19 80 20 74 21 73 22 29 24
REMARK SMILES IDX 61 25 41 26 60 27 42 28 45 29 59 30 78 31 43 32 44 33 58 35
REMARK SMILES IDX 79 36 46 37 30 38 31 39 39 40 32 41 33 42 37 43 40 44 34 45
REMARK SMILES IDX 35 46 38 47 36 48 62 49 63 50 71 51 64 52 65 53 69 54 72 55
REMARK SMILES IDX 66 56 67 57 70 58 68 59 47 60 48 61 56 62 49 63 50 64 54 65
REMARK SMILES IDX 57 66 51 67 52 68 55 69 53 70 5 71 6 72 7 73 8 74 9 75 10 77
REMARK SMILES IDX 11 78 12 79 20 80 13 81 19 82 14 85 18 86 15 87 17 88 16 89
REMARK H PARENT 3 5 77 23 45 34 8 76 20 83 20 84
REMARK Flexibility Score: inf
ROOT
ATOM      1  C   UNL A   1      41.400  22.093  26.509  1.00  0.00     0.116 C 
ENDROOT
BRANCH   1   2
ATOM      2  N   UNL A   1      40.060  22.275  25.973  1.00  0.00    -0.352 N 
ATOM      3  O   UNL A   1      38.005  23.188  25.799  1.00  0.00    -0.269 OA
ATOM      4  C   UNL A   1      39.165  23.293  26.193  1.00  0.00     0.251 C 
ATOM      5  H   UNL A   1      39.749  21.566  25.366  1.00  0.00     0.163 HD
BRANCH   4   6
ATOM      6  C   UNL A   1      39.586  24.509  26.920  1.00  0.00     0.039 A 
ATOM      7  C   UNL A   1      39.286  24.673  28.275  1.00  0.00     0.014 A 
ATOM      8  C   UNL A   1      40.315  25.488  26.240  1.00  0.00     0.014 A 
ATOM      9  C   UNL A   1      39.593  25.870  28.913  1.00  0.00     0.010 A 
ATOM     10  C   UNL A   1      40.700  26.654  26.906  1.00  0.00     0.010 A 
ATOM     11  C   UNL A   1      40.320  26.865  28.242  1.00  0.00    -0.014 A 
BRANCH  11  12
ATOM     12  C   UNL A   1      40.742  28.089  28.966  1.00  0.00     0.031 A 
ATOM     13  C   UNL A   1      42.129  28.222  29.525  1.00  0.00     0.074 A 
ATOM     14  C   UNL A   1      39.847  29.080  29.140  1.00  0.00     0.049 A 
ATOM     15  N   UNL A   1      42.645  29.194  30.236  1.00  0.00    -0.248 NA
ATOM     16  C   UNL A   1      43.055  27.112  29.263  1.00  0.00     0.031 C 
ATOM     17  C   UNL A   1      38.466  29.058  28.655  1.00  0.00     0.029 A 
ATOM     18  N   UNL A   1      39.956  30.288  29.780  1.00  0.00    -0.354 N 
ATOM     19  C   UNL A   1      43.946  28.805  30.523  1.00  0.00     0.074 A 
ATOM     20  C   UNL A   1      44.132  27.495  29.935  1.00  0.00     0.031 C 
ATOM     21  C   UNL A   1      37.859  30.200  29.004  1.00  0.00     0.029 A 
ATOM     22  C   UNL A   1      38.784  31.004  29.794  1.00  0.00     0.049 A 
ATOM     23  H   UNL A   1      40.791  30.611  30.188  1.00  0.00     0.167 HD
ATOM     24  C   UNL A   1      44.896  29.485  31.210  1.00  0.00     0.037 A 
ATOM     25  C   UNL A   1      38.472  32.160  30.407  1.00  0.00     0.037 A 
ATOM     26  C   UNL A   1      44.697  30.790  31.789  1.00  0.00     0.049 A 
ATOM     27  C   UNL A   1      39.528  32.878  31.198  1.00  0.00     0.074 A 
ATOM     28  C   UNL A   1      45.612  31.587  32.457  1.00  0.00     0.029 A 
ATOM     29  N   UNL A   1      43.494  31.483  31.788  1.00  0.00    -0.354 N 
ATOM     30  N   UNL A   1      40.773  32.530  31.416  1.00  0.00    -0.248 NA
ATOM     31  C   UNL A   1      39.140  34.148  31.825  1.00  0.00     0.031 C 
ATOM     32  C   UNL A   1      44.945  32.726  32.920  1.00  0.00     0.029 A 
ATOM     33  C   UNL A   1      43.633  32.678  32.478  1.00  0.00     0.049 A 
ATOM     34  H   UNL A   1      42.664  31.172  31.359  1.00  0.00     0.167 HD
ATOM     35  C   UNL A   1      41.324  33.544  32.185  1.00  0.00     0.074 A 
ATOM     36  C   UNL A   1      40.279  34.527  32.388  1.00  0.00     0.031 C 
ATOM     37  C   UNL A   1      42.584  33.649  32.674  1.00  0.00     0.037 A 
BRANCH  24  38
ATOM     38  C   UNL A   1      46.227  28.813  31.406  1.00  0.00     0.064 A 
ATOM     39  C   UNL A   1      46.498  28.008  32.524  1.00  0.00     0.173 A 
ATOM     40  C   UNL A   1      47.244  28.965  30.450  1.00  0.00     0.173 A 
ATOM     41  F   UNL A   1      45.566  27.832  33.472  1.00  0.00    -0.203 F 
ATOM     42  C   UNL A   1      47.750  27.418  32.698  1.00  0.00     0.198 A 
ATOM     43  C   UNL A   1      48.482  28.344  30.610  1.00  0.00     0.198 A 
ATOM     44  F   UNL A   1      47.039  29.711  29.355  1.00  0.00    -0.203 F 
ATOM     45  F   UNL A   1      48.004  26.709  33.806  1.00  0.00    -0.200 F 
ATOM     46  C   UNL A   1      48.737  27.584  31.740  1.00  0.00     0.200 A 
ATOM     47  F   UNL A   1      49.429  28.490  29.673  1.00  0.00    -0.200 F 
ATOM     48  F   UNL A   1      49.940  27.017  31.910  1.00  0.00    -0.200 F 
ENDBRANCH  24  38
BRANCH  25  49
ATOM     49  C   UNL A   1      37.086  32.682  30.303  1.00  0.00     0.064 A 
ATOM     50  C   UNL A   1      36.135  32.425  31.298  1.00  0.00     0.173 A 
ATOM     51  C   UNL A   1      36.703  33.498  29.226  1.00  0.00     0.173 A 
ATOM     52  F   UNL A   1      36.451  31.640  32.338  1.00  0.00    -0.203 F 
ATOM     53  C   UNL A   1      34.850  32.959  31.218  1.00  0.00     0.198 A 
ATOM     54  C   UNL A   1      35.429  34.056  29.163  1.00  0.00     0.198 A 
ATOM     55  F   UNL A   1      37.581  33.782  28.252  1.00  0.00    -0.203 F 
ATOM     56  F   UNL A   1      33.950  32.675  32.169  1.00  0.00    -0.200 F 
ATOM     57  C   UNL A   1      34.502  33.781  30.157  1.00  0.00     0.200 A 
ATOM     58  F   UNL A   1      35.105  34.868  28.149  1.00  0.00    -0.200 F 
ATOM     59  F   UNL A   1      33.273  34.312  30.093  1.00  0.00    -0.200 F 
ENDBRANCH  25  49
BRANCH  37  60
ATOM     60  C   UNL A   1      42.923  34.889  33.452  1.00  0.00     0.064 A 
ATOM     61  C   UNL A   1      43.293  36.083  32.817  1.00  0.00     0.173 A 
ATOM     62  C   UNL A   1      42.814  34.896  34.851  1.00  0.00     0.173 A 
ATOM     63  F   UNL A   1      43.430  36.125  31.483  1.00  0.00    -0.203 F 
ATOM     64  C   UNL A   1      43.548  37.236  33.555  1.00  0.00     0.198 A 
ATOM     65  C   UNL A   1      43.039  36.058  35.583  1.00  0.00     0.198 A 
ATOM     66  F   UNL A   1      42.461  33.780  35.507  1.00  0.00    -0.203 F 
ATOM     67  F   UNL A   1      43.936  38.357  32.930  1.00  0.00    -0.200 F 
ATOM     68  C   UNL A   1      43.411  37.226  34.935  1.00  0.00     0.200 A 
ATOM     69  F   UNL A   1      42.891  36.049  36.915  1.00  0.00    -0.200 F 
ATOM     70  F   UNL A   1      43.640  38.341  35.641  1.00  0.00    -0.200 F 
ENDBRANCH  37  60
ENDBRANCH  11  12
ENDBRANCH   4   6
ENDBRANCH   1   2
BRANCH   1  71
ATOM     71  C   UNL A   1      41.461  20.988  27.555  1.00  0.00     0.023 C 
BRANCH  71  72
ATOM     72  C   UNL A   1      42.118  19.691  27.084  1.00  0.00     0.023 C 
BRANCH  72  73
ATOM     73  C   UNL A   1      42.551  19.670  25.619  1.00  0.00     0.116 C 
BRANCH  73  74
ATOM     74  N   UNL A   1      43.684  18.794  25.400  1.00  0.00    -0.351 N 
ATOM     75  C   UNL A   1      44.994  19.096  25.163  1.00  0.00     0.278 C 
ATOM     76  H   UNL A   1      43.477  17.832  25.424  1.00  0.00     0.163 HD
ATOM     77  O   UNL A   1      45.776  18.149  25.049  1.00  0.00    -0.268 OA
BRANCH  75  78
ATOM     78  C   UNL A   1      45.437  20.568  25.051  1.00  0.00     0.272 C 
ATOM     79  C   UNL A   1      44.709  21.209  23.866  1.00  0.00     0.076 C 
ATOM     80  N   UNL A   1      45.133  21.268  26.316  1.00  0.00    -0.333 N 
ATOM     81  C   UNL A   1      45.044  22.693  23.763  1.00  0.00     0.016 C 
ATOM     82  C   UNL A   1      45.496  22.687  26.250  1.00  0.00     0.186 C 
ATOM     83  H   UNL A   1      45.657  20.828  27.072  1.00  0.00     0.347 HD
ATOM     84  H   UNL A   1      44.128  21.205  26.481  1.00  0.00     0.347 HD
ATOM     85  C   UNL A   1      44.749  23.387  25.096  1.00  0.00     0.048 C 
ATOM     86  C   UNL A   1      45.174  23.372  27.586  1.00  0.00     0.065 C 
ATOM     87  C   UNL A   1      45.116  24.874  25.039  1.00  0.00     0.010 C 
ATOM     88  C   UNL A   1      45.498  24.865  27.538  1.00  0.00     0.006 C 
ATOM     89  C   UNL A   1      44.811  25.563  26.367  1.00  0.00     0.001 C 
ENDBRANCH  75  78
ENDBRANCH  73  74
ENDBRANCH  72  73
ENDBRANCH  71  72
ENDBRANCH   1  71
TORSDOF 11
ENDMDL
