MODEL 1
REMARK VINA RESULT:     -14.2      0.000      0.000
REMARK SMILES Cc1ccc(N2C(=O)C[C@H](Sc3ccccc3C(=O)NCCCCNC(=O)c3ccc(-c4c5nc(c(-c6c(F)c(F)c(F)c(F)c6F)c6ccc([nH]6)c(-c6c(F)c(F)c(F)c(F)c6F)c6nc(c(-c7c(F)c(F)c(F)c(F)c7F)c7ccc4[nH]7)C=C6)C=C5)cc3)C2=O)cc1
REMARK SMILES IDX 22 1 21 2 20 3 18 4 19 5 17 7 12 8 13 9 14 10 16 11 15 12
REMARK SMILES IDX 11 13 10 14 6 15 7 16 91 17 8 18 9 19 92 20 5 21 1 22 2 23
REMARK SMILES IDX 3 24 94 25 4 26 93 27 23 28 24 29 25 30 26 31 27 33 28 34
REMARK SMILES IDX 29 35 90 36 30 37 89 38 31 39 32 40 33 41 83 42 34 43 88 44
REMARK SMILES IDX 82 45 84 46 35 47 87 48 81 49 80 50 36 52 68 53 48 54 67 55
REMARK SMILES IDX 49 56 52 57 66 58 85 59 50 60 51 61 65 63 86 64 53 65 37 66
REMARK SMILES IDX 38 67 46 68 39 69 40 70 44 71 47 72 41 73 42 74 45 75 43 76
REMARK SMILES IDX 69 77 70 78 78 79 71 80 72 81 76 82 79 83 73 84 74 85 77 86
REMARK SMILES IDX 75 87 54 88 55 89 63 90 56 91 57 92 61 93 64 94 58 95 59 96
REMARK SMILES IDX 62 97 60 98
REMARK H PARENT 20 6 25 32 84 51 52 62
REMARK Flexibility Score: inf
ROOT
ATOM      1  C   UNL A   1      31.579  29.483  26.735  1.00  0.00     0.023 C 
ENDROOT
BRANCH   1   2
ATOM      2  C   UNL A   1      31.986  28.168  27.402  1.00  0.00     0.116 C 
BRANCH   2   3
ATOM      3  N   UNL A   1      31.055  27.056  27.232  1.00  0.00    -0.352 N 
ATOM      4  C   UNL A   1      30.711  26.250  26.165  1.00  0.00     0.252 C 
ATOM      5  O   UNL A   1      29.982  25.289  26.402  1.00  0.00    -0.269 OA
ATOM      6  H   UNL A   1      30.567  26.832  28.058  1.00  0.00     0.163 HD
BRANCH   4   7
ATOM      7  C   UNL A   1      31.154  26.535  24.772  1.00  0.00     0.053 A 
ATOM      8  C   UNL A   1      32.404  26.109  24.261  1.00  0.00     0.021 A 
ATOM      9  C   UNL A   1      32.707  26.373  22.910  1.00  0.00     0.016 A 
ATOM     10  C   UNL A   1      31.825  27.085  22.096  1.00  0.00     0.001 A 
ATOM     11  C   UNL A   1      30.332  27.340  23.965  1.00  0.00     0.015 A 
ATOM     12  C   UNL A   1      30.651  27.595  22.632  1.00  0.00     0.001 A 
BRANCH   8  13
ATOM     13  S   UNL A   1      33.817  25.573  25.242  1.00  0.00    -0.111 SA
BRANCH  13  14
ATOM     14  C   UNL A   1      34.121  23.839  24.784  1.00  0.00     0.151 C 
ATOM     15  N   UNL A   1      36.195  22.771  24.822  1.00  0.00    -0.250 N 
ATOM     16  C   UNL A   1      36.005  23.175  23.518  1.00  0.00     0.235 C 
ATOM     17  C   UNL A   1      35.145  23.139  25.635  1.00  0.00     0.247 C 
ATOM     18  O   UNL A   1      36.768  23.089  22.566  1.00  0.00    -0.274 OA
ATOM     19  C   UNL A   1      34.589  23.633  23.365  1.00  0.00     0.126 C 
ATOM     20  O   UNL A   1      35.034  22.976  26.843  1.00  0.00    -0.273 OA
BRANCH  15  21
ATOM     21  C   UNL A   1      37.305  21.998  25.249  1.00  0.00     0.052 A 
ATOM     22  C   UNL A   1      40.830  19.685  26.221  1.00  0.00     0.044 C 
ATOM     23  C   UNL A   1      39.593  20.479  25.925  1.00  0.00    -0.051 A 
ATOM     24  C   UNL A   1      38.510  19.882  25.273  1.00  0.00     0.005 A 
ATOM     25  C   UNL A   1      39.523  21.839  26.238  1.00  0.00     0.005 A 
ATOM     26  C   UNL A   1      37.369  20.628  24.962  1.00  0.00     0.027 A 
ATOM     27  C   UNL A   1      38.398  22.592  25.892  1.00  0.00     0.027 A 
ENDBRANCH  15  21
ENDBRANCH  13  14
ENDBRANCH   8  13
ENDBRANCH   4   7
ENDBRANCH   2   3
ENDBRANCH   1   2
BRANCH   1  28
ATOM     28  C   UNL A   1      32.556  30.649  26.865  1.00  0.00     0.023 C 
BRANCH  28  29
ATOM     29  C   UNL A   1      33.925  30.316  27.444  1.00  0.00     0.116 C 
BRANCH  29  30
ATOM     30  N   UNL A   1      34.499  31.320  28.334  1.00  0.00    -0.352 N 
ATOM     31  C   UNL A   1      35.677  31.259  29.070  1.00  0.00     0.251 C 
ATOM     32  H   UNL A   1      33.984  32.154  28.424  1.00  0.00     0.163 HD
ATOM     33  O   UNL A   1      36.013  32.187  29.789  1.00  0.00    -0.269 OA
BRANCH  31  34
ATOM     34  C   UNL A   1      36.591  30.105  28.875  1.00  0.00     0.039 A 
ATOM     35  C   UNL A   1      36.814  29.243  29.957  1.00  0.00     0.014 A 
ATOM     36  C   UNL A   1      37.376  30.008  27.731  1.00  0.00     0.014 A 
ATOM     37  C   UNL A   1      37.987  28.492  29.996  1.00  0.00     0.010 A 
ATOM     38  C   UNL A   1      38.589  29.353  27.815  1.00  0.00     0.010 A 
ATOM     39  C   UNL A   1      38.929  28.663  28.983  1.00  0.00    -0.014 A 
BRANCH  39  40
ATOM     40  C   UNL A   1      40.338  28.308  29.134  1.00  0.00     0.031 A 
ATOM     41  C   UNL A   1      40.868  27.033  28.610  1.00  0.00     0.074 A 
ATOM     42  C   UNL A   1      41.183  29.227  29.655  1.00  0.00     0.049 A 
ATOM     43  N   UNL A   1      41.979  26.493  28.984  1.00  0.00    -0.248 NA
ATOM     44  C   UNL A   1      40.139  26.225  27.643  1.00  0.00     0.031 C 
ATOM     45  C   UNL A   1      42.642  29.221  29.607  1.00  0.00     0.029 A 
ATOM     46  N   UNL A   1      40.867  30.284  30.528  1.00  0.00    -0.354 N 
ATOM     47  C   UNL A   1      42.252  25.445  28.133  1.00  0.00     0.074 A 
ATOM     48  C   UNL A   1      41.033  25.268  27.380  1.00  0.00     0.031 C 
ATOM     49  C   UNL A   1      43.110  29.986  30.608  1.00  0.00     0.029 A 
ATOM     50  C   UNL A   1      41.967  30.377  31.412  1.00  0.00     0.049 A 
ATOM     51  H   UNL A   1      40.055  30.840  30.524  1.00  0.00     0.167 HD
ATOM     52  C   UNL A   1      43.526  24.949  28.085  1.00  0.00     0.037 A 
ATOM     53  C   UNL A   1      41.834  30.129  32.748  1.00  0.00     0.037 A 
ATOM     54  C   UNL A   1      44.356  25.546  29.135  1.00  0.00     0.049 A 
ATOM     55  C   UNL A   1      42.726  29.024  33.262  1.00  0.00     0.074 A 
ATOM     56  C   UNL A   1      45.303  26.558  29.128  1.00  0.00     0.029 A 
ATOM     57  N   UNL A   1      44.056  25.299  30.472  1.00  0.00    -0.354 N 
ATOM     58  N   UNL A   1      43.268  28.116  32.501  1.00  0.00    -0.248 NA
ATOM     59  C   UNL A   1      43.038  28.831  34.675  1.00  0.00     0.031 C 
ATOM     60  C   UNL A   1      45.533  26.956  30.470  1.00  0.00     0.029 A 
ATOM     61  C   UNL A   1      44.742  26.174  31.293  1.00  0.00     0.049 A 
ATOM     62  H   UNL A   1      43.442  24.598  30.789  1.00  0.00     0.167 HD
ATOM     63  C   UNL A   1      43.956  27.222  33.278  1.00  0.00     0.074 A 
ATOM     64  C   UNL A   1      43.801  27.726  34.630  1.00  0.00     0.031 C 
ATOM     65  C   UNL A   1      44.579  26.133  32.738  1.00  0.00     0.037 A 
BRANCH  52  66
ATOM     66  C   UNL A   1      44.115  24.154  26.926  1.00  0.00     0.064 A 
ATOM     67  C   UNL A   1      43.753  22.799  26.726  1.00  0.00     0.173 A 
ATOM     68  C   UNL A   1      45.094  24.618  26.027  1.00  0.00     0.173 A 
ATOM     69  F   UNL A   1      42.750  22.232  27.408  1.00  0.00    -0.203 F 
ATOM     70  C   UNL A   1      44.406  21.965  25.809  1.00  0.00     0.198 A 
ATOM     71  C   UNL A   1      45.775  23.777  25.138  1.00  0.00     0.198 A 
ATOM     72  F   UNL A   1      45.386  25.915  25.912  1.00  0.00    -0.203 F 
ATOM     73  F   UNL A   1      44.025  20.684  25.687  1.00  0.00    -0.200 F 
ATOM     74  C   UNL A   1      45.443  22.445  25.042  1.00  0.00     0.200 A 
ATOM     75  F   UNL A   1      46.755  24.280  24.373  1.00  0.00    -0.200 F 
ATOM     76  F   UNL A   1      46.093  21.641  24.190  1.00  0.00    -0.200 F 
ENDBRANCH  52  66
BRANCH  53  77
ATOM     77  C   UNL A   1      40.478  30.435  33.276  1.00  0.00     0.064 A 
ATOM     78  C   UNL A   1      40.107  31.785  33.432  1.00  0.00     0.173 A 
ATOM     79  C   UNL A   1      39.457  29.479  33.277  1.00  0.00     0.173 A 
ATOM     80  F   UNL A   1      41.048  32.743  33.432  1.00  0.00    -0.203 F 
ATOM     81  C   UNL A   1      38.769  32.169  33.471  1.00  0.00     0.198 A 
ATOM     82  C   UNL A   1      38.116  29.867  33.332  1.00  0.00     0.198 A 
ATOM     83  F   UNL A   1      39.742  28.179  33.109  1.00  0.00    -0.203 F 
ATOM     84  F   UNL A   1      38.450  33.471  33.504  1.00  0.00    -0.200 F 
ATOM     85  C   UNL A   1      37.774  31.210  33.395  1.00  0.00     0.200 A 
ATOM     86  F   UNL A   1      37.150  28.943  33.223  1.00  0.00    -0.200 F 
ATOM     87  F   UNL A   1      36.487  31.581  33.337  1.00  0.00    -0.200 F 
ENDBRANCH  53  77
BRANCH  65  88
ATOM     88  C   UNL A   1      45.166  24.975  33.508  1.00  0.00     0.064 A 
ATOM     89  C   UNL A   1      44.428  23.855  33.923  1.00  0.00     0.173 A 
ATOM     90  C   UNL A   1      46.563  24.899  33.727  1.00  0.00     0.173 A 
ATOM     91  F   UNL A   1      43.117  23.749  33.667  1.00  0.00    -0.203 F 
ATOM     92  C   UNL A   1      45.030  22.768  34.567  1.00  0.00     0.198 A 
ATOM     93  C   UNL A   1      47.168  23.790  34.316  1.00  0.00     0.198 A 
ATOM     94  F   UNL A   1      47.386  25.888  33.351  1.00  0.00    -0.203 F 
ATOM     95  F   UNL A   1      44.275  21.742  34.980  1.00  0.00    -0.200 F 
ATOM     96  C   UNL A   1      46.399  22.731  34.752  1.00  0.00     0.200 A 
ATOM     97  F   UNL A   1      48.502  23.746  34.442  1.00  0.00    -0.200 F 
ATOM     98  F   UNL A   1      46.977  21.668  35.327  1.00  0.00    -0.200 F 
ENDBRANCH  65  88
ENDBRANCH  39  40
ENDBRANCH  31  34
ENDBRANCH  29  30
ENDBRANCH  28  29
ENDBRANCH   1  28
TORSDOF 14
ENDMDL
MODEL 2
REMARK VINA RESULT:     -14.0      1.707      2.081
REMARK SMILES Cc1ccc(N2C(=O)C[C@H](Sc3ccccc3C(=O)NCCCCNC(=O)c3ccc(-c4c5nc(c(-c6c(F)c(F)c(F)c(F)c6F)c6ccc([nH]6)c(-c6c(F)c(F)c(F)c(F)c6F)c6nc(c(-c7c(F)c(F)c(F)c(F)c7F)c7ccc4[nH]7)C=C6)C=C5)cc3)C2=O)cc1
REMARK SMILES IDX 22 1 21 2 20 3 18 4 19 5 17 7 12 8 13 9 14 10 16 11 15 12
REMARK SMILES IDX 11 13 10 14 6 15 7 16 91 17 8 18 9 19 92 20 5 21 1 22 2 23
REMARK SMILES IDX 3 24 94 25 4 26 93 27 23 28 24 29 25 30 26 31 27 33 28 34
REMARK SMILES IDX 29 35 90 36 30 37 89 38 31 39 32 40 33 41 83 42 34 43 88 44
REMARK SMILES IDX 82 45 84 46 35 47 87 48 81 49 80 50 36 52 68 53 48 54 67 55
REMARK SMILES IDX 49 56 52 57 66 58 85 59 50 60 51 61 65 63 86 64 53 65 37 66
REMARK SMILES IDX 38 67 46 68 39 69 40 70 44 71 47 72 41 73 42 74 45 75 43 76
REMARK SMILES IDX 69 77 70 78 78 79 71 80 72 81 76 82 79 83 73 84 74 85 77 86
REMARK SMILES IDX 75 87 54 88 55 89 63 90 56 91 57 92 61 93 64 94 58 95 59 96
REMARK SMILES IDX 62 97 60 98
REMARK H PARENT 20 6 25 32 84 51 52 62
REMARK Flexibility Score: inf
ROOT
ATOM      1  C   UNL A   1      31.891  29.541  26.496  1.00  0.00     0.023 C 
ENDROOT
BRANCH   1   2
ATOM      2  C   UNL A   1      32.318  28.113  26.839  1.00  0.00     0.116 C 
BRANCH   2   3
ATOM      3  N   UNL A   1      31.243  27.127  26.907  1.00  0.00    -0.352 N 
ATOM      4  C   UNL A   1      30.762  26.173  26.033  1.00  0.00     0.252 C 
ATOM      5  O   UNL A   1      29.920  25.390  26.467  1.00  0.00    -0.269 OA
ATOM      6  H   UNL A   1      30.756  27.147  27.762  1.00  0.00     0.163 HD
BRANCH   4   7
ATOM      7  C   UNL A   1      31.195  26.101  24.610  1.00  0.00     0.053 A 
ATOM      8  C   UNL A   1      32.114  25.134  24.135  1.00  0.00     0.021 A 
ATOM      9  C   UNL A   1      32.415  25.107  22.759  1.00  0.00     0.016 A 
ATOM     10  C   UNL A   1      31.867  26.041  21.879  1.00  0.00     0.001 A 
ATOM     11  C   UNL A   1      30.741  27.094  23.726  1.00  0.00     0.015 A 
ATOM     12  C   UNL A   1      31.053  27.054  22.367  1.00  0.00     0.001 A 
BRANCH   8  13
ATOM     13  S   UNL A   1      33.228  24.148  25.152  1.00  0.00    -0.111 SA
BRANCH  13  14
ATOM     14  C   UNL A   1      33.852  22.821  24.077  1.00  0.00     0.151 C 
ATOM     15  N   UNL A   1      34.123  20.588  24.697  1.00  0.00    -0.250 N 
ATOM     16  C   UNL A   1      35.362  21.172  24.846  1.00  0.00     0.235 C 
ATOM     17  C   UNL A   1      33.175  21.492  24.269  1.00  0.00     0.247 C 
ATOM     18  O   UNL A   1      36.395  20.685  25.285  1.00  0.00    -0.274 OA
ATOM     19  C   UNL A   1      35.325  22.530  24.221  1.00  0.00     0.126 C 
ATOM     20  O   UNL A   1      31.978  21.302  24.091  1.00  0.00    -0.273 OA
BRANCH  15  21
ATOM     21  C   UNL A   1      33.881  19.204  24.887  1.00  0.00     0.052 A 
ATOM     22  C   UNL A   1      32.872  15.010  25.226  1.00  0.00     0.044 C 
ATOM     23  C   UNL A   1      33.253  16.457  25.138  1.00  0.00    -0.051 A 
ATOM     24  C   UNL A   1      32.551  17.417  25.873  1.00  0.00     0.005 A 
ATOM     25  C   UNL A   1      34.271  16.879  24.280  1.00  0.00     0.005 A 
ATOM     26  C   UNL A   1      32.878  18.772  25.767  1.00  0.00     0.027 A 
ATOM     27  C   UNL A   1      34.572  18.238  24.146  1.00  0.00     0.027 A 
ENDBRANCH  15  21
ENDBRANCH  13  14
ENDBRANCH   8  13
ENDBRANCH   4   7
ENDBRANCH   2   3
ENDBRANCH   1   2
BRANCH   1  28
ATOM     28  C   UNL A   1      32.739  30.670  27.077  1.00  0.00     0.023 C 
BRANCH  28  29
ATOM     29  C   UNL A   1      34.076  30.260  27.681  1.00  0.00     0.116 C 
BRANCH  29  30
ATOM     30  N   UNL A   1      34.777  31.297  28.433  1.00  0.00    -0.352 N 
ATOM     31  C   UNL A   1      36.025  31.236  29.042  1.00  0.00     0.251 C 
ATOM     32  H   UNL A   1      34.302  32.154  28.519  1.00  0.00     0.163 HD
ATOM     33  O   UNL A   1      36.467  32.196  29.655  1.00  0.00    -0.269 OA
BRANCH  31  34
ATOM     34  C   UNL A   1      36.874  30.036  28.832  1.00  0.00     0.039 A 
ATOM     35  C   UNL A   1      37.048  29.149  29.902  1.00  0.00     0.014 A 
ATOM     36  C   UNL A   1      37.653  29.910  27.686  1.00  0.00     0.014 A 
ATOM     37  C   UNL A   1      38.177  28.333  29.931  1.00  0.00     0.010 A 
ATOM     38  C   UNL A   1      38.828  29.188  27.761  1.00  0.00     0.010 A 
ATOM     39  C   UNL A   1      39.128  28.466  28.920  1.00  0.00    -0.014 A 
BRANCH  39  40
ATOM     40  C   UNL A   1      40.515  28.030  29.066  1.00  0.00     0.031 A 
ATOM     41  C   UNL A   1      40.965  26.721  28.555  1.00  0.00     0.074 A 
ATOM     42  C   UNL A   1      41.416  28.905  29.569  1.00  0.00     0.049 A 
ATOM     43  N   UNL A   1      42.046  26.121  28.928  1.00  0.00    -0.248 NA
ATOM     44  C   UNL A   1      40.183  25.943  27.604  1.00  0.00     0.031 C 
ATOM     45  C   UNL A   1      42.872  28.814  29.512  1.00  0.00     0.029 A 
ATOM     46  N   UNL A   1      41.169  29.990  30.430  1.00  0.00    -0.354 N 
ATOM     47  C   UNL A   1      42.251  25.048  28.090  1.00  0.00     0.074 A 
ATOM     48  C   UNL A   1      41.018  24.932  27.348  1.00  0.00     0.031 C 
ATOM     49  C   UNL A   1      43.391  29.562  30.498  1.00  0.00     0.029 A 
ATOM     50  C   UNL A   1      42.279  30.030  31.305  1.00  0.00     0.049 A 
ATOM     51  H   UNL A   1      40.391  30.593  30.424  1.00  0.00     0.167 HD
ATOM     52  C   UNL A   1      43.494  24.478  28.040  1.00  0.00     0.037 A 
ATOM     53  C   UNL A   1      42.142  29.807  32.645  1.00  0.00     0.037 A 
ATOM     54  C   UNL A   1      44.365  25.039  29.076  1.00  0.00     0.049 A 
ATOM     55  C   UNL A   1      42.972  28.659  33.168  1.00  0.00     0.074 A 
ATOM     56  C   UNL A   1      45.370  25.994  29.049  1.00  0.00     0.029 A 
ATOM     57  N   UNL A   1      44.061  24.827  30.418  1.00  0.00    -0.354 N 
ATOM     58  N   UNL A   1      43.454  27.711  32.415  1.00  0.00    -0.248 NA
ATOM     59  C   UNL A   1      43.283  28.466  34.581  1.00  0.00     0.031 C 
ATOM     60  C   UNL A   1      45.632  26.394  30.384  1.00  0.00     0.029 A 
ATOM     61  C   UNL A   1      44.803  25.671  31.223  1.00  0.00     0.049 A 
ATOM     62  H   UNL A   1      43.409  24.168  30.748  1.00  0.00     0.167 HD
ATOM     63  C   UNL A   1      44.095  26.788  33.199  1.00  0.00     0.074 A 
ATOM     64  C   UNL A   1      43.980  27.317  34.545  1.00  0.00     0.031 C 
ATOM     65  C   UNL A   1      44.649  25.658  32.669  1.00  0.00     0.037 A 
BRANCH  52  66
ATOM     66  C   UNL A   1      44.027  23.635  26.887  1.00  0.00     0.064 A 
ATOM     67  C   UNL A   1      43.521  22.332  26.656  1.00  0.00     0.173 A 
ATOM     68  C   UNL A   1      45.079  23.997  26.026  1.00  0.00     0.173 A 
ATOM     69  F   UNL A   1      42.439  21.874  27.298  1.00  0.00    -0.203 F 
ATOM     70  C   UNL A   1      44.105  21.440  25.747  1.00  0.00     0.198 A 
ATOM     71  C   UNL A   1      45.690  23.094  25.146  1.00  0.00     0.198 A 
ATOM     72  F   UNL A   1      45.519  25.253  25.940  1.00  0.00    -0.203 F 
ATOM     73  F   UNL A   1      43.587  20.212  25.594  1.00  0.00    -0.200 F 
ATOM     74  C   UNL A   1      45.214  21.809  25.019  1.00  0.00     0.200 A 
ATOM     75  F   UNL A   1      46.744  23.492  24.418  1.00  0.00    -0.200 F 
ATOM     76  F   UNL A   1      45.797  20.947  24.175  1.00  0.00    -0.200 F 
ENDBRANCH  52  66
BRANCH  53  77
ATOM     77  C   UNL A   1      40.811  30.199  33.178  1.00  0.00     0.064 A 
ATOM     78  C   UNL A   1      40.516  31.570  33.310  1.00  0.00     0.173 A 
ATOM     79  C   UNL A   1      39.738  29.301  33.208  1.00  0.00     0.173 A 
ATOM     80  F   UNL A   1      41.508  32.474  33.282  1.00  0.00    -0.203 F 
ATOM     81  C   UNL A   1      39.201  32.028  33.353  1.00  0.00     0.198 A 
ATOM     82  C   UNL A   1      38.421  29.764  33.266  1.00  0.00     0.198 A 
ATOM     83  F   UNL A   1      39.949  27.984  33.064  1.00  0.00    -0.203 F 
ATOM     84  F   UNL A   1      38.955  33.346  33.362  1.00  0.00    -0.200 F 
ATOM     85  C   UNL A   1      38.154  31.125  33.305  1.00  0.00     0.200 A 
ATOM     86  F   UNL A   1      37.405  28.893  33.184  1.00  0.00    -0.200 F 
ATOM     87  F   UNL A   1      36.889  31.566  33.250  1.00  0.00    -0.200 F 
ENDBRANCH  53  77
BRANCH  65  88
ATOM     88  C   UNL A   1      45.174  24.478  33.451  1.00  0.00     0.064 A 
ATOM     89  C   UNL A   1      44.447  23.296  33.668  1.00  0.00     0.173 A 
ATOM     90  C   UNL A   1      46.520  24.454  33.890  1.00  0.00     0.173 A 
ATOM     91  F   UNL A   1      43.203  23.145  33.195  1.00  0.00    -0.203 F 
ATOM     92  C   UNL A   1      45.002  22.196  34.332  1.00  0.00     0.198 A 
ATOM     93  C   UNL A   1      47.087  23.336  34.499  1.00  0.00     0.198 A 
ATOM     94  F   UNL A   1      47.331  25.507  33.716  1.00  0.00    -0.203 F 
ATOM     95  F   UNL A   1      44.253  21.107  34.551  1.00  0.00    -0.200 F 
ATOM     96  C   UNL A   1      46.323  22.212  34.736  1.00  0.00     0.200 A 
ATOM     97  F   UNL A   1      48.385  23.348  34.838  1.00  0.00    -0.200 F 
ATOM     98  F   UNL A   1      46.864  21.140  35.330  1.00  0.00    -0.200 F 
ENDBRANCH  65  88
ENDBRANCH  39  40
ENDBRANCH  31  34
ENDBRANCH  29  30
ENDBRANCH  28  29
ENDBRANCH   1  28
TORSDOF 14
ENDMDL
MODEL 3
REMARK VINA RESULT:     -13.5      3.627     10.046
REMARK SMILES Cc1ccc(N2C(=O)C[C@H](Sc3ccccc3C(=O)NCCCCNC(=O)c3ccc(-c4c5nc(c(-c6c(F)c(F)c(F)c(F)c6F)c6ccc([nH]6)c(-c6c(F)c(F)c(F)c(F)c6F)c6nc(c(-c7c(F)c(F)c(F)c(F)c7F)c7ccc4[nH]7)C=C6)C=C5)cc3)C2=O)cc1
REMARK SMILES IDX 22 1 21 2 20 3 18 4 19 5 17 7 12 8 13 9 14 10 16 11 15 12
REMARK SMILES IDX 11 13 10 14 6 15 7 16 91 17 8 18 9 19 92 20 5 21 1 22 2 23
REMARK SMILES IDX 3 24 94 25 4 26 93 27 23 28 24 29 25 30 26 31 27 33 28 34
REMARK SMILES IDX 29 35 90 36 30 37 89 38 31 39 32 40 33 41 83 42 34 43 88 44
REMARK SMILES IDX 82 45 84 46 35 47 87 48 81 49 80 50 36 52 68 53 48 54 67 55
REMARK SMILES IDX 49 56 52 57 66 58 85 59 50 60 51 61 65 63 86 64 53 65 37 66
REMARK SMILES IDX 38 67 46 68 39 69 40 70 44 71 47 72 41 73 42 74 45 75 43 76
REMARK SMILES IDX 69 77 70 78 78 79 71 80 72 81 76 82 79 83 73 84 74 85 77 86
REMARK SMILES IDX 75 87 54 88 55 89 63 90 56 91 57 92 61 93 64 94 58 95 59 96
REMARK SMILES IDX 62 97 60 98
REMARK H PARENT 20 6 25 32 84 51 52 62
REMARK Flexibility Score: inf
ROOT
ATOM      1  C   UNL A   1      37.569  23.915  25.776  1.00  0.00     0.023 C 
ENDROOT
BRANCH   1   2
ATOM      2  C   UNL A   1      36.056  23.739  25.642  1.00  0.00     0.116 C 
BRANCH   2   3
ATOM      3  N   UNL A   1      35.494  24.050  24.331  1.00  0.00    -0.352 N 
ATOM      4  C   UNL A   1      34.542  23.451  23.530  1.00  0.00     0.252 C 
ATOM      5  O   UNL A   1      34.188  24.065  22.526  1.00  0.00    -0.269 OA
ATOM      6  H   UNL A   1      35.876  24.865  23.931  1.00  0.00     0.163 HD
BRANCH   4   7
ATOM      7  C   UNL A   1      33.985  22.101  23.824  1.00  0.00     0.053 A 
ATOM      8  C   UNL A   1      32.684  21.704  23.428  1.00  0.00     0.021 A 
ATOM      9  C   UNL A   1      32.270  20.385  23.697  1.00  0.00     0.016 A 
ATOM     10  C   UNL A   1      33.093  19.493  24.386  1.00  0.00     0.001 A 
ATOM     11  C   UNL A   1      34.751  21.222  24.608  1.00  0.00     0.015 A 
ATOM     12  C   UNL A   1      34.322  19.921  24.868  1.00  0.00     0.001 A 
BRANCH   8  13
ATOM     13  S   UNL A   1      31.351  22.809  22.929  1.00  0.00    -0.111 SA
BRANCH  13  14
ATOM     14  C   UNL A   1      30.760  23.608  24.452  1.00  0.00     0.151 C 
ATOM     15  N   UNL A   1      31.945  25.179  25.706  1.00  0.00    -0.250 N 
ATOM     16  C   UNL A   1      32.163  23.966  26.321  1.00  0.00     0.235 C 
ATOM     17  C   UNL A   1      31.148  25.055  24.588  1.00  0.00     0.247 C 
ATOM     18  O   UNL A   1      32.883  23.704  27.276  1.00  0.00    -0.274 OA
ATOM     19  C   UNL A   1      31.229  22.959  25.730  1.00  0.00     0.126 C 
ATOM     20  O   UNL A   1      30.814  25.930  23.800  1.00  0.00    -0.273 OA
BRANCH  15  21
ATOM     21  C   UNL A   1      32.421  26.413  26.216  1.00  0.00     0.052 A 
ATOM     22  C   UNL A   1      33.780  30.330  27.455  1.00  0.00     0.044 C 
ATOM     23  C   UNL A   1      33.322  28.957  27.064  1.00  0.00    -0.051 A 
ATOM     24  C   UNL A   1      34.147  28.131  26.296  1.00  0.00     0.005 A 
ATOM     25  C   UNL A   1      32.046  28.503  27.407  1.00  0.00     0.005 A 
ATOM     26  C   UNL A   1      33.711  26.863  25.898  1.00  0.00     0.027 A 
ATOM     27  C   UNL A   1      31.597  27.251  26.976  1.00  0.00     0.027 A 
ENDBRANCH  15  21
ENDBRANCH  13  14
ENDBRANCH   8  13
ENDBRANCH   4   7
ENDBRANCH   2   3
ENDBRANCH   1   2
BRANCH   1  28
ATOM     28  C   UNL A   1      38.419  22.650  25.688  1.00  0.00     0.023 C 
BRANCH  28  29
ATOM     29  C   UNL A   1      39.434  22.446  26.806  1.00  0.00     0.116 C 
BRANCH  29  30
ATOM     30  N   UNL A   1      40.815  22.783  26.479  1.00  0.00    -0.352 N 
ATOM     31  C   UNL A   1      41.414  24.036  26.414  1.00  0.00     0.251 C 
ATOM     32  H   UNL A   1      41.403  22.020  26.277  1.00  0.00     0.163 HD
ATOM     33  O   UNL A   1      42.589  24.151  26.104  1.00  0.00    -0.269 OA
BRANCH  31  34
ATOM     34  C   UNL A   1      40.643  25.228  26.851  1.00  0.00     0.039 A 
ATOM     35  C   UNL A   1      40.809  26.424  26.143  1.00  0.00     0.014 A 
ATOM     36  C   UNL A   1      39.952  25.221  28.059  1.00  0.00     0.014 A 
ATOM     37  C   UNL A   1      40.533  27.633  26.777  1.00  0.00     0.010 A 
ATOM     38  C   UNL A   1      39.782  26.416  28.730  1.00  0.00     0.010 A 
ATOM     39  C   UNL A   1      40.152  27.617  28.118  1.00  0.00    -0.014 A 
BRANCH  39  40
ATOM     40  C   UNL A   1      40.279  28.776  28.999  1.00  0.00     0.031 A 
ATOM     41  C   UNL A   1      39.211  29.792  29.087  1.00  0.00     0.074 A 
ATOM     42  C   UNL A   1      41.342  28.840  29.832  1.00  0.00     0.049 A 
ATOM     43  N   UNL A   1      39.372  30.984  29.555  1.00  0.00    -0.248 NA
ATOM     44  C   UNL A   1      37.864  29.553  28.590  1.00  0.00     0.031 C 
ATOM     45  C   UNL A   1      41.512  29.709  30.993  1.00  0.00     0.029 A 
ATOM     46  N   UNL A   1      42.603  28.237  29.662  1.00  0.00    -0.354 N 
ATOM     47  C   UNL A   1      38.129  31.563  29.686  1.00  0.00     0.074 A 
ATOM     48  C   UNL A   1      37.240  30.665  28.987  1.00  0.00     0.031 C 
ATOM     49  C   UNL A   1      42.824  29.834  31.252  1.00  0.00     0.029 A 
ATOM     50  C   UNL A   1      43.533  29.172  30.172  1.00  0.00     0.049 A 
ATOM     51  H   UNL A   1      42.795  27.354  29.272  1.00  0.00     0.167 HD
ATOM     52  C   UNL A   1      37.995  32.664  30.488  1.00  0.00     0.037 A 
ATOM     53  C   UNL A   1      44.461  29.769  29.369  1.00  0.00     0.037 A 
ATOM     54  C   UNL A   1      39.306  33.144  30.934  1.00  0.00     0.049 A 
ATOM     55  C   UNL A   1      44.386  31.278  29.357  1.00  0.00     0.074 A 
ATOM     56  C   UNL A   1      40.007  33.005  32.122  1.00  0.00     0.029 A 
ATOM     57  N   UNL A   1      40.211  33.640  30.000  1.00  0.00    -0.354 N 
ATOM     58  N   UNL A   1      43.334  31.954  29.720  1.00  0.00    -0.248 NA
ATOM     59  C   UNL A   1      45.473  32.136  28.892  1.00  0.00     0.031 C 
ATOM     60  C   UNL A   1      41.355  33.372  31.883  1.00  0.00     0.029 A 
ATOM     61  C   UNL A   1      41.471  33.752  30.557  1.00  0.00     0.049 A 
ATOM     62  H   UNL A   1      39.985  33.879  29.072  1.00  0.00     0.167 HD
ATOM     63  C   UNL A   1      43.562  33.291  29.524  1.00  0.00     0.074 A 
ATOM     64  C   UNL A   1      44.924  33.355  29.025  1.00  0.00     0.031 C 
ATOM     65  C   UNL A   1      42.600  34.227  29.772  1.00  0.00     0.037 A 
BRANCH  52  66
ATOM     66  C   UNL A   1      36.689  33.140  31.113  1.00  0.00     0.064 A 
ATOM     67  C   UNL A   1      35.725  33.822  30.331  1.00  0.00     0.173 A 
ATOM     68  C   UNL A   1      36.349  33.041  32.475  1.00  0.00     0.173 A 
ATOM     69  F   UNL A   1      35.826  33.897  28.998  1.00  0.00    -0.203 F 
ATOM     70  C   UNL A   1      34.605  34.455  30.887  1.00  0.00     0.198 A 
ATOM     71  C   UNL A   1      35.253  33.707  33.039  1.00  0.00     0.198 A 
ATOM     72  F   UNL A   1      37.013  32.241  33.311  1.00  0.00    -0.203 F 
ATOM     73  F   UNL A   1      33.743  35.102  30.089  1.00  0.00    -0.200 F 
ATOM     74  C   UNL A   1      34.390  34.430  32.246  1.00  0.00     0.200 A 
ATOM     75  F   UNL A   1      35.044  33.632  34.361  1.00  0.00    -0.200 F 
ATOM     76  F   UNL A   1      33.341  35.064  32.786  1.00  0.00    -0.200 F 
ENDBRANCH  52  66
BRANCH  53  77
ATOM     77  C   UNL A   1      44.867  28.933  28.209  1.00  0.00     0.064 A 
ATOM     78  C   UNL A   1      45.775  27.879  28.425  1.00  0.00     0.173 A 
ATOM     79  C   UNL A   1      44.129  28.918  27.020  1.00  0.00     0.173 A 
ATOM     80  F   UNL A   1      46.504  27.842  29.552  1.00  0.00    -0.203 F 
ATOM     81  C   UNL A   1      45.855  26.800  27.548  1.00  0.00     0.198 A 
ATOM     82  C   UNL A   1      44.224  27.842  26.135  1.00  0.00     0.198 A 
ATOM     83  F   UNL A   1      43.231  29.881  26.765  1.00  0.00    -0.203 F 
ATOM     84  F   UNL A   1      46.646  25.758  27.843  1.00  0.00    -0.200 F 
ATOM     85  C   UNL A   1      45.060  26.771  26.416  1.00  0.00     0.200 A 
ATOM     86  F   UNL A   1      43.428  27.794  25.057  1.00  0.00    -0.200 F 
ATOM     87  F   UNL A   1      45.065  25.692  25.620  1.00  0.00    -0.200 F 
ENDBRANCH  53  77
BRANCH  65  88
ATOM     88  C   UNL A   1      42.659  35.685  29.385  1.00  0.00     0.064 A 
ATOM     89  C   UNL A   1      43.450  36.640  30.045  1.00  0.00     0.173 A 
ATOM     90  C   UNL A   1      42.010  36.139  28.211  1.00  0.00     0.173 A 
ATOM     91  F   UNL A   1      44.209  36.310  31.097  1.00  0.00    -0.203 F 
ATOM     92  C   UNL A   1      43.534  37.965  29.602  1.00  0.00     0.198 A 
ATOM     93  C   UNL A   1      42.142  37.444  27.740  1.00  0.00     0.198 A 
ATOM     94  F   UNL A   1      41.248  35.319  27.471  1.00  0.00    -0.203 F 
ATOM     95  F   UNL A   1      44.269  38.848  30.291  1.00  0.00    -0.200 F 
ATOM     96  C   UNL A   1      42.891  38.363  28.446  1.00  0.00     0.200 A 
ATOM     97  F   UNL A   1      41.554  37.801  26.589  1.00  0.00    -0.200 F 
ATOM     98  F   UNL A   1      43.012  39.621  28.001  1.00  0.00    -0.200 F 
ENDBRANCH  65  88
ENDBRANCH  39  40
ENDBRANCH  31  34
ENDBRANCH  29  30
ENDBRANCH  28  29
ENDBRANCH   1  28
TORSDOF 14
ENDMDL
