MODEL 1
REMARK VINA RESULT:     -12.5      0.000      0.000
REMARK SMILES CCc1nc(C(=O)N2CC[NH+]([C@H](C)C(=O)NCCCCNC(=O)c3ccc(-c4c5nc(c(-c6c(F)c(F)c(F)c(F)c6F)c6ccc([nH]6)c(-c6c(F)c(F)c(F)c(F)c6F)c6nc(c(-c7c(F)c(F)c(F)c(F)c7F)c7ccc4[nH]7)C=C6)C=C5)cc3)CC2)n[nH]1
REMARK SMILES IDX 18 1 17 2 16 3 14 4 15 5 12 7 13 8 11 9 6 10 7 11 8 12 9 13
REMARK SMILES IDX 88 14 10 15 87 16 5 18 3 19 4 20 90 21 89 22 2 24 1 25 19 26
REMARK SMILES IDX 20 27 21 28 22 29 23 31 24 32 25 33 86 34 26 35 85 36 27 37
REMARK SMILES IDX 28 38 29 39 79 40 30 41 84 42 78 43 80 44 31 45 83 46 77 47
REMARK SMILES IDX 76 48 32 50 64 51 44 52 63 53 45 54 48 55 62 56 81 57 46 58
REMARK SMILES IDX 47 59 61 61 82 62 49 63 33 64 34 65 42 66 35 67 36 68 40 69
REMARK SMILES IDX 43 70 37 71 38 72 41 73 39 74 65 75 66 76 74 77 67 78 68 79
REMARK SMILES IDX 72 80 75 81 69 82 70 83 73 84 71 85 50 86 51 87 59 88 52 89
REMARK SMILES IDX 53 90 57 91 60 92 54 93 55 94 58 95 56 96
REMARK H PARENT 16 6 11 17 90 23 21 30 80 49 48 60
REMARK Flexibility Score: inf
ROOT
ATOM      1  C   UNL A   1      37.301  21.223  24.606  1.00  0.00     0.023 C 
ENDROOT
BRANCH   1   2
ATOM      2  C   UNL A   1      36.235  21.657  25.601  1.00  0.00     0.116 C 
BRANCH   2   3
ATOM      3  N   UNL A   1      35.147  20.714  25.751  1.00  0.00    -0.351 N 
ATOM      4  C   UNL A   1      33.795  20.927  25.707  1.00  0.00     0.278 C 
ATOM      5  O   UNL A   1      33.084  19.920  25.605  1.00  0.00    -0.268 OA
ATOM      6  H   UNL A   1      35.420  19.782  25.907  1.00  0.00     0.163 HD
BRANCH   4   7
ATOM      7  C   UNL A   1      33.166  22.339  25.816  1.00  0.00     0.271 C 
ATOM      8  C   UNL A   1      33.956  23.257  26.761  1.00  0.00     0.086 C 
BRANCH   7   9
ATOM      9  N   UNL A   1      32.662  22.903  24.526  1.00  0.00    -0.322 N 
ATOM     10  C   UNL A   1      32.901  26.212  22.222  1.00  0.00     0.293 C 
ATOM     11  O   UNL A   1      33.653  26.329  21.251  1.00  0.00    -0.265 OA
ATOM     12  N   UNL A   1      32.329  24.971  22.523  1.00  0.00    -0.325 N 
ATOM     13  C   UNL A   1      33.076  23.768  22.190  1.00  0.00     0.181 C 
ATOM     14  C   UNL A   1      31.232  24.719  23.452  1.00  0.00     0.181 C 
ATOM     15  C   UNL A   1      33.674  23.204  23.499  1.00  0.00     0.284 C 
ATOM     16  C   UNL A   1      31.748  24.054  24.745  1.00  0.00     0.284 C 
ATOM     17  H   UNL A   1      32.134  22.128  24.125  1.00  0.00     0.348 HD
BRANCH  10  18
ATOM     18  C   UNL A   1      32.684  27.340  23.166  1.00  0.00     0.239 A 
ATOM     19  C   UNL A   1      33.084  28.697  24.767  1.00  0.00     0.124 A 
ATOM     20  N   UNL A   1      33.361  27.474  24.372  1.00  0.00    -0.208 NA
ATOM     21  N   UNL A   1      32.234  29.264  23.865  1.00  0.00    -0.263 N 
ATOM     22  N   UNL A   1      31.963  28.434  22.851  1.00  0.00    -0.148 NA
ATOM     23  H   UNL A   1      31.865  30.174  23.948  1.00  0.00     0.192 HD
BRANCH  19  24
ATOM     24  C   UNL A   1      33.654  29.422  25.933  1.00  0.00     0.073 C 
ATOM     25  C   UNL A   1      33.693  28.577  27.194  1.00  0.00     0.012 C 
ENDBRANCH  19  24
ENDBRANCH  10  18
ENDBRANCH   7   9
ENDBRANCH   4   7
ENDBRANCH   2   3
ENDBRANCH   1   2
BRANCH   1  26
ATOM     26  C   UNL A   1      38.093  19.979  25.001  1.00  0.00     0.023 C 
BRANCH  26  27
ATOM     27  C   UNL A   1      39.244  20.204  25.976  1.00  0.00     0.116 C 
BRANCH  27  28
ATOM     28  N   UNL A   1      40.232  19.135  25.973  1.00  0.00    -0.352 N 
ATOM     29  C   UNL A   1      41.597  19.202  26.126  1.00  0.00     0.251 C 
ATOM     30  H   UNL A   1      39.869  18.230  25.840  1.00  0.00     0.163 HD
ATOM     31  O   UNL A   1      42.284  18.198  25.990  1.00  0.00    -0.269 OA
BRANCH  29  32
ATOM     32  C   UNL A   1      42.242  20.502  26.411  1.00  0.00     0.039 A 
ATOM     33  C   UNL A   1      42.735  21.255  25.343  1.00  0.00     0.014 A 
ATOM     34  C   UNL A   1      42.328  20.992  27.716  1.00  0.00     0.014 A 
ATOM     35  C   UNL A   1      43.239  22.535  25.575  1.00  0.00     0.010 A 
ATOM     36  C   UNL A   1      42.745  22.301  27.934  1.00  0.00     0.010 A 
ATOM     37  C   UNL A   1      43.207  23.086  26.867  1.00  0.00    -0.014 A 
BRANCH  37  38
ATOM     38  C   UNL A   1      43.654  24.479  27.119  1.00  0.00     0.031 A 
ATOM     39  C   UNL A   1      42.677  25.509  27.611  1.00  0.00     0.074 A 
ATOM     40  C   UNL A   1      44.923  24.835  26.834  1.00  0.00     0.049 A 
ATOM     41  N   UNL A   1      42.862  26.785  27.839  1.00  0.00    -0.248 NA
ATOM     42  C   UNL A   1      41.298  25.053  27.844  1.00  0.00     0.031 C 
ATOM     43  C   UNL A   1      45.946  23.947  26.281  1.00  0.00     0.029 A 
ATOM     44  N   UNL A   1      45.563  26.042  26.958  1.00  0.00    -0.354 N 
ATOM     45  C   UNL A   1      41.623  27.284  28.218  1.00  0.00     0.074 A 
ATOM     46  C   UNL A   1      40.682  26.189  28.133  1.00  0.00     0.031 C 
ATOM     47  C   UNL A   1      47.091  24.633  26.134  1.00  0.00     0.029 A 
ATOM     48  C   UNL A   1      46.875  26.014  26.552  1.00  0.00     0.049 A 
ATOM     49  H   UNL A   1      45.124  26.852  27.305  1.00  0.00     0.167 HD
ATOM     50  C   UNL A   1      41.303  28.536  28.624  1.00  0.00     0.037 A 
ATOM     51  C   UNL A   1      47.799  26.994  26.518  1.00  0.00     0.037 A 
ATOM     52  C   UNL A   1      42.251  29.612  28.743  1.00  0.00     0.049 A 
ATOM     53  C   UNL A   1      47.430  28.368  27.011  1.00  0.00     0.074 A 
ATOM     54  C   UNL A   1      42.048  30.891  29.230  1.00  0.00     0.029 A 
ATOM     55  N   UNL A   1      43.583  29.535  28.364  1.00  0.00    -0.354 N 
ATOM     56  N   UNL A   1      46.278  28.804  27.458  1.00  0.00    -0.248 NA
ATOM     57  C   UNL A   1      48.495  29.380  27.007  1.00  0.00     0.031 C 
ATOM     58  C   UNL A   1      43.245  31.603  29.100  1.00  0.00     0.029 A 
ATOM     59  C   UNL A   1      44.209  30.753  28.584  1.00  0.00     0.049 A 
ATOM     60  H   UNL A   1      44.020  28.734  27.994  1.00  0.00     0.167 HD
ATOM     61  C   UNL A   1      46.483  30.131  27.811  1.00  0.00     0.074 A 
ATOM     62  C   UNL A   1      47.876  30.423  27.543  1.00  0.00     0.031 C 
ATOM     63  C   UNL A   1      45.597  31.027  28.312  1.00  0.00     0.037 A 
BRANCH  50  64
ATOM     64  C   UNL A   1      39.867  28.805  28.972  1.00  0.00     0.064 A 
ATOM     65  C   UNL A   1      39.378  28.634  30.277  1.00  0.00     0.173 A 
ATOM     66  C   UNL A   1      38.973  29.263  27.993  1.00  0.00     0.173 A 
ATOM     67  F   UNL A   1      40.188  28.188  31.249  1.00  0.00    -0.203 F 
ATOM     68  C   UNL A   1      38.039  28.872  30.579  1.00  0.00     0.198 A 
ATOM     69  C   UNL A   1      37.643  29.532  28.305  1.00  0.00     0.198 A 
ATOM     70  F   UNL A   1      39.388  29.451  26.732  1.00  0.00    -0.203 F 
ATOM     71  F   UNL A   1      37.582  28.644  31.818  1.00  0.00    -0.200 F 
ATOM     72  C   UNL A   1      37.175  29.327  29.595  1.00  0.00     0.200 A 
ATOM     73  F   UNL A   1      36.812  29.986  27.357  1.00  0.00    -0.200 F 
ATOM     74  F   UNL A   1      35.888  29.561  29.887  1.00  0.00    -0.200 F 
ENDBRANCH  50  64
BRANCH  51  75
ATOM     75  C   UNL A   1      49.170  26.699  26.029  1.00  0.00     0.064 A 
ATOM     76  C   UNL A   1      49.542  26.983  24.707  1.00  0.00     0.173 A 
ATOM     77  C   UNL A   1      50.140  26.140  26.873  1.00  0.00     0.173 A 
ATOM     78  F   UNL A   1      48.644  27.502  23.857  1.00  0.00    -0.203 F 
ATOM     79  C   UNL A   1      50.826  26.703  24.243  1.00  0.00     0.198 A 
ATOM     80  C   UNL A   1      51.432  25.884  26.416  1.00  0.00     0.198 A 
ATOM     81  F   UNL A   1      49.837  25.856  28.148  1.00  0.00    -0.203 F 
ATOM     82  F   UNL A   1      51.142  26.946  22.965  1.00  0.00    -0.200 F 
ATOM     83  C   UNL A   1      51.771  26.160  25.100  1.00  0.00     0.200 A 
ATOM     84  F   UNL A   1      52.347  25.374  27.251  1.00  0.00    -0.200 F 
ATOM     85  F   UNL A   1      53.008  25.897  24.656  1.00  0.00    -0.200 F 
ENDBRANCH  51  75
BRANCH  63  86
ATOM     86  C   UNL A   1      46.113  32.400  28.629  1.00  0.00     0.064 A 
ATOM     87  C   UNL A   1      46.622  32.722  29.896  1.00  0.00     0.173 A 
ATOM     88  C   UNL A   1      46.135  33.396  27.640  1.00  0.00     0.173 A 
ATOM     89  F   UNL A   1      46.611  31.810  30.880  1.00  0.00    -0.203 F 
ATOM     90  C   UNL A   1      47.107  33.999  30.169  1.00  0.00     0.198 A 
ATOM     91  C   UNL A   1      46.649  34.661  27.907  1.00  0.00     0.198 A 
ATOM     92  F   UNL A   1      45.667  33.137  26.409  1.00  0.00    -0.203 F 
ATOM     93  F   UNL A   1      47.541  34.299  31.400  1.00  0.00    -0.200 F 
ATOM     94  C   UNL A   1      47.127  34.964  29.173  1.00  0.00     0.200 A 
ATOM     95  F   UNL A   1      46.682  35.588  26.940  1.00  0.00    -0.200 F 
ATOM     96  F   UNL A   1      47.601  36.190  29.436  1.00  0.00    -0.200 F 
ENDBRANCH  63  86
ENDBRANCH  37  38
ENDBRANCH  29  32
ENDBRANCH  27  28
ENDBRANCH  26  27
ENDBRANCH   1  26
TORSDOF 14
ENDMDL
MODEL 2
REMARK VINA RESULT:     -12.4      0.930      1.981
REMARK SMILES CCc1nc(C(=O)N2CC[NH+]([C@H](C)C(=O)NCCCCNC(=O)c3ccc(-c4c5nc(c(-c6c(F)c(F)c(F)c(F)c6F)c6ccc([nH]6)c(-c6c(F)c(F)c(F)c(F)c6F)c6nc(c(-c7c(F)c(F)c(F)c(F)c7F)c7ccc4[nH]7)C=C6)C=C5)cc3)CC2)n[nH]1
REMARK SMILES IDX 18 1 17 2 16 3 14 4 15 5 12 7 13 8 11 9 6 10 7 11 8 12 9 13
REMARK SMILES IDX 88 14 10 15 87 16 5 18 3 19 4 20 90 21 89 22 2 24 1 25 19 26
REMARK SMILES IDX 20 27 21 28 22 29 23 31 24 32 25 33 86 34 26 35 85 36 27 37
REMARK SMILES IDX 28 38 29 39 79 40 30 41 84 42 78 43 80 44 31 45 83 46 77 47
REMARK SMILES IDX 76 48 32 50 64 51 44 52 63 53 45 54 48 55 62 56 81 57 46 58
REMARK SMILES IDX 47 59 61 61 82 62 49 63 33 64 34 65 42 66 35 67 36 68 40 69
REMARK SMILES IDX 43 70 37 71 38 72 41 73 39 74 65 75 66 76 74 77 67 78 68 79
REMARK SMILES IDX 72 80 75 81 69 82 70 83 73 84 71 85 50 86 51 87 59 88 52 89
REMARK SMILES IDX 53 90 57 91 60 92 54 93 55 94 58 95 56 96
REMARK H PARENT 16 6 11 17 90 23 21 30 80 49 48 60
REMARK Flexibility Score: inf
ROOT
ATOM      1  C   UNL A   1      36.851  19.680  25.063  1.00  0.00     0.023 C 
ENDROOT
BRANCH   1   2
ATOM      2  C   UNL A   1      35.820  20.798  25.035  1.00  0.00     0.116 C 
BRANCH   2   3
ATOM      3  N   UNL A   1      35.200  21.064  26.316  1.00  0.00    -0.351 N 
ATOM      4  C   UNL A   1      34.436  22.128  26.713  1.00  0.00     0.278 C 
ATOM      5  O   UNL A   1      33.812  21.992  27.772  1.00  0.00    -0.268 OA
ATOM      6  H   UNL A   1      35.351  20.376  27.004  1.00  0.00     0.163 HD
BRANCH   4   7
ATOM      7  C   UNL A   1      34.369  23.454  25.913  1.00  0.00     0.271 C 
ATOM      8  C   UNL A   1      35.731  24.160  25.840  1.00  0.00     0.086 C 
BRANCH   7   9
ATOM      9  N   UNL A   1      33.523  23.403  24.681  1.00  0.00    -0.322 N 
ATOM     10  C   UNL A   1      32.442  25.647  21.501  1.00  0.00     0.293 C 
ATOM     11  O   UNL A   1      32.962  25.566  20.385  1.00  0.00    -0.265 OA
ATOM     12  N   UNL A   1      32.300  24.503  22.296  1.00  0.00    -0.325 N 
ATOM     13  C   UNL A   1      33.290  23.447  22.167  1.00  0.00     0.181 C 
ATOM     14  C   UNL A   1      31.485  24.373  23.499  1.00  0.00     0.181 C 
ATOM     15  C   UNL A   1      34.228  23.524  23.393  1.00  0.00     0.284 C 
ATOM     16  C   UNL A   1      32.370  24.336  24.762  1.00  0.00     0.284 C 
ATOM     17  H   UNL A   1      33.177  22.443  24.677  1.00  0.00     0.348 HD
BRANCH  10  18
ATOM     18  C   UNL A   1      32.072  26.964  22.083  1.00  0.00     0.239 A 
ATOM     19  C   UNL A   1      30.819  28.532  22.816  1.00  0.00     0.124 A 
ATOM     20  N   UNL A   1      30.807  27.527  21.968  1.00  0.00    -0.208 NA
ATOM     21  N   UNL A   1      32.056  28.607  23.385  1.00  0.00    -0.263 N 
ATOM     22  N   UNL A   1      32.864  27.638  22.941  1.00  0.00    -0.148 NA
ATOM     23  H   UNL A   1      32.322  29.291  24.042  1.00  0.00     0.192 HD
BRANCH  19  24
ATOM     24  C   UNL A   1      29.679  29.403  23.203  1.00  0.00     0.073 C 
ATOM     25  C   UNL A   1      28.328  28.781  22.895  1.00  0.00     0.012 C 
ENDBRANCH  19  24
ENDBRANCH  10  18
ENDBRANCH   7   9
ENDBRANCH   4   7
ENDBRANCH   2   3
ENDBRANCH   1   2
BRANCH   1  26
ATOM     26  C   UNL A   1      38.275  20.097  24.707  1.00  0.00     0.023 C 
BRANCH  26  27
ATOM     27  C   UNL A   1      39.250  20.205  25.875  1.00  0.00     0.116 C 
BRANCH  27  28
ATOM     28  N   UNL A   1      40.226  19.126  25.924  1.00  0.00    -0.352 N 
ATOM     29  C   UNL A   1      41.585  19.181  26.131  1.00  0.00     0.251 C 
ATOM     30  H   UNL A   1      39.860  18.223  25.787  1.00  0.00     0.163 HD
ATOM     31  O   UNL A   1      42.267  18.170  26.035  1.00  0.00    -0.269 OA
BRANCH  29  32
ATOM     32  C   UNL A   1      42.231  20.479  26.427  1.00  0.00     0.039 A 
ATOM     33  C   UNL A   1      42.652  21.277  25.360  1.00  0.00     0.014 A 
ATOM     34  C   UNL A   1      42.388  20.922  27.741  1.00  0.00     0.014 A 
ATOM     35  C   UNL A   1      43.154  22.555  25.610  1.00  0.00     0.010 A 
ATOM     36  C   UNL A   1      42.803  22.227  27.984  1.00  0.00     0.010 A 
ATOM     37  C   UNL A   1      43.192  23.057  26.921  1.00  0.00    -0.014 A 
BRANCH  37  38
ATOM     38  C   UNL A   1      43.637  24.446  27.198  1.00  0.00     0.031 A 
ATOM     39  C   UNL A   1      42.659  25.466  27.708  1.00  0.00     0.074 A 
ATOM     40  C   UNL A   1      44.906  24.808  26.921  1.00  0.00     0.049 A 
ATOM     41  N   UNL A   1      42.843  26.738  27.959  1.00  0.00    -0.248 NA
ATOM     42  C   UNL A   1      41.280  25.005  27.932  1.00  0.00     0.031 C 
ATOM     43  C   UNL A   1      45.931  23.931  26.353  1.00  0.00     0.029 A 
ATOM     44  N   UNL A   1      45.545  26.013  27.067  1.00  0.00    -0.354 N 
ATOM     45  C   UNL A   1      41.602  27.228  28.346  1.00  0.00     0.074 A 
ATOM     46  C   UNL A   1      40.663  26.135  28.241  1.00  0.00     0.031 C 
ATOM     47  C   UNL A   1      47.075  24.621  26.220  1.00  0.00     0.029 A 
ATOM     48  C   UNL A   1      46.857  25.994  26.662  1.00  0.00     0.049 A 
ATOM     49  H   UNL A   1      45.105  26.817  27.429  1.00  0.00     0.167 HD
ATOM     50  C   UNL A   1      41.282  28.473  28.774  1.00  0.00     0.037 A 
ATOM     51  C   UNL A   1      47.780  26.975  26.646  1.00  0.00     0.037 A 
ATOM     52  C   UNL A   1      42.228  29.548  28.913  1.00  0.00     0.049 A 
ATOM     53  C   UNL A   1      47.410  28.339  27.164  1.00  0.00     0.074 A 
ATOM     54  C   UNL A   1      42.023  30.818  29.423  1.00  0.00     0.029 A 
ATOM     55  N   UNL A   1      43.561  29.479  28.535  1.00  0.00    -0.354 N 
ATOM     56  N   UNL A   1      46.257  28.767  27.618  1.00  0.00    -0.248 NA
ATOM     57  C   UNL A   1      48.474  29.352  27.179  1.00  0.00     0.031 C 
ATOM     58  C   UNL A   1      43.220  31.533  29.307  1.00  0.00     0.029 A 
ATOM     59  C   UNL A   1      44.185  30.693  28.777  1.00  0.00     0.049 A 
ATOM     60  H   UNL A   1      43.999  28.685  28.151  1.00  0.00     0.167 HD
ATOM     61  C   UNL A   1      46.461  30.087  27.995  1.00  0.00     0.074 A 
ATOM     62  C   UNL A   1      47.854  30.385  27.733  1.00  0.00     0.031 C 
ATOM     63  C   UNL A   1      45.574  30.973  28.511  1.00  0.00     0.037 A 
BRANCH  50  64
ATOM     64  C   UNL A   1      39.845  28.735  29.126  1.00  0.00     0.064 A 
ATOM     65  C   UNL A   1      38.929  29.220  28.180  1.00  0.00     0.173 A 
ATOM     66  C   UNL A   1      39.373  28.477  30.421  1.00  0.00     0.173 A 
ATOM     67  F   UNL A   1      39.331  29.493  26.929  1.00  0.00    -0.203 F 
ATOM     68  C   UNL A   1      37.604  29.473  28.527  1.00  0.00     0.198 A 
ATOM     69  C   UNL A   1      38.040  28.700  30.757  1.00  0.00     0.198 A 
ATOM     70  F   UNL A   1      40.203  28.006  31.364  1.00  0.00    -0.203 F 
ATOM     71  F   UNL A   1      36.763  29.992  27.622  1.00  0.00    -0.200 F 
ATOM     72  C   UNL A   1      37.159  29.207  29.813  1.00  0.00     0.200 A 
ATOM     73  F   UNL A   1      37.607  28.429  31.996  1.00  0.00    -0.200 F 
ATOM     74  F   UNL A   1      35.884  29.447  30.145  1.00  0.00    -0.200 F 
ENDBRANCH  50  64
BRANCH  51  75
ATOM     75  C   UNL A   1      49.153  26.690  26.153  1.00  0.00     0.064 A 
ATOM     76  C   UNL A   1      50.124  26.137  27.000  1.00  0.00     0.173 A 
ATOM     77  C   UNL A   1      49.519  26.953  24.825  1.00  0.00     0.173 A 
ATOM     78  F   UNL A   1      49.826  25.884  28.283  1.00  0.00    -0.203 F 
ATOM     79  C   UNL A   1      51.413  25.874  26.542  1.00  0.00     0.198 A 
ATOM     80  C   UNL A   1      50.800  26.664  24.361  1.00  0.00     0.198 A 
ATOM     81  F   UNL A   1      48.624  27.475  23.973  1.00  0.00    -0.203 F 
ATOM     82  F   UNL A   1      52.333  25.383  27.383  1.00  0.00    -0.200 F 
ATOM     83  C   UNL A   1      51.749  26.131  25.222  1.00  0.00     0.200 A 
ATOM     84  F   UNL A   1      51.116  26.900  23.080  1.00  0.00    -0.200 F 
ATOM     85  F   UNL A   1      52.987  25.871  24.779  1.00  0.00    -0.200 F 
ENDBRANCH  51  75
BRANCH  63  86
ATOM     86  C   UNL A   1      46.088  32.341  28.853  1.00  0.00     0.064 A 
ATOM     87  C   UNL A   1      46.606  32.638  30.122  1.00  0.00     0.173 A 
ATOM     88  C   UNL A   1      46.098  33.357  27.885  1.00  0.00     0.173 A 
ATOM     89  F   UNL A   1      46.605  31.705  31.086  1.00  0.00    -0.203 F 
ATOM     90  C   UNL A   1      47.089  33.910  30.418  1.00  0.00     0.198 A 
ATOM     91  C   UNL A   1      46.612  34.618  28.175  1.00  0.00     0.198 A 
ATOM     92  F   UNL A   1      45.622  33.124  26.652  1.00  0.00    -0.203 F 
ATOM     93  F   UNL A   1      47.532  34.185  31.652  1.00  0.00    -0.200 F 
ATOM     94  C   UNL A   1      47.098  34.895  29.443  1.00  0.00     0.200 A 
ATOM     95  F   UNL A   1      46.633  35.565  27.227  1.00  0.00    -0.200 F 
ATOM     96  F   UNL A   1      47.570  36.117  29.728  1.00  0.00    -0.200 F 
ENDBRANCH  63  86
ENDBRANCH  37  38
ENDBRANCH  29  32
ENDBRANCH  27  28
ENDBRANCH  26  27
ENDBRANCH   1  26
TORSDOF 14
ENDMDL
MODEL 3
REMARK VINA RESULT:     -12.3      5.610     11.279
REMARK SMILES CCc1nc(C(=O)N2CC[NH+]([C@H](C)C(=O)NCCCCNC(=O)c3ccc(-c4c5nc(c(-c6c(F)c(F)c(F)c(F)c6F)c6ccc([nH]6)c(-c6c(F)c(F)c(F)c(F)c6F)c6nc(c(-c7c(F)c(F)c(F)c(F)c7F)c7ccc4[nH]7)C=C6)C=C5)cc3)CC2)n[nH]1
REMARK SMILES IDX 18 1 17 2 16 3 14 4 15 5 12 7 13 8 11 9 6 10 7 11 8 12 9 13
REMARK SMILES IDX 88 14 10 15 87 16 5 18 3 19 4 20 90 21 89 22 2 24 1 25 19 26
REMARK SMILES IDX 20 27 21 28 22 29 23 31 24 32 25 33 86 34 26 35 85 36 27 37
REMARK SMILES IDX 28 38 29 39 79 40 30 41 84 42 78 43 80 44 31 45 83 46 77 47
REMARK SMILES IDX 76 48 32 50 64 51 44 52 63 53 45 54 48 55 62 56 81 57 46 58
REMARK SMILES IDX 47 59 61 61 82 62 49 63 33 64 34 65 42 66 35 67 36 68 40 69
REMARK SMILES IDX 43 70 37 71 38 72 41 73 39 74 65 75 66 76 74 77 67 78 68 79
REMARK SMILES IDX 72 80 75 81 69 82 70 83 73 84 71 85 50 86 51 87 59 88 52 89
REMARK SMILES IDX 53 90 57 91 60 92 54 93 55 94 58 95 56 96
REMARK H PARENT 16 6 11 17 90 23 21 30 80 49 48 60
REMARK Flexibility Score: inf
ROOT
ATOM      1  C   UNL A   1      31.813  30.548  26.940  1.00  0.00     0.023 C 
ENDROOT
BRANCH   1   2
ATOM      2  C   UNL A   1      32.041  29.787  25.643  1.00  0.00     0.116 C 
BRANCH   2   3
ATOM      3  N   UNL A   1      31.158  30.177  24.564  1.00  0.00    -0.351 N 
ATOM      4  C   UNL A   1      30.324  29.409  23.796  1.00  0.00     0.278 C 
ATOM      5  O   UNL A   1      29.486  30.016  23.119  1.00  0.00    -0.268 OA
ATOM      6  H   UNL A   1      31.156  31.138  24.353  1.00  0.00     0.163 HD
BRANCH   4   7
ATOM      7  C   UNL A   1      30.431  27.864  23.734  1.00  0.00     0.271 C 
ATOM      8  C   UNL A   1      29.055  27.187  23.648  1.00  0.00     0.086 C 
BRANCH   7   9
ATOM      9  N   UNL A   1      31.540  27.345  22.875  1.00  0.00    -0.322 N 
ATOM     10  C   UNL A   1      33.506  23.932  21.983  1.00  0.00     0.293 C 
ATOM     11  O   UNL A   1      33.261  23.225  21.001  1.00  0.00    -0.265 OA
ATOM     12  N   UNL A   1      33.371  25.322  21.900  1.00  0.00    -0.325 N 
ATOM     13  C   UNL A   1      32.365  25.865  21.002  1.00  0.00     0.181 C 
ATOM     14  C   UNL A   1      33.866  26.304  22.859  1.00  0.00     0.181 C 
ATOM     15  C   UNL A   1      31.171  26.342  21.860  1.00  0.00     0.284 C 
ATOM     16  C   UNL A   1      32.706  26.902  23.682  1.00  0.00     0.284 C 
ATOM     17  H   UNL A   1      31.805  28.160  22.322  1.00  0.00     0.348 HD
BRANCH  10  18
ATOM     18  C   UNL A   1      33.822  23.328  23.304  1.00  0.00     0.239 A 
ATOM     19  C   UNL A   1      34.995  22.739  24.990  1.00  0.00     0.124 A 
ATOM     20  N   UNL A   1      35.108  22.985  23.704  1.00  0.00    -0.208 NA
ATOM     21  N   UNL A   1      33.686  22.876  25.346  1.00  0.00    -0.263 N 
ATOM     22  N   UNL A   1      32.927  23.242  24.307  1.00  0.00    -0.148 NA
ATOM     23  H   UNL A   1      33.341  22.726  26.257  1.00  0.00     0.192 HD
BRANCH  19  24
ATOM     24  C   UNL A   1      36.088  22.456  25.957  1.00  0.00     0.073 C 
ATOM     25  C   UNL A   1      37.279  23.384  25.792  1.00  0.00     0.012 C 
ENDBRANCH  19  24
ENDBRANCH  10  18
ENDBRANCH   7   9
ENDBRANCH   4   7
ENDBRANCH   2   3
ENDBRANCH   1   2
BRANCH   1  26
ATOM     26  C   UNL A   1      31.648  32.057  26.789  1.00  0.00     0.023 C 
BRANCH  26  27
ATOM     27  C   UNL A   1      32.830  32.906  27.246  1.00  0.00     0.116 C 
BRANCH  27  28
ATOM     28  N   UNL A   1      32.461  34.254  27.654  1.00  0.00    -0.352 N 
ATOM     29  C   UNL A   1      32.991  35.047  28.644  1.00  0.00     0.251 C 
ATOM     30  H   UNL A   1      31.722  34.657  27.144  1.00  0.00     0.163 HD
ATOM     31  O   UNL A   1      32.479  36.125  28.914  1.00  0.00    -0.269 OA
BRANCH  29  32
ATOM     32  C   UNL A   1      34.159  34.573  29.419  1.00  0.00     0.039 A 
ATOM     33  C   UNL A   1      33.941  33.984  30.667  1.00  0.00     0.014 A 
ATOM     34  C   UNL A   1      35.453  34.675  28.905  1.00  0.00     0.014 A 
ATOM     35  C   UNL A   1      35.014  33.424  31.362  1.00  0.00     0.010 A 
ATOM     36  C   UNL A   1      36.504  34.036  29.555  1.00  0.00     0.010 A 
ATOM     37  C   UNL A   1      36.297  33.405  30.791  1.00  0.00    -0.014 A 
BRANCH  37  38
ATOM     38  C   UNL A   1      37.431  32.733  31.473  1.00  0.00     0.031 A 
ATOM     39  C   UNL A   1      38.121  31.567  30.823  1.00  0.00     0.074 A 
ATOM     40  C   UNL A   1      37.792  33.126  32.711  1.00  0.00     0.049 A 
ATOM     41  N   UNL A   1      39.093  30.819  31.280  1.00  0.00    -0.248 NA
ATOM     42  C   UNL A   1      37.630  31.166  29.495  1.00  0.00     0.031 C 
ATOM     43  C   UNL A   1      37.153  34.194  33.480  1.00  0.00     0.029 A 
ATOM     44  N   UNL A   1      38.778  32.661  33.545  1.00  0.00    -0.354 N 
ATOM     45  C   UNL A   1      39.310  29.849  30.310  1.00  0.00     0.074 A 
ATOM     46  C   UNL A   1      38.332  30.067  29.267  1.00  0.00     0.031 C 
ATOM     47  C   UNL A   1      37.776  34.318  34.663  1.00  0.00     0.029 A 
ATOM     48  C   UNL A   1      38.836  33.319  34.750  1.00  0.00     0.049 A 
ATOM     49  H   UNL A   1      39.387  31.925  33.304  1.00  0.00     0.167 HD
ATOM     50  C   UNL A   1      40.256  28.880  30.280  1.00  0.00     0.037 A 
ATOM     51  C   UNL A   1      39.651  33.136  35.806  1.00  0.00     0.037 A 
ATOM     52  C   UNL A   1      41.250  28.691  31.303  1.00  0.00     0.049 A 
ATOM     53  C   UNL A   1      40.720  32.078  35.733  1.00  0.00     0.074 A 
ATOM     54  C   UNL A   1      42.307  27.798  31.325  1.00  0.00     0.029 A 
ATOM     55  N   UNL A   1      41.307  29.407  32.490  1.00  0.00    -0.354 N 
ATOM     56  N   UNL A   1      40.978  31.228  34.769  1.00  0.00    -0.248 NA
ATOM     57  C   UNL A   1      41.618  31.964  36.889  1.00  0.00     0.031 C 
ATOM     58  C   UNL A   1      42.973  27.939  32.547  1.00  0.00     0.029 A 
ATOM     59  C   UNL A   1      42.366  28.958  33.263  1.00  0.00     0.049 A 
ATOM     60  H   UNL A   1      40.686  30.127  32.746  1.00  0.00     0.167 HD
ATOM     61  C   UNL A   1      42.080  30.497  35.189  1.00  0.00     0.074 A 
ATOM     62  C   UNL A   1      42.453  31.014  36.489  1.00  0.00     0.031 C 
ATOM     63  C   UNL A   1      42.725  29.486  34.556  1.00  0.00     0.037 A 
BRANCH  50  64
ATOM     64  C   UNL A   1      40.259  27.952  29.099  1.00  0.00     0.064 A 
ATOM     65  C   UNL A   1      40.965  28.253  27.924  1.00  0.00     0.173 A 
ATOM     66  C   UNL A   1      39.564  26.735  29.151  1.00  0.00     0.173 A 
ATOM     67  F   UNL A   1      41.637  29.409  27.817  1.00  0.00    -0.203 F 
ATOM     68  C   UNL A   1      40.943  27.389  26.832  1.00  0.00     0.198 A 
ATOM     69  C   UNL A   1      39.572  25.857  28.070  1.00  0.00     0.198 A 
ATOM     70  F   UNL A   1      38.878  26.392  30.252  1.00  0.00    -0.203 F 
ATOM     71  F   UNL A   1      41.576  27.726  25.700  1.00  0.00    -0.200 F 
ATOM     72  C   UNL A   1      40.252  26.189  26.908  1.00  0.00     0.200 A 
ATOM     73  F   UNL A   1      38.916  24.691  28.151  1.00  0.00    -0.200 F 
ATOM     74  F   UNL A   1      40.235  25.356  25.859  1.00  0.00    -0.200 F 
ENDBRANCH  50  64
BRANCH  51  75
ATOM     75  C   UNL A   1      39.508  33.997  37.008  1.00  0.00     0.064 A 
ATOM     76  C   UNL A   1      38.768  33.568  38.119  1.00  0.00     0.173 A 
ATOM     77  C   UNL A   1      40.117  35.258  37.078  1.00  0.00     0.173 A 
ATOM     78  F   UNL A   1      38.152  32.377  38.093  1.00  0.00    -0.203 F 
ATOM     79  C   UNL A   1      38.627  34.375  39.246  1.00  0.00     0.198 A 
ATOM     80  C   UNL A   1      39.998  36.053  38.215  1.00  0.00     0.198 A 
ATOM     81  F   UNL A   1      40.843  35.711  36.044  1.00  0.00    -0.203 F 
ATOM     82  F   UNL A   1      37.880  33.959  40.277  1.00  0.00    -0.200 F 
ATOM     83  C   UNL A   1      39.247  35.614  39.296  1.00  0.00     0.200 A 
ATOM     84  F   UNL A   1      40.612  37.243  38.266  1.00  0.00    -0.200 F 
ATOM     85  F   UNL A   1      39.117  36.388  40.383  1.00  0.00    -0.200 F 
ENDBRANCH  51  75
BRANCH  63  86
ATOM     86  C   UNL A   1      43.917  28.891  35.246  1.00  0.00     0.064 A 
ATOM     87  C   UNL A   1      45.215  29.377  35.028  1.00  0.00     0.173 A 
ATOM     88  C   UNL A   1      43.754  27.846  36.169  1.00  0.00     0.173 A 
ATOM     89  F   UNL A   1      45.425  30.366  34.145  1.00  0.00    -0.203 F 
ATOM     90  C   UNL A   1      46.308  28.820  35.686  1.00  0.00     0.198 A 
ATOM     91  C   UNL A   1      44.846  27.313  36.849  1.00  0.00     0.198 A 
ATOM     92  F   UNL A   1      42.534  27.349  36.421  1.00  0.00    -0.203 F 
ATOM     93  F   UNL A   1      47.543  29.267  35.424  1.00  0.00    -0.200 F 
ATOM     94  C   UNL A   1      46.122  27.795  36.601  1.00  0.00     0.200 A 
ATOM     95  F   UNL A   1      44.663  26.332  37.743  1.00  0.00    -0.200 F 
ATOM     96  F   UNL A   1      47.175  27.265  37.239  1.00  0.00    -0.200 F 
ENDBRANCH  63  86
ENDBRANCH  37  38
ENDBRANCH  29  32
ENDBRANCH  27  28
ENDBRANCH  26  27
ENDBRANCH   1  26
TORSDOF 14
ENDMDL
