MODEL 1
REMARK VINA RESULT:     -11.8      0.000      0.000
REMARK SMILES CC(C)C[C@H](NC(=O)[C@H](Cc1ccccc1)NC(=O)CNC(=O)C[NH3+])C(=O)NCCCCNC(=O)c1ccc(-c2c3nc(c(-c4c(F)c(F)c(F)c(F)c4F)c4ccc([nH]4)c(-c4c(F)c(F)c(F)c(F)c4F)c4nc(c(-c5c(F)c(F)c(F)c(F)c5F)c5ccc2[nH]5)C=C4)C=C3)cc1
REMARK SMILES IDX 26 1 27 2 28 3 5 5 4 6 2 7 1 8 3 9 6 10 7 11 8 13 9 14 17 15
REMARK SMILES IDX 18 16 19 18 20 19 21 20 22 21 23 23 24 24 25 25 10 29 11 30
REMARK SMILES IDX 12 31 16 32 13 33 15 34 14 35 29 36 30 37 31 38 32 39 33 40
REMARK SMILES IDX 34 41 35 43 36 44 37 45 98 46 38 47 97 48 39 49 40 50 41 51
REMARK SMILES IDX 91 52 42 53 96 54 90 55 92 56 43 57 95 58 89 59 88 60 44 62
REMARK SMILES IDX 76 63 56 64 75 65 57 66 60 67 74 68 93 69 58 70 59 71 73 73
REMARK SMILES IDX 94 74 61 75 45 76 46 77 54 78 47 79 48 80 52 81 55 82 49 83
REMARK SMILES IDX 50 84 53 85 51 86 77 87 78 88 86 89 79 90 80 91 84 92 87 93
REMARK SMILES IDX 81 94 82 95 85 96 83 97 62 98 63 99 71 100 64 101 65 102
REMARK SMILES IDX 69 103 72 104 66 105 67 106 70 107 68 108
REMARK H PARENT 28 4 6 12 17 17 21 22 25 26 25 27 25 28 33 42 92 61 60 72
REMARK Flexibility Score: inf
ROOT
ATOM      1  C   UNL A   1      34.609  23.232  26.499  1.00  0.00     0.242 C 
ATOM      2  O   UNL A   1      33.640  23.165  27.255  1.00  0.00    -0.273 OA
ATOM      3  N   UNL A   1      35.578  22.273  26.600  1.00  0.00    -0.354 N 
ATOM      4  H   UNL A   1      35.500  21.658  27.364  1.00  0.00     0.163 HD
ENDROOT
BRANCH   1   5
ATOM      5  C   UNL A   1      34.763  24.410  25.519  1.00  0.00     0.171 C 
BRANCH   5   6
ATOM      6  C   UNL A   1      33.675  25.501  25.735  1.00  0.00     0.038 C 
BRANCH   6   7
ATOM      7  C   UNL A   1      33.981  27.019  25.644  1.00  0.00    -0.015 C 
ATOM      8  C   UNL A   1      33.956  27.673  24.256  1.00  0.00     0.007 C 
ATOM      9  C   UNL A   1      32.913  27.757  26.477  1.00  0.00     0.007 C 
ENDBRANCH   6   7
ENDBRANCH   5   6
BRANCH   5  10
ATOM     10  N   UNL A   1      34.954  23.873  24.177  1.00  0.00    -0.343 N 
ATOM     11  C   UNL A   1      34.059  23.512  23.207  1.00  0.00     0.243 C 
ATOM     12  H   UNL A   1      35.897  23.748  23.923  1.00  0.00     0.164 HD
ATOM     13  O   UNL A   1      34.568  23.010  22.197  1.00  0.00    -0.273 OA
BRANCH  11  14
ATOM     14  C   UNL A   1      32.524  23.753  23.314  1.00  0.00     0.175 C 
BRANCH  14  15
ATOM     15  N   UNL A   1      32.127  24.727  22.273  1.00  0.00    -0.342 N 
ATOM     16  C   UNL A   1      31.370  25.853  22.284  1.00  0.00     0.240 C 
ATOM     17  H   UNL A   1      32.491  24.514  21.384  1.00  0.00     0.164 HD
ATOM     18  O   UNL A   1      31.404  26.554  21.264  1.00  0.00    -0.273 OA
BRANCH  16  19
ATOM     19  C   UNL A   1      30.594  26.364  23.504  1.00  0.00     0.216 C 
BRANCH  19  20
ATOM     20  N   UNL A   1      29.413  27.178  23.275  1.00  0.00    -0.342 N 
ATOM     21  C   UNL A   1      29.357  28.513  22.988  1.00  0.00     0.275 C 
ATOM     22  H   UNL A   1      28.548  26.711  23.332  1.00  0.00     0.164 HD
ATOM     23  O   UNL A   1      28.276  29.022  22.692  1.00  0.00    -0.268 OA
BRANCH  21  24
ATOM     24  C   UNL A   1      30.647  29.332  22.991  1.00  0.00     0.360 C 
BRANCH  24  25
ATOM     25  N   UNL A   1      31.018  29.718  21.626  1.00  0.00    -0.350 N 
ATOM     26  H   UNL A   1      30.208  30.119  21.153  1.00  0.00     0.344 HD
ATOM     27  H   UNL A   1      31.338  28.897  21.113  1.00  0.00     0.344 HD
ATOM     28  H   UNL A   1      31.768  30.410  21.661  1.00  0.00     0.344 HD
ENDBRANCH  24  25
ENDBRANCH  21  24
ENDBRANCH  19  20
ENDBRANCH  16  19
ENDBRANCH  14  15
BRANCH  14  29
ATOM     29  C   UNL A   1      31.615  22.515  23.196  1.00  0.00     0.070 C 
BRANCH  29  30
ATOM     30  C   UNL A   1      32.155  21.166  23.636  1.00  0.00    -0.045 A 
ATOM     31  C   UNL A   1      32.562  20.904  24.952  1.00  0.00     0.004 A 
ATOM     32  C   UNL A   1      32.154  20.095  22.731  1.00  0.00     0.004 A 
ATOM     33  C   UNL A   1      32.971  19.631  25.352  1.00  0.00     0.000 A 
ATOM     34  C   UNL A   1      32.553  18.816  23.131  1.00  0.00     0.000 A 
ATOM     35  C   UNL A   1      32.963  18.585  24.440  1.00  0.00     0.000 A 
ENDBRANCH  29  30
ENDBRANCH  14  29
ENDBRANCH  11  14
ENDBRANCH   5  10
ENDBRANCH   1   5
BRANCH   3  36
ATOM     36  C   UNL A   1      36.705  22.051  25.721  1.00  0.00     0.116 C 
BRANCH  36  37
ATOM     37  C   UNL A   1      36.782  20.654  25.126  1.00  0.00     0.023 C 
BRANCH  37  38
ATOM     38  C   UNL A   1      38.193  20.211  24.770  1.00  0.00     0.023 C 
BRANCH  38  39
ATOM     39  C   UNL A   1      39.194  20.339  25.896  1.00  0.00     0.116 C 
BRANCH  39  40
ATOM     40  N   UNL A   1      40.082  19.198  25.988  1.00  0.00    -0.352 N 
ATOM     41  C   UNL A   1      41.452  19.226  26.123  1.00  0.00     0.251 C 
ATOM     42  H   UNL A   1      39.662  18.309  25.951  1.00  0.00     0.163 HD
ATOM     43  O   UNL A   1      42.120  18.217  26.021  1.00  0.00    -0.269 OA
BRANCH  41  44
ATOM     44  C   UNL A   1      42.083  20.542  26.358  1.00  0.00     0.039 A 
ATOM     45  C   UNL A   1      42.438  21.325  25.261  1.00  0.00     0.014 A 
ATOM     46  C   UNL A   1      42.210  21.027  27.664  1.00  0.00     0.014 A 
ATOM     47  C   UNL A   1      42.893  22.624  25.476  1.00  0.00     0.010 A 
ATOM     48  C   UNL A   1      42.563  22.353  27.867  1.00  0.00     0.010 A 
ATOM     49  C   UNL A   1      42.935  23.155  26.777  1.00  0.00    -0.014 A 
BRANCH  49  50
ATOM     50  C   UNL A   1      43.416  24.533  27.027  1.00  0.00     0.031 A 
ATOM     51  C   UNL A   1      42.466  25.558  27.582  1.00  0.00     0.074 A 
ATOM     52  C   UNL A   1      44.680  24.873  26.713  1.00  0.00     0.049 A 
ATOM     53  N   UNL A   1      42.668  26.825  27.836  1.00  0.00    -0.248 NA
ATOM     54  C   UNL A   1      41.092  25.104  27.859  1.00  0.00     0.031 C 
ATOM     55  C   UNL A   1      45.677  23.979  26.120  1.00  0.00     0.029 A 
ATOM     56  N   UNL A   1      45.344  26.066  26.847  1.00  0.00    -0.354 N 
ATOM     57  C   UNL A   1      41.448  27.318  28.280  1.00  0.00     0.074 A 
ATOM     58  C   UNL A   1      40.494  26.235  28.199  1.00  0.00     0.031 C 
ATOM     59  C   UNL A   1      46.834  24.644  25.974  1.00  0.00     0.029 A 
ATOM     60  C   UNL A   1      46.650  26.020  26.427  1.00  0.00     0.049 A 
ATOM     61  H   UNL A   1      44.923  26.879  27.210  1.00  0.00     0.167 HD
ATOM     62  C   UNL A   1      41.157  28.555  28.746  1.00  0.00     0.037 A 
ATOM     63  C   UNL A   1      47.592  26.983  26.411  1.00  0.00     0.037 A 
ATOM     64  C   UNL A   1      42.120  29.615  28.857  1.00  0.00     0.049 A 
ATOM     65  C   UNL A   1      47.241  28.352  26.932  1.00  0.00     0.074 A 
ATOM     66  C   UNL A   1      41.950  30.884  29.380  1.00  0.00     0.029 A 
ATOM     67  N   UNL A   1      43.438  29.529  28.431  1.00  0.00    -0.354 N 
ATOM     68  N   UNL A   1      46.107  28.784  27.428  1.00  0.00    -0.248 NA
ATOM     69  C   UNL A   1      48.306  29.364  26.900  1.00  0.00     0.031 C 
ATOM     70  C   UNL A   1      43.150  31.584  29.222  1.00  0.00     0.029 A 
ATOM     71  C   UNL A   1      44.086  30.733  28.655  1.00  0.00     0.049 A 
ATOM     72  H   UNL A   1      43.852  28.731  28.030  1.00  0.00     0.167 HD
ATOM     73  C   UNL A   1      46.329  30.106  27.793  1.00  0.00     0.074 A 
ATOM     74  C   UNL A   1      47.711  30.399  27.477  1.00  0.00     0.031 C 
ATOM     75  C   UNL A   1      45.467  30.998  28.342  1.00  0.00     0.037 A 
BRANCH  62  76
ATOM     76  C   UNL A   1      39.742  28.822  29.171  1.00  0.00     0.064 A 
ATOM     77  C   UNL A   1      39.311  28.599  30.489  1.00  0.00     0.173 A 
ATOM     78  C   UNL A   1      38.810  29.332  28.255  1.00  0.00     0.173 A 
ATOM     79  F   UNL A   1      40.156  28.096  31.401  1.00  0.00    -0.203 F 
ATOM     80  C   UNL A   1      37.992  28.844  30.864  1.00  0.00     0.198 A 
ATOM     81  C   UNL A   1      37.501  29.609  28.643  1.00  0.00     0.198 A 
ATOM     82  F   UNL A   1      39.168  29.565  26.984  1.00  0.00    -0.203 F 
ATOM     83  F   UNL A   1      37.590  28.567  32.111  1.00  0.00    -0.200 F 
ATOM     84  C   UNL A   1      37.091  29.357  29.943  1.00  0.00     0.200 A 
ATOM     85  F   UNL A   1      36.635  30.116  27.755  1.00  0.00    -0.200 F 
ATOM     86  F   UNL A   1      35.824  29.600  30.307  1.00  0.00    -0.200 F 
ENDBRANCH  62  76
BRANCH  63  87
ATOM     87  C   UNL A   1      48.960  26.682  25.917  1.00  0.00     0.064 A 
ATOM     88  C   UNL A   1      49.912  26.083  26.756  1.00  0.00     0.173 A 
ATOM     89  C   UNL A   1      49.351  26.988  24.605  1.00  0.00     0.173 A 
ATOM     90  F   UNL A   1      49.594  25.787  28.024  1.00  0.00    -0.203 F 
ATOM     91  C   UNL A   1      51.206  25.826  26.309  1.00  0.00     0.198 A 
ATOM     92  C   UNL A   1      50.637  26.703  24.151  1.00  0.00     0.198 A 
ATOM     93  F   UNL A   1      48.477  27.554  23.760  1.00  0.00    -0.203 F 
ATOM     94  F   UNL A   1      52.109  25.298  27.148  1.00  0.00    -0.200 F 
ATOM     95  C   UNL A   1      51.566  26.130  25.005  1.00  0.00     0.200 A 
ATOM     96  F   UNL A   1      50.974  26.983  22.885  1.00  0.00    -0.200 F 
ATOM     97  F   UNL A   1      52.810  25.880  24.575  1.00  0.00    -0.200 F 
ENDBRANCH  63  87
BRANCH  75  98
ATOM     98  C   UNL A   1      46.003  32.361  28.672  1.00  0.00     0.064 A 
ATOM     99  C   UNL A   1      46.610  32.637  29.906  1.00  0.00     0.173 A 
ATOM    100  C   UNL A   1      45.949  33.392  27.721  1.00  0.00     0.173 A 
ATOM    101  F   UNL A   1      46.674  31.689  30.854  1.00  0.00    -0.203 F 
ATOM    102  C   UNL A   1      47.118  33.902  30.186  1.00  0.00     0.198 A 
ATOM    103  C   UNL A   1      46.487  34.645  27.991  1.00  0.00     0.198 A 
ATOM    104  F   UNL A   1      45.387  33.176  26.522  1.00  0.00    -0.203 F 
ATOM    105  F   UNL A   1      47.647  34.159  31.389  1.00  0.00    -0.200 F 
ATOM    106  C   UNL A   1      47.064  34.902  29.226  1.00  0.00     0.200 A 
ATOM    107  F   UNL A   1      46.451  35.604  27.056  1.00  0.00    -0.200 F 
ATOM    108  F   UNL A   1      47.562  36.118  29.493  1.00  0.00    -0.200 F 
ENDBRANCH  75  98
ENDBRANCH  49  50
ENDBRANCH  41  44
ENDBRANCH  39  40
ENDBRANCH  38  39
ENDBRANCH  37  38
ENDBRANCH  36  37
ENDBRANCH   3  36
TORSDOF 22
ENDMDL
MODEL 2
REMARK VINA RESULT:     -11.7      1.239      7.675
REMARK SMILES CC(C)C[C@H](NC(=O)[C@H](Cc1ccccc1)NC(=O)CNC(=O)C[NH3+])C(=O)NCCCCNC(=O)c1ccc(-c2c3nc(c(-c4c(F)c(F)c(F)c(F)c4F)c4ccc([nH]4)c(-c4c(F)c(F)c(F)c(F)c4F)c4nc(c(-c5c(F)c(F)c(F)c(F)c5F)c5ccc2[nH]5)C=C4)C=C3)cc1
REMARK SMILES IDX 26 1 27 2 28 3 5 5 4 6 2 7 1 8 3 9 6 10 7 11 8 13 9 14 17 15
REMARK SMILES IDX 18 16 19 18 20 19 21 20 22 21 23 23 24 24 25 25 10 29 11 30
REMARK SMILES IDX 12 31 16 32 13 33 15 34 14 35 29 36 30 37 31 38 32 39 33 40
REMARK SMILES IDX 34 41 35 43 36 44 37 45 98 46 38 47 97 48 39 49 40 50 41 51
REMARK SMILES IDX 91 52 42 53 96 54 90 55 92 56 43 57 95 58 89 59 88 60 44 62
REMARK SMILES IDX 76 63 56 64 75 65 57 66 60 67 74 68 93 69 58 70 59 71 73 73
REMARK SMILES IDX 94 74 61 75 45 76 46 77 54 78 47 79 48 80 52 81 55 82 49 83
REMARK SMILES IDX 50 84 53 85 51 86 77 87 78 88 86 89 79 90 80 91 84 92 87 93
REMARK SMILES IDX 81 94 82 95 85 96 83 97 62 98 63 99 71 100 64 101 65 102
REMARK SMILES IDX 69 103 72 104 66 105 67 106 70 107 68 108
REMARK H PARENT 28 4 6 12 17 17 21 22 25 26 25 27 25 28 33 42 92 61 60 72
REMARK Flexibility Score: inf
ROOT
ATOM      1  C   UNL A   1      37.123  23.735  25.790  1.00  0.00     0.242 C 
ATOM      2  O   UNL A   1      37.746  24.507  26.520  1.00  0.00    -0.273 OA
ATOM      3  N   UNL A   1      37.830  22.817  25.064  1.00  0.00    -0.354 N 
ATOM      4  H   UNL A   1      38.808  22.918  25.075  1.00  0.00     0.163 HD
ENDROOT
BRANCH   1   5
ATOM      5  C   UNL A   1      35.595  23.854  25.641  1.00  0.00     0.171 C 
BRANCH   5   6
ATOM      6  C   UNL A   1      34.837  22.792  26.487  1.00  0.00     0.038 C 
BRANCH   6   7
ATOM      7  C   UNL A   1      33.475  22.190  26.053  1.00  0.00    -0.015 C 
ATOM      8  C   UNL A   1      33.286  20.673  26.182  1.00  0.00     0.007 C 
ATOM      9  C   UNL A   1      32.385  22.828  26.937  1.00  0.00     0.007 C 
ENDBRANCH   6   7
ENDBRANCH   5   6
BRANCH   5  10
ATOM     10  N   UNL A   1      35.277  23.970  24.222  1.00  0.00    -0.343 N 
ATOM     11  C   UNL A   1      34.325  24.697  23.561  1.00  0.00     0.243 C 
ATOM     12  H   UNL A   1      35.852  23.428  23.634  1.00  0.00     0.164 HD
ATOM     13  O   UNL A   1      34.280  24.498  22.341  1.00  0.00    -0.273 OA
BRANCH  11  14
ATOM     14  C   UNL A   1      33.395  25.737  24.253  1.00  0.00     0.175 C 
BRANCH  14  15
ATOM     15  N   UNL A   1      32.010  25.217  24.233  1.00  0.00    -0.342 N 
ATOM     16  C   UNL A   1      30.809  25.762  23.916  1.00  0.00     0.240 C 
ATOM     17  H   UNL A   1      31.946  24.274  24.507  1.00  0.00     0.164 HD
ATOM     18  O   UNL A   1      29.854  24.980  23.812  1.00  0.00    -0.273 OA
BRANCH  16  19
ATOM     19  C   UNL A   1      30.595  27.238  23.557  1.00  0.00     0.216 C 
BRANCH  19  20
ATOM     20  N   UNL A   1      29.244  27.684  23.264  1.00  0.00    -0.342 N 
ATOM     21  C   UNL A   1      28.839  28.928  22.868  1.00  0.00     0.275 C 
ATOM     22  H   UNL A   1      28.535  27.008  23.361  1.00  0.00     0.164 HD
ATOM     23  O   UNL A   1      27.667  29.104  22.534  1.00  0.00    -0.268 OA
BRANCH  21  24
ATOM     24  C   UNL A   1      29.863  30.061  22.801  1.00  0.00     0.360 C 
BRANCH  24  25
ATOM     25  N   UNL A   1      30.350  30.238  21.430  1.00  0.00    -0.350 N 
ATOM     26  H   UNL A   1      29.560  30.247  20.786  1.00  0.00     0.344 HD
ATOM     27  H   UNL A   1      30.976  29.469  21.189  1.00  0.00     0.344 HD
ATOM     28  H   UNL A   1      30.855  31.122  21.361  1.00  0.00     0.344 HD
ENDBRANCH  24  25
ENDBRANCH  21  24
ENDBRANCH  19  20
ENDBRANCH  16  19
ENDBRANCH  14  15
BRANCH  14  29
ATOM     29  C   UNL A   1      33.747  26.133  25.699  1.00  0.00     0.070 C 
BRANCH  29  30
ATOM     30  C   UNL A   1      33.268  27.473  26.228  1.00  0.00    -0.045 A 
ATOM     31  C   UNL A   1      33.854  28.691  25.854  1.00  0.00     0.004 A 
ATOM     32  C   UNL A   1      32.125  27.525  27.040  1.00  0.00     0.004 A 
ATOM     33  C   UNL A   1      33.339  29.915  26.285  1.00  0.00     0.000 A 
ATOM     34  C   UNL A   1      31.600  28.750  27.465  1.00  0.00     0.000 A 
ATOM     35  C   UNL A   1      32.208  29.943  27.088  1.00  0.00     0.000 A 
ENDBRANCH  29  30
ENDBRANCH  14  29
ENDBRANCH  11  14
ENDBRANCH   5  10
ENDBRANCH   1   5
BRANCH   3  36
ATOM     36  C   UNL A   1      37.315  21.716  24.281  1.00  0.00     0.116 C 
BRANCH  36  37
ATOM     37  C   UNL A   1      37.229  20.392  25.025  1.00  0.00     0.023 C 
BRANCH  37  38
ATOM     38  C   UNL A   1      38.473  19.527  24.893  1.00  0.00     0.023 C 
BRANCH  38  39
ATOM     39  C   UNL A   1      39.575  19.860  25.872  1.00  0.00     0.116 C 
BRANCH  39  40
ATOM     40  N   UNL A   1      40.582  18.821  25.956  1.00  0.00    -0.352 N 
ATOM     41  C   UNL A   1      41.938  18.995  26.117  1.00  0.00     0.251 C 
ATOM     42  H   UNL A   1      40.262  17.892  25.893  1.00  0.00     0.163 HD
ATOM     43  O   UNL A   1      42.715  18.067  26.006  1.00  0.00    -0.269 OA
BRANCH  41  44
ATOM     44  C   UNL A   1      42.417  20.366  26.390  1.00  0.00     0.039 A 
ATOM     45  C   UNL A   1      42.692  21.211  25.317  1.00  0.00     0.014 A 
ATOM     46  C   UNL A   1      42.479  20.829  27.709  1.00  0.00     0.014 A 
ATOM     47  C   UNL A   1      42.999  22.547  25.570  1.00  0.00     0.010 A 
ATOM     48  C   UNL A   1      42.681  22.179  27.949  1.00  0.00     0.010 A 
ATOM     49  C   UNL A   1      42.970  23.045  26.883  1.00  0.00    -0.014 A 
BRANCH  49  50
ATOM     50  C   UNL A   1      43.294  24.462  27.172  1.00  0.00     0.031 A 
ATOM     51  C   UNL A   1      44.681  24.973  26.898  1.00  0.00     0.074 A 
ATOM     52  C   UNL A   1      42.365  25.267  27.721  1.00  0.00     0.049 A 
ATOM     53  N   UNL A   1      45.185  26.160  27.116  1.00  0.00    -0.248 NA
ATOM     54  C   UNL A   1      45.642  24.010  26.333  1.00  0.00     0.031 C 
ATOM     55  C   UNL A   1      41.002  24.868  28.080  1.00  0.00     0.029 A 
ATOM     56  N   UNL A   1      42.427  26.591  28.076  1.00  0.00    -0.354 N 
ATOM     57  C   UNL A   1      46.518  26.078  26.734  1.00  0.00     0.074 A 
ATOM     58  C   UNL A   1      46.764  24.710  26.335  1.00  0.00     0.031 C 
ATOM     59  C   UNL A   1      40.347  25.933  28.571  1.00  0.00     0.029 A 
ATOM     60  C   UNL A   1      41.254  27.077  28.596  1.00  0.00     0.049 A 
ATOM     61  H   UNL A   1      43.237  27.140  27.967  1.00  0.00     0.167 HD
ATOM     62  C   UNL A   1      47.445  27.062  26.688  1.00  0.00     0.037 A 
ATOM     63  C   UNL A   1      40.947  28.311  29.043  1.00  0.00     0.037 A 
ATOM     64  C   UNL A   1      47.182  28.427  27.052  1.00  0.00     0.049 A 
ATOM     65  C   UNL A   1      41.998  29.388  28.984  1.00  0.00     0.074 A 
ATOM     66  C   UNL A   1      48.028  29.518  26.977  1.00  0.00     0.029 A 
ATOM     67  N   UNL A   1      45.977  28.886  27.566  1.00  0.00    -0.354 N 
ATOM     68  N   UNL A   1      43.231  29.319  28.544  1.00  0.00    -0.248 NA
ATOM     69  C   UNL A   1      41.611  30.716  29.477  1.00  0.00     0.031 C 
ATOM     70  C   UNL A   1      47.353  30.628  27.496  1.00  0.00     0.029 A 
ATOM     71  C   UNL A   1      46.067  30.241  27.838  1.00  0.00     0.049 A 
ATOM     72  H   UNL A   1      45.178  28.331  27.714  1.00  0.00     0.167 HD
ATOM     73  C   UNL A   1      43.756  30.598  28.677  1.00  0.00     0.074 A 
ATOM     74  C   UNL A   1      42.702  31.425  29.225  1.00  0.00     0.031 C 
ATOM     75  C   UNL A   1      44.999  31.048  28.374  1.00  0.00     0.037 A 
BRANCH  62  76
ATOM     76  C   UNL A   1      48.826  26.695  26.226  1.00  0.00     0.064 A 
ATOM     77  C   UNL A   1      49.249  26.922  24.906  1.00  0.00     0.173 A 
ATOM     78  C   UNL A   1      49.748  26.133  27.121  1.00  0.00     0.173 A 
ATOM     79  F   UNL A   1      48.402  27.441  24.005  1.00  0.00    -0.203 F 
ATOM     80  C   UNL A   1      50.530  26.567  24.493  1.00  0.00     0.198 A 
ATOM     81  C   UNL A   1      51.041  25.812  26.712  1.00  0.00     0.198 A 
ATOM     82  F   UNL A   1      49.398  25.897  28.394  1.00  0.00    -0.203 F 
ATOM     83  F   UNL A   1      50.890  26.739  23.213  1.00  0.00    -0.200 F 
ATOM     84  C   UNL A   1      51.428  26.021  25.398  1.00  0.00     0.200 A 
ATOM     85  F   UNL A   1      51.910  25.296  27.592  1.00  0.00    -0.200 F 
ATOM     86  F   UNL A   1      52.663  25.688  25.000  1.00  0.00    -0.200 F 
ENDBRANCH  62  76
BRANCH  63  87
ATOM     87  C   UNL A   1      39.582  28.603  29.553  1.00  0.00     0.064 A 
ATOM     88  C   UNL A   1      38.584  29.090  28.697  1.00  0.00     0.173 A 
ATOM     89  C   UNL A   1      39.246  28.409  30.901  1.00  0.00     0.173 A 
ATOM     90  F   UNL A   1      38.860  29.309  27.403  1.00  0.00    -0.203 F 
ATOM     91  C   UNL A   1      37.311  29.395  29.174  1.00  0.00     0.198 A 
ATOM     92  C   UNL A   1      37.963  28.687  31.370  1.00  0.00     0.198 A 
ATOM     93  F   UNL A   1      40.161  27.938  31.760  1.00  0.00    -0.203 F 
ATOM     94  F   UNL A   1      36.392  29.906  28.342  1.00  0.00    -0.200 F 
ATOM     95  C   UNL A   1      37.000  29.188  30.509  1.00  0.00     0.200 A 
ATOM     96  F   UNL A   1      37.663  28.469  32.657  1.00  0.00    -0.200 F 
ATOM     97  F   UNL A   1      35.775  29.479  30.966  1.00  0.00    -0.200 F 
ENDBRANCH  63  87
BRANCH  75  98
ATOM     98  C   UNL A   1      45.275  32.507  28.589  1.00  0.00     0.064 A 
ATOM     99  C   UNL A   1      45.014  33.463  27.596  1.00  0.00     0.173 A 
ATOM    100  C   UNL A   1      45.764  32.960  29.825  1.00  0.00     0.173 A 
ATOM    101  F   UNL A   1      44.559  33.079  26.393  1.00  0.00    -0.203 F 
ATOM    102  C   UNL A   1      45.259  34.815  27.822  1.00  0.00     0.198 A 
ATOM    103  C   UNL A   1      45.976  34.315  30.059  1.00  0.00     0.198 A 
ATOM    104  F   UNL A   1      46.022  32.088  30.810  1.00  0.00    -0.203 F 
ATOM    105  F   UNL A   1      45.052  35.704  26.842  1.00  0.00    -0.200 F 
ATOM    106  C   UNL A   1      45.732  35.240  29.055  1.00  0.00     0.200 A 
ATOM    107  F   UNL A   1      46.415  34.726  31.256  1.00  0.00    -0.200 F 
ATOM    108  F   UNL A   1      45.958  36.543  29.275  1.00  0.00    -0.200 F 
ENDBRANCH  75  98
ENDBRANCH  49  50
ENDBRANCH  41  44
ENDBRANCH  39  40
ENDBRANCH  38  39
ENDBRANCH  37  38
ENDBRANCH  36  37
ENDBRANCH   3  36
TORSDOF 22
ENDMDL
MODEL 3
REMARK VINA RESULT:     -11.7      0.810      3.256
REMARK SMILES CC(C)C[C@H](NC(=O)[C@H](Cc1ccccc1)NC(=O)CNC(=O)C[NH3+])C(=O)NCCCCNC(=O)c1ccc(-c2c3nc(c(-c4c(F)c(F)c(F)c(F)c4F)c4ccc([nH]4)c(-c4c(F)c(F)c(F)c(F)c4F)c4nc(c(-c5c(F)c(F)c(F)c(F)c5F)c5ccc2[nH]5)C=C4)C=C3)cc1
REMARK SMILES IDX 26 1 27 2 28 3 5 5 4 6 2 7 1 8 3 9 6 10 7 11 8 13 9 14 17 15
REMARK SMILES IDX 18 16 19 18 20 19 21 20 22 21 23 23 24 24 25 25 10 29 11 30
REMARK SMILES IDX 12 31 16 32 13 33 15 34 14 35 29 36 30 37 31 38 32 39 33 40
REMARK SMILES IDX 34 41 35 43 36 44 37 45 98 46 38 47 97 48 39 49 40 50 41 51
REMARK SMILES IDX 91 52 42 53 96 54 90 55 92 56 43 57 95 58 89 59 88 60 44 62
REMARK SMILES IDX 76 63 56 64 75 65 57 66 60 67 74 68 93 69 58 70 59 71 73 73
REMARK SMILES IDX 94 74 61 75 45 76 46 77 54 78 47 79 48 80 52 81 55 82 49 83
REMARK SMILES IDX 50 84 53 85 51 86 77 87 78 88 86 89 79 90 80 91 84 92 87 93
REMARK SMILES IDX 81 94 82 95 85 96 83 97 62 98 63 99 71 100 64 101 65 102
REMARK SMILES IDX 69 103 72 104 66 105 67 106 70 107 68 108
REMARK H PARENT 28 4 6 12 17 17 21 22 25 26 25 27 25 28 33 42 92 61 60 72
REMARK Flexibility Score: inf
ROOT
ATOM      1  C   UNL A   1      34.076  21.604  26.553  1.00  0.00     0.242 C 
ATOM      2  O   UNL A   1      33.684  21.822  27.699  1.00  0.00    -0.273 OA
ATOM      3  N   UNL A   1      35.352  21.144  26.380  1.00  0.00    -0.354 N 
ATOM      4  H   UNL A   1      35.922  21.139  27.182  1.00  0.00     0.163 HD
ENDROOT
BRANCH   1   5
ATOM      5  C   UNL A   1      33.178  21.914  25.341  1.00  0.00     0.171 C 
BRANCH   5   6
ATOM      6  C   UNL A   1      32.283  20.704  24.947  1.00  0.00     0.038 C 
BRANCH   6   7
ATOM      7  C   UNL A   1      32.838  19.459  24.206  1.00  0.00    -0.015 C 
ATOM      8  C   UNL A   1      32.528  18.077  24.795  1.00  0.00     0.007 C 
ATOM      9  C   UNL A   1      32.234  19.458  22.787  1.00  0.00     0.007 C 
ENDBRANCH   6   7
ENDBRANCH   5   6
BRANCH   5  10
ATOM     10  N   UNL A   1      33.994  22.543  24.309  1.00  0.00    -0.343 N 
ATOM     11  C   UNL A   1      33.975  23.803  23.778  1.00  0.00     0.243 C 
ATOM     12  H   UNL A   1      34.684  21.953  23.926  1.00  0.00     0.164 HD
ATOM     13  O   UNL A   1      34.769  23.981  22.846  1.00  0.00    -0.273 OA
BRANCH  11  14
ATOM     14  C   UNL A   1      33.078  24.956  24.318  1.00  0.00     0.175 C 
BRANCH  14  15
ATOM     15  N   UNL A   1      31.663  24.618  24.047  1.00  0.00    -0.342 N 
ATOM     16  C   UNL A   1      30.613  25.316  23.547  1.00  0.00     0.240 C 
ATOM     17  H   UNL A   1      31.436  23.688  24.277  1.00  0.00     0.164 HD
ATOM     18  O   UNL A   1      29.600  24.663  23.258  1.00  0.00    -0.273 OA
BRANCH  16  19
ATOM     19  C   UNL A   1      30.649  26.809  23.202  1.00  0.00     0.216 C 
BRANCH  19  20
ATOM     20  N   UNL A   1      29.405  27.558  23.261  1.00  0.00    -0.342 N 
ATOM     21  C   UNL A   1      29.150  28.801  22.752  1.00  0.00     0.275 C 
ATOM     22  H   UNL A   1      28.656  27.116  23.722  1.00  0.00     0.164 HD
ATOM     23  O   UNL A   1      27.999  29.238  22.775  1.00  0.00    -0.268 OA
BRANCH  21  24
ATOM     24  C   UNL A   1      30.291  29.598  22.121  1.00  0.00     0.360 C 
BRANCH  24  25
ATOM     25  N   UNL A   1      29.776  30.796  21.451  1.00  0.00    -0.350 N 
ATOM     26  H   UNL A   1      29.633  31.536  22.139  1.00  0.00     0.344 HD
ATOM     27  H   UNL A   1      28.889  30.579  20.998  1.00  0.00     0.344 HD
ATOM     28  H   UNL A   1      30.449  31.109  20.750  1.00  0.00     0.344 HD
ENDBRANCH  24  25
ENDBRANCH  21  24
ENDBRANCH  19  20
ENDBRANCH  16  19
ENDBRANCH  14  15
BRANCH  14  29
ATOM     29  C   UNL A   1      33.218  25.308  25.811  1.00  0.00     0.070 C 
BRANCH  29  30
ATOM     30  C   UNL A   1      32.950  26.735  26.255  1.00  0.00    -0.045 A 
ATOM     31  C   UNL A   1      31.765  27.119  26.899  1.00  0.00     0.004 A 
ATOM     32  C   UNL A   1      33.958  27.700  26.121  1.00  0.00     0.004 A 
ATOM     33  C   UNL A   1      31.579  28.417  27.376  1.00  0.00     0.000 A 
ATOM     34  C   UNL A   1      33.779  28.999  26.607  1.00  0.00     0.000 A 
ATOM     35  C   UNL A   1      32.589  29.357  27.233  1.00  0.00     0.000 A 
ENDBRANCH  29  30
ENDBRANCH  14  29
ENDBRANCH  11  14
ENDBRANCH   5  10
ENDBRANCH   1   5
BRANCH   3  36
ATOM     36  C   UNL A   1      35.968  20.664  25.163  1.00  0.00     0.116 C 
BRANCH  36  37
ATOM     37  C   UNL A   1      37.425  21.063  24.986  1.00  0.00     0.023 C 
BRANCH  37  38
ATOM     38  C   UNL A   1      38.400  19.900  25.088  1.00  0.00     0.023 C 
BRANCH  38  39
ATOM     39  C   UNL A   1      39.593  20.158  25.981  1.00  0.00     0.116 C 
BRANCH  39  40
ATOM     40  N   UNL A   1      40.512  19.039  26.025  1.00  0.00    -0.352 N 
ATOM     41  C   UNL A   1      41.884  19.098  26.123  1.00  0.00     0.251 C 
ATOM     42  H   UNL A   1      40.113  18.140  25.980  1.00  0.00     0.163 HD
ATOM     43  O   UNL A   1      42.574  18.109  25.982  1.00  0.00    -0.269 OA
BRANCH  41  44
ATOM     44  C   UNL A   1      42.487  20.425  26.369  1.00  0.00     0.039 A 
ATOM     45  C   UNL A   1      42.916  21.183  25.281  1.00  0.00     0.014 A 
ATOM     46  C   UNL A   1      42.515  20.945  27.668  1.00  0.00     0.014 A 
ATOM     47  C   UNL A   1      43.347  22.491  25.495  1.00  0.00     0.010 A 
ATOM     48  C   UNL A   1      42.845  22.278  27.861  1.00  0.00     0.010 A 
ATOM     49  C   UNL A   1      43.290  23.055  26.781  1.00  0.00    -0.014 A 
BRANCH  49  50
ATOM     50  C   UNL A   1      43.743  24.443  27.030  1.00  0.00     0.031 A 
ATOM     51  C   UNL A   1      42.761  25.459  27.542  1.00  0.00     0.074 A 
ATOM     52  C   UNL A   1      45.011  24.798  26.751  1.00  0.00     0.049 A 
ATOM     53  N   UNL A   1      42.936  26.732  27.787  1.00  0.00    -0.248 NA
ATOM     54  C   UNL A   1      41.386  24.989  27.782  1.00  0.00     0.031 C 
ATOM     55  C   UNL A   1      46.039  23.912  26.201  1.00  0.00     0.029 A 
ATOM     56  N   UNL A   1      45.654  26.003  26.892  1.00  0.00    -0.354 N 
ATOM     57  C   UNL A   1      41.696  27.212  28.188  1.00  0.00     0.074 A 
ATOM     58  C   UNL A   1      40.761  26.114  28.090  1.00  0.00     0.031 C 
ATOM     59  C   UNL A   1      47.190  24.593  26.083  1.00  0.00     0.029 A 
ATOM     60  C   UNL A   1      46.972  25.971  26.513  1.00  0.00     0.049 A 
ATOM     61  H   UNL A   1      45.209  26.813  27.231  1.00  0.00     0.167 HD
ATOM     62  C   UNL A   1      41.373  28.450  28.630  1.00  0.00     0.037 A 
ATOM     63  C   UNL A   1      47.900  26.948  26.515  1.00  0.00     0.037 A 
ATOM     64  C   UNL A   1      42.317  29.526  28.758  1.00  0.00     0.049 A 
ATOM     65  C   UNL A   1      47.513  28.317  27.009  1.00  0.00     0.074 A 
ATOM     66  C   UNL A   1      42.111  30.797  29.260  1.00  0.00     0.029 A 
ATOM     67  N   UNL A   1      43.649  29.454  28.374  1.00  0.00    -0.354 N 
ATOM     68  N   UNL A   1      46.358  28.738  27.464  1.00  0.00    -0.248 NA
ATOM     69  C   UNL A   1      48.563  29.344  26.998  1.00  0.00     0.031 C 
ATOM     70  C   UNL A   1      43.306  31.514  29.132  1.00  0.00     0.029 A 
ATOM     71  C   UNL A   1      44.271  30.670  28.604  1.00  0.00     0.049 A 
ATOM     72  H   UNL A   1      44.086  28.658  27.996  1.00  0.00     0.167 HD
ATOM     73  C   UNL A   1      46.549  30.067  27.820  1.00  0.00     0.074 A 
ATOM     74  C   UNL A   1      47.936  30.377  27.543  1.00  0.00     0.031 C 
ATOM     75  C   UNL A   1      45.657  30.952  28.331  1.00  0.00     0.037 A 
BRANCH  62  76
ATOM     76  C   UNL A   1      39.942  28.700  29.007  1.00  0.00     0.064 A 
ATOM     77  C   UNL A   1      39.006  29.185  28.079  1.00  0.00     0.173 A 
ATOM     78  C   UNL A   1      39.492  28.429  30.308  1.00  0.00     0.173 A 
ATOM     79  F   UNL A   1      39.386  29.478  26.826  1.00  0.00    -0.203 F 
ATOM     80  C   UNL A   1      37.684  29.420  28.448  1.00  0.00     0.198 A 
ATOM     81  C   UNL A   1      38.161  28.631  30.664  1.00  0.00     0.198 A 
ATOM     82  F   UNL A   1      40.342  27.963  31.235  1.00  0.00    -0.203 F 
ATOM     83  F   UNL A   1      36.824  29.938  27.561  1.00  0.00    -0.200 F 
ATOM     84  C   UNL A   1      37.261  29.135  29.737  1.00  0.00     0.200 A 
ATOM     85  F   UNL A   1      37.751  28.344  31.907  1.00  0.00    -0.200 F 
ATOM     86  F   UNL A   1      35.986  29.354  30.089  1.00  0.00    -0.200 F 
ENDBRANCH  62  76
BRANCH  63  87
ATOM     87  C   UNL A   1      49.288  26.661  26.068  1.00  0.00     0.064 A 
ATOM     88  C   UNL A   1      49.685  26.915  24.747  1.00  0.00     0.173 A 
ATOM     89  C   UNL A   1      50.244  26.124  26.943  1.00  0.00     0.173 A 
ATOM     90  F   UNL A   1      48.804  27.413  23.867  1.00  0.00    -0.203 F 
ATOM     91  C   UNL A   1      50.976  26.620  24.313  1.00  0.00     0.198 A 
ATOM     92  C   UNL A   1      51.542  25.856  26.514  1.00  0.00     0.198 A 
ATOM     93  F   UNL A   1      49.918  25.869  28.218  1.00  0.00    -0.203 F 
ATOM     94  F   UNL A   1      51.312  26.828  23.032  1.00  0.00    -0.200 F 
ATOM     95  C   UNL A   1      51.905  26.096  25.199  1.00  0.00     0.200 A 
ATOM     96  F   UNL A   1      52.441  25.366  27.378  1.00  0.00    -0.200 F 
ATOM     97  F   UNL A   1      53.147  25.816  24.781  1.00  0.00    -0.200 F 
ENDBRANCH  63  87
BRANCH  75  98
ATOM     98  C   UNL A   1      46.163  32.326  28.661  1.00  0.00     0.064 A 
ATOM     99  C   UNL A   1      46.718  32.628  29.914  1.00  0.00     0.173 A 
ATOM    100  C   UNL A   1      46.134  33.343  27.693  1.00  0.00     0.173 A 
ATOM    101  F   UNL A   1      46.756  31.695  30.877  1.00  0.00    -0.203 F 
ATOM    102  C   UNL A   1      47.198  33.904  30.194  1.00  0.00     0.198 A 
ATOM    103  C   UNL A   1      46.645  34.607  27.966  1.00  0.00     0.198 A 
ATOM    104  F   UNL A   1      45.622  33.103  26.477  1.00  0.00    -0.203 F 
ATOM    105  F   UNL A   1      47.676  34.185  31.414  1.00  0.00    -0.200 F 
ATOM    106  C   UNL A   1      47.169  34.890  29.218  1.00  0.00     0.200 A 
ATOM    107  F   UNL A   1      46.633  35.552  27.016  1.00  0.00    -0.200 F 
ATOM    108  F   UNL A   1      47.642  36.115  29.486  1.00  0.00    -0.200 F 
ENDBRANCH  75  98
ENDBRANCH  49  50
ENDBRANCH  41  44
ENDBRANCH  39  40
ENDBRANCH  38  39
ENDBRANCH  37  38
ENDBRANCH  36  37
ENDBRANCH   3  36
TORSDOF 22
ENDMDL
