MODEL 1
REMARK VINA RESULT:     -13.9      0.000      0.000
REMARK SMILES O=C(NCCCCNC(=O)[C@H]1CCCN(C(=O)C2CCN(S(=O)(=O)c3ccccc3)CC2)C1)c1ccc(-c2c3nc(c(-c4c(F)c(F)c(F)c(F)c4F)c4ccc([nH]4)c(-c4c(F)c(F)c(F)c(F)c4F)c4nc(c(-c5c(F)c(F)c(F)c(F)c5F)c5ccc2[nH]5)C=C4)C=C3)cc1
REMARK SMILES IDX 6 1 5 2 4 3 3 4 1 5 2 6 34 8 35 9 96 10 36 11 95 12 37 13
REMARK SMILES IDX 38 14 39 15 89 16 40 17 94 18 88 19 90 20 41 21 93 22 87 23
REMARK SMILES IDX 86 24 42 26 74 27 54 28 73 29 55 30 58 31 72 32 91 33 56 34
REMARK SMILES IDX 57 35 71 37 92 38 59 39 43 40 44 41 52 42 45 43 46 44 50 45
REMARK SMILES IDX 53 46 47 47 48 48 51 49 49 50 75 51 76 52 84 53 77 54 78 55
REMARK SMILES IDX 82 56 85 57 79 58 80 59 83 60 81 61 60 62 61 63 69 64 62 65
REMARK SMILES IDX 63 66 67 67 70 68 64 69 65 70 68 71 66 72 7 73 8 74 9 75
REMARK SMILES IDX 10 77 11 78 12 79 33 80 13 81 15 82 14 83 16 84 17 85 18 86
REMARK SMILES IDX 19 87 32 88 20 89 31 90 21 91 22 92 23 93 24 94 25 95 26 96
REMARK SMILES IDX 30 97 27 98 29 99 28 100
REMARK H PARENT 3 7 90 25 58 36 8 76
REMARK Flexibility Score: inf
ROOT
ATOM      1  C   UNL A   1      37.518  20.906  24.647  1.00  0.00     0.023 C 
ENDROOT
BRANCH   1   2
ATOM      2  C   UNL A   1      38.344  19.674  25.000  1.00  0.00     0.023 C 
BRANCH   2   3
ATOM      3  C   UNL A   1      39.482  19.929  25.977  1.00  0.00     0.116 C 
BRANCH   3   4
ATOM      4  N   UNL A   1      40.524  18.915  25.917  1.00  0.00    -0.352 N 
ATOM      5  O   UNL A   1      42.650  18.145  25.835  1.00  0.00    -0.269 OA
ATOM      6  C   UNL A   1      41.883  19.083  26.019  1.00  0.00     0.251 C 
ATOM      7  H   UNL A   1      40.214  17.989  25.786  1.00  0.00     0.163 HD
BRANCH   6   8
ATOM      8  C   UNL A   1      42.406  20.427  26.319  1.00  0.00     0.039 A 
ATOM      9  C   UNL A   1      42.451  20.885  27.639  1.00  0.00     0.014 A 
ATOM     10  C   UNL A   1      42.803  21.248  25.263  1.00  0.00     0.014 A 
ATOM     11  C   UNL A   1      42.772  22.211  27.893  1.00  0.00     0.010 A 
ATOM     12  C   UNL A   1      43.198  22.559  25.528  1.00  0.00     0.010 A 
ATOM     13  C   UNL A   1      43.158  23.055  26.841  1.00  0.00    -0.014 A 
BRANCH  13  14
ATOM     14  C   UNL A   1      43.586  24.441  27.134  1.00  0.00     0.031 A 
ATOM     15  C   UNL A   1      42.615  25.456  27.657  1.00  0.00     0.074 A 
ATOM     16  C   UNL A   1      44.868  24.777  26.898  1.00  0.00     0.049 A 
ATOM     17  N   UNL A   1      42.804  26.728  27.903  1.00  0.00    -0.248 NA
ATOM     18  C   UNL A   1      41.248  24.988  27.930  1.00  0.00     0.031 C 
ATOM     19  C   UNL A   1      45.889  23.868  26.376  1.00  0.00     0.029 A 
ATOM     20  N   UNL A   1      45.526  25.967  27.056  1.00  0.00    -0.354 N 
ATOM     21  C   UNL A   1      41.579  27.217  28.334  1.00  0.00     0.074 A 
ATOM     22  C   UNL A   1      40.646  26.110  28.300  1.00  0.00     0.031 C 
ATOM     23  C   UNL A   1      47.050  24.530  26.266  1.00  0.00     0.029 A 
ATOM     24  C   UNL A   1      46.836  25.920  26.651  1.00  0.00     0.049 A 
ATOM     25  H   UNL A   1      45.101  26.777  27.422  1.00  0.00     0.167 HD
ATOM     26  C   UNL A   1      41.268  28.478  28.721  1.00  0.00     0.037 A 
ATOM     27  C   UNL A   1      47.757  26.897  26.564  1.00  0.00     0.037 A 
ATOM     28  C   UNL A   1      42.213  29.564  28.766  1.00  0.00     0.049 A 
ATOM     29  C   UNL A   1      47.385  28.286  26.987  1.00  0.00     0.074 A 
ATOM     30  C   UNL A   1      42.016  30.863  29.204  1.00  0.00     0.029 A 
ATOM     31  N   UNL A   1      43.534  29.479  28.349  1.00  0.00    -0.354 N 
ATOM     32  N   UNL A   1      46.236  28.730  27.434  1.00  0.00    -0.248 NA
ATOM     33  C   UNL A   1      48.433  29.309  26.892  1.00  0.00     0.031 C 
ATOM     34  C   UNL A   1      43.204  31.575  29.007  1.00  0.00     0.029 A 
ATOM     35  C   UNL A   1      44.156  30.710  28.491  1.00  0.00     0.049 A 
ATOM     36  H   UNL A   1      43.966  28.665  28.003  1.00  0.00     0.167 HD
ATOM     37  C   UNL A   1      46.421  30.081  27.684  1.00  0.00     0.074 A 
ATOM     38  C   UNL A   1      47.800  30.380  27.352  1.00  0.00     0.031 C 
ATOM     39  C   UNL A   1      45.528  30.989  28.148  1.00  0.00     0.037 A 
BRANCH  26  40
ATOM     40  C   UNL A   1      39.844  28.758  29.102  1.00  0.00     0.064 A 
ATOM     41  C   UNL A   1      39.386  28.614  30.420  1.00  0.00     0.173 A 
ATOM     42  C   UNL A   1      38.929  29.205  28.136  1.00  0.00     0.173 A 
ATOM     43  F   UNL A   1      40.216  28.178  31.379  1.00  0.00    -0.203 F 
ATOM     44  C   UNL A   1      38.059  28.879  30.751  1.00  0.00     0.198 A 
ATOM     45  C   UNL A   1      37.610  29.495  28.476  1.00  0.00     0.198 A 
ATOM     46  F   UNL A   1      39.315  29.367  26.862  1.00  0.00    -0.203 F 
ATOM     47  F   UNL A   1      37.633  28.689  32.008  1.00  0.00    -0.200 F 
ATOM     48  C   UNL A   1      37.174  29.324  29.780  1.00  0.00     0.200 A 
ATOM     49  F   UNL A   1      36.759  29.936  27.539  1.00  0.00    -0.200 F 
ATOM     50  F   UNL A   1      35.897  29.581  30.102  1.00  0.00    -0.200 F 
ENDBRANCH  26  40
BRANCH  27  51
ATOM     51  C   UNL A   1      49.103  26.569  26.038  1.00  0.00     0.064 A 
ATOM     52  C   UNL A   1      49.454  26.860  24.715  1.00  0.00     0.173 A 
ATOM     53  C   UNL A   1      50.091  26.026  26.875  1.00  0.00     0.173 A 
ATOM     54  F   UNL A   1      48.538  27.368  23.877  1.00  0.00    -0.203 F 
ATOM     55  C   UNL A   1      50.743  26.623  24.247  1.00  0.00     0.198 A 
ATOM     56  C   UNL A   1      51.387  25.812  26.413  1.00  0.00     0.198 A 
ATOM     57  F   UNL A   1      49.805  25.741  28.155  1.00  0.00    -0.203 F 
ATOM     58  F   UNL A   1      51.051  26.894  22.971  1.00  0.00    -0.200 F 
ATOM     59  C   UNL A   1      51.712  26.109  25.098  1.00  0.00     0.200 A 
ATOM     60  F   UNL A   1      52.323  25.336  27.245  1.00  0.00    -0.200 F 
ATOM     61  F   UNL A   1      52.958  25.903  24.652  1.00  0.00    -0.200 F 
ENDBRANCH  27  51
BRANCH  39  62
ATOM     62  C   UNL A   1      46.020  32.392  28.337  1.00  0.00     0.064 A 
ATOM     63  C   UNL A   1      46.624  32.799  29.535  1.00  0.00     0.173 A 
ATOM     64  C   UNL A   1      45.932  33.323  27.292  1.00  0.00     0.173 A 
ATOM     65  F   UNL A   1      46.714  31.948  30.569  1.00  0.00    -0.203 F 
ATOM     66  C   UNL A   1      47.111  34.094  29.684  1.00  0.00     0.198 A 
ATOM     67  C   UNL A   1      46.441  34.610  27.436  1.00  0.00     0.198 A 
ATOM     68  F   UNL A   1      45.364  32.978  26.126  1.00  0.00    -0.203 F 
ATOM     69  F   UNL A   1      47.654  34.474  30.849  1.00  0.00    -0.200 F 
ATOM     70  C   UNL A   1      47.027  34.995  28.633  1.00  0.00     0.200 A 
ATOM     71  F   UNL A   1      46.368  35.476  26.416  1.00  0.00    -0.200 F 
ATOM     72  F   UNL A   1      47.507  36.239  28.774  1.00  0.00    -0.200 F 
ENDBRANCH  39  62
ENDBRANCH  13  14
ENDBRANCH   6   8
ENDBRANCH   3   4
ENDBRANCH   2   3
ENDBRANCH   1   2
BRANCH   1  73
ATOM     73  C   UNL A   1      36.265  21.094  25.497  1.00  0.00     0.116 C 
BRANCH  73  74
ATOM     74  N   UNL A   1      35.195  20.187  25.124  1.00  0.00    -0.356 N 
ATOM     75  C   UNL A   1      33.967  20.446  24.587  1.00  0.00     0.224 C 
ATOM     76  H   UNL A   1      35.384  19.234  25.282  1.00  0.00     0.163 HD
ATOM     77  O   UNL A   1      33.240  19.488  24.317  1.00  0.00    -0.275 OA
BRANCH  75  78
ATOM     78  C   UNL A   1      33.500  21.873  24.338  1.00  0.00     0.098 C 
ATOM     79  C   UNL A   1      32.811  21.983  22.971  1.00  0.00     0.017 C 
ATOM     80  C   UNL A   1      32.737  22.406  25.564  1.00  0.00     0.133 C 
ATOM     81  C   UNL A   1      31.901  23.190  22.857  1.00  0.00     0.022 C 
ATOM     82  N   UNL A   1      31.827  23.520  25.276  1.00  0.00    -0.342 N 
ATOM     83  C   UNL A   1      31.022  23.335  24.086  1.00  0.00     0.119 C 
BRANCH  82  84
ATOM     84  C   UNL A   1      31.545  24.402  26.308  1.00  0.00     0.225 C 
ATOM     85  O   UNL A   1      30.835  24.025  27.251  1.00  0.00    -0.275 OA
BRANCH  84  86
ATOM     86  C   UNL A   1      32.130  25.830  26.393  1.00  0.00     0.081 C 
ATOM     87  C   UNL A   1      31.173  27.000  26.539  1.00  0.00     0.030 C 
ATOM     88  C   UNL A   1      33.297  26.155  25.481  1.00  0.00     0.030 C 
ATOM     89  C   UNL A   1      30.847  27.788  25.281  1.00  0.00     0.103 C 
ATOM     90  C   UNL A   1      32.921  26.810  24.170  1.00  0.00     0.103 C 
ATOM     91  N   UNL A   1      31.952  27.929  24.276  1.00  0.00    -0.198 NA
BRANCH  91  92
ATOM     92  S   UNL A   1      31.257  28.405  22.744  1.00  0.00     0.243 S 
ATOM     93  O   UNL A   1      32.188  29.328  22.123  1.00  0.00    -0.207 OA
ATOM     94  O   UNL A   1      30.871  27.189  22.058  1.00  0.00    -0.207 OA
BRANCH  92  95
ATOM     95  C   UNL A   1      29.791  29.333  23.124  1.00  0.00     0.082 A 
ATOM     96  C   UNL A   1      28.540  28.840  22.753  1.00  0.00     0.022 A 
ATOM     97  C   UNL A   1      29.916  30.627  23.649  1.00  0.00     0.022 A 
ATOM     98  C   UNL A   1      27.406  29.633  22.949  1.00  0.00     0.001 A 
ATOM     99  C   UNL A   1      28.778  31.401  23.867  1.00  0.00     0.001 A 
ATOM    100  C   UNL A   1      27.526  30.904  23.516  1.00  0.00     0.000 A 
ENDBRANCH  92  95
ENDBRANCH  91  92
ENDBRANCH  84  86
ENDBRANCH  82  84
ENDBRANCH  75  78
ENDBRANCH  73  74
ENDBRANCH   1  73
TORSDOF 15
ENDMDL
MODEL 2
REMARK VINA RESULT:     -13.3      1.610      2.302
REMARK SMILES O=C(NCCCCNC(=O)[C@H]1CCCN(C(=O)C2CCN(S(=O)(=O)c3ccccc3)CC2)C1)c1ccc(-c2c3nc(c(-c4c(F)c(F)c(F)c(F)c4F)c4ccc([nH]4)c(-c4c(F)c(F)c(F)c(F)c4F)c4nc(c(-c5c(F)c(F)c(F)c(F)c5F)c5ccc2[nH]5)C=C4)C=C3)cc1
REMARK SMILES IDX 6 1 5 2 4 3 3 4 1 5 2 6 34 8 35 9 96 10 36 11 95 12 37 13
REMARK SMILES IDX 38 14 39 15 89 16 40 17 94 18 88 19 90 20 41 21 93 22 87 23
REMARK SMILES IDX 86 24 42 26 74 27 54 28 73 29 55 30 58 31 72 32 91 33 56 34
REMARK SMILES IDX 57 35 71 37 92 38 59 39 43 40 44 41 52 42 45 43 46 44 50 45
REMARK SMILES IDX 53 46 47 47 48 48 51 49 49 50 75 51 76 52 84 53 77 54 78 55
REMARK SMILES IDX 82 56 85 57 79 58 80 59 83 60 81 61 60 62 61 63 69 64 62 65
REMARK SMILES IDX 63 66 67 67 70 68 64 69 65 70 68 71 66 72 7 73 8 74 9 75
REMARK SMILES IDX 10 77 11 78 12 79 33 80 13 81 15 82 14 83 16 84 17 85 18 86
REMARK SMILES IDX 19 87 32 88 20 89 31 90 21 91 22 92 23 93 24 94 25 95 26 96
REMARK SMILES IDX 30 97 27 98 29 99 28 100
REMARK H PARENT 3 7 90 25 58 36 8 76
REMARK Flexibility Score: inf
ROOT
ATOM      1  C   UNL A   1      37.044  20.507  24.778  1.00  0.00     0.023 C 
ENDROOT
BRANCH   1   2
ATOM      2  C   UNL A   1      38.151  19.483  24.999  1.00  0.00     0.023 C 
BRANCH   2   3
ATOM      3  C   UNL A   1      39.251  19.930  25.950  1.00  0.00     0.116 C 
BRANCH   3   4
ATOM      4  N   UNL A   1      40.405  19.043  25.945  1.00  0.00    -0.352 N 
ATOM      5  O   UNL A   1      42.607  18.525  25.962  1.00  0.00    -0.269 OA
ATOM      6  C   UNL A   1      41.730  19.368  26.103  1.00  0.00     0.251 C 
ATOM      7  H   UNL A   1      40.211  18.087  25.812  1.00  0.00     0.163 HD
BRANCH   6   8
ATOM      8  C   UNL A   1      42.081  20.765  26.411  1.00  0.00     0.039 A 
ATOM      9  C   UNL A   1      42.207  21.702  25.380  1.00  0.00     0.014 A 
ATOM     10  C   UNL A   1      42.335  21.121  27.736  1.00  0.00     0.014 A 
ATOM     11  C   UNL A   1      42.714  22.963  25.660  1.00  0.00     0.010 A 
ATOM     12  C   UNL A   1      42.772  22.413  28.024  1.00  0.00     0.010 A 
ATOM     13  C   UNL A   1      42.990  23.332  26.985  1.00  0.00    -0.014 A 
BRANCH  13  14
ATOM     14  C   UNL A   1      43.443  24.709  27.283  1.00  0.00     0.031 A 
ATOM     15  C   UNL A   1      42.495  25.734  27.830  1.00  0.00     0.074 A 
ATOM     16  C   UNL A   1      44.725  25.029  27.029  1.00  0.00     0.049 A 
ATOM     17  N   UNL A   1      42.707  27.000  28.084  1.00  0.00    -0.248 NA
ATOM     18  C   UNL A   1      41.127  25.283  28.123  1.00  0.00     0.031 C 
ATOM     19  C   UNL A   1      45.725  24.109  26.482  1.00  0.00     0.029 A 
ATOM     20  N   UNL A   1      45.403  26.208  27.185  1.00  0.00    -0.354 N 
ATOM     21  C   UNL A   1      41.496  27.504  28.539  1.00  0.00     0.074 A 
ATOM     22  C   UNL A   1      40.547  26.410  28.512  1.00  0.00     0.031 C 
ATOM     23  C   UNL A   1      46.892  24.755  26.358  1.00  0.00     0.029 A 
ATOM     24  C   UNL A   1      46.706  26.145  26.759  1.00  0.00     0.049 A 
ATOM     25  H   UNL A   1      44.997  27.020  27.566  1.00  0.00     0.167 HD
ATOM     26  C   UNL A   1      41.211  28.765  28.942  1.00  0.00     0.037 A 
ATOM     27  C   UNL A   1      47.639  27.109  26.664  1.00  0.00     0.037 A 
ATOM     28  C   UNL A   1      42.171  29.838  28.980  1.00  0.00     0.049 A 
ATOM     29  C   UNL A   1      47.295  28.500  27.105  1.00  0.00     0.074 A 
ATOM     30  C   UNL A   1      42.001  31.135  29.433  1.00  0.00     0.029 A 
ATOM     31  N   UNL A   1      43.485  29.737  28.541  1.00  0.00    -0.354 N 
ATOM     32  N   UNL A   1      46.159  28.956  27.575  1.00  0.00    -0.248 NA
ATOM     33  C   UNL A   1      48.356  29.509  27.001  1.00  0.00     0.031 C 
ATOM     34  C   UNL A   1      43.196  31.831  29.221  1.00  0.00     0.029 A 
ATOM     35  C   UNL A   1      44.127  30.958  28.683  1.00  0.00     0.049 A 
ATOM     36  H   UNL A   1      43.899  28.920  28.181  1.00  0.00     0.167 HD
ATOM     37  C   UNL A   1      46.368  30.303  27.833  1.00  0.00     0.074 A 
ATOM     38  C   UNL A   1      47.746  30.585  27.480  1.00  0.00     0.031 C 
ATOM     39  C   UNL A   1      45.497  31.219  28.318  1.00  0.00     0.037 A 
BRANCH  26  40
ATOM     40  C   UNL A   1      39.797  29.062  29.349  1.00  0.00     0.064 A 
ATOM     41  C   UNL A   1      39.362  28.925  30.675  1.00  0.00     0.173 A 
ATOM     42  C   UNL A   1      38.869  29.520  28.399  1.00  0.00     0.173 A 
ATOM     43  F   UNL A   1      40.205  28.481  31.620  1.00  0.00    -0.203 F 
ATOM     44  C   UNL A   1      38.045  29.207  31.031  1.00  0.00     0.198 A 
ATOM     45  C   UNL A   1      37.561  29.825  28.763  1.00  0.00     0.198 A 
ATOM     46  F   UNL A   1      39.234  29.675  27.118  1.00  0.00    -0.203 F 
ATOM     47  F   UNL A   1      37.640  29.024  32.295  1.00  0.00    -0.200 F 
ATOM     48  C   UNL A   1      37.147  29.661  30.076  1.00  0.00     0.200 A 
ATOM     49  F   UNL A   1      36.698  30.275  27.841  1.00  0.00    -0.200 F 
ATOM     50  F   UNL A   1      35.880  29.933  30.420  1.00  0.00    -0.200 F 
ENDBRANCH  26  40
BRANCH  27  51
ATOM     51  C   UNL A   1      48.972  26.766  26.113  1.00  0.00     0.064 A 
ATOM     52  C   UNL A   1      49.262  26.948  24.756  1.00  0.00     0.173 A 
ATOM     53  C   UNL A   1      50.005  26.321  26.953  1.00  0.00     0.173 A 
ATOM     54  F   UNL A   1      48.302  27.360  23.916  1.00  0.00    -0.203 F 
ATOM     55  C   UNL A   1      50.538  26.699  24.258  1.00  0.00     0.198 A 
ATOM     56  C   UNL A   1      51.287  26.096  26.457  1.00  0.00     0.198 A 
ATOM     57  F   UNL A   1      49.778  26.143  28.262  1.00  0.00    -0.203 F 
ATOM     58  F   UNL A   1      50.788  26.864  22.952  1.00  0.00    -0.200 F 
ATOM     59  C   UNL A   1      51.552  26.283  25.109  1.00  0.00     0.200 A 
ATOM     60  F   UNL A   1      52.267  25.716  27.288  1.00  0.00    -0.200 F 
ATOM     61  F   UNL A   1      52.784  26.067  24.631  1.00  0.00    -0.200 F 
ENDBRANCH  27  51
BRANCH  39  62
ATOM     62  C   UNL A   1      46.012  32.613  28.511  1.00  0.00     0.064 A 
ATOM     63  C   UNL A   1      46.642  33.002  29.703  1.00  0.00     0.173 A 
ATOM     64  C   UNL A   1      45.919  33.555  27.476  1.00  0.00     0.173 A 
ATOM     65  F   UNL A   1      46.738  32.140  30.727  1.00  0.00    -0.203 F 
ATOM     66  C   UNL A   1      47.151  34.288  29.854  1.00  0.00     0.198 A 
ATOM     67  C   UNL A   1      46.450  34.833  27.622  1.00  0.00     0.198 A 
ATOM     68  F   UNL A   1      45.326  33.229  26.317  1.00  0.00    -0.203 F 
ATOM     69  F   UNL A   1      47.720  34.650  31.012  1.00  0.00    -0.200 F 
ATOM     70  C   UNL A   1      47.062  35.199  28.812  1.00  0.00     0.200 A 
ATOM     71  F   UNL A   1      46.371  35.709  26.611  1.00  0.00    -0.200 F 
ATOM     72  F   UNL A   1      47.562  36.435  28.956  1.00  0.00    -0.200 F 
ENDBRANCH  39  62
ENDBRANCH  13  14
ENDBRANCH   6   8
ENDBRANCH   3   4
ENDBRANCH   2   3
ENDBRANCH   1   2
BRANCH   1  73
ATOM     73  C   UNL A   1      37.385  21.919  25.245  1.00  0.00     0.116 C 
BRANCH  73  74
ATOM     74  N   UNL A   1      36.386  22.466  26.145  1.00  0.00    -0.356 N 
ATOM     75  C   UNL A   1      35.120  22.912  25.893  1.00  0.00     0.224 C 
ATOM     76  H   UNL A   1      36.665  22.525  27.087  1.00  0.00     0.163 HD
ATOM     77  O   UNL A   1      34.443  23.299  26.846  1.00  0.00    -0.275 OA
BRANCH  75  78
ATOM     78  C   UNL A   1      34.563  22.942  24.477  1.00  0.00     0.098 C 
ATOM     79  C   UNL A   1      33.620  21.753  24.245  1.00  0.00     0.017 C 
ATOM     80  C   UNL A   1      34.031  24.347  24.142  1.00  0.00     0.133 C 
ATOM     81  C   UNL A   1      32.661  21.969  23.090  1.00  0.00     0.022 C 
ATOM     82  N   UNL A   1      33.043  24.382  23.059  1.00  0.00    -0.342 N 
ATOM     83  C   UNL A   1      32.031  23.350  23.147  1.00  0.00     0.119 C 
BRANCH  82  84
ATOM     84  C   UNL A   1      32.934  25.554  22.326  1.00  0.00     0.225 C 
ATOM     85  O   UNL A   1      33.651  25.713  21.328  1.00  0.00    -0.275 OA
BRANCH  84  86
ATOM     86  C   UNL A   1      31.906  26.664  22.641  1.00  0.00     0.081 C 
ATOM     87  C   UNL A   1      32.395  28.098  22.750  1.00  0.00     0.030 C 
ATOM     88  C   UNL A   1      30.836  26.345  23.667  1.00  0.00     0.030 C 
ATOM     89  C   UNL A   1      32.615  28.649  24.149  1.00  0.00     0.103 C 
ATOM     90  C   UNL A   1      31.153  26.781  25.080  1.00  0.00     0.103 C 
ATOM     91  N   UNL A   1      31.675  28.164  25.214  1.00  0.00    -0.198 NA
BRANCH  91  92
ATOM     92  S   UNL A   1      32.380  28.501  26.778  1.00  0.00     0.243 S 
ATOM     93  O   UNL A   1      31.423  28.067  27.778  1.00  0.00    -0.207 OA
ATOM     94  O   UNL A   1      33.720  27.951  26.767  1.00  0.00    -0.207 OA
BRANCH  92  95
ATOM     95  C   UNL A   1      32.493  30.269  26.908  1.00  0.00     0.082 A 
ATOM     96  C   UNL A   1      33.580  30.851  27.560  1.00  0.00     0.022 A 
ATOM     97  C   UNL A   1      31.408  31.057  26.497  1.00  0.00     0.022 A 
ATOM     98  C   UNL A   1      33.597  32.234  27.761  1.00  0.00     0.001 A 
ATOM     99  C   UNL A   1      31.445  32.438  26.675  1.00  0.00     0.001 A 
ATOM    100  C   UNL A   1      32.538  33.024  27.309  1.00  0.00     0.000 A 
ENDBRANCH  92  95
ENDBRANCH  91  92
ENDBRANCH  84  86
ENDBRANCH  82  84
ENDBRANCH  75  78
ENDBRANCH  73  74
ENDBRANCH   1  73
TORSDOF 15
ENDMDL
MODEL 3
REMARK VINA RESULT:     -13.3      5.391     11.326
REMARK SMILES O=C(NCCCCNC(=O)[C@H]1CCCN(C(=O)C2CCN(S(=O)(=O)c3ccccc3)CC2)C1)c1ccc(-c2c3nc(c(-c4c(F)c(F)c(F)c(F)c4F)c4ccc([nH]4)c(-c4c(F)c(F)c(F)c(F)c4F)c4nc(c(-c5c(F)c(F)c(F)c(F)c5F)c5ccc2[nH]5)C=C4)C=C3)cc1
REMARK SMILES IDX 6 1 5 2 4 3 3 4 1 5 2 6 34 8 35 9 96 10 36 11 95 12 37 13
REMARK SMILES IDX 38 14 39 15 89 16 40 17 94 18 88 19 90 20 41 21 93 22 87 23
REMARK SMILES IDX 86 24 42 26 74 27 54 28 73 29 55 30 58 31 72 32 91 33 56 34
REMARK SMILES IDX 57 35 71 37 92 38 59 39 43 40 44 41 52 42 45 43 46 44 50 45
REMARK SMILES IDX 53 46 47 47 48 48 51 49 49 50 75 51 76 52 84 53 77 54 78 55
REMARK SMILES IDX 82 56 85 57 79 58 80 59 83 60 81 61 60 62 61 63 69 64 62 65
REMARK SMILES IDX 63 66 67 67 70 68 64 69 65 70 68 71 66 72 7 73 8 74 9 75
REMARK SMILES IDX 10 77 11 78 12 79 33 80 13 81 15 82 14 83 16 84 17 85 18 86
REMARK SMILES IDX 19 87 32 88 20 89 31 90 21 91 22 92 23 93 24 94 25 95 26 96
REMARK SMILES IDX 30 97 27 98 29 99 28 100
REMARK H PARENT 3 7 90 25 58 36 8 76
REMARK Flexibility Score: inf
ROOT
ATOM      1  C   UNL A   1      31.847  30.631  26.670  1.00  0.00     0.023 C 
ENDROOT
BRANCH   1   2
ATOM      2  C   UNL A   1      31.561  32.114  26.879  1.00  0.00     0.023 C 
BRANCH   2   3
ATOM      3  C   UNL A   1      32.780  32.956  27.224  1.00  0.00     0.116 C 
BRANCH   3   4
ATOM      4  N   UNL A   1      32.440  34.301  27.664  1.00  0.00    -0.352 N 
ATOM      5  O   UNL A   1      32.545  36.120  29.004  1.00  0.00    -0.269 OA
ATOM      6  C   UNL A   1      33.013  35.038  28.669  1.00  0.00     0.251 C 
ATOM      7  H   UNL A   1      31.703  34.737  27.177  1.00  0.00     0.163 HD
BRANCH   6   8
ATOM      8  C   UNL A   1      34.188  34.486  29.367  1.00  0.00     0.039 A 
ATOM      9  C   UNL A   1      35.470  34.676  28.845  1.00  0.00     0.014 A 
ATOM     10  C   UNL A   1      33.991  33.728  30.522  1.00  0.00     0.014 A 
ATOM     11  C   UNL A   1      36.545  34.001  29.405  1.00  0.00     0.010 A 
ATOM     12  C   UNL A   1      35.084  33.112  31.129  1.00  0.00     0.010 A 
ATOM     13  C   UNL A   1      36.363  33.222  30.559  1.00  0.00    -0.014 A 
BRANCH  13  14
ATOM     14  C   UNL A   1      37.531  32.581  31.201  1.00  0.00     0.031 A 
ATOM     15  C   UNL A   1      38.264  31.459  30.530  1.00  0.00     0.074 A 
ATOM     16  C   UNL A   1      37.910  33.016  32.417  1.00  0.00     0.049 A 
ATOM     17  N   UNL A   1      39.263  30.741  30.978  1.00  0.00    -0.248 NA
ATOM     18  C   UNL A   1      37.811  31.083  29.182  1.00  0.00     0.031 C 
ATOM     19  C   UNL A   1      37.255  34.092  33.163  1.00  0.00     0.029 A 
ATOM     20  N   UNL A   1      38.923  32.604  33.241  1.00  0.00    -0.354 N 
ATOM     21  C   UNL A   1      39.541  29.815  29.983  1.00  0.00     0.074 A 
ATOM     22  C   UNL A   1      38.595  30.048  28.912  1.00  0.00     0.031 C 
ATOM     23  C   UNL A   1      37.889  34.264  34.331  1.00  0.00     0.029 A 
ATOM     24  C   UNL A   1      38.952  33.272  34.439  1.00  0.00     0.049 A 
ATOM     25  H   UNL A   1      39.566  31.899  32.998  1.00  0.00     0.167 HD
ATOM     26  C   UNL A   1      40.501  28.859  29.972  1.00  0.00     0.037 A 
ATOM     27  C   UNL A   1      39.726  33.083  35.523  1.00  0.00     0.037 A 
ATOM     28  C   UNL A   1      41.447  28.652  31.038  1.00  0.00     0.049 A 
ATOM     29  C   UNL A   1      40.774  32.010  35.490  1.00  0.00     0.074 A 
ATOM     30  C   UNL A   1      42.500  27.755  31.097  1.00  0.00     0.029 A 
ATOM     31  N   UNL A   1      41.448  29.349  32.239  1.00  0.00    -0.354 N 
ATOM     32  N   UNL A   1      41.058  31.168  34.528  1.00  0.00    -0.248 NA
ATOM     33  C   UNL A   1      41.605  31.860  36.691  1.00  0.00     0.031 C 
ATOM     34  C   UNL A   1      43.106  27.876  32.353  1.00  0.00     0.029 A 
ATOM     35  C   UNL A   1      42.464  28.881  33.058  1.00  0.00     0.049 A 
ATOM     36  H   UNL A   1      40.820  30.070  32.474  1.00  0.00     0.167 HD
ATOM     37  C   UNL A   1      42.106  30.392  34.998  1.00  0.00     0.074 A 
ATOM     38  C   UNL A   1      42.417  30.876  36.329  1.00  0.00     0.031 C 
ATOM     39  C   UNL A   1      42.752  29.372  34.382  1.00  0.00     0.037 A 
BRANCH  26  40
ATOM     40  C   UNL A   1      40.561  27.947  28.781  1.00  0.00     0.064 A 
ATOM     41  C   UNL A   1      39.829  26.753  28.724  1.00  0.00     0.173 A 
ATOM     42  C   UNL A   1      41.343  28.290  27.667  1.00  0.00     0.173 A 
ATOM     43  F   UNL A   1      39.075  26.372  29.767  1.00  0.00    -0.203 F 
ATOM     44  C   UNL A   1      39.898  25.921  27.609  1.00  0.00     0.198 A 
ATOM     45  C   UNL A   1      41.390  27.469  26.543  1.00  0.00     0.198 A 
ATOM     46  F   UNL A   1      42.059  29.424  27.665  1.00  0.00    -0.203 F 
ATOM     47  F   UNL A   1      39.227  24.761  27.596  1.00  0.00    -0.200 F 
ATOM     48  C   UNL A   1      40.675  26.282  26.517  1.00  0.00     0.200 A 
ATOM     49  F   UNL A   1      42.132  27.826  25.485  1.00  0.00    -0.200 F 
ATOM     50  F   UNL A   1      40.740  25.481  25.444  1.00  0.00    -0.200 F 
ENDBRANCH  26  40
BRANCH  27  51
ATOM     51  C   UNL A   1      39.507  33.931  36.719  1.00  0.00     0.064 A 
ATOM     52  C   UNL A   1      38.717  33.487  37.786  1.00  0.00     0.173 A 
ATOM     53  C   UNL A   1      40.148  35.173  36.848  1.00  0.00     0.173 A 
ATOM     54  F   UNL A   1      38.077  32.312  37.700  1.00  0.00    -0.203 F 
ATOM     55  C   UNL A   1      38.577  34.253  38.939  1.00  0.00     0.198 A 
ATOM     56  C   UNL A   1      40.027  35.927  38.012  1.00  0.00     0.198 A 
ATOM     57  F   UNL A   1      40.925  35.635  35.856  1.00  0.00    -0.203 F 
ATOM     58  F   UNL A   1      37.802  33.816  39.941  1.00  0.00    -0.200 F 
ATOM     59  C   UNL A   1      39.240  35.468  39.057  1.00  0.00     0.200 A 
ATOM     60  F   UNL A   1      40.686  37.087  38.128  1.00  0.00    -0.200 F 
ATOM     61  F   UNL A   1      39.122  36.192  40.177  1.00  0.00    -0.200 F 
ENDBRANCH  27  51
BRANCH  39  62
ATOM     62  C   UNL A   1      43.870  28.719  35.136  1.00  0.00     0.064 A 
ATOM     63  C   UNL A   1      43.639  27.633  35.993  1.00  0.00     0.173 A 
ATOM     64  C   UNL A   1      45.193  29.152  34.961  1.00  0.00     0.173 A 
ATOM     65  F   UNL A   1      42.388  27.195  36.204  1.00  0.00    -0.203 F 
ATOM     66  C   UNL A   1      44.692  27.011  36.656  1.00  0.00     0.198 A 
ATOM     67  C   UNL A   1      46.246  28.512  35.608  1.00  0.00     0.198 A 
ATOM     68  F   UNL A   1      45.464  30.186  34.150  1.00  0.00    -0.203 F 
ATOM     69  F   UNL A   1      44.446  25.996  37.497  1.00  0.00    -0.200 F 
ATOM     70  C   UNL A   1      45.994  27.445  36.458  1.00  0.00     0.200 A 
ATOM     71  F   UNL A   1      47.504  28.927  35.408  1.00  0.00    -0.200 F 
ATOM     72  F   UNL A   1      47.008  26.838  37.090  1.00  0.00    -0.200 F 
ENDBRANCH  39  62
ENDBRANCH  13  14
ENDBRANCH   6   8
ENDBRANCH   3   4
ENDBRANCH   2   3
ENDBRANCH   1   2
BRANCH   1  73
ATOM     73  C   UNL A   1      31.634  30.141  25.241  1.00  0.00     0.116 C 
BRANCH  73  74
ATOM     74  N   UNL A   1      32.874  29.754  24.593  1.00  0.00    -0.356 N 
ATOM     75  C   UNL A   1      33.170  28.654  23.840  1.00  0.00     0.224 C 
ATOM     76  H   UNL A   1      33.621  30.383  24.715  1.00  0.00     0.163 HD
ATOM     77  O   UNL A   1      34.301  28.570  23.360  1.00  0.00    -0.275 OA
BRANCH  75  78
ATOM     78  C   UNL A   1      32.140  27.557  23.609  1.00  0.00     0.098 C 
ATOM     79  C   UNL A   1      32.517  26.716  22.381  1.00  0.00     0.017 C 
ATOM     80  C   UNL A   1      31.854  26.808  24.923  1.00  0.00     0.133 C 
ATOM     81  C   UNL A   1      31.864  25.348  22.372  1.00  0.00     0.022 C 
ATOM     82  N   UNL A   1      31.304  25.459  24.748  1.00  0.00    -0.342 N 
ATOM     83  C   UNL A   1      31.972  24.676  23.729  1.00  0.00     0.119 C 
BRANCH  82  84
ATOM     84  C   UNL A   1      30.519  24.949  25.769  1.00  0.00     0.225 C 
ATOM     85  O   UNL A   1      29.398  25.436  25.973  1.00  0.00    -0.275 OA
BRANCH  84  86
ATOM     86  C   UNL A   1      30.932  23.741  26.640  1.00  0.00     0.081 C 
ATOM     87  C   UNL A   1      32.303  23.749  27.292  1.00  0.00     0.030 C 
ATOM     88  C   UNL A   1      30.544  22.363  26.140  1.00  0.00     0.030 C 
ATOM     89  C   UNL A   1      33.398  22.946  26.610  1.00  0.00     0.103 C 
ATOM     90  C   UNL A   1      31.610  21.650  25.339  1.00  0.00     0.103 C 
ATOM     91  N   UNL A   1      32.972  21.678  25.929  1.00  0.00    -0.198 NA
BRANCH  91  92
ATOM     92  S   UNL A   1      34.230  21.189  24.819  1.00  0.00     0.243 S 
ATOM     93  O   UNL A   1      34.100  22.019  23.637  1.00  0.00    -0.207 OA
ATOM     94  O   UNL A   1      35.472  21.174  25.564  1.00  0.00    -0.207 OA
BRANCH  92  95
ATOM     95  C   UNL A   1      33.846  19.527  24.323  1.00  0.00     0.082 A 
ATOM     96  C   UNL A   1      34.728  18.490  24.624  1.00  0.00     0.022 A 
ATOM     97  C   UNL A   1      32.739  19.298  23.494  1.00  0.00     0.022 A 
ATOM     98  C   UNL A   1      34.474  17.209  24.126  1.00  0.00     0.001 A 
ATOM     99  C   UNL A   1      32.476  18.013  23.023  1.00  0.00     0.001 A 
ATOM    100  C   UNL A   1      33.345  16.971  23.338  1.00  0.00     0.000 A 
ENDBRANCH  92  95
ENDBRANCH  91  92
ENDBRANCH  84  86
ENDBRANCH  82  84
ENDBRANCH  75  78
ENDBRANCH  73  74
ENDBRANCH   1  73
TORSDOF 15
ENDMDL
