MODEL 1
REMARK VINA RESULT:     -11.5      0.000      0.000
REMARK SMILES CSc1nc(C2CC2)nc(C)c1C(=O)NCCCCNC(=O)c1ccc(-c2c3nc(c(-c4c(F)c(F)c(F)c(F)c4F)c4ccc([nH]4)c(-c4c(F)c(F)c(F)c(F)c4F)c4nc(c(-c5c(F)c(F)c(F)c(F)c5F)c5ccc2[nH]5)C=C4)C=C3)cc1
REMARK SMILES IDX 18 1 17 2 16 3 15 4 13 5 14 6 12 8 3 9 4 10 5 11 10 12 9 13
REMARK SMILES IDX 11 14 2 15 1 16 6 17 7 18 8 19 19 20 20 21 21 22 22 24 23 25
REMARK SMILES IDX 24 26 85 27 25 28 84 29 26 30 27 31 28 32 78 33 29 34 83 35
REMARK SMILES IDX 77 36 79 37 30 38 82 39 76 40 75 41 31 43 63 44 43 45 62 46
REMARK SMILES IDX 44 47 47 48 61 49 80 50 45 51 46 52 60 54 81 55 48 56 32 57
REMARK SMILES IDX 33 58 41 59 34 60 35 61 39 62 42 63 36 64 37 65 40 66 38 67
REMARK SMILES IDX 64 68 65 69 73 70 66 71 67 72 71 73 74 74 68 75 69 76 72 77
REMARK SMILES IDX 70 78 49 79 50 80 58 81 51 82 52 83 56 84 59 85 53 86 54 87
REMARK SMILES IDX 57 88 55 89
REMARK H PARENT 15 7 20 23 79 42 47 53
REMARK Flexibility Score: inf
ROOT
ATOM      1  C   UNL A   1      31.777  29.142  26.689  1.00  0.00     0.023 C 
ENDROOT
BRANCH   1   2
ATOM      2  C   UNL A   1      32.272  27.956  27.516  1.00  0.00     0.023 C 
BRANCH   2   3
ATOM      3  C   UNL A   1      32.192  26.591  26.811  1.00  0.00     0.116 C 
BRANCH   3   4
ATOM      4  N   UNL A   1      33.243  26.501  25.821  1.00  0.00    -0.352 N 
ATOM      5  C   UNL A   1      33.100  26.278  24.468  1.00  0.00     0.255 C 
ATOM      6  O   UNL A   1      33.810  25.406  23.972  1.00  0.00    -0.269 OA
ATOM      7  H   UNL A   1      34.165  26.610  26.150  1.00  0.00     0.163 HD
BRANCH   5   8
ATOM      8  C   UNL A   1      32.273  27.124  23.576  1.00  0.00     0.093 A 
ATOM      9  C   UNL A   1      30.900  26.861  23.507  1.00  0.00     0.113 A 
ATOM     10  N   UNL A   1      30.004  27.698  22.925  1.00  0.00    -0.225 NA
ATOM     11  C   UNL A   1      30.454  28.849  22.418  1.00  0.00     0.133 A 
ATOM     12  C   UNL A   1      32.654  28.317  22.974  1.00  0.00     0.055 A 
ATOM     13  N   UNL A   1      31.758  29.143  22.381  1.00  0.00    -0.237 NA
ATOM     14  C   UNL A   1      34.003  28.953  22.996  1.00  0.00     0.068 C 
BRANCH   9  15
ATOM     15  S   UNL A   1      30.063  25.456  24.251  1.00  0.00    -0.109 SA
ATOM     16  C   UNL A   1      30.649  24.120  23.190  1.00  0.00     0.092 C 
ENDBRANCH   9  15
BRANCH  11  17
ATOM     17  C   UNL A   1      29.507  29.941  21.990  1.00  0.00     0.058 C 
ATOM     18  C   UNL A   1      28.032  29.931  22.299  1.00  0.00     0.012 C 
ATOM     19  C   UNL A   1      28.940  30.837  23.076  1.00  0.00     0.012 C 
ENDBRANCH  11  17
ENDBRANCH   5   8
ENDBRANCH   3   4
ENDBRANCH   2   3
ENDBRANCH   1   2
BRANCH   1  20
ATOM     20  C   UNL A   1      32.891  30.079  26.249  1.00  0.00     0.116 C 
BRANCH  20  21
ATOM     21  N   UNL A   1      32.683  31.462  26.656  1.00  0.00    -0.352 N 
ATOM     22  C   UNL A   1      33.470  32.247  27.460  1.00  0.00     0.251 C 
ATOM     23  H   UNL A   1      31.867  31.891  26.309  1.00  0.00     0.163 HD
ATOM     24  O   UNL A   1      33.114  33.380  27.766  1.00  0.00    -0.269 OA
BRANCH  22  25
ATOM     25  C   UNL A   1      34.721  31.687  28.002  1.00  0.00     0.039 A 
ATOM     26  C   UNL A   1      35.825  32.531  28.130  1.00  0.00     0.014 A 
ATOM     27  C   UNL A   1      34.784  30.362  28.437  1.00  0.00     0.014 A 
ATOM     28  C   UNL A   1      36.977  32.059  28.754  1.00  0.00     0.010 A 
ATOM     29  C   UNL A   1      35.897  29.922  29.140  1.00  0.00     0.010 A 
ATOM     30  C   UNL A   1      37.007  30.763  29.296  1.00  0.00    -0.014 A 
BRANCH  30  31
ATOM     31  C   UNL A   1      38.204  30.280  30.023  1.00  0.00     0.031 A 
ATOM     32  C   UNL A   1      38.454  30.714  31.437  1.00  0.00     0.074 A 
ATOM     33  C   UNL A   1      39.080  29.478  29.388  1.00  0.00     0.049 A 
ATOM     34  N   UNL A   1      39.427  30.378  32.246  1.00  0.00    -0.248 NA
ATOM     35  C   UNL A   1      37.504  31.680  32.014  1.00  0.00     0.031 C 
ATOM     36  C   UNL A   1      38.981  29.054  27.990  1.00  0.00     0.029 A 
ATOM     37  N   UNL A   1      40.224  28.871  29.838  1.00  0.00    -0.354 N 
ATOM     38  C   UNL A   1      39.209  31.093  33.415  1.00  0.00     0.074 A 
ATOM     39  C   UNL A   1      38.055  31.934  33.192  1.00  0.00     0.031 C 
ATOM     40  C   UNL A   1      39.997  28.223  27.709  1.00  0.00     0.029 A 
ATOM     41  C   UNL A   1      40.830  28.075  28.898  1.00  0.00     0.049 A 
ATOM     42  H   UNL A   1      40.578  28.996  30.749  1.00  0.00     0.167 HD
ATOM     43  C   UNL A   1      39.891  31.027  34.582  1.00  0.00     0.037 A 
ATOM     44  C   UNL A   1      41.926  27.300  28.994  1.00  0.00     0.037 A 
ATOM     45  C   UNL A   1      41.023  30.167  34.806  1.00  0.00     0.049 A 
ATOM     46  C   UNL A   1      42.644  27.218  30.313  1.00  0.00     0.074 A 
ATOM     47  C   UNL A   1      41.751  29.979  35.967  1.00  0.00     0.029 A 
ATOM     48  N   UNL A   1      41.592  29.350  33.839  1.00  0.00    -0.354 N 
ATOM     49  N   UNL A   1      42.378  27.829  31.442  1.00  0.00    -0.248 NA
ATOM     50  C   UNL A   1      43.806  26.322  30.375  1.00  0.00     0.031 C 
ATOM     51  C   UNL A   1      42.785  29.077  35.692  1.00  0.00     0.029 A 
ATOM     52  C   UNL A   1      42.671  28.665  34.374  1.00  0.00     0.049 A 
ATOM     53  H   UNL A   1      41.275  29.268  32.911  1.00  0.00     0.167 HD
ATOM     54  C   UNL A   1      43.318  27.373  32.355  1.00  0.00     0.074 A 
ATOM     55  C   UNL A   1      44.148  26.417  31.653  1.00  0.00     0.031 C 
ATOM     56  C   UNL A   1      43.481  27.714  33.657  1.00  0.00     0.037 A 
BRANCH  43  57
ATOM     57  C   UNL A   1      39.420  31.901  35.708  1.00  0.00     0.064 A 
ATOM     58  C   UNL A   1      38.442  31.465  36.617  1.00  0.00     0.173 A 
ATOM     59  C   UNL A   1      39.966  33.179  35.898  1.00  0.00     0.173 A 
ATOM     60  F   UNL A   1      37.875  30.258  36.471  1.00  0.00    -0.203 F 
ATOM     61  C   UNL A   1      38.007  32.288  37.653  1.00  0.00     0.198 A 
ATOM     62  C   UNL A   1      39.552  33.986  36.954  1.00  0.00     0.198 A 
ATOM     63  F   UNL A   1      40.905  33.644  35.060  1.00  0.00    -0.203 F 
ATOM     64  F   UNL A   1      37.033  31.872  38.474  1.00  0.00    -0.200 F 
ATOM     65  C   UNL A   1      38.568  33.544  37.825  1.00  0.00     0.200 A 
ATOM     66  F   UNL A   1      40.102  35.197  37.126  1.00  0.00    -0.200 F 
ATOM     67  F   UNL A   1      38.153  34.333  38.826  1.00  0.00    -0.200 F 
ENDBRANCH  43  57
BRANCH  44  68
ATOM     68  C   UNL A   1      42.375  26.499  27.826  1.00  0.00     0.064 A 
ATOM     69  C   UNL A   1      41.834  25.229  27.574  1.00  0.00     0.173 A 
ATOM     70  C   UNL A   1      43.348  26.981  26.940  1.00  0.00     0.173 A 
ATOM     71  F   UNL A   1      40.911  24.719  28.403  1.00  0.00    -0.203 F 
ATOM     72  C   UNL A   1      42.268  24.464  26.495  1.00  0.00     0.198 A 
ATOM     73  C   UNL A   1      43.761  26.224  25.845  1.00  0.00     0.198 A 
ATOM     74  F   UNL A   1      43.890  28.192  27.132  1.00  0.00    -0.203 F 
ATOM     75  F   UNL A   1      41.769  23.234  26.306  1.00  0.00    -0.200 F 
ATOM     76  C   UNL A   1      43.228  24.963  25.629  1.00  0.00     0.200 A 
ATOM     77  F   UNL A   1      44.678  26.718  25.001  1.00  0.00    -0.200 F 
ATOM     78  F   UNL A   1      43.644  24.227  24.589  1.00  0.00    -0.200 F 
ENDBRANCH  44  68
BRANCH  56  79
ATOM     79  C   UNL A   1      44.578  27.022  34.410  1.00  0.00     0.064 A 
ATOM     80  C   UNL A   1      45.867  27.569  34.506  1.00  0.00     0.173 A 
ATOM     81  C   UNL A   1      44.332  25.803  35.062  1.00  0.00     0.173 A 
ATOM     82  F   UNL A   1      46.156  28.725  33.889  1.00  0.00    -0.203 F 
ATOM     83  C   UNL A   1      46.877  26.903  35.194  1.00  0.00     0.198 A 
ATOM     84  C   UNL A   1      45.335  25.157  35.776  1.00  0.00     0.198 A 
ATOM     85  F   UNL A   1      43.114  25.242  35.010  1.00  0.00    -0.203 F 
ATOM     86  F   UNL A   1      48.115  27.415  35.221  1.00  0.00    -0.200 F 
ATOM     87  C   UNL A   1      46.610  25.701  35.833  1.00  0.00     0.200 A 
ATOM     88  F   UNL A   1      45.072  24.003  36.406  1.00  0.00    -0.200 F 
ATOM     89  F   UNL A   1      47.584  25.063  36.495  1.00  0.00    -0.200 F 
ENDBRANCH  56  79
ENDBRANCH  30  31
ENDBRANCH  22  25
ENDBRANCH  20  21
ENDBRANCH   1  20
TORSDOF 13
ENDMDL
MODEL 2
REMARK VINA RESULT:     -11.5      4.149      7.171
REMARK SMILES CSc1nc(C2CC2)nc(C)c1C(=O)NCCCCNC(=O)c1ccc(-c2c3nc(c(-c4c(F)c(F)c(F)c(F)c4F)c4ccc([nH]4)c(-c4c(F)c(F)c(F)c(F)c4F)c4nc(c(-c5c(F)c(F)c(F)c(F)c5F)c5ccc2[nH]5)C=C4)C=C3)cc1
REMARK SMILES IDX 18 1 17 2 16 3 15 4 13 5 14 6 12 8 3 9 4 10 5 11 10 12 9 13
REMARK SMILES IDX 11 14 2 15 1 16 6 17 7 18 8 19 19 20 20 21 21 22 22 24 23 25
REMARK SMILES IDX 24 26 85 27 25 28 84 29 26 30 27 31 28 32 78 33 29 34 83 35
REMARK SMILES IDX 77 36 79 37 30 38 82 39 76 40 75 41 31 43 63 44 43 45 62 46
REMARK SMILES IDX 44 47 47 48 61 49 80 50 45 51 46 52 60 54 81 55 48 56 32 57
REMARK SMILES IDX 33 58 41 59 34 60 35 61 39 62 42 63 36 64 37 65 40 66 38 67
REMARK SMILES IDX 64 68 65 69 73 70 66 71 67 72 71 73 74 74 68 75 69 76 72 77
REMARK SMILES IDX 70 78 49 79 50 80 58 81 51 82 52 83 56 84 59 85 53 86 54 87
REMARK SMILES IDX 57 88 55 89
REMARK H PARENT 15 7 20 23 79 42 47 53
REMARK Flexibility Score: inf
ROOT
ATOM      1  C   UNL A   1      33.582  33.582  28.001  1.00  0.00     0.023 C 
ENDROOT
BRANCH   1   2
ATOM      2  C   UNL A   1      34.238  34.878  28.475  1.00  0.00     0.023 C 
BRANCH   2   3
ATOM      3  C   UNL A   1      33.646  35.475  29.764  1.00  0.00     0.116 C 
BRANCH   3   4
ATOM      4  N   UNL A   1      33.631  34.464  30.797  1.00  0.00    -0.352 N 
ATOM      5  C   UNL A   1      34.665  33.629  31.165  1.00  0.00     0.255 C 
ATOM      6  O   UNL A   1      34.403  32.432  31.263  1.00  0.00    -0.269 OA
ATOM      7  H   UNL A   1      32.788  34.359  31.294  1.00  0.00     0.163 HD
BRANCH   5   8
ATOM      8  C   UNL A   1      36.000  34.109  31.593  1.00  0.00     0.093 A 
ATOM      9  C   UNL A   1      36.129  34.627  32.887  1.00  0.00     0.113 A 
ATOM     10  N   UNL A   1      37.325  34.873  33.481  1.00  0.00    -0.225 NA
ATOM     11  C   UNL A   1      38.437  34.578  32.803  1.00  0.00     0.133 A 
ATOM     12  C   UNL A   1      37.210  33.885  30.947  1.00  0.00     0.055 A 
ATOM     13  N   UNL A   1      38.401  34.147  31.537  1.00  0.00    -0.237 NA
ATOM     14  C   UNL A   1      37.424  33.216  29.632  1.00  0.00     0.068 C 
BRANCH   9  15
ATOM     15  S   UNL A   1      34.778  34.953  34.025  1.00  0.00    -0.109 SA
ATOM     16  C   UNL A   1      34.192  36.540  33.400  1.00  0.00     0.092 C 
ENDBRANCH   9  15
BRANCH  11  17
ATOM     17  C   UNL A   1      39.787  34.577  33.474  1.00  0.00     0.058 C 
ATOM     18  C   UNL A   1      40.010  35.026  34.896  1.00  0.00     0.012 C 
ATOM     19  C   UNL A   1      40.017  33.561  34.578  1.00  0.00     0.012 C 
ENDBRANCH  11  17
ENDBRANCH   5   8
ENDBRANCH   3   4
ENDBRANCH   2   3
ENDBRANCH   1   2
BRANCH   1  20
ATOM     20  C   UNL A   1      34.559  32.424  27.873  1.00  0.00     0.116 C 
BRANCH  20  21
ATOM     21  N   UNL A   1      33.910  31.122  27.780  1.00  0.00    -0.352 N 
ATOM     22  C   UNL A   1      34.466  29.876  27.920  1.00  0.00     0.251 C 
ATOM     23  H   UNL A   1      32.944  31.140  27.591  1.00  0.00     0.163 HD
ATOM     24  O   UNL A   1      33.789  28.869  27.740  1.00  0.00    -0.269 OA
BRANCH  22  25
ATOM     25  C   UNL A   1      35.903  29.764  28.227  1.00  0.00     0.039 A 
ATOM     26  C   UNL A   1      36.277  29.328  29.498  1.00  0.00     0.014 A 
ATOM     27  C   UNL A   1      36.866  30.024  27.251  1.00  0.00     0.014 A 
ATOM     28  C   UNL A   1      37.622  29.094  29.772  1.00  0.00     0.010 A 
ATOM     29  C   UNL A   1      38.195  29.703  27.495  1.00  0.00     0.010 A 
ATOM     30  C   UNL A   1      38.586  29.245  28.760  1.00  0.00    -0.014 A 
BRANCH  30  31
ATOM     31  C   UNL A   1      40.009  28.931  29.025  1.00  0.00     0.031 A 
ATOM     32  C   UNL A   1      40.867  29.901  29.784  1.00  0.00     0.074 A 
ATOM     33  C   UNL A   1      40.531  27.786  28.545  1.00  0.00     0.049 A 
ATOM     34  N   UNL A   1      42.122  29.793  30.139  1.00  0.00    -0.248 NA
ATOM     35  C   UNL A   1      40.243  31.177  30.173  1.00  0.00     0.031 C 
ATOM     36  C   UNL A   1      39.813  26.806  27.728  1.00  0.00     0.029 A 
ATOM     37  N   UNL A   1      41.785  27.249  28.683  1.00  0.00    -0.354 N 
ATOM     38  C   UNL A   1      42.436  30.982  30.781  1.00  0.00     0.074 A 
ATOM     39  C   UNL A   1      41.265  31.827  30.708  1.00  0.00     0.031 C 
ATOM     40  C   UNL A   1      40.626  25.768  27.472  1.00  0.00     0.029 A 
ATOM     41  C   UNL A   1      41.925  26.020  28.086  1.00  0.00     0.049 A 
ATOM     42  H   UNL A   1      42.516  27.702  29.163  1.00  0.00     0.167 HD
ATOM     43  C   UNL A   1      43.587  31.324  31.405  1.00  0.00     0.037 A 
ATOM     44  C   UNL A   1      42.981  25.186  28.056  1.00  0.00     0.037 A 
ATOM     45  C   UNL A   1      44.739  30.467  31.496  1.00  0.00     0.049 A 
ATOM     46  C   UNL A   1      44.236  25.576  28.788  1.00  0.00     0.074 A 
ATOM     47  C   UNL A   1      45.934  30.690  32.155  1.00  0.00     0.029 A 
ATOM     48  N   UNL A   1      44.835  29.214  30.906  1.00  0.00    -0.354 N 
ATOM     49  N   UNL A   1      44.493  26.666  29.469  1.00  0.00    -0.248 NA
ATOM     50  C   UNL A   1      45.341  24.609  28.760  1.00  0.00     0.031 C 
ATOM     51  C   UNL A   1      46.769  29.590  31.930  1.00  0.00     0.029 A 
ATOM     52  C   UNL A   1      46.076  28.659  31.173  1.00  0.00     0.049 A 
ATOM     53  H   UNL A   1      44.126  28.784  30.376  1.00  0.00     0.167 HD
ATOM     54  C   UNL A   1      45.776  26.505  29.975  1.00  0.00     0.074 A 
ATOM     55  C   UNL A   1      46.234  25.203  29.539  1.00  0.00     0.031 C 
ATOM     56  C   UNL A   1      46.509  27.358  30.733  1.00  0.00     0.037 A 
BRANCH  43  57
ATOM     57  C   UNL A   1      43.648  32.680  32.048  1.00  0.00     0.064 A 
ATOM     58  C   UNL A   1      43.452  32.848  33.428  1.00  0.00     0.173 A 
ATOM     59  C   UNL A   1      43.929  33.821  31.282  1.00  0.00     0.173 A 
ATOM     60  F   UNL A   1      43.164  31.792  34.203  1.00  0.00    -0.203 F 
ATOM     61  C   UNL A   1      43.504  34.112  34.011  1.00  0.00     0.198 A 
ATOM     62  C   UNL A   1      44.011  35.079  31.874  1.00  0.00     0.198 A 
ATOM     63  F   UNL A   1      44.126  33.717  29.959  1.00  0.00    -0.203 F 
ATOM     64  F   UNL A   1      43.258  34.254  35.321  1.00  0.00    -0.200 F 
ATOM     65  C   UNL A   1      43.790  35.225  33.235  1.00  0.00     0.200 A 
ATOM     66  F   UNL A   1      44.299  36.153  31.125  1.00  0.00    -0.200 F 
ATOM     67  F   UNL A   1      43.845  36.439  33.799  1.00  0.00    -0.200 F 
ENDBRANCH  43  57
BRANCH  44  68
ATOM     68  C   UNL A   1      42.876  23.880  27.356  1.00  0.00     0.064 A 
ATOM     69  C   UNL A   1      43.259  23.750  26.013  1.00  0.00     0.173 A 
ATOM     70  C   UNL A   1      42.393  22.738  28.010  1.00  0.00     0.173 A 
ATOM     71  F   UNL A   1      43.713  24.819  25.341  1.00  0.00    -0.203 F 
ATOM     72  C   UNL A   1      43.139  22.535  25.345  1.00  0.00     0.198 A 
ATOM     73  C   UNL A   1      42.299  21.515  27.347  1.00  0.00     0.198 A 
ATOM     74  F   UNL A   1      42.021  22.807  29.296  1.00  0.00    -0.203 F 
ATOM     75  F   UNL A   1      43.468  22.451  24.048  1.00  0.00    -0.200 F 
ATOM     76  C   UNL A   1      42.664  21.417  26.013  1.00  0.00     0.200 A 
ATOM     77  F   UNL A   1      41.854  20.434  28.002  1.00  0.00    -0.200 F 
ATOM     78  F   UNL A   1      42.551  20.246  25.370  1.00  0.00    -0.200 F 
ENDBRANCH  44  68
BRANCH  56  79
ATOM     79  C   UNL A   1      47.869  26.891  31.162  1.00  0.00     0.064 A 
ATOM     80  C   UNL A   1      48.052  26.112  32.314  1.00  0.00     0.173 A 
ATOM     81  C   UNL A   1      49.002  27.212  30.399  1.00  0.00     0.173 A 
ATOM     82  F   UNL A   1      47.001  25.791  33.085  1.00  0.00    -0.203 F 
ATOM     83  C   UNL A   1      49.323  25.703  32.707  1.00  0.00     0.198 A 
ATOM     84  C   UNL A   1      50.267  26.773  30.775  1.00  0.00     0.198 A 
ATOM     85  F   UNL A   1      48.880  27.946  29.282  1.00  0.00    -0.203 F 
ATOM     86  F   UNL A   1      49.480  25.011  33.843  1.00  0.00    -0.200 F 
ATOM     87  C   UNL A   1      50.428  26.029  31.934  1.00  0.00     0.200 A 
ATOM     88  F   UNL A   1      51.333  27.076  30.021  1.00  0.00    -0.200 F 
ATOM     89  F   UNL A   1      51.651  25.633  32.314  1.00  0.00    -0.200 F 
ENDBRANCH  56  79
ENDBRANCH  30  31
ENDBRANCH  22  25
ENDBRANCH  20  21
ENDBRANCH   1  20
TORSDOF 13
ENDMDL
MODEL 3
REMARK VINA RESULT:     -11.5      4.092      9.831
REMARK SMILES CSc1nc(C2CC2)nc(C)c1C(=O)NCCCCNC(=O)c1ccc(-c2c3nc(c(-c4c(F)c(F)c(F)c(F)c4F)c4ccc([nH]4)c(-c4c(F)c(F)c(F)c(F)c4F)c4nc(c(-c5c(F)c(F)c(F)c(F)c5F)c5ccc2[nH]5)C=C4)C=C3)cc1
REMARK SMILES IDX 18 1 17 2 16 3 15 4 13 5 14 6 12 8 3 9 4 10 5 11 10 12 9 13
REMARK SMILES IDX 11 14 2 15 1 16 6 17 7 18 8 19 19 20 20 21 21 22 22 24 23 25
REMARK SMILES IDX 24 26 85 27 25 28 84 29 26 30 27 31 28 32 78 33 29 34 83 35
REMARK SMILES IDX 77 36 79 37 30 38 82 39 76 40 75 41 31 43 63 44 43 45 62 46
REMARK SMILES IDX 44 47 47 48 61 49 80 50 45 51 46 52 60 54 81 55 48 56 32 57
REMARK SMILES IDX 33 58 41 59 34 60 35 61 39 62 42 63 36 64 37 65 40 66 38 67
REMARK SMILES IDX 64 68 65 69 73 70 66 71 67 72 71 73 74 74 68 75 69 76 72 77
REMARK SMILES IDX 70 78 49 79 50 80 58 81 51 82 52 83 56 84 59 85 53 86 54 87
REMARK SMILES IDX 57 88 55 89
REMARK H PARENT 15 7 20 23 79 42 47 53
REMARK Flexibility Score: inf
ROOT
ATOM      1  C   UNL A   1      33.631  33.471  28.022  1.00  0.00     0.023 C 
ENDROOT
BRANCH   1   2
ATOM      2  C   UNL A   1      34.265  34.806  28.410  1.00  0.00     0.023 C 
BRANCH   2   3
ATOM      3  C   UNL A   1      33.693  35.454  29.683  1.00  0.00     0.116 C 
BRANCH   3   4
ATOM      4  N   UNL A   1      33.644  34.470  30.741  1.00  0.00    -0.352 N 
ATOM      5  C   UNL A   1      34.664  33.643  31.162  1.00  0.00     0.255 C 
ATOM      6  O   UNL A   1      34.395  32.450  31.283  1.00  0.00    -0.269 OA
ATOM      7  H   UNL A   1      32.786  34.380  31.216  1.00  0.00     0.163 HD
BRANCH   5   8
ATOM      8  C   UNL A   1      35.988  34.131  31.616  1.00  0.00     0.093 A 
ATOM      9  C   UNL A   1      36.091  34.636  32.917  1.00  0.00     0.113 A 
ATOM     10  N   UNL A   1      37.275  34.887  33.533  1.00  0.00    -0.225 NA
ATOM     11  C   UNL A   1      38.401  34.609  32.870  1.00  0.00     0.133 A 
ATOM     12  C   UNL A   1      37.209  33.925  30.987  1.00  0.00     0.055 A 
ATOM     13  N   UNL A   1      38.389  34.192  31.599  1.00  0.00    -0.237 NA
ATOM     14  C   UNL A   1      37.451  33.272  29.669  1.00  0.00     0.068 C 
BRANCH   9  15
ATOM     15  S   UNL A   1      34.719  34.937  34.037  1.00  0.00    -0.109 SA
ATOM     16  C   UNL A   1      34.155  36.546  33.447  1.00  0.00     0.092 C 
ENDBRANCH   9  15
BRANCH  11  17
ATOM     17  C   UNL A   1      39.740  34.614  33.562  1.00  0.00     0.058 C 
ATOM     18  C   UNL A   1      39.939  35.073  34.984  1.00  0.00     0.012 C 
ATOM     19  C   UNL A   1      39.952  33.605  34.676  1.00  0.00     0.012 C 
ENDBRANCH  11  17
ENDBRANCH   5   8
ENDBRANCH   3   4
ENDBRANCH   2   3
ENDBRANCH   1   2
BRANCH   1  20
ATOM     20  C   UNL A   1      34.648  32.365  27.788  1.00  0.00     0.116 C 
BRANCH  20  21
ATOM     21  N   UNL A   1      34.047  31.050  27.606  1.00  0.00    -0.352 N 
ATOM     22  C   UNL A   1      34.620  29.815  27.777  1.00  0.00     0.251 C 
ATOM     23  H   UNL A   1      33.105  31.047  27.321  1.00  0.00     0.163 HD
ATOM     24  O   UNL A   1      33.992  28.795  27.511  1.00  0.00    -0.269 OA
BRANCH  22  25
ATOM     25  C   UNL A   1      36.022  29.733  28.225  1.00  0.00     0.039 A 
ATOM     26  C   UNL A   1      36.276  29.341  29.540  1.00  0.00     0.014 A 
ATOM     27  C   UNL A   1      37.072  29.977  27.339  1.00  0.00     0.014 A 
ATOM     28  C   UNL A   1      37.591  29.135  29.949  1.00  0.00     0.010 A 
ATOM     29  C   UNL A   1      38.375  29.683  27.720  1.00  0.00     0.010 A 
ATOM     30  C   UNL A   1      38.646  29.268  29.030  1.00  0.00    -0.014 A 
BRANCH  30  31
ATOM     31  C   UNL A   1      40.040  28.983  29.441  1.00  0.00     0.031 A 
ATOM     32  C   UNL A   1      40.731  27.742  28.953  1.00  0.00     0.074 A 
ATOM     33  C   UNL A   1      40.665  29.827  30.284  1.00  0.00     0.049 A 
ATOM     34  N   UNL A   1      41.954  27.334  29.179  1.00  0.00    -0.248 NA
ATOM     35  C   UNL A   1      39.935  26.820  28.126  1.00  0.00     0.031 C 
ATOM     36  C   UNL A   1      40.066  31.021  30.884  1.00  0.00     0.029 A 
ATOM     37  N   UNL A   1      41.944  29.814  30.777  1.00  0.00    -0.354 N 
ATOM     38  C   UNL A   1      42.069  26.112  28.531  1.00  0.00     0.074 A 
ATOM     39  C   UNL A   1      40.775  25.809  27.962  1.00  0.00     0.031 C 
ATOM     40  C   UNL A   1      40.989  31.648  31.631  1.00  0.00     0.029 A 
ATOM     41  C   UNL A   1      42.234  30.889  31.580  1.00  0.00     0.049 A 
ATOM     42  H   UNL A   1      42.592  29.101  30.574  1.00  0.00     0.167 HD
ATOM     43  C   UNL A   1      43.165  25.331  28.394  1.00  0.00     0.037 A 
ATOM     44  C   UNL A   1      43.384  31.229  32.192  1.00  0.00     0.037 A 
ATOM     45  C   UNL A   1      44.456  25.653  28.941  1.00  0.00     0.049 A 
ATOM     46  C   UNL A   1      44.596  30.361  31.994  1.00  0.00     0.074 A 
ATOM     47  C   UNL A   1      45.648  24.962  28.813  1.00  0.00     0.029 A 
ATOM     48  N   UNL A   1      44.722  26.768  29.725  1.00  0.00    -0.354 N 
ATOM     49  N   UNL A   1      44.719  29.253  31.305  1.00  0.00    -0.248 NA
ATOM     50  C   UNL A   1      45.836  30.804  32.646  1.00  0.00     0.031 C 
ATOM     51  C   UNL A   1      46.626  25.637  29.552  1.00  0.00     0.029 A 
ATOM     52  C   UNL A   1      46.056  26.775  30.099  1.00  0.00     0.049 A 
ATOM     53  H   UNL A   1      44.061  27.452  29.976  1.00  0.00     0.167 HD
ATOM     54  C   UNL A   1      46.052  28.880  31.416  1.00  0.00     0.074 A 
ATOM     55  C   UNL A   1      46.700  29.894  32.221  1.00  0.00     0.031 C 
ATOM     56  C   UNL A   1      46.682  27.797  30.898  1.00  0.00     0.037 A 
BRANCH  43  57
ATOM     57  C   UNL A   1      43.014  24.058  27.612  1.00  0.00     0.064 A 
ATOM     58  C   UNL A   1      42.598  22.865  28.225  1.00  0.00     0.173 A 
ATOM     59  C   UNL A   1      43.262  24.034  26.232  1.00  0.00     0.173 A 
ATOM     60  F   UNL A   1      42.364  22.830  29.545  1.00  0.00    -0.203 F 
ATOM     61  C   UNL A   1      42.469  21.689  27.490  1.00  0.00     0.198 A 
ATOM     62  C   UNL A   1      43.100  22.863  25.495  1.00  0.00     0.198 A 
ATOM     63  F   UNL A   1      43.659  25.146  25.596  1.00  0.00    -0.203 F 
ATOM     64  F   UNL A   1      42.126  20.549  28.108  1.00  0.00    -0.200 F 
ATOM     65  C   UNL A   1      42.713  21.690  26.126  1.00  0.00     0.200 A 
ATOM     66  F   UNL A   1      43.326  22.868  24.174  1.00  0.00    -0.200 F 
ATOM     67  F   UNL A   1      42.582  20.559  25.419  1.00  0.00    -0.200 F 
ENDBRANCH  43  57
BRANCH  44  68
ATOM     68  C   UNL A   1      43.456  32.475  32.998  1.00  0.00     0.064 A 
ATOM     69  C   UNL A   1      43.387  32.431  34.398  1.00  0.00     0.173 A 
ATOM     70  C   UNL A   1      43.595  33.731  32.391  1.00  0.00     0.173 A 
ATOM     71  F   UNL A   1      43.237  31.253  35.023  1.00  0.00    -0.203 F 
ATOM     72  C   UNL A   1      43.428  33.597  35.158  1.00  0.00     0.198 A 
ATOM     73  C   UNL A   1      43.664  34.895  33.155  1.00  0.00     0.198 A 
ATOM     74  F   UNL A   1      43.674  33.827  31.056  1.00  0.00    -0.203 F 
ATOM     75  F   UNL A   1      43.311  33.529  36.491  1.00  0.00    -0.200 F 
ATOM     76  C   UNL A   1      43.572  34.828  34.537  1.00  0.00     0.200 A 
ATOM     77  F   UNL A   1      43.819  36.082  32.550  1.00  0.00    -0.200 F 
ATOM     78  F   UNL A   1      43.614  35.950  35.269  1.00  0.00    -0.200 F 
ENDBRANCH  44  68
BRANCH  56  79
ATOM     79  C   UNL A   1      48.154  27.675  31.162  1.00  0.00     0.064 A 
ATOM     80  C   UNL A   1      48.649  26.973  32.271  1.00  0.00     0.173 A 
ATOM     81  C   UNL A   1      49.082  28.252  30.282  1.00  0.00     0.173 A 
ATOM     82  F   UNL A   1      47.801  26.415  33.149  1.00  0.00    -0.203 F 
ATOM     83  C   UNL A   1      50.017  26.886  32.510  1.00  0.00     0.198 A 
ATOM     84  C   UNL A   1      50.451  28.135  30.506  1.00  0.00     0.198 A 
ATOM     85  F   UNL A   1      48.662  28.926  29.201  1.00  0.00    -0.203 F 
ATOM     86  F   UNL A   1      50.465  26.261  33.608  1.00  0.00    -0.200 F 
ATOM     87  C   UNL A   1      50.917  27.461  31.625  1.00  0.00     0.200 A 
ATOM     88  F   UNL A   1      51.319  28.679  29.642  1.00  0.00    -0.200 F 
ATOM     89  F   UNL A   1      52.234  27.375  31.857  1.00  0.00    -0.200 F 
ENDBRANCH  56  79
ENDBRANCH  30  31
ENDBRANCH  22  25
ENDBRANCH  20  21
ENDBRANCH   1  20
TORSDOF 13
ENDMDL
