MODEL 1
REMARK VINA RESULT:     -12.2      0.000      0.000
REMARK SMILES CC[C@H](C)c1ccccc1Oc1cccc(F)c1C(=O)NCCCCNC(=O)c1ccc(-c2c3nc(c(-c4c(F)c(F)c(F)c(F)c4F)c4ccc([nH]4)c(-c4c(F)c(F)c(F)c(F)c4F)c4nc(c(-c5c(F)c(F)c(F)c(F)c5F)c5ccc2[nH]5)C=C4)C=C3)cc1
REMARK SMILES IDX 22 1 21 2 19 3 20 4 18 6 12 7 13 8 14 9 16 10 15 11 17 12
REMARK SMILES IDX 11 13 10 14 5 15 6 16 7 17 9 18 8 19 3 20 4 21 2 22 1 23
REMARK SMILES IDX 23 24 24 25 25 26 26 27 27 28 28 30 29 31 30 32 91 33 31 34
REMARK SMILES IDX 90 35 32 36 33 37 34 38 84 39 35 40 89 41 83 42 85 43 36 44
REMARK SMILES IDX 88 45 82 46 81 47 37 49 69 50 49 51 68 52 50 53 53 54 67 55
REMARK SMILES IDX 86 56 51 57 52 58 66 60 87 61 54 62 38 63 39 64 47 65 40 66
REMARK SMILES IDX 41 67 45 68 48 69 42 70 43 71 46 72 44 73 70 74 71 75 79 76
REMARK SMILES IDX 72 77 73 78 77 79 80 80 74 81 75 82 78 83 76 84 55 85 56 86
REMARK SMILES IDX 64 87 57 88 58 89 62 90 65 91 59 92 60 93 63 94 61 95
REMARK H PARENT 21 5 26 29 85 48 53 59
REMARK Flexibility Score: inf
ROOT
ATOM      1  C   UNL A   1      37.252  23.045  25.366  1.00  0.00     0.116 C 
ENDROOT
BRANCH   1   2
ATOM      2  N   UNL A   1      36.148  23.071  26.287  1.00  0.00    -0.352 N 
ATOM      3  C   UNL A   1      34.821  23.354  26.100  1.00  0.00     0.258 C 
ATOM      4  O   UNL A   1      34.107  23.246  27.101  1.00  0.00    -0.269 OA
ATOM      5  H   UNL A   1      36.388  22.844  27.215  1.00  0.00     0.163 HD
BRANCH   3   6
ATOM      6  C   UNL A   1      34.185  23.755  24.811  1.00  0.00     0.118 A 
ATOM      7  C   UNL A   1      34.118  25.045  24.245  1.00  0.00     0.143 A 
ATOM      8  C   UNL A   1      33.582  25.223  22.952  1.00  0.00     0.048 A 
ATOM      9  C   UNL A   1      33.184  24.137  22.177  1.00  0.00     0.007 A 
ATOM     10  C   UNL A   1      33.781  22.676  23.997  1.00  0.00     0.139 A 
ATOM     11  C   UNL A   1      33.292  22.858  22.702  1.00  0.00     0.040 A 
ATOM     12  F   UNL A   1      33.831  21.412  24.445  1.00  0.00    -0.206 F 
BRANCH   7  13
ATOM     13  O   UNL A   1      34.248  26.212  24.925  1.00  0.00    -0.456 OA
BRANCH  13  14
ATOM     14  C   UNL A   1      33.323  26.918  25.651  1.00  0.00     0.130 A 
ATOM     15  C   UNL A   1      31.917  26.995  25.697  1.00  0.00    -0.002 A 
ATOM     16  C   UNL A   1      31.400  28.061  26.497  1.00  0.00     0.008 A 
ATOM     17  C   UNL A   1      32.188  28.934  27.259  1.00  0.00     0.001 A 
ATOM     18  C   UNL A   1      34.098  27.774  26.492  1.00  0.00     0.047 A 
ATOM     19  C   UNL A   1      33.551  28.773  27.281  1.00  0.00     0.004 A 
BRANCH  15  20
ATOM     20  C   UNL A   1      30.880  25.999  25.106  1.00  0.00     0.019 C 
ATOM     21  C   UNL A   1      30.120  25.164  26.163  1.00  0.00     0.013 C 
BRANCH  20  22
ATOM     22  C   UNL A   1      29.864  26.622  24.137  1.00  0.00     0.005 C 
ATOM     23  C   UNL A   1      30.353  27.364  22.900  1.00  0.00     0.004 C 
ENDBRANCH  20  22
ENDBRANCH  15  20
ENDBRANCH  13  14
ENDBRANCH   7  13
ENDBRANCH   3   6
ENDBRANCH   1   2
BRANCH   1  24
ATOM     24  C   UNL A   1      37.283  21.806  24.483  1.00  0.00     0.023 C 
BRANCH  24  25
ATOM     25  C   UNL A   1      37.856  20.545  25.135  1.00  0.00     0.023 C 
BRANCH  25  26
ATOM     26  C   UNL A   1      39.192  20.689  25.869  1.00  0.00     0.116 C 
BRANCH  26  27
ATOM     27  N   UNL A   1      40.040  19.505  25.818  1.00  0.00    -0.352 N 
ATOM     28  C   UNL A   1      41.384  19.386  26.087  1.00  0.00     0.251 C 
ATOM     29  H   UNL A   1      39.588  18.673  25.552  1.00  0.00     0.163 HD
ATOM     30  O   UNL A   1      41.947  18.300  26.000  1.00  0.00    -0.269 OA
BRANCH  28  31
ATOM     31  C   UNL A   1      42.159  20.592  26.440  1.00  0.00     0.039 A 
ATOM     32  C   UNL A   1      42.720  21.353  25.412  1.00  0.00     0.014 A 
ATOM     33  C   UNL A   1      42.259  21.008  27.770  1.00  0.00     0.014 A 
ATOM     34  C   UNL A   1      43.288  22.593  25.706  1.00  0.00     0.010 A 
ATOM     35  C   UNL A   1      42.773  22.270  28.053  1.00  0.00     0.010 A 
ATOM     36  C   UNL A   1      43.268  23.086  27.022  1.00  0.00    -0.014 A 
BRANCH  36  37
ATOM     37  C   UNL A   1      43.697  24.474  27.325  1.00  0.00     0.031 A 
ATOM     38  C   UNL A   1      42.694  25.506  27.750  1.00  0.00     0.074 A 
ATOM     39  C   UNL A   1      44.984  24.825  27.127  1.00  0.00     0.049 A 
ATOM     40  N   UNL A   1      42.871  26.780  27.992  1.00  0.00    -0.248 NA
ATOM     41  C   UNL A   1      41.301  25.055  27.893  1.00  0.00     0.031 C 
ATOM     42  C   UNL A   1      46.040  23.930  26.646  1.00  0.00     0.029 A 
ATOM     43  N   UNL A   1      45.621  26.031  27.286  1.00  0.00    -0.354 N 
ATOM     44  C   UNL A   1      41.615  27.285  28.297  1.00  0.00     0.074 A 
ATOM     45  C   UNL A   1      40.676  26.191  28.172  1.00  0.00     0.031 C 
ATOM     46  C   UNL A   1      47.192  24.615  26.559  1.00  0.00     0.029 A 
ATOM     47  C   UNL A   1      46.953  26.001  26.950  1.00  0.00     0.049 A 
ATOM     48  H   UNL A   1      45.167  26.841  27.611  1.00  0.00     0.167 HD
ATOM     49  C   UNL A   1      41.279  28.545  28.665  1.00  0.00     0.037 A 
ATOM     50  C   UNL A   1      47.877  26.982  26.949  1.00  0.00     0.037 A 
ATOM     51  C   UNL A   1      42.221  29.621  28.826  1.00  0.00     0.049 A 
ATOM     52  C   UNL A   1      47.481  28.362  27.397  1.00  0.00     0.074 A 
ATOM     53  C   UNL A   1      41.990  30.904  29.290  1.00  0.00     0.029 A 
ATOM     54  N   UNL A   1      43.571  29.541  28.523  1.00  0.00    -0.354 N 
ATOM     55  N   UNL A   1      46.308  28.802  27.783  1.00  0.00    -0.248 NA
ATOM     56  C   UNL A   1      48.539  29.383  27.418  1.00  0.00     0.031 C 
ATOM     57  C   UNL A   1      43.194  31.615  29.228  1.00  0.00     0.029 A 
ATOM     58  C   UNL A   1      44.183  30.761  28.767  1.00  0.00     0.049 A 
ATOM     59  H   UNL A   1      44.028  28.737  28.185  1.00  0.00     0.167 HD
ATOM     60  C   UNL A   1      46.491  30.136  28.117  1.00  0.00     0.074 A 
ATOM     61  C   UNL A   1      47.892  30.433  27.904  1.00  0.00     0.031 C 
ATOM     62  C   UNL A   1      45.580  31.036  28.560  1.00  0.00     0.037 A 
BRANCH  49  63
ATOM     63  C   UNL A   1      39.832  28.833  28.928  1.00  0.00     0.064 A 
ATOM     64  C   UNL A   1      38.968  29.251  27.906  1.00  0.00     0.173 A 
ATOM     65  C   UNL A   1      39.288  28.632  30.206  1.00  0.00     0.173 A 
ATOM     66  F   UNL A   1      39.439  29.468  26.669  1.00  0.00    -0.203 F 
ATOM     67  C   UNL A   1      37.617  29.477  28.157  1.00  0.00     0.198 A 
ATOM     68  C   UNL A   1      37.933  28.833  30.448  1.00  0.00     0.198 A 
ATOM     69  F   UNL A   1      40.072  28.227  31.217  1.00  0.00    -0.203 F 
ATOM     70  F   UNL A   1      36.817  29.911  27.174  1.00  0.00    -0.200 F 
ATOM     71  C   UNL A   1      37.099  29.259  29.426  1.00  0.00     0.200 A 
ATOM     72  F   UNL A   1      37.432  28.612  31.672  1.00  0.00    -0.200 F 
ATOM     73  F   UNL A   1      35.797  29.466  29.664  1.00  0.00    -0.200 F 
ENDBRANCH  49  63
BRANCH  50  74
ATOM     74  C   UNL A   1      49.273  26.694  26.527  1.00  0.00     0.064 A 
ATOM     75  C   UNL A   1      50.247  26.324  27.464  1.00  0.00     0.173 A 
ATOM     76  C   UNL A   1      49.665  26.803  25.185  1.00  0.00     0.173 A 
ATOM     77  F   UNL A   1      49.924  26.228  28.762  1.00  0.00    -0.203 F 
ATOM     78  C   UNL A   1      51.568  26.101  27.080  1.00  0.00     0.198 A 
ATOM     79  C   UNL A   1      50.979  26.552  24.797  1.00  0.00     0.198 A 
ATOM     80  F   UNL A   1      48.769  27.148  24.249  1.00  0.00    -0.203 F 
ATOM     81  F   UNL A   1      52.490  25.801  28.003  1.00  0.00    -0.200 F 
ATOM     82  C   UNL A   1      51.932  26.211  25.747  1.00  0.00     0.200 A 
ATOM     83  F   UNL A   1      51.326  26.648  23.507  1.00  0.00    -0.200 F 
ATOM     84  F   UNL A   1      53.202  25.999  25.378  1.00  0.00    -0.200 F 
ENDBRANCH  50  74
BRANCH  62  85
ATOM     85  C   UNL A   1      46.073  32.418  28.872  1.00  0.00     0.064 A 
ATOM     86  C   UNL A   1      46.059  33.438  27.909  1.00  0.00     0.173 A 
ATOM     87  C   UNL A   1      46.525  32.736  30.163  1.00  0.00     0.173 A 
ATOM     88  F   UNL A   1      45.652  33.178  26.658  1.00  0.00    -0.203 F 
ATOM     89  C   UNL A   1      46.499  34.721  28.222  1.00  0.00     0.198 A 
ATOM     90  C   UNL A   1      46.937  34.027  30.479  1.00  0.00     0.198 A 
ATOM     91  F   UNL A   1      46.552  31.796  31.120  1.00  0.00    -0.203 F 
ATOM     92  F   UNL A   1      46.517  35.670  27.275  1.00  0.00    -0.200 F 
ATOM     93  C   UNL A   1      46.930  35.017  29.507  1.00  0.00     0.200 A 
ATOM     94  F   UNL A   1      47.341  34.314  31.723  1.00  0.00    -0.200 F 
ATOM     95  F   UNL A   1      47.345  36.255  29.808  1.00  0.00    -0.200 F 
ENDBRANCH  62  85
ENDBRANCH  36  37
ENDBRANCH  28  31
ENDBRANCH  26  27
ENDBRANCH  25  26
ENDBRANCH  24  25
ENDBRANCH   1  24
TORSDOF 15
ENDMDL
MODEL 2
REMARK VINA RESULT:     -12.1      0.699      7.245
REMARK SMILES CC[C@H](C)c1ccccc1Oc1cccc(F)c1C(=O)NCCCCNC(=O)c1ccc(-c2c3nc(c(-c4c(F)c(F)c(F)c(F)c4F)c4ccc([nH]4)c(-c4c(F)c(F)c(F)c(F)c4F)c4nc(c(-c5c(F)c(F)c(F)c(F)c5F)c5ccc2[nH]5)C=C4)C=C3)cc1
REMARK SMILES IDX 22 1 21 2 19 3 20 4 18 6 12 7 13 8 14 9 16 10 15 11 17 12
REMARK SMILES IDX 11 13 10 14 5 15 6 16 7 17 9 18 8 19 3 20 4 21 2 22 1 23
REMARK SMILES IDX 23 24 24 25 25 26 26 27 27 28 28 30 29 31 30 32 91 33 31 34
REMARK SMILES IDX 90 35 32 36 33 37 34 38 84 39 35 40 89 41 83 42 85 43 36 44
REMARK SMILES IDX 88 45 82 46 81 47 37 49 69 50 49 51 68 52 50 53 53 54 67 55
REMARK SMILES IDX 86 56 51 57 52 58 66 60 87 61 54 62 38 63 39 64 47 65 40 66
REMARK SMILES IDX 41 67 45 68 48 69 42 70 43 71 46 72 44 73 70 74 71 75 79 76
REMARK SMILES IDX 72 77 73 78 77 79 80 80 74 81 75 82 78 83 76 84 55 85 56 86
REMARK SMILES IDX 64 87 57 88 58 89 62 90 65 91 59 92 60 93 63 94 61 95
REMARK H PARENT 21 5 26 29 85 48 53 59
REMARK Flexibility Score: inf
ROOT
ATOM      1  C   UNL A   1      37.221  23.011  25.171  1.00  0.00     0.116 C 
ENDROOT
BRANCH   1   2
ATOM      2  N   UNL A   1      36.125  23.061  26.101  1.00  0.00    -0.352 N 
ATOM      3  C   UNL A   1      34.799  23.353  25.920  1.00  0.00     0.258 C 
ATOM      4  O   UNL A   1      34.092  23.267  26.928  1.00  0.00    -0.269 OA
ATOM      5  H   UNL A   1      36.370  22.848  27.030  1.00  0.00     0.163 HD
BRANCH   3   6
ATOM      6  C   UNL A   1      34.156  23.738  24.629  1.00  0.00     0.118 A 
ATOM      7  C   UNL A   1      34.043  25.028  24.071  1.00  0.00     0.143 A 
ATOM      8  C   UNL A   1      33.509  25.194  22.776  1.00  0.00     0.048 A 
ATOM      9  C   UNL A   1      33.156  24.099  21.991  1.00  0.00     0.007 A 
ATOM     10  C   UNL A   1      33.798  22.650  23.805  1.00  0.00     0.139 A 
ATOM     11  C   UNL A   1      33.310  22.822  22.509  1.00  0.00     0.040 A 
ATOM     12  F   UNL A   1      33.893  21.385  24.246  1.00  0.00    -0.206 F 
BRANCH   7  13
ATOM     13  O   UNL A   1      34.125  26.194  24.759  1.00  0.00    -0.456 OA
BRANCH  13  14
ATOM     14  C   UNL A   1      33.240  26.763  25.638  1.00  0.00     0.130 A 
ATOM     15  C   UNL A   1      31.856  26.669  25.886  1.00  0.00    -0.002 A 
ATOM     16  C   UNL A   1      31.340  27.643  26.797  1.00  0.00     0.008 A 
ATOM     17  C   UNL A   1      32.124  28.584  27.478  1.00  0.00     0.001 A 
ATOM     18  C   UNL A   1      34.024  27.685  26.398  1.00  0.00     0.047 A 
ATOM     19  C   UNL A   1      33.486  28.589  27.300  1.00  0.00     0.004 A 
BRANCH  15  20
ATOM     20  C   UNL A   1      30.867  25.571  25.404  1.00  0.00     0.019 C 
ATOM     21  C   UNL A   1      30.526  24.503  26.471  1.00  0.00     0.013 C 
BRANCH  20  22
ATOM     22  C   UNL A   1      29.561  26.100  24.792  1.00  0.00     0.005 C 
ATOM     23  C   UNL A   1      29.612  27.080  23.628  1.00  0.00     0.004 C 
ENDBRANCH  20  22
ENDBRANCH  15  20
ENDBRANCH  13  14
ENDBRANCH   7  13
ENDBRANCH   3   6
ENDBRANCH   1   2
BRANCH   1  24
ATOM     24  C   UNL A   1      37.270  21.729  24.351  1.00  0.00     0.023 C 
BRANCH  24  25
ATOM     25  C   UNL A   1      37.832  20.504  25.076  1.00  0.00     0.023 C 
BRANCH  25  26
ATOM     26  C   UNL A   1      39.133  20.698  25.861  1.00  0.00     0.116 C 
BRANCH  26  27
ATOM     27  N   UNL A   1      40.033  19.553  25.831  1.00  0.00    -0.352 N 
ATOM     28  C   UNL A   1      41.377  19.496  26.120  1.00  0.00     0.251 C 
ATOM     29  H   UNL A   1      39.622  18.699  25.567  1.00  0.00     0.163 HD
ATOM     30  O   UNL A   1      41.990  18.435  26.049  1.00  0.00    -0.269 OA
BRANCH  28  31
ATOM     31  C   UNL A   1      42.093  20.738  26.471  1.00  0.00     0.039 A 
ATOM     32  C   UNL A   1      42.528  21.576  25.442  1.00  0.00     0.014 A 
ATOM     33  C   UNL A   1      42.261  21.107  27.808  1.00  0.00     0.014 A 
ATOM     34  C   UNL A   1      43.031  22.841  25.751  1.00  0.00     0.010 A 
ATOM     35  C   UNL A   1      42.708  22.390  28.111  1.00  0.00     0.010 A 
ATOM     36  C   UNL A   1      43.072  23.278  27.086  1.00  0.00    -0.014 A 
BRANCH  36  37
ATOM     37  C   UNL A   1      43.428  24.681  27.419  1.00  0.00     0.031 A 
ATOM     38  C   UNL A   1      44.865  25.113  27.460  1.00  0.00     0.074 A 
ATOM     39  C   UNL A   1      42.453  25.542  27.775  1.00  0.00     0.049 A 
ATOM     40  N   UNL A   1      45.369  26.273  27.793  1.00  0.00    -0.248 NA
ATOM     41  C   UNL A   1      45.871  24.099  27.109  1.00  0.00     0.031 C 
ATOM     42  C   UNL A   1      41.025  25.221  27.844  1.00  0.00     0.029 A 
ATOM     43  N   UNL A   1      42.515  26.857  28.163  1.00  0.00    -0.354 N 
ATOM     44  C   UNL A   1      46.746  26.125  27.711  1.00  0.00     0.074 A 
ATOM     45  C   UNL A   1      47.003  24.752  27.334  1.00  0.00     0.031 C 
ATOM     46  C   UNL A   1      40.348  26.311  28.241  1.00  0.00     0.029 A 
ATOM     47  C   UNL A   1      41.292  27.397  28.480  1.00  0.00     0.049 A 
ATOM     48  H   UNL A   1      43.356  27.367  28.209  1.00  0.00     0.167 HD
ATOM     49  C   UNL A   1      47.709  27.056  27.915  1.00  0.00     0.037 A 
ATOM     50  C   UNL A   1      40.968  28.629  28.922  1.00  0.00     0.037 A 
ATOM     51  C   UNL A   1      47.448  28.431  28.252  1.00  0.00     0.049 A 
ATOM     52  C   UNL A   1      42.056  29.652  29.105  1.00  0.00     0.074 A 
ATOM     53  C   UNL A   1      48.351  29.472  28.380  1.00  0.00     0.029 A 
ATOM     54  N   UNL A   1      46.193  28.955  28.518  1.00  0.00    -0.354 N 
ATOM     55  N   UNL A   1      43.348  29.527  28.921  1.00  0.00    -0.248 NA
ATOM     56  C   UNL A   1      41.640  30.991  29.546  1.00  0.00     0.031 C 
ATOM     57  C   UNL A   1      47.647  30.617  28.767  1.00  0.00     0.029 A 
ATOM     58  C   UNL A   1      46.300  30.301  28.835  1.00  0.00     0.049 A 
ATOM     59  H   UNL A   1      45.350  28.448  28.485  1.00  0.00     0.167 HD
ATOM     60  C   UNL A   1      43.895  30.772  29.199  1.00  0.00     0.074 A 
ATOM     61  C   UNL A   1      42.794  31.645  29.546  1.00  0.00     0.031 C 
ATOM     62  C   UNL A   1      45.193  31.158  29.168  1.00  0.00     0.037 A 
BRANCH  49  63
ATOM     63  C   UNL A   1      49.137  26.627  27.772  1.00  0.00     0.064 A 
ATOM     64  C   UNL A   1      49.754  26.528  26.516  1.00  0.00     0.173 A 
ATOM     65  C   UNL A   1      49.918  26.368  28.910  1.00  0.00     0.173 A 
ATOM     66  F   UNL A   1      49.048  26.754  25.398  1.00  0.00    -0.203 F 
ATOM     67  C   UNL A   1      51.093  26.165  26.402  1.00  0.00     0.198 A 
ATOM     68  C   UNL A   1      51.263  26.032  28.793  1.00  0.00     0.198 A 
ATOM     69  F   UNL A   1      49.377  26.455  30.134  1.00  0.00    -0.203 F 
ATOM     70  F   UNL A   1      51.651  26.041  25.191  1.00  0.00    -0.200 F 
ATOM     71  C   UNL A   1      51.849  25.926  27.541  1.00  0.00     0.200 A 
ATOM     72  F   UNL A   1      51.996  25.812  29.895  1.00  0.00    -0.200 F 
ATOM     73  F   UNL A   1      53.141  25.589  27.430  1.00  0.00    -0.200 F 
ENDBRANCH  49  63
BRANCH  50  74
ATOM     74  C   UNL A   1      39.550  28.972  29.207  1.00  0.00     0.064 A 
ATOM     75  C   UNL A   1      39.028  28.861  30.502  1.00  0.00     0.173 A 
ATOM     76  C   UNL A   1      38.684  29.394  28.188  1.00  0.00     0.173 A 
ATOM     77  F   UNL A   1      39.812  28.440  31.506  1.00  0.00    -0.203 F 
ATOM     78  C   UNL A   1      37.687  29.135  30.765  1.00  0.00     0.198 A 
ATOM     79  C   UNL A   1      37.351  29.695  28.455  1.00  0.00     0.198 A 
ATOM     80  F   UNL A   1      39.137  29.521  26.932  1.00  0.00    -0.203 F 
ATOM     81  F   UNL A   1      37.202  28.971  32.002  1.00  0.00    -0.200 F 
ATOM     82  C   UNL A   1      36.851  29.555  29.742  1.00  0.00     0.200 A 
ATOM     83  F   UNL A   1      36.548  30.112  27.468  1.00  0.00    -0.200 F 
ATOM     84  F   UNL A   1      35.561  29.816  29.993  1.00  0.00    -0.200 F 
ENDBRANCH  50  74
BRANCH  62  85
ATOM     85  C   UNL A   1      45.493  32.592  29.491  1.00  0.00     0.064 A 
ATOM     86  C   UNL A   1      45.814  32.999  30.795  1.00  0.00     0.173 A 
ATOM     87  C   UNL A   1      45.501  33.561  28.477  1.00  0.00     0.173 A 
ATOM     88  F   UNL A   1      45.803  32.111  31.801  1.00  0.00    -0.203 F 
ATOM     89  C   UNL A   1      46.113  34.330  31.074  1.00  0.00     0.198 A 
ATOM     90  C   UNL A   1      45.828  34.885  28.755  1.00  0.00     0.198 A 
ATOM     91  F   UNL A   1      45.207  33.220  27.213  1.00  0.00    -0.203 F 
ATOM     92  F   UNL A   1      46.375  34.705  32.333  1.00  0.00    -0.200 F 
ATOM     93  C   UNL A   1      46.127  35.270  30.053  1.00  0.00     0.200 A 
ATOM     94  F   UNL A   1      45.853  35.789  27.766  1.00  0.00    -0.200 F 
ATOM     95  F   UNL A   1      46.422  36.549  30.323  1.00  0.00    -0.200 F 
ENDBRANCH  62  85
ENDBRANCH  36  37
ENDBRANCH  28  31
ENDBRANCH  26  27
ENDBRANCH  25  26
ENDBRANCH  24  25
ENDBRANCH   1  24
TORSDOF 15
ENDMDL
MODEL 3
REMARK VINA RESULT:     -12.0      5.574     10.814
REMARK SMILES CC[C@H](C)c1ccccc1Oc1cccc(F)c1C(=O)NCCCCNC(=O)c1ccc(-c2c3nc(c(-c4c(F)c(F)c(F)c(F)c4F)c4ccc([nH]4)c(-c4c(F)c(F)c(F)c(F)c4F)c4nc(c(-c5c(F)c(F)c(F)c(F)c5F)c5ccc2[nH]5)C=C4)C=C3)cc1
REMARK SMILES IDX 22 1 21 2 19 3 20 4 18 6 12 7 13 8 14 9 16 10 15 11 17 12
REMARK SMILES IDX 11 13 10 14 5 15 6 16 7 17 9 18 8 19 3 20 4 21 2 22 1 23
REMARK SMILES IDX 23 24 24 25 25 26 26 27 27 28 28 30 29 31 30 32 91 33 31 34
REMARK SMILES IDX 90 35 32 36 33 37 34 38 84 39 35 40 89 41 83 42 85 43 36 44
REMARK SMILES IDX 88 45 82 46 81 47 37 49 69 50 49 51 68 52 50 53 53 54 67 55
REMARK SMILES IDX 86 56 51 57 52 58 66 60 87 61 54 62 38 63 39 64 47 65 40 66
REMARK SMILES IDX 41 67 45 68 48 69 42 70 43 71 46 72 44 73 70 74 71 75 79 76
REMARK SMILES IDX 72 77 73 78 77 79 80 80 74 81 75 82 78 83 76 84 55 85 56 86
REMARK SMILES IDX 64 87 57 88 58 89 62 90 65 91 59 92 60 93 63 94 61 95
REMARK H PARENT 21 5 26 29 85 48 53 59
REMARK Flexibility Score: inf
ROOT
ATOM      1  C   UNL A   1      33.369  29.639  26.190  1.00  0.00     0.116 C 
ENDROOT
BRANCH   1   2
ATOM      2  N   UNL A   1      33.807  28.973  24.993  1.00  0.00    -0.352 N 
ATOM      3  C   UNL A   1      33.481  27.750  24.469  1.00  0.00     0.258 C 
ATOM      4  O   UNL A   1      34.005  27.479  23.385  1.00  0.00    -0.269 OA
ATOM      5  H   UNL A   1      34.454  29.485  24.457  1.00  0.00     0.163 HD
BRANCH   3   6
ATOM      6  C   UNL A   1      32.553  26.755  25.082  1.00  0.00     0.118 A 
ATOM      7  C   UNL A   1      32.880  25.667  25.917  1.00  0.00     0.143 A 
ATOM      8  C   UNL A   1      31.857  24.897  26.509  1.00  0.00     0.048 A 
ATOM      9  C   UNL A   1      30.515  25.231  26.351  1.00  0.00     0.007 A 
ATOM     10  C   UNL A   1      31.184  27.071  24.949  1.00  0.00     0.139 A 
ATOM     11  C   UNL A   1      30.180  26.329  25.573  1.00  0.00     0.040 A 
ATOM     12  F   UNL A   1      30.781  28.103  24.190  1.00  0.00    -0.206 F 
BRANCH   7  13
ATOM     13  O   UNL A   1      34.098  25.076  26.000  1.00  0.00    -0.456 OA
BRANCH  13  14
ATOM     14  C   UNL A   1      34.794  24.355  25.063  1.00  0.00     0.130 A 
ATOM     15  C   UNL A   1      34.486  23.710  23.849  1.00  0.00    -0.002 A 
ATOM     16  C   UNL A   1      35.532  22.888  23.322  1.00  0.00     0.008 A 
ATOM     17  C   UNL A   1      36.807  22.768  23.891  1.00  0.00     0.001 A 
ATOM     18  C   UNL A   1      36.123  24.270  25.582  1.00  0.00     0.047 A 
ATOM     19  C   UNL A   1      37.118  23.489  25.018  1.00  0.00     0.004 A 
BRANCH  15  20
ATOM     20  C   UNL A   1      33.224  23.887  22.959  1.00  0.00     0.019 C 
ATOM     21  C   UNL A   1      33.449  23.579  21.459  1.00  0.00     0.013 C 
BRANCH  20  22
ATOM     22  C   UNL A   1      31.979  23.130  23.443  1.00  0.00     0.005 C 
ATOM     23  C   UNL A   1      30.592  23.684  23.145  1.00  0.00     0.004 C 
ENDBRANCH  20  22
ENDBRANCH  15  20
ENDBRANCH  13  14
ENDBRANCH   7  13
ENDBRANCH   3   6
ENDBRANCH   1   2
BRANCH   1  24
ATOM     24  C   UNL A   1      32.103  30.464  26.002  1.00  0.00     0.023 C 
BRANCH  24  25
ATOM     25  C   UNL A   1      31.838  31.519  27.079  1.00  0.00     0.023 C 
BRANCH  25  26
ATOM     26  C   UNL A   1      32.940  32.553  27.325  1.00  0.00     0.116 C 
BRANCH  26  27
ATOM     27  N   UNL A   1      32.455  33.894  27.622  1.00  0.00    -0.352 N 
ATOM     28  C   UNL A   1      32.976  34.839  28.476  1.00  0.00     0.251 C 
ATOM     29  H   UNL A   1      31.638  34.164  27.145  1.00  0.00     0.163 HD
ATOM     30  O   UNL A   1      32.439  35.934  28.605  1.00  0.00    -0.269 OA
BRANCH  28  31
ATOM     31  C   UNL A   1      34.170  34.505  29.278  1.00  0.00     0.039 A 
ATOM     32  C   UNL A   1      33.991  34.002  30.569  1.00  0.00     0.014 A 
ATOM     33  C   UNL A   1      35.449  34.614  28.728  1.00  0.00     0.014 A 
ATOM     34  C   UNL A   1      35.090  33.501  31.270  1.00  0.00     0.010 A 
ATOM     35  C   UNL A   1      36.533  34.061  29.404  1.00  0.00     0.010 A 
ATOM     36  C   UNL A   1      36.360  33.476  30.669  1.00  0.00    -0.014 A 
BRANCH  36  37
ATOM     37  C   UNL A   1      37.499  32.782  31.320  1.00  0.00     0.031 A 
ATOM     38  C   UNL A   1      38.143  31.594  30.666  1.00  0.00     0.074 A 
ATOM     39  C   UNL A   1      37.894  33.172  32.549  1.00  0.00     0.049 A 
ATOM     40  N   UNL A   1      39.102  30.824  31.112  1.00  0.00    -0.248 NA
ATOM     41  C   UNL A   1      37.620  31.201  29.348  1.00  0.00     0.031 C 
ATOM     42  C   UNL A   1      37.299  34.266  33.320  1.00  0.00     0.029 A 
ATOM     43  N   UNL A   1      38.875  32.681  33.375  1.00  0.00    -0.354 N 
ATOM     44  C   UNL A   1      39.284  29.847  30.143  1.00  0.00     0.074 A 
ATOM     45  C   UNL A   1      38.311  30.097  29.102  1.00  0.00     0.031 C 
ATOM     46  C   UNL A   1      37.933  34.369  34.500  1.00  0.00     0.029 A 
ATOM     47  C   UNL A   1      38.958  33.333  34.582  1.00  0.00     0.049 A 
ATOM     48  H   UNL A   1      39.464  31.933  33.127  1.00  0.00     0.167 HD
ATOM     49  C   UNL A   1      40.193  28.843  30.118  1.00  0.00     0.037 A 
ATOM     50  C   UNL A   1      39.764  33.116  35.639  1.00  0.00     0.037 A 
ATOM     51  C   UNL A   1      41.185  28.621  31.138  1.00  0.00     0.049 A 
ATOM     52  C   UNL A   1      40.788  32.016  35.567  1.00  0.00     0.074 A 
ATOM     53  C   UNL A   1      42.211  27.694  31.153  1.00  0.00     0.029 A 
ATOM     54  N   UNL A   1      41.271  29.333  32.324  1.00  0.00    -0.354 N 
ATOM     55  N   UNL A   1      41.020  31.164  34.598  1.00  0.00    -0.248 NA
ATOM     56  C   UNL A   1      41.671  31.853  36.731  1.00  0.00     0.031 C 
ATOM     57  C   UNL A   1      42.893  27.815  32.369  1.00  0.00     0.029 A 
ATOM     58  C   UNL A   1      42.319  28.848  33.091  1.00  0.00     0.049 A 
ATOM     59  H   UNL A   1      40.676  30.074  32.584  1.00  0.00     0.167 HD
ATOM     60  C   UNL A   1      42.086  30.384  35.022  1.00  0.00     0.074 A 
ATOM     61  C   UNL A   1      42.469  30.873  36.330  1.00  0.00     0.031 C 
ATOM     62  C   UNL A   1      42.693  29.353  34.386  1.00  0.00     0.037 A 
BRANCH  49  63
ATOM     63  C   UNL A   1      40.168  27.907  28.948  1.00  0.00     0.064 A 
ATOM     64  C   UNL A   1      40.873  28.187  27.768  1.00  0.00     0.173 A 
ATOM     65  C   UNL A   1      39.479  26.687  29.028  1.00  0.00     0.173 A 
ATOM     66  F   UNL A   1      41.539  29.344  27.637  1.00  0.00    -0.203 F 
ATOM     67  C   UNL A   1      40.872  27.289  26.704  1.00  0.00     0.198 A 
ATOM     68  C   UNL A   1      39.502  25.781  27.973  1.00  0.00     0.198 A 
ATOM     69  F   UNL A   1      38.794  26.371  30.138  1.00  0.00    -0.203 F 
ATOM     70  F   UNL A   1      41.522  27.593  25.573  1.00  0.00    -0.200 F 
ATOM     71  C   UNL A   1      40.195  26.084  26.810  1.00  0.00     0.200 A 
ATOM     72  F   UNL A   1      38.856  24.611  28.081  1.00  0.00    -0.200 F 
ATOM     73  F   UNL A   1      40.204  25.215  25.790  1.00  0.00    -0.200 F 
ENDBRANCH  49  63
BRANCH  50  74
ATOM     74  C   UNL A   1      39.652  33.968  36.852  1.00  0.00     0.064 A 
ATOM     75  C   UNL A   1      40.346  35.181  36.948  1.00  0.00     0.173 A 
ATOM     76  C   UNL A   1      38.868  33.576  37.947  1.00  0.00     0.173 A 
ATOM     77  F   UNL A   1      41.126  35.587  35.935  1.00  0.00    -0.203 F 
ATOM     78  C   UNL A   1      40.282  35.959  38.103  1.00  0.00     0.198 A 
ATOM     79  C   UNL A   1      38.782  34.367  39.090  1.00  0.00     0.198 A 
ATOM     80  F   UNL A   1      38.180  32.425  37.903  1.00  0.00    -0.203 F 
ATOM     81  F   UNL A   1      40.997  37.088  38.188  1.00  0.00    -0.200 F 
ATOM     82  C   UNL A   1      39.497  35.553  39.171  1.00  0.00     0.200 A 
ATOM     83  F   UNL A   1      38.014  33.978  40.117  1.00  0.00    -0.200 F 
ATOM     84  F   UNL A   1      39.438  36.299  40.282  1.00  0.00    -0.200 F 
ENDBRANCH  50  74
BRANCH  62  85
ATOM     85  C   UNL A   1      43.854  28.704  35.080  1.00  0.00     0.064 A 
ATOM     86  C   UNL A   1      43.674  27.622  35.955  1.00  0.00     0.173 A 
ATOM     87  C   UNL A   1      45.164  29.141  34.832  1.00  0.00     0.173 A 
ATOM     88  F   UNL A   1      42.439  27.180  36.236  1.00  0.00    -0.203 F 
ATOM     89  C   UNL A   1      44.764  27.016  36.573  1.00  0.00     0.198 A 
ATOM     90  C   UNL A   1      46.253  28.514  35.430  1.00  0.00     0.198 A 
ATOM     91  F   UNL A   1      45.388  30.168  33.998  1.00  0.00    -0.203 F 
ATOM     92  F   UNL A   1      44.567  26.012  37.439  1.00  0.00    -0.200 F 
ATOM     93  C   UNL A   1      46.052  27.457  36.305  1.00  0.00     0.200 A 
ATOM     94  F   UNL A   1      47.497  28.933  35.161  1.00  0.00    -0.200 F 
ATOM     95  F   UNL A   1      47.100  26.866  36.895  1.00  0.00    -0.200 F 
ENDBRANCH  62  85
ENDBRANCH  36  37
ENDBRANCH  28  31
ENDBRANCH  26  27
ENDBRANCH  25  26
ENDBRANCH  24  25
ENDBRANCH   1  24
TORSDOF 15
ENDMDL
