MODEL 1
REMARK VINA RESULT:     -13.3      0.000      0.000
REMARK SMILES O=C(NCCCCNC(=O)c1ccc(-c2c3nc(c(-c4c(F)c(F)c(F)c(F)c4F)c4ccc([nH]4)c(-c4c(F)c(F)c(F)c(F)c4F)c4nc(c(-c5c(F)c(F)c(F)c(F)c5F)c5ccc2[nH]5)C=C4)C=C3)cc1)c1ccc(/C=C/c2ccnc(-c3cccc([N+](=O)[O-])c3)[n+]2[O-])cc1
REMARK SMILES IDX 4 1 3 2 1 3 2 4 74 6 75 7 97 8 76 9 96 10 77 11 78 12 79 13
REMARK SMILES IDX 80 14 81 15 94 16 82 17 84 18 95 19 83 20 85 21 86 22 93 23
REMARK SMILES IDX 87 24 89 25 88 26 90 27 91 28 92 29 5 30 6 31 7 32 8 33 9 34
REMARK SMILES IDX 10 36 11 37 12 38 73 39 13 40 72 41 14 42 15 43 16 44 66 45
REMARK SMILES IDX 17 46 71 47 65 48 67 49 18 50 70 51 64 52 63 53 19 55 51 56
REMARK SMILES IDX 31 57 50 58 32 59 35 60 49 61 68 62 33 63 34 64 48 66 69 67
REMARK SMILES IDX 36 68 20 69 21 70 29 71 22 72 23 73 27 74 30 75 24 76 25 77
REMARK SMILES IDX 28 78 26 79 52 80 53 81 61 82 54 83 55 84 59 85 62 86 56 87
REMARK SMILES IDX 57 88 60 89 58 90 37 91 38 92 46 93 39 94 40 95 44 96 47 97
REMARK SMILES IDX 41 98 42 99 45 100 43 101
REMARK H PARENT 3 5 8 35 67 54 35 65
REMARK Flexibility Score: inf
ROOT
ATOM      1  C   UNL A   1      38.968  21.687  25.740  1.00  0.00     0.116 C 
ENDROOT
BRANCH   1   2
ATOM      2  N   UNL A   1      38.192  20.545  25.281  1.00  0.00    -0.352 N 
ATOM      3  O   UNL A   1      36.309  19.401  24.764  1.00  0.00    -0.269 OA
ATOM      4  C   UNL A   1      36.845  20.474  25.021  1.00  0.00     0.251 C 
ATOM      5  H   UNL A   1      38.699  19.713  25.137  1.00  0.00     0.163 HD
BRANCH   4   6
ATOM      6  C   UNL A   1      36.041  21.709  25.075  1.00  0.00     0.039 A 
ATOM      7  C   UNL A   1      36.011  22.577  23.983  1.00  0.00     0.014 A 
ATOM      8  C   UNL A   1      35.344  22.016  26.242  1.00  0.00     0.014 A 
ATOM      9  C   UNL A   1      35.354  23.804  24.092  1.00  0.00     0.009 A 
ATOM     10  C   UNL A   1      34.683  23.243  26.343  1.00  0.00     0.009 A 
ATOM     11  C   UNL A   1      34.705  24.166  25.283  1.00  0.00    -0.025 A 
BRANCH  11  12
ATOM     12  C   UNL A   1      34.043  25.469  25.474  1.00  0.00     0.012 C 
ATOM     13  C   UNL A   1      33.652  26.298  24.492  1.00  0.00     0.053 C 
BRANCH  13  14
ATOM     14  C   UNL A   1      32.987  27.588  24.735  1.00  0.00     0.134 A 
ATOM     15  C   UNL A   1      33.498  28.415  25.738  1.00  0.00     0.100 A 
ATOM     16  N   UNL A   1      31.846  27.973  24.009  1.00  0.00    -0.228 N 
ATOM     17  C   UNL A   1      32.879  29.620  25.959  1.00  0.00     0.259 A 
ATOM     18  C   UNL A   1      31.266  29.206  24.319  1.00  0.00     0.333 A 
ATOM     19  O   UNL A   1      31.349  27.211  23.107  1.00  0.00    -0.710 OA
ATOM     20  N   UNL A   1      31.797  30.032  25.276  1.00  0.00    -0.049 NA
BRANCH  18  21
ATOM     21  C   UNL A   1      30.025  29.646  23.679  1.00  0.00     0.076 A 
ATOM     22  C   UNL A   1      29.039  28.717  23.300  1.00  0.00     0.017 A 
ATOM     23  C   UNL A   1      29.806  31.004  23.386  1.00  0.00     0.102 A 
ATOM     24  C   UNL A   1      27.861  29.126  22.668  1.00  0.00     0.008 A 
ATOM     25  C   UNL A   1      28.632  31.410  22.737  1.00  0.00     0.270 A 
ATOM     26  C   UNL A   1      27.653  30.475  22.382  1.00  0.00     0.085 A 
BRANCH  25  27
ATOM     27  N   UNL A   1      28.439  32.827  22.407  1.00  0.00     0.062 N 
ATOM     28  O   UNL A   1      29.001  33.667  23.124  1.00  0.00    -0.258 OA
ATOM     29  O   UNL A   1      27.709  33.101  21.443  1.00  0.00    -0.258 OA
ENDBRANCH  25  27
ENDBRANCH  18  21
ENDBRANCH  13  14
ENDBRANCH  11  12
ENDBRANCH   4   6
ENDBRANCH   1   2
BRANCH   1  30
ATOM     30  C   UNL A   1      40.311  21.281  26.340  1.00  0.00     0.023 C 
BRANCH  30  31
ATOM     31  C   UNL A   1      40.710  19.823  26.122  1.00  0.00     0.023 C 
BRANCH  31  32
ATOM     32  C   UNL A   1      42.105  19.444  26.604  1.00  0.00     0.116 C 
BRANCH  32  33
ATOM     33  N   UNL A   1      42.949  18.898  25.553  1.00  0.00    -0.352 N 
ATOM     34  C   UNL A   1      43.924  19.515  24.805  1.00  0.00     0.251 C 
ATOM     35  H   UNL A   1      42.802  17.946  25.349  1.00  0.00     0.163 HD
ATOM     36  O   UNL A   1      44.465  18.916  23.881  1.00  0.00    -0.269 OA
BRANCH  34  37
ATOM     37  C   UNL A   1      44.293  20.920  25.086  1.00  0.00     0.039 A 
ATOM     38  C   UNL A   1      43.795  21.924  24.253  1.00  0.00     0.014 A 
ATOM     39  C   UNL A   1      45.111  21.248  26.169  1.00  0.00     0.014 A 
ATOM     40  C   UNL A   1      44.050  23.265  24.552  1.00  0.00     0.010 A 
ATOM     41  C   UNL A   1      45.305  22.585  26.509  1.00  0.00     0.010 A 
ATOM     42  C   UNL A   1      44.773  23.606  25.708  1.00  0.00    -0.014 A 
BRANCH  42  43
ATOM     43  C   UNL A   1      44.969  25.024  26.102  1.00  0.00     0.031 A 
ATOM     44  C   UNL A   1      46.327  25.658  25.993  1.00  0.00     0.074 A 
ATOM     45  C   UNL A   1      43.943  25.717  26.632  1.00  0.00     0.049 A 
ATOM     46  N   UNL A   1      46.718  26.851  26.368  1.00  0.00    -0.248 NA
ATOM     47  C   UNL A   1      47.396  24.833  25.410  1.00  0.00     0.031 C 
ATOM     48  C   UNL A   1      42.590  25.199  26.841  1.00  0.00     0.029 A 
ATOM     49  N   UNL A   1      43.882  27.004  27.107  1.00  0.00    -0.354 N 
ATOM     50  C   UNL A   1      48.075  26.911  26.086  1.00  0.00     0.074 A 
ATOM     51  C   UNL A   1      48.454  25.620  25.551  1.00  0.00     0.031 C 
ATOM     52  C   UNL A   1      41.830  26.161  27.386  1.00  0.00     0.029 A 
ATOM     53  C   UNL A   1      42.647  27.352  27.599  1.00  0.00     0.049 A 
ATOM     54  H   UNL A   1      44.651  27.619  27.097  1.00  0.00     0.167 HD
ATOM     55  C   UNL A   1      48.926  27.954  26.240  1.00  0.00     0.037 A 
ATOM     56  C   UNL A   1      42.224  28.498  28.163  1.00  0.00     0.037 A 
ATOM     57  C   UNL A   1      48.541  29.247  26.741  1.00  0.00     0.049 A 
ATOM     58  C   UNL A   1      43.185  29.648  28.308  1.00  0.00     0.074 A 
ATOM     59  C   UNL A   1      49.315  30.387  26.868  1.00  0.00     0.029 A 
ATOM     60  N   UNL A   1      47.273  29.571  27.197  1.00  0.00    -0.354 N 
ATOM     61  N   UNL A   1      44.450  29.713  27.975  1.00  0.00    -0.248 NA
ATOM     62  C   UNL A   1      42.655  30.884  28.902  1.00  0.00     0.031 C 
ATOM     63  C   UNL A   1      48.525  31.391  27.438  1.00  0.00     0.029 A 
ATOM     64  C   UNL A   1      47.247  30.890  27.624  1.00  0.00     0.049 A 
ATOM     65  H   UNL A   1      46.504  28.957  27.215  1.00  0.00     0.167 HD
ATOM     66  C   UNL A   1      44.862  31.001  28.293  1.00  0.00     0.074 A 
ATOM     67  C   UNL A   1      43.708  31.687  28.834  1.00  0.00     0.031 C 
ATOM     68  C   UNL A   1      46.088  31.562  28.151  1.00  0.00     0.037 A 
BRANCH  55  69
ATOM     69  C   UNL A   1      50.360  27.741  25.854  1.00  0.00     0.064 A 
ATOM     70  C   UNL A   1      51.342  27.447  26.812  1.00  0.00     0.173 A 
ATOM     71  C   UNL A   1      50.750  27.789  24.508  1.00  0.00     0.173 A 
ATOM     72  F   UNL A   1      51.022  27.402  28.115  1.00  0.00    -0.203 F 
ATOM     73  C   UNL A   1      52.667  27.238  26.439  1.00  0.00     0.198 A 
ATOM     74  C   UNL A   1      52.071  27.551  24.135  1.00  0.00     0.198 A 
ATOM     75  F   UNL A   1      49.850  28.060  23.551  1.00  0.00    -0.203 F 
ATOM     76  F   UNL A   1      53.596  27.006  27.377  1.00  0.00    -0.200 F 
ATOM     77  C   UNL A   1      53.029  27.283  25.102  1.00  0.00     0.200 A 
ATOM     78  F   UNL A   1      52.417  27.584  22.841  1.00  0.00    -0.200 F 
ATOM     79  F   UNL A   1      54.304  27.074  24.744  1.00  0.00    -0.200 F 
ENDBRANCH  55  69
BRANCH  56  80
ATOM     80  C   UNL A   1      40.814  28.626  28.613  1.00  0.00     0.064 A 
ATOM     81  C   UNL A   1      40.451  28.319  29.932  1.00  0.00     0.173 A 
ATOM     82  C   UNL A   1      39.804  29.056  27.741  1.00  0.00     0.173 A 
ATOM     83  F   UNL A   1      41.379  27.884  30.798  1.00  0.00    -0.203 F 
ATOM     84  C   UNL A   1      39.128  28.419  30.357  1.00  0.00     0.198 A 
ATOM     85  C   UNL A   1      38.486  29.179  28.173  1.00  0.00     0.198 A 
ATOM     86  F   UNL A   1      40.102  29.364  26.470  1.00  0.00    -0.203 F 
ATOM     87  F   UNL A   1      38.802  28.079  31.611  1.00  0.00    -0.200 F 
ATOM     88  C   UNL A   1      38.147  28.855  29.478  1.00  0.00     0.200 A 
ATOM     89  F   UNL A   1      37.543  29.613  27.324  1.00  0.00    -0.200 F 
ATOM     90  F   UNL A   1      36.875  28.954  29.887  1.00  0.00    -0.200 F 
ENDBRANCH  56  80
BRANCH  68  91
ATOM     91  C   UNL A   1      46.237  32.998  28.555  1.00  0.00     0.064 A 
ATOM     92  C   UNL A   1      46.670  33.360  29.840  1.00  0.00     0.173 A 
ATOM     93  C   UNL A   1      45.984  34.024  27.633  1.00  0.00     0.173 A 
ATOM     94  F   UNL A   1      46.909  32.414  30.762  1.00  0.00    -0.203 F 
ATOM     95  C   UNL A   1      46.823  34.697  30.193  1.00  0.00     0.198 A 
ATOM     96  C   UNL A   1      46.164  35.361  27.981  1.00  0.00     0.198 A 
ATOM     97  F   UNL A   1      45.573  33.731  26.390  1.00  0.00    -0.203 F 
ATOM     98  F   UNL A   1      47.196  35.021  31.438  1.00  0.00    -0.200 F 
ATOM     99  C   UNL A   1      46.577  35.696  29.262  1.00  0.00     0.200 A 
ATOM    100  F   UNL A   1      45.938  36.323  27.076  1.00  0.00    -0.200 F 
ATOM    101  F   UNL A   1      46.731  36.983  29.600  1.00  0.00    -0.200 F 
ENDBRANCH  68  91
ENDBRANCH  42  43
ENDBRANCH  34  37
ENDBRANCH  32  33
ENDBRANCH  31  32
ENDBRANCH  30  31
ENDBRANCH   1  30
TORSDOF 15
ENDMDL
MODEL 2
REMARK VINA RESULT:     -13.2      5.860     11.702
REMARK SMILES O=C(NCCCCNC(=O)c1ccc(-c2c3nc(c(-c4c(F)c(F)c(F)c(F)c4F)c4ccc([nH]4)c(-c4c(F)c(F)c(F)c(F)c4F)c4nc(c(-c5c(F)c(F)c(F)c(F)c5F)c5ccc2[nH]5)C=C4)C=C3)cc1)c1ccc(/C=C/c2ccnc(-c3cccc([N+](=O)[O-])c3)[n+]2[O-])cc1
REMARK SMILES IDX 4 1 3 2 1 3 2 4 74 6 75 7 97 8 76 9 96 10 77 11 78 12 79 13
REMARK SMILES IDX 80 14 81 15 94 16 82 17 84 18 95 19 83 20 85 21 86 22 93 23
REMARK SMILES IDX 87 24 89 25 88 26 90 27 91 28 92 29 5 30 6 31 7 32 8 33 9 34
REMARK SMILES IDX 10 36 11 37 12 38 73 39 13 40 72 41 14 42 15 43 16 44 66 45
REMARK SMILES IDX 17 46 71 47 65 48 67 49 18 50 70 51 64 52 63 53 19 55 51 56
REMARK SMILES IDX 31 57 50 58 32 59 35 60 49 61 68 62 33 63 34 64 48 66 69 67
REMARK SMILES IDX 36 68 20 69 21 70 29 71 22 72 23 73 27 74 30 75 24 76 25 77
REMARK SMILES IDX 28 78 26 79 52 80 53 81 61 82 54 83 55 84 59 85 62 86 56 87
REMARK SMILES IDX 57 88 60 89 58 90 37 91 38 92 46 93 39 94 40 95 44 96 47 97
REMARK SMILES IDX 41 98 42 99 45 100 43 101
REMARK H PARENT 3 5 8 35 67 54 35 65
REMARK Flexibility Score: inf
ROOT
ATOM      1  C   UNL A   1      30.813  30.424  25.217  1.00  0.00     0.116 C 
ENDROOT
BRANCH   1   2
ATOM      2  N   UNL A   1      30.267  30.363  23.870  1.00  0.00    -0.352 N 
ATOM      3  O   UNL A   1      30.095  29.609  21.743  1.00  0.00    -0.269 OA
ATOM      4  C   UNL A   1      30.537  29.453  22.877  1.00  0.00     0.251 C 
ATOM      5  H   UNL A   1      29.619  31.068  23.639  1.00  0.00     0.163 HD
BRANCH   4   6
ATOM      6  C   UNL A   1      31.387  28.289  23.187  1.00  0.00     0.039 A 
ATOM      7  C   UNL A   1      32.748  28.310  22.881  1.00  0.00     0.014 A 
ATOM      8  C   UNL A   1      30.807  27.156  23.754  1.00  0.00     0.014 A 
ATOM      9  C   UNL A   1      33.515  27.158  23.059  1.00  0.00     0.009 A 
ATOM     10  C   UNL A   1      31.582  26.007  23.935  1.00  0.00     0.009 A 
ATOM     11  C   UNL A   1      32.936  25.981  23.562  1.00  0.00    -0.025 A 
BRANCH  11  12
ATOM     12  C   UNL A   1      33.684  24.721  23.718  1.00  0.00     0.012 C 
ATOM     13  C   UNL A   1      33.913  24.088  24.880  1.00  0.00     0.053 C 
BRANCH  13  14
ATOM     14  C   UNL A   1      34.662  22.824  24.982  1.00  0.00     0.134 A 
ATOM     15  C   UNL A   1      36.011  22.883  25.333  1.00  0.00     0.100 A 
ATOM     16  N   UNL A   1      34.053  21.588  24.701  1.00  0.00    -0.228 N 
ATOM     17  C   UNL A   1      36.705  21.703  25.433  1.00  0.00     0.259 A 
ATOM     18  C   UNL A   1      34.843  20.439  24.803  1.00  0.00     0.333 A 
ATOM     19  O   UNL A   1      32.823  21.521  24.349  1.00  0.00    -0.710 OA
ATOM     20  N   UNL A   1      36.157  20.501  25.189  1.00  0.00    -0.049 NA
BRANCH  18  21
ATOM     21  C   UNL A   1      34.319  19.120  24.441  1.00  0.00     0.076 A 
ATOM     22  C   UNL A   1      33.226  18.994  23.565  1.00  0.00     0.017 A 
ATOM     23  C   UNL A   1      34.866  17.950  24.995  1.00  0.00     0.102 A 
ATOM     24  C   UNL A   1      32.706  17.739  23.231  1.00  0.00     0.008 A 
ATOM     25  C   UNL A   1      34.332  16.695  24.673  1.00  0.00     0.270 A 
ATOM     26  C   UNL A   1      33.256  16.584  23.786  1.00  0.00     0.085 A 
BRANCH  25  27
ATOM     27  N   UNL A   1      34.893  15.488  25.291  1.00  0.00     0.062 N 
ATOM     28  O   UNL A   1      36.094  15.502  25.596  1.00  0.00    -0.258 OA
ATOM     29  O   UNL A   1      34.139  14.517  25.452  1.00  0.00    -0.258 OA
ENDBRANCH  25  27
ENDBRANCH  18  21
ENDBRANCH  13  14
ENDBRANCH  11  12
ENDBRANCH   4   6
ENDBRANCH   1   2
BRANCH   1  30
ATOM     30  C   UNL A   1      30.938  31.853  25.737  1.00  0.00     0.023 C 
BRANCH  30  31
ATOM     31  C   UNL A   1      31.514  31.988  27.144  1.00  0.00     0.023 C 
BRANCH  31  32
ATOM     32  C   UNL A   1      32.740  32.887  27.269  1.00  0.00     0.116 C 
BRANCH  32  33
ATOM     33  N   UNL A   1      32.416  34.255  27.640  1.00  0.00    -0.352 N 
ATOM     34  C   UNL A   1      32.991  35.061  28.593  1.00  0.00     0.251 C 
ATOM     35  H   UNL A   1      31.677  34.664  27.134  1.00  0.00     0.163 HD
ATOM     36  O   UNL A   1      32.511  36.163  28.841  1.00  0.00    -0.269 OA
BRANCH  34  37
ATOM     37  C   UNL A   1      34.167  34.584  29.353  1.00  0.00     0.039 A 
ATOM     38  C   UNL A   1      33.967  34.023  30.617  1.00  0.00     0.014 A 
ATOM     39  C   UNL A   1      35.456  34.676  28.822  1.00  0.00     0.014 A 
ATOM     40  C   UNL A   1      35.048  33.479  31.314  1.00  0.00     0.010 A 
ATOM     41  C   UNL A   1      36.521  34.069  29.484  1.00  0.00     0.010 A 
ATOM     42  C   UNL A   1      36.328  33.461  30.733  1.00  0.00    -0.014 A 
BRANCH  42  43
ATOM     43  C   UNL A   1      37.471  32.797  31.409  1.00  0.00     0.031 A 
ATOM     44  C   UNL A   1      38.171  31.640  30.752  1.00  0.00     0.074 A 
ATOM     45  C   UNL A   1      37.829  33.185  32.649  1.00  0.00     0.049 A 
ATOM     46  N   UNL A   1      39.127  30.877  31.218  1.00  0.00    -0.248 NA
ATOM     47  C   UNL A   1      37.716  31.275  29.402  1.00  0.00     0.031 C 
ATOM     48  C   UNL A   1      37.195  34.258  33.416  1.00  0.00     0.029 A 
ATOM     49  N   UNL A   1      38.805  32.709  33.489  1.00  0.00    -0.354 N 
ATOM     50  C   UNL A   1      39.373  29.933  30.231  1.00  0.00     0.074 A 
ATOM     51  C   UNL A   1      38.436  30.189  29.158  1.00  0.00     0.031 C 
ATOM     52  C   UNL A   1      37.807  34.369  34.605  1.00  0.00     0.029 A 
ATOM     53  C   UNL A   1      38.853  33.354  34.700  1.00  0.00     0.049 A 
ATOM     54  H   UNL A   1      39.414  31.974  33.246  1.00  0.00     0.167 HD
ATOM     55  C   UNL A   1      40.310  28.955  30.211  1.00  0.00     0.037 A 
ATOM     56  C   UNL A   1      39.644  33.147  35.769  1.00  0.00     0.037 A 
ATOM     57  C   UNL A   1      41.263  28.723  31.264  1.00  0.00     0.049 A 
ATOM     58  C   UNL A   1      40.687  32.063  35.716  1.00  0.00     0.074 A 
ATOM     59  C   UNL A   1      42.295  27.800  31.306  1.00  0.00     0.029 A 
ATOM     60  N   UNL A   1      41.301  29.420  32.462  1.00  0.00    -0.354 N 
ATOM     61  N   UNL A   1      40.954  31.221  34.749  1.00  0.00    -0.248 NA
ATOM     62  C   UNL A   1      41.542  31.907  36.901  1.00  0.00     0.031 C 
ATOM     63  C   UNL A   1      42.933  27.914  32.546  1.00  0.00     0.029 A 
ATOM     64  C   UNL A   1      42.328  28.937  33.258  1.00  0.00     0.049 A 
ATOM     65  H   UNL A   1      40.690  30.150  32.711  1.00  0.00     0.167 HD
ATOM     66  C   UNL A   1      42.021  30.454  35.195  1.00  0.00     0.074 A 
ATOM     67  C   UNL A   1      42.362  30.939  36.515  1.00  0.00     0.031 C 
ATOM     68  C   UNL A   1      42.660  29.437  34.566  1.00  0.00     0.037 A 
BRANCH  55  69
ATOM     69  C   UNL A   1      40.354  28.062  29.006  1.00  0.00     0.064 A 
ATOM     70  C   UNL A   1      39.624  26.865  28.952  1.00  0.00     0.173 A 
ATOM     71  C   UNL A   1      41.101  28.427  27.877  1.00  0.00     0.173 A 
ATOM     72  F   UNL A   1      38.903  26.465  30.011  1.00  0.00    -0.203 F 
ATOM     73  C   UNL A   1      39.663  26.053  27.821  1.00  0.00     0.198 A 
ATOM     74  C   UNL A   1      41.115  27.627  26.737  1.00  0.00     0.198 A 
ATOM     75  F   UNL A   1      41.813  29.564  27.874  1.00  0.00    -0.203 F 
ATOM     76  F   UNL A   1      38.995  24.891  27.811  1.00  0.00    -0.200 F 
ATOM     77  C   UNL A   1      40.401  26.437  26.714  1.00  0.00     0.200 A 
ATOM     78  F   UNL A   1      41.820  28.005  25.662  1.00  0.00    -0.200 F 
ATOM     79  F   UNL A   1      40.432  25.658  25.623  1.00  0.00    -0.200 F 
ENDBRANCH  55  69
BRANCH  56  80
ATOM     80  C   UNL A   1      39.497  34.001  36.976  1.00  0.00     0.064 A 
ATOM     81  C   UNL A   1      38.775  33.551  38.090  1.00  0.00     0.173 A 
ATOM     82  C   UNL A   1      40.073  35.278  37.042  1.00  0.00     0.173 A 
ATOM     83  F   UNL A   1      38.188  32.345  38.065  1.00  0.00    -0.203 F 
ATOM     84  C   UNL A   1      38.617  34.354  39.218  1.00  0.00     0.198 A 
ATOM     85  C   UNL A   1      39.937  36.069  38.180  1.00  0.00     0.198 A 
ATOM     86  F   UNL A   1      40.776  35.752  36.004  1.00  0.00    -0.203 F 
ATOM     87  F   UNL A   1      37.887  33.916  40.252  1.00  0.00    -0.200 F 
ATOM     88  C   UNL A   1      39.204  35.610  39.265  1.00  0.00     0.200 A 
ATOM     89  F   UNL A   1      40.515  37.278  38.227  1.00  0.00    -0.200 F 
ATOM     90  F   UNL A   1      39.056  36.380  40.351  1.00  0.00    -0.200 F 
ENDBRANCH  56  80
BRANCH  68  91
ATOM     91  C   UNL A   1      43.814  28.801  35.284  1.00  0.00     0.064 A 
ATOM     92  C   UNL A   1      45.138  29.202  35.048  1.00  0.00     0.173 A 
ATOM     93  C   UNL A   1      43.589  27.809  36.249  1.00  0.00     0.173 A 
ATOM     94  F   UNL A   1      45.405  30.137  34.123  1.00  0.00    -0.203 F 
ATOM     95  C   UNL A   1      46.195  28.616  35.738  1.00  0.00     0.198 A 
ATOM     96  C   UNL A   1      44.647  27.244  36.957  1.00  0.00     0.198 A 
ATOM     97  F   UNL A   1      42.341  27.395  36.515  1.00  0.00    -0.203 F 
ATOM     98  F   UNL A   1      47.455  28.984  35.466  1.00  0.00    -0.200 F 
ATOM     99  C   UNL A   1      45.949  27.643  36.696  1.00  0.00     0.200 A 
ATOM    100  F   UNL A   1      44.406  26.314  37.890  1.00  0.00    -0.200 F 
ATOM    101  F   UNL A   1      46.968  27.085  37.364  1.00  0.00    -0.200 F 
ENDBRANCH  68  91
ENDBRANCH  42  43
ENDBRANCH  34  37
ENDBRANCH  32  33
ENDBRANCH  31  32
ENDBRANCH  30  31
ENDBRANCH   1  30
TORSDOF 15
ENDMDL
MODEL 3
REMARK VINA RESULT:     -13.0      5.685     12.321
REMARK SMILES O=C(NCCCCNC(=O)c1ccc(-c2c3nc(c(-c4c(F)c(F)c(F)c(F)c4F)c4ccc([nH]4)c(-c4c(F)c(F)c(F)c(F)c4F)c4nc(c(-c5c(F)c(F)c(F)c(F)c5F)c5ccc2[nH]5)C=C4)C=C3)cc1)c1ccc(/C=C/c2ccnc(-c3cccc([N+](=O)[O-])c3)[n+]2[O-])cc1
REMARK SMILES IDX 4 1 3 2 1 3 2 4 74 6 75 7 97 8 76 9 96 10 77 11 78 12 79 13
REMARK SMILES IDX 80 14 81 15 94 16 82 17 84 18 95 19 83 20 85 21 86 22 93 23
REMARK SMILES IDX 87 24 89 25 88 26 90 27 91 28 92 29 5 30 6 31 7 32 8 33 9 34
REMARK SMILES IDX 10 36 11 37 12 38 73 39 13 40 72 41 14 42 15 43 16 44 66 45
REMARK SMILES IDX 17 46 71 47 65 48 67 49 18 50 70 51 64 52 63 53 19 55 51 56
REMARK SMILES IDX 31 57 50 58 32 59 35 60 49 61 68 62 33 63 34 64 48 66 69 67
REMARK SMILES IDX 36 68 20 69 21 70 29 71 22 72 23 73 27 74 30 75 24 76 25 77
REMARK SMILES IDX 28 78 26 79 52 80 53 81 61 82 54 83 55 84 59 85 62 86 56 87
REMARK SMILES IDX 57 88 60 89 58 90 37 91 38 92 46 93 39 94 40 95 44 96 47 97
REMARK SMILES IDX 41 98 42 99 45 100 43 101
REMARK H PARENT 3 5 8 35 67 54 35 65
REMARK Flexibility Score: inf
ROOT
ATOM      1  C   UNL A   1      31.031  30.643  25.380  1.00  0.00     0.116 C 
ENDROOT
BRANCH   1   2
ATOM      2  N   UNL A   1      30.306  30.494  24.126  1.00  0.00    -0.352 N 
ATOM      3  O   UNL A   1      29.857  29.608  22.093  1.00  0.00    -0.269 OA
ATOM      4  C   UNL A   1      30.452  29.527  23.162  1.00  0.00     0.251 C 
ATOM      5  H   UNL A   1      29.621  31.179  23.945  1.00  0.00     0.163 HD
BRANCH   4   6
ATOM      6  C   UNL A   1      31.355  28.390  23.422  1.00  0.00     0.039 A 
ATOM      7  C   UNL A   1      32.635  28.368  22.866  1.00  0.00     0.014 A 
ATOM      8  C   UNL A   1      30.903  27.326  24.199  1.00  0.00     0.014 A 
ATOM      9  C   UNL A   1      33.432  27.231  23.011  1.00  0.00     0.009 A 
ATOM     10  C   UNL A   1      31.708  26.193  24.345  1.00  0.00     0.009 A 
ATOM     11  C   UNL A   1      32.968  26.117  23.728  1.00  0.00    -0.025 A 
BRANCH  11  12
ATOM     12  C   UNL A   1      33.743  24.870  23.867  1.00  0.00     0.012 C 
ATOM     13  C   UNL A   1      33.764  24.081  24.953  1.00  0.00     0.053 C 
BRANCH  13  14
ATOM     14  C   UNL A   1      34.551  22.840  25.039  1.00  0.00     0.134 A 
ATOM     15  C   UNL A   1      35.901  22.936  25.383  1.00  0.00     0.100 A 
ATOM     16  N   UNL A   1      33.979  21.588  24.750  1.00  0.00    -0.228 N 
ATOM     17  C   UNL A   1      36.631  21.777  25.467  1.00  0.00     0.259 A 
ATOM     18  C   UNL A   1      34.804  20.463  24.836  1.00  0.00     0.333 A 
ATOM     19  O   UNL A   1      32.749  21.487  24.404  1.00  0.00    -0.710 OA
ATOM     20  N   UNL A   1      36.118  20.561  25.214  1.00  0.00    -0.049 NA
BRANCH  18  21
ATOM     21  C   UNL A   1      34.318  19.132  24.464  1.00  0.00     0.076 A 
ATOM     22  C   UNL A   1      33.229  18.981  23.587  1.00  0.00     0.017 A 
ATOM     23  C   UNL A   1      34.898  17.974  25.011  1.00  0.00     0.102 A 
ATOM     24  C   UNL A   1      32.746  17.714  23.244  1.00  0.00     0.008 A 
ATOM     25  C   UNL A   1      34.400  16.707  24.679  1.00  0.00     0.270 A 
ATOM     26  C   UNL A   1      33.328  16.571  23.791  1.00  0.00     0.085 A 
BRANCH  25  27
ATOM     27  N   UNL A   1      34.995  15.512  25.289  1.00  0.00     0.062 N 
ATOM     28  O   UNL A   1      34.286  14.501  25.389  1.00  0.00    -0.258 OA
ATOM     29  O   UNL A   1      36.167  15.590  25.689  1.00  0.00    -0.258 OA
ENDBRANCH  25  27
ENDBRANCH  18  21
ENDBRANCH  13  14
ENDBRANCH  11  12
ENDBRANCH   4   6
ENDBRANCH   1   2
BRANCH   1  30
ATOM     30  C   UNL A   1      30.961  32.063  25.934  1.00  0.00     0.023 C 
BRANCH  30  31
ATOM     31  C   UNL A   1      31.672  32.279  27.267  1.00  0.00     0.023 C 
BRANCH  31  32
ATOM     32  C   UNL A   1      32.816  33.288  27.246  1.00  0.00     0.116 C 
BRANCH  32  33
ATOM     33  N   UNL A   1      32.471  34.563  27.853  1.00  0.00    -0.352 N 
ATOM     34  C   UNL A   1      33.019  35.187  28.948  1.00  0.00     0.251 C 
ATOM     35  H   UNL A   1      31.737  35.053  27.414  1.00  0.00     0.163 HD
ATOM     36  O   UNL A   1      32.523  36.222  29.381  1.00  0.00    -0.269 OA
BRANCH  34  37
ATOM     37  C   UNL A   1      34.186  34.588  29.633  1.00  0.00     0.039 A 
ATOM     38  C   UNL A   1      33.987  33.944  30.856  1.00  0.00     0.014 A 
ATOM     39  C   UNL A   1      35.463  34.648  29.070  1.00  0.00     0.014 A 
ATOM     40  C   UNL A   1      35.054  33.288  31.476  1.00  0.00     0.010 A 
ATOM     41  C   UNL A   1      36.508  33.934  29.650  1.00  0.00     0.010 A 
ATOM     42  C   UNL A   1      36.314  33.242  30.856  1.00  0.00    -0.014 A 
BRANCH  42  43
ATOM     43  C   UNL A   1      37.434  32.466  31.444  1.00  0.00     0.031 A 
ATOM     44  C   UNL A   1      37.973  32.825  32.801  1.00  0.00     0.074 A 
ATOM     45  C   UNL A   1      38.018  31.488  30.724  1.00  0.00     0.049 A 
ATOM     46  N   UNL A   1      38.999  32.326  33.443  1.00  0.00    -0.248 NA
ATOM     47  C   UNL A   1      37.284  33.908  33.519  1.00  0.00     0.031 C 
ATOM     48  C   UNL A   1      37.624  31.080  29.375  1.00  0.00     0.029 A 
ATOM     49  N   UNL A   1      39.080  30.670  31.022  1.00  0.00    -0.354 N 
ATOM     50  C   UNL A   1      39.090  33.045  34.627  1.00  0.00     0.074 A 
ATOM     51  C   UNL A   1      38.045  34.046  34.595  1.00  0.00     0.031 C 
ATOM     52  C   UNL A   1      38.421  30.080  28.968  1.00  0.00     0.029 A 
ATOM     53  C   UNL A   1      39.405  29.799  30.010  1.00  0.00     0.049 A 
ATOM     54  H   UNL A   1      39.564  30.705  31.879  1.00  0.00     0.167 HD
ATOM     55  C   UNL A   1      39.954  32.873  35.656  1.00  0.00     0.037 A 
ATOM     56  C   UNL A   1      40.387  28.883  29.929  1.00  0.00     0.037 A 
ATOM     57  C   UNL A   1      40.971  31.857  35.701  1.00  0.00     0.049 A 
ATOM     58  C   UNL A   1      41.324  28.701  31.093  1.00  0.00     0.074 A 
ATOM     59  C   UNL A   1      41.849  31.559  36.729  1.00  0.00     0.029 A 
ATOM     60  N   UNL A   1      41.247  30.970  34.671  1.00  0.00    -0.354 N 
ATOM     61  N   UNL A   1      41.357  29.343  32.235  1.00  0.00    -0.248 NA
ATOM     62  C   UNL A   1      42.356  27.663  30.958  1.00  0.00     0.031 C 
ATOM     63  C   UNL A   1      42.682  30.518  36.306  1.00  0.00     0.029 A 
ATOM     64  C   UNL A   1      42.293  30.136  35.031  1.00  0.00     0.049 A 
ATOM     65  H   UNL A   1      40.770  30.937  33.810  1.00  0.00     0.167 HD
ATOM     66  C   UNL A   1      42.391  28.772  32.964  1.00  0.00     0.074 A 
ATOM     67  C   UNL A   1      42.953  27.722  32.140  1.00  0.00     0.031 C 
ATOM     68  C   UNL A   1      42.836  29.090  34.204  1.00  0.00     0.037 A 
BRANCH  55  69
ATOM     69  C   UNL A   1      39.831  33.805  36.826  1.00  0.00     0.064 A 
ATOM     70  C   UNL A   1      40.522  35.025  36.870  1.00  0.00     0.173 A 
ATOM     71  C   UNL A   1      38.981  33.494  37.897  1.00  0.00     0.173 A 
ATOM     72  F   UNL A   1      41.358  35.363  35.875  1.00  0.00    -0.203 F 
ATOM     73  C   UNL A   1      40.388  35.886  37.955  1.00  0.00     0.198 A 
ATOM     74  C   UNL A   1      38.827  34.371  38.968  1.00  0.00     0.198 A 
ATOM     75  F   UNL A   1      38.292  32.343  37.904  1.00  0.00    -0.203 F 
ATOM     76  F   UNL A   1      41.095  37.024  37.996  1.00  0.00    -0.200 F 
ATOM     77  C   UNL A   1      39.536  35.562  38.999  1.00  0.00     0.200 A 
ATOM     78  F   UNL A   1      37.994  34.062  39.972  1.00  0.00    -0.200 F 
ATOM     79  F   UNL A   1      39.403  36.396  40.041  1.00  0.00    -0.200 F 
ENDBRANCH  55  69
BRANCH  56  80
ATOM     80  C   UNL A   1      40.523  28.048  28.708  1.00  0.00     0.064 A 
ATOM     81  C   UNL A   1      39.860  26.817  28.603  1.00  0.00     0.173 A 
ATOM     82  C   UNL A   1      41.314  28.459  27.625  1.00  0.00     0.173 A 
ATOM     83  F   UNL A   1      39.109  26.372  29.621  1.00  0.00    -0.203 F 
ATOM     84  C   UNL A   1      39.997  26.020  27.468  1.00  0.00     0.198 A 
ATOM     85  C   UNL A   1      41.429  27.673  26.481  1.00  0.00     0.198 A 
ATOM     86  F   UNL A   1      41.965  29.630  27.677  1.00  0.00    -0.203 F 
ATOM     87  F   UNL A   1      39.386  24.830  27.411  1.00  0.00    -0.200 F 
ATOM     88  C   UNL A   1      40.777  26.452  26.405  1.00  0.00     0.200 A 
ATOM     89  F   UNL A   1      42.174  28.099  25.452  1.00  0.00    -0.200 F 
ATOM     90  F   UNL A   1      40.906  25.688  25.313  1.00  0.00    -0.200 F 
ENDBRANCH  56  80
BRANCH  68  91
ATOM     91  C   UNL A   1      43.964  28.274  34.761  1.00  0.00     0.064 A 
ATOM     92  C   UNL A   1      43.733  27.087  35.471  1.00  0.00     0.173 A 
ATOM     93  C   UNL A   1      45.294  28.664  34.546  1.00  0.00     0.173 A 
ATOM     94  F   UNL A   1      42.478  26.681  35.717  1.00  0.00    -0.203 F 
ATOM     95  C   UNL A   1      44.793  26.331  35.964  1.00  0.00     0.198 A 
ATOM     96  C   UNL A   1      46.352  27.891  35.016  1.00  0.00     0.198 A 
ATOM     97  F   UNL A   1      45.569  29.788  33.868  1.00  0.00    -0.203 F 
ATOM     98  F   UNL A   1      44.548  25.223  36.676  1.00  0.00    -0.200 F 
ATOM     99  C   UNL A   1      46.101  26.729  35.730  1.00  0.00     0.200 A 
ATOM    100  F   UNL A   1      47.615  28.271  34.779  1.00  0.00    -0.200 F 
ATOM    101  F   UNL A   1      47.120  25.996  36.199  1.00  0.00    -0.200 F 
ENDBRANCH  68  91
ENDBRANCH  42  43
ENDBRANCH  34  37
ENDBRANCH  32  33
ENDBRANCH  31  32
ENDBRANCH  30  31
ENDBRANCH   1  30
TORSDOF 15
ENDMDL
