MODEL 1
REMARK VINA RESULT:     -13.4      0.000      0.000
REMARK SMILES CC(C)[C@H](NC(=O)[C@H](Cc1ccccc1)n1c(=O)[nH]c2ccccc2c1=O)C(=O)NCCCCNC(=O)c1ccc(-c2c3nc(c(-c4c(F)c(F)c(F)c(F)c4F)c4ccc([nH]4)c(-c4c(F)c(F)c(F)c(F)c4F)c4nc(c(-c5c(F)c(F)c(F)c(F)c5F)c5ccc2[nH]5)C=C4)C=C3)cc1
REMARK SMILES IDX 31 1 30 2 28 3 29 4 4 6 2 7 1 8 3 9 5 10 6 11 7 13 8 14
REMARK SMILES IDX 16 15 17 16 26 17 18 18 19 19 25 20 27 21 20 22 24 24 21 25
REMARK SMILES IDX 23 26 22 27 9 28 10 29 11 30 15 31 12 32 14 33 13 34 32 35
REMARK SMILES IDX 33 36 34 37 35 38 36 39 37 41 38 42 39 43 100 44 40 45 99 46
REMARK SMILES IDX 41 47 42 48 43 49 93 50 44 51 98 52 92 53 94 54 45 55 97 56
REMARK SMILES IDX 91 57 90 58 46 60 78 61 58 62 77 63 59 64 62 65 76 66 95 67
REMARK SMILES IDX 60 68 61 69 75 71 96 72 63 73 47 74 48 75 56 76 49 77 50 78
REMARK SMILES IDX 54 79 57 80 51 81 52 82 55 83 53 84 79 85 80 86 88 87 81 88
REMARK SMILES IDX 82 89 86 90 89 91 83 92 84 93 87 94 85 95 64 96 65 97 73 98
REMARK SMILES IDX 66 99 67 100 71 101 74 102 68 103 69 104 72 105 70 106
REMARK H PARENT 30 5 5 12 19 23 35 40 94 59 62 70
REMARK Flexibility Score: inf
ROOT
ATOM      1  C   UNL A   1      37.717  23.533  25.667  1.00  0.00     0.116 C 
ENDROOT
BRANCH   1   2
ATOM      2  N   UNL A   1      37.442  23.059  24.331  1.00  0.00    -0.354 N 
ATOM      3  C   UNL A   1      36.301  23.094  23.592  1.00  0.00     0.242 C 
ATOM      4  O   UNL A   1      36.433  22.983  22.365  1.00  0.00    -0.273 OA
ATOM      5  H   UNL A   1      38.210  22.638  23.880  1.00  0.00     0.163 HD
BRANCH   3   6
ATOM      6  C   UNL A   1      34.916  23.441  24.201  1.00  0.00     0.173 C 
BRANCH   6   7
ATOM      7  C   UNL A   1      34.441  22.348  25.224  1.00  0.00     0.015 C 
ATOM      8  C   UNL A   1      34.129  22.859  26.633  1.00  0.00     0.010 C 
ATOM      9  C   UNL A   1      33.265  21.479  24.746  1.00  0.00     0.010 C 
ENDBRANCH   6   7
BRANCH   6  10
ATOM     10  N   UNL A   1      33.905  23.810  23.193  1.00  0.00    -0.342 N 
ATOM     11  C   UNL A   1      33.228  24.937  22.857  1.00  0.00     0.244 C 
ATOM     12  H   UNL A   1      33.660  23.048  22.621  1.00  0.00     0.164 HD
ATOM     13  O   UNL A   1      32.539  24.812  21.828  1.00  0.00    -0.273 OA
BRANCH  11  14
ATOM     14  C   UNL A   1      33.202  26.300  23.599  1.00  0.00     0.189 C 
BRANCH  14  15
ATOM     15  N   UNL A   1      32.223  27.294  23.163  1.00  0.00    -0.247 N 
ATOM     16  C   UNL A   1      32.680  28.459  22.577  1.00  0.00     0.329 A 
ATOM     17  C   UNL A   1      30.876  27.040  23.427  1.00  0.00     0.264 A 
ATOM     18  O   UNL A   1      33.871  28.757  22.510  1.00  0.00    -0.248 OA
ATOM     19  N   UNL A   1      31.743  29.344  22.141  1.00  0.00    -0.307 N 
ATOM     20  C   UNL A   1      29.902  28.052  22.977  1.00  0.00     0.064 A 
ATOM     21  O   UNL A   1      30.463  26.050  24.026  1.00  0.00    -0.268 OA
ATOM     22  C   UNL A   1      30.377  29.183  22.326  1.00  0.00     0.055 A 
ATOM     23  H   UNL A   1      32.054  30.148  21.666  1.00  0.00     0.171 HD
ATOM     24  C   UNL A   1      28.533  27.904  23.224  1.00  0.00     0.016 A 
ATOM     25  C   UNL A   1      29.494  30.175  21.906  1.00  0.00     0.027 A 
ATOM     26  C   UNL A   1      27.647  28.898  22.812  1.00  0.00     0.001 A 
ATOM     27  C   UNL A   1      28.127  30.030  22.151  1.00  0.00     0.002 A 
ENDBRANCH  14  15
BRANCH  14  28
ATOM     28  C   UNL A   1      33.338  26.059  25.148  1.00  0.00     0.071 C 
BRANCH  28  29
ATOM     29  C   UNL A   1      33.159  27.247  26.071  1.00  0.00    -0.045 A 
ATOM     30  C   UNL A   1      31.998  27.338  26.857  1.00  0.00     0.004 A 
ATOM     31  C   UNL A   1      34.054  28.323  26.058  1.00  0.00     0.004 A 
ATOM     32  C   UNL A   1      31.668  28.526  27.506  1.00  0.00     0.000 A 
ATOM     33  C   UNL A   1      33.735  29.504  26.733  1.00  0.00     0.000 A 
ATOM     34  C   UNL A   1      32.531  29.616  27.430  1.00  0.00     0.000 A 
ENDBRANCH  28  29
ENDBRANCH  14  28
ENDBRANCH  11  14
ENDBRANCH   6  10
ENDBRANCH   3   6
ENDBRANCH   1   2
BRANCH   1  35
ATOM     35  C   UNL A   1      38.811  22.757  26.395  1.00  0.00     0.023 C 
BRANCH  35  36
ATOM     36  C   UNL A   1      39.395  21.546  25.667  1.00  0.00     0.023 C 
BRANCH  36  37
ATOM     37  C   UNL A   1      39.377  20.218  26.413  1.00  0.00     0.116 C 
BRANCH  37  38
ATOM     38  N   UNL A   1      40.402  19.280  25.992  1.00  0.00    -0.352 N 
ATOM     39  C   UNL A   1      41.771  19.411  26.029  1.00  0.00     0.251 C 
ATOM     40  H   UNL A   1      40.070  18.427  25.627  1.00  0.00     0.163 HD
ATOM     41  O   UNL A   1      42.487  18.507  25.628  1.00  0.00    -0.269 OA
BRANCH  39  42
ATOM     42  C   UNL A   1      42.375  20.679  26.498  1.00  0.00     0.039 A 
ATOM     43  C   UNL A   1      42.929  21.533  25.540  1.00  0.00     0.014 A 
ATOM     44  C   UNL A   1      42.373  21.042  27.847  1.00  0.00     0.014 A 
ATOM     45  C   UNL A   1      43.408  22.787  25.923  1.00  0.00     0.010 A 
ATOM     46  C   UNL A   1      42.792  22.317  28.219  1.00  0.00     0.010 A 
ATOM     47  C   UNL A   1      43.305  23.205  27.260  1.00  0.00    -0.014 A 
BRANCH  47  48
ATOM     48  C   UNL A   1      43.715  24.573  27.664  1.00  0.00     0.031 A 
ATOM     49  C   UNL A   1      42.678  25.605  28.001  1.00  0.00     0.074 A 
ATOM     50  C   UNL A   1      45.021  24.900  27.671  1.00  0.00     0.049 A 
ATOM     51  N   UNL A   1      42.836  26.865  28.315  1.00  0.00    -0.248 NA
ATOM     52  C   UNL A   1      41.274  25.167  27.955  1.00  0.00     0.031 C 
ATOM     53  C   UNL A   1      46.120  23.998  27.322  1.00  0.00     0.029 A 
ATOM     54  N   UNL A   1      45.646  26.083  27.973  1.00  0.00    -0.354 N 
ATOM     55  C   UNL A   1      41.556  27.373  28.492  1.00  0.00     0.074 A 
ATOM     56  C   UNL A   1      40.631  26.299  28.203  1.00  0.00     0.031 C 
ATOM     57  C   UNL A   1      47.284  24.653  27.453  1.00  0.00     0.029 A 
ATOM     58  C   UNL A   1      47.013  26.029  27.861  1.00  0.00     0.049 A 
ATOM     59  H   UNL A   1      45.160  26.895  28.246  1.00  0.00     0.167 HD
ATOM     60  C   UNL A   1      41.187  28.617  28.880  1.00  0.00     0.037 A 
ATOM     61  C   UNL A   1      47.943  26.983  28.059  1.00  0.00     0.037 A 
ATOM     62  C   UNL A   1      42.111  29.678  29.191  1.00  0.00     0.049 A 
ATOM     63  C   UNL A   1      47.506  28.358  28.486  1.00  0.00     0.074 A 
ATOM     64  C   UNL A   1      41.836  30.955  29.645  1.00  0.00     0.029 A 
ATOM     65  N   UNL A   1      43.488  29.579  29.077  1.00  0.00    -0.354 N 
ATOM     66  N   UNL A   1      46.296  28.810  28.707  1.00  0.00    -0.248 NA
ATOM     67  C   UNL A   1      48.567  29.353  28.693  1.00  0.00     0.031 C 
ATOM     68  C   UNL A   1      43.047  31.644  29.772  1.00  0.00     0.029 A 
ATOM     69  C   UNL A   1      44.080  30.782  29.437  1.00  0.00     0.049 A 
ATOM     70  H   UNL A   1      43.975  28.776  28.785  1.00  0.00     0.167 HD
ATOM     71  C   UNL A   1      46.449  30.130  29.106  1.00  0.00     0.074 A 
ATOM     72  C   UNL A   1      47.871  30.405  29.106  1.00  0.00     0.031 C 
ATOM     73  C   UNL A   1      45.497  31.034  29.441  1.00  0.00     0.037 A 
BRANCH  60  74
ATOM     74  C   UNL A   1      39.718  28.895  28.997  1.00  0.00     0.064 A 
ATOM     75  C   UNL A   1      38.965  29.334  27.898  1.00  0.00     0.173 A 
ATOM     76  C   UNL A   1      39.049  28.697  30.214  1.00  0.00     0.173 A 
ATOM     77  F   UNL A   1      39.561  29.550  26.715  1.00  0.00    -0.203 F 
ATOM     78  C   UNL A   1      37.602  29.592  28.020  1.00  0.00     0.198 A 
ATOM     79  C   UNL A   1      37.681  28.930  30.325  1.00  0.00     0.198 A 
ATOM     80  F   UNL A   1      39.721  28.274  31.295  1.00  0.00    -0.203 F 
ATOM     81  F   UNL A   1      36.914  30.059  26.968  1.00  0.00    -0.200 F 
ATOM     82  C   UNL A   1      36.960  29.385  29.231  1.00  0.00     0.200 A 
ATOM     83  F   UNL A   1      37.058  28.718  31.494  1.00  0.00    -0.200 F 
ATOM     84  F   UNL A   1      35.648  29.631  29.345  1.00  0.00    -0.200 F 
ENDBRANCH  60  74
BRANCH  61  85
ATOM     85  C   UNL A   1      49.382  26.662  27.887  1.00  0.00     0.064 A 
ATOM     86  C   UNL A   1      50.201  26.424  29.000  1.00  0.00     0.173 A 
ATOM     87  C   UNL A   1      49.969  26.589  26.616  1.00  0.00     0.173 A 
ATOM     88  F   UNL A   1      49.689  26.505  30.237  1.00  0.00    -0.203 F 
ATOM     89  C   UNL A   1      51.556  26.141  28.848  1.00  0.00     0.198 A 
ATOM     90  C   UNL A   1      51.320  26.281  26.464  1.00  0.00     0.198 A 
ATOM     91  F   UNL A   1      49.227  26.806  25.520  1.00  0.00    -0.203 F 
ATOM     92  F   UNL A   1      52.325  25.957  29.931  1.00  0.00    -0.200 F 
ATOM     93  C   UNL A   1      52.113  26.064  27.581  1.00  0.00     0.200 A 
ATOM     94  F   UNL A   1      51.853  26.198  25.238  1.00  0.00    -0.200 F 
ATOM     95  F   UNL A   1      53.417  25.789  27.436  1.00  0.00    -0.200 F 
ENDBRANCH  61  85
BRANCH  73  96
ATOM     96  C   UNL A   1      45.962  32.394  29.869  1.00  0.00     0.064 A 
ATOM     97  C   UNL A   1      46.101  33.446  28.950  1.00  0.00     0.173 A 
ATOM     98  C   UNL A   1      46.232  32.659  31.220  1.00  0.00     0.173 A 
ATOM     99  F   UNL A   1      45.869  33.236  27.646  1.00  0.00    -0.203 F 
ATOM    100  C   UNL A   1      46.514  34.708  29.367  1.00  0.00     0.198 A 
ATOM    101  C   UNL A   1      46.621  33.929  31.637  1.00  0.00     0.198 A 
ATOM    102  F   UNL A   1      46.110  31.688  32.136  1.00  0.00    -0.203 F 
ATOM    103  F   UNL A   1      46.679  35.687  28.468  1.00  0.00    -0.200 F 
ATOM    104  C   UNL A   1      46.767  34.950  30.710  1.00  0.00     0.200 A 
ATOM    105  F   UNL A   1      46.854  34.164  32.934  1.00  0.00    -0.200 F 
ATOM    106  F   UNL A   1      47.157  36.168  31.110  1.00  0.00    -0.200 F 
ENDBRANCH  73  96
ENDBRANCH  47  48
ENDBRANCH  39  42
ENDBRANCH  37  38
ENDBRANCH  36  37
ENDBRANCH  35  36
ENDBRANCH   1  35
TORSDOF 17
ENDMDL
MODEL 2
REMARK VINA RESULT:     -13.2      5.107     10.521
REMARK SMILES CC(C)[C@H](NC(=O)[C@H](Cc1ccccc1)n1c(=O)[nH]c2ccccc2c1=O)C(=O)NCCCCNC(=O)c1ccc(-c2c3nc(c(-c4c(F)c(F)c(F)c(F)c4F)c4ccc([nH]4)c(-c4c(F)c(F)c(F)c(F)c4F)c4nc(c(-c5c(F)c(F)c(F)c(F)c5F)c5ccc2[nH]5)C=C4)C=C3)cc1
REMARK SMILES IDX 31 1 30 2 28 3 29 4 4 6 2 7 1 8 3 9 5 10 6 11 7 13 8 14
REMARK SMILES IDX 16 15 17 16 26 17 18 18 19 19 25 20 27 21 20 22 24 24 21 25
REMARK SMILES IDX 23 26 22 27 9 28 10 29 11 30 15 31 12 32 14 33 13 34 32 35
REMARK SMILES IDX 33 36 34 37 35 38 36 39 37 41 38 42 39 43 100 44 40 45 99 46
REMARK SMILES IDX 41 47 42 48 43 49 93 50 44 51 98 52 92 53 94 54 45 55 97 56
REMARK SMILES IDX 91 57 90 58 46 60 78 61 58 62 77 63 59 64 62 65 76 66 95 67
REMARK SMILES IDX 60 68 61 69 75 71 96 72 63 73 47 74 48 75 56 76 49 77 50 78
REMARK SMILES IDX 54 79 57 80 51 81 52 82 55 83 53 84 79 85 80 86 88 87 81 88
REMARK SMILES IDX 82 89 86 90 89 91 83 92 84 93 87 94 85 95 64 96 65 97 73 98
REMARK SMILES IDX 66 99 67 100 71 101 74 102 68 103 69 104 72 105 70 106
REMARK H PARENT 30 5 5 12 19 23 35 40 94 59 62 70
REMARK Flexibility Score: inf
ROOT
ATOM      1  C   UNL A   1      34.120  29.478  27.243  1.00  0.00     0.116 C 
ENDROOT
BRANCH   1   2
ATOM      2  N   UNL A   1      32.773  29.137  27.635  1.00  0.00    -0.354 N 
ATOM      3  C   UNL A   1      31.962  28.119  27.241  1.00  0.00     0.242 C 
ATOM      4  O   UNL A   1      31.028  27.828  28.001  1.00  0.00    -0.273 OA
ATOM      5  H   UNL A   1      32.373  29.745  28.298  1.00  0.00     0.163 HD
BRANCH   3   6
ATOM      6  C   UNL A   1      32.273  27.226  26.008  1.00  0.00     0.173 C 
BRANCH   6   7
ATOM      7  C   UNL A   1      32.329  28.066  24.683  1.00  0.00     0.015 C 
ATOM      8  C   UNL A   1      33.652  27.995  23.916  1.00  0.00     0.010 C 
ATOM      9  C   UNL A   1      31.178  27.802  23.698  1.00  0.00     0.010 C 
ENDBRANCH   6   7
BRANCH   6  10
ATOM     10  N   UNL A   1      31.430  26.019  25.927  1.00  0.00    -0.342 N 
ATOM     11  C   UNL A   1      31.630  24.680  26.021  1.00  0.00     0.244 C 
ATOM     12  H   UNL A   1      30.485  26.240  25.766  1.00  0.00     0.164 HD
ATOM     13  O   UNL A   1      30.576  24.020  26.009  1.00  0.00    -0.273 OA
BRANCH  11  14
ATOM     14  C   UNL A   1      32.978  23.915  26.113  1.00  0.00     0.189 C 
BRANCH  14  15
ATOM     15  N   UNL A   1      32.952  22.466  25.919  1.00  0.00    -0.247 N 
ATOM     16  C   UNL A   1      33.356  21.653  26.960  1.00  0.00     0.329 A 
ATOM     17  C   UNL A   1      32.584  21.984  24.662  1.00  0.00     0.264 A 
ATOM     18  O   UNL A   1      33.849  22.084  28.001  1.00  0.00    -0.248 OA
ATOM     19  N   UNL A   1      33.278  20.308  26.765  1.00  0.00    -0.307 N 
ATOM     20  C   UNL A   1      32.561  20.520  24.484  1.00  0.00     0.064 A 
ATOM     21  O   UNL A   1      32.308  22.698  23.701  1.00  0.00    -0.268 OA
ATOM     22  C   UNL A   1      32.901  19.718  25.566  1.00  0.00     0.055 A 
ATOM     23  H   UNL A   1      33.503  19.718  27.520  1.00  0.00     0.171 HD
ATOM     24  C   UNL A   1      32.237  19.942  23.253  1.00  0.00     0.016 A 
ATOM     25  C   UNL A   1      32.916  18.331  25.436  1.00  0.00     0.027 A 
ATOM     26  C   UNL A   1      32.258  18.554  23.116  1.00  0.00     0.001 A 
ATOM     27  C   UNL A   1      32.593  17.751  24.207  1.00  0.00     0.002 A 
ENDBRANCH  14  15
BRANCH  14  28
ATOM     28  C   UNL A   1      34.095  24.721  25.352  1.00  0.00     0.071 C 
BRANCH  28  29
ATOM     29  C   UNL A   1      35.394  24.009  25.035  1.00  0.00    -0.045 A 
ATOM     30  C   UNL A   1      35.608  23.515  23.737  1.00  0.00     0.004 A 
ATOM     31  C   UNL A   1      36.326  23.710  26.036  1.00  0.00     0.004 A 
ATOM     32  C   UNL A   1      36.653  22.631  23.476  1.00  0.00     0.000 A 
ATOM     33  C   UNL A   1      37.389  22.846  25.764  1.00  0.00     0.000 A 
ATOM     34  C   UNL A   1      37.535  22.283  24.495  1.00  0.00     0.000 A 
ENDBRANCH  28  29
ENDBRANCH  14  28
ENDBRANCH  11  14
ENDBRANCH   6  10
ENDBRANCH   3   6
ENDBRANCH   1   2
BRANCH   1  35
ATOM     35  C   UNL A   1      34.545  30.892  27.626  1.00  0.00     0.023 C 
BRANCH  35  36
ATOM     36  C   UNL A   1      33.429  31.868  27.999  1.00  0.00     0.023 C 
BRANCH  36  37
ATOM     37  C   UNL A   1      33.163  33.016  27.034  1.00  0.00     0.116 C 
BRANCH  37  38
ATOM     38  N   UNL A   1      32.602  34.203  27.652  1.00  0.00    -0.352 N 
ATOM     39  C   UNL A   1      33.057  34.917  28.737  1.00  0.00     0.251 C 
ATOM     40  H   UNL A   1      31.779  34.547  27.236  1.00  0.00     0.163 HD
ATOM     41  O   UNL A   1      32.450  35.903  29.122  1.00  0.00    -0.269 OA
BRANCH  39  42
ATOM     42  C   UNL A   1      34.250  34.448  29.478  1.00  0.00     0.039 A 
ATOM     43  C   UNL A   1      34.051  33.837  30.719  1.00  0.00     0.014 A 
ATOM     44  C   UNL A   1      35.539  34.576  28.955  1.00  0.00     0.014 A 
ATOM     45  C   UNL A   1      35.135  33.281  31.400  1.00  0.00     0.010 A 
ATOM     46  C   UNL A   1      36.610  33.964  29.603  1.00  0.00     0.010 A 
ATOM     47  C   UNL A   1      36.417  33.304  30.826  1.00  0.00    -0.014 A 
BRANCH  47  48
ATOM     48  C   UNL A   1      37.560  32.627  31.489  1.00  0.00     0.031 A 
ATOM     49  C   UNL A   1      38.233  31.458  30.829  1.00  0.00     0.074 A 
ATOM     50  C   UNL A   1      37.953  33.030  32.712  1.00  0.00     0.049 A 
ATOM     51  N   UNL A   1      39.203  30.702  31.275  1.00  0.00    -0.248 NA
ATOM     52  C   UNL A   1      37.732  31.074  29.500  1.00  0.00     0.031 C 
ATOM     53  C   UNL A   1      37.351  34.126  33.475  1.00  0.00     0.029 A 
ATOM     54  N   UNL A   1      38.946  32.561  33.534  1.00  0.00    -0.354 N 
ATOM     55  C   UNL A   1      39.420  29.748  30.290  1.00  0.00     0.074 A 
ATOM     56  C   UNL A   1      38.449  29.990  29.245  1.00  0.00     0.031 C 
ATOM     57  C   UNL A   1      38.002  34.259  34.641  1.00  0.00     0.029 A 
ATOM     58  C   UNL A   1      39.042  33.238  34.724  1.00  0.00     0.049 A 
ATOM     59  H   UNL A   1      39.535  31.810  33.292  1.00  0.00     0.167 HD
ATOM     60  C   UNL A   1      40.358  28.771  30.252  1.00  0.00     0.037 A 
ATOM     61  C   UNL A   1      39.874  33.053  35.767  1.00  0.00     0.037 A 
ATOM     62  C   UNL A   1      41.339  28.548  31.283  1.00  0.00     0.049 A 
ATOM     63  C   UNL A   1      40.904  31.959  35.702  1.00  0.00     0.074 A 
ATOM     64  C   UNL A   1      42.364  27.619  31.311  1.00  0.00     0.029 A 
ATOM     65  N   UNL A   1      41.412  29.263  32.467  1.00  0.00    -0.354 N 
ATOM     66  N   UNL A   1      41.139  31.100  34.740  1.00  0.00    -0.248 NA
ATOM     67  C   UNL A   1      41.786  31.811  36.867  1.00  0.00     0.031 C 
ATOM     68  C   UNL A   1      43.038  27.748  32.531  1.00  0.00     0.029 A 
ATOM     69  C   UNL A   1      42.458  28.785  33.245  1.00  0.00     0.049 A 
ATOM     70  H   UNL A   1      40.812  30.001  32.720  1.00  0.00     0.167 HD
ATOM     71  C   UNL A   1      42.209  30.329  35.169  1.00  0.00     0.074 A 
ATOM     72  C   UNL A   1      42.587  30.829  36.475  1.00  0.00     0.031 C 
ATOM     73  C   UNL A   1      42.825  29.300  34.537  1.00  0.00     0.037 A 
BRANCH  60  74
ATOM     74  C   UNL A   1      40.370  27.874  29.051  1.00  0.00     0.064 A 
ATOM     75  C   UNL A   1      41.126  28.185  27.911  1.00  0.00     0.173 A 
ATOM     76  C   UNL A   1      39.639  26.676  29.047  1.00  0.00     0.173 A 
ATOM     77  F   UNL A   1      41.833  29.324  27.860  1.00  0.00    -0.203 F 
ATOM     78  C   UNL A   1      41.127  27.345  26.800  1.00  0.00     0.198 A 
ATOM     79  C   UNL A   1      39.664  25.826  27.945  1.00  0.00     0.198 A 
ATOM     80  F   UNL A   1      38.903  26.330  30.114  1.00  0.00    -0.203 F 
ATOM     81  F   UNL A   1      41.818  27.688  25.703  1.00  0.00    -0.200 F 
ATOM     82  C   UNL A   1      40.401  26.164  26.820  1.00  0.00     0.200 A 
ATOM     83  F   UNL A   1      38.971  24.678  27.970  1.00  0.00    -0.200 F 
ATOM     84  F   UNL A   1      40.405  25.355  25.751  1.00  0.00    -0.200 F 
ENDBRANCH  60  74
BRANCH  61  85
ATOM     85  C   UNL A   1      39.789  33.945  36.951  1.00  0.00     0.064 A 
ATOM     86  C   UNL A   1      40.520  35.141  37.001  1.00  0.00     0.173 A 
ATOM     87  C   UNL A   1      38.980  33.627  38.051  1.00  0.00     0.173 A 
ATOM     88  F   UNL A   1      41.324  35.476  35.981  1.00  0.00    -0.203 F 
ATOM     89  C   UNL A   1      40.460  35.974  38.115  1.00  0.00     0.198 A 
ATOM     90  C   UNL A   1      38.902  34.474  39.155  1.00  0.00     0.198 A 
ATOM     91  F   UNL A   1      38.259  32.496  38.050  1.00  0.00    -0.203 F 
ATOM     92  F   UNL A   1      41.201  37.090  38.155  1.00  0.00    -0.200 F 
ATOM     93  C   UNL A   1      39.647  35.644  39.189  1.00  0.00     0.200 A 
ATOM     94  F   UNL A   1      38.108  34.156  40.186  1.00  0.00    -0.200 F 
ATOM     95  F   UNL A   1      39.588  36.448  40.259  1.00  0.00    -0.200 F 
ENDBRANCH  61  85
BRANCH  73  96
ATOM     96  C   UNL A   1      43.992  28.667  35.235  1.00  0.00     0.064 A 
ATOM     97  C   UNL A   1      45.303  29.131  35.043  1.00  0.00     0.173 A 
ATOM     98  C   UNL A   1      43.792  27.612  36.137  1.00  0.00     0.173 A 
ATOM     99  F   UNL A   1      45.544  30.127  34.177  1.00  0.00    -0.203 F 
ATOM    100  C   UNL A   1      46.372  28.546  35.713  1.00  0.00     0.198 A 
ATOM    101  C   UNL A   1      44.862  27.046  36.826  1.00  0.00     0.198 A 
ATOM    102  F   UNL A   1      42.558  27.137  36.359  1.00  0.00    -0.203 F 
ATOM    103  F   UNL A   1      47.620  28.978  35.485  1.00  0.00    -0.200 F 
ATOM    104  C   UNL A   1      46.151  27.510  36.610  1.00  0.00     0.200 A 
ATOM    105  F   UNL A   1      44.645  26.054  37.698  1.00  0.00    -0.200 F 
ATOM    106  F   UNL A   1      47.182  26.954  37.260  1.00  0.00    -0.200 F 
ENDBRANCH  73  96
ENDBRANCH  47  48
ENDBRANCH  39  42
ENDBRANCH  37  38
ENDBRANCH  36  37
ENDBRANCH  35  36
ENDBRANCH   1  35
TORSDOF 17
ENDMDL
MODEL 3
REMARK VINA RESULT:     -13.0      1.271      7.030
REMARK SMILES CC(C)[C@H](NC(=O)[C@H](Cc1ccccc1)n1c(=O)[nH]c2ccccc2c1=O)C(=O)NCCCCNC(=O)c1ccc(-c2c3nc(c(-c4c(F)c(F)c(F)c(F)c4F)c4ccc([nH]4)c(-c4c(F)c(F)c(F)c(F)c4F)c4nc(c(-c5c(F)c(F)c(F)c(F)c5F)c5ccc2[nH]5)C=C4)C=C3)cc1
REMARK SMILES IDX 31 1 30 2 28 3 29 4 4 6 2 7 1 8 3 9 5 10 6 11 7 13 8 14
REMARK SMILES IDX 16 15 17 16 26 17 18 18 19 19 25 20 27 21 20 22 24 24 21 25
REMARK SMILES IDX 23 26 22 27 9 28 10 29 11 30 15 31 12 32 14 33 13 34 32 35
REMARK SMILES IDX 33 36 34 37 35 38 36 39 37 41 38 42 39 43 100 44 40 45 99 46
REMARK SMILES IDX 41 47 42 48 43 49 93 50 44 51 98 52 92 53 94 54 45 55 97 56
REMARK SMILES IDX 91 57 90 58 46 60 78 61 58 62 77 63 59 64 62 65 76 66 95 67
REMARK SMILES IDX 60 68 61 69 75 71 96 72 63 73 47 74 48 75 56 76 49 77 50 78
REMARK SMILES IDX 54 79 57 80 51 81 52 82 55 83 53 84 79 85 80 86 88 87 81 88
REMARK SMILES IDX 82 89 86 90 89 91 83 92 84 93 87 94 85 95 64 96 65 97 73 98
REMARK SMILES IDX 66 99 67 100 71 101 74 102 68 103 69 104 72 105 70 106
REMARK H PARENT 30 5 5 12 19 23 35 40 94 59 62 70
REMARK Flexibility Score: inf
ROOT
ATOM      1  C   UNL A   1      35.551  22.026  24.342  1.00  0.00     0.116 C 
ENDROOT
BRANCH   1   2
ATOM      2  N   UNL A   1      35.179  22.510  25.650  1.00  0.00    -0.354 N 
ATOM      3  C   UNL A   1      34.003  23.017  26.110  1.00  0.00     0.242 C 
ATOM      4  O   UNL A   1      33.830  22.989  27.337  1.00  0.00    -0.273 OA
ATOM      5  H   UNL A   1      35.897  22.468  26.323  1.00  0.00     0.163 HD
BRANCH   3   6
ATOM      6  C   UNL A   1      32.844  23.440  25.167  1.00  0.00     0.173 C 
BRANCH   6   7
ATOM      7  C   UNL A   1      31.701  22.365  25.134  1.00  0.00     0.015 C 
ATOM      8  C   UNL A   1      32.169  20.907  25.182  1.00  0.00     0.010 C 
ATOM      9  C   UNL A   1      30.597  22.559  26.187  1.00  0.00     0.010 C 
ENDBRANCH   6   7
BRANCH   6  10
ATOM     10  N   UNL A   1      33.299  23.884  23.837  1.00  0.00    -0.342 N 
ATOM     11  C   UNL A   1      33.667  25.063  23.274  1.00  0.00     0.244 C 
ATOM     12  H   UNL A   1      33.350  23.139  23.197  1.00  0.00     0.164 HD
ATOM     13  O   UNL A   1      34.106  24.944  22.116  1.00  0.00    -0.273 OA
BRANCH  11  14
ATOM     14  C   UNL A   1      33.578  26.488  23.884  1.00  0.00     0.189 C 
BRANCH  14  15
ATOM     15  N   UNL A   1      32.526  27.375  23.391  1.00  0.00    -0.247 N 
ATOM     16  C   UNL A   1      32.891  28.565  22.790  1.00  0.00     0.329 A 
ATOM     17  C   UNL A   1      31.200  27.002  23.618  1.00  0.00     0.264 A 
ATOM     18  O   UNL A   1      34.051  28.973  22.754  1.00  0.00    -0.248 OA
ATOM     19  N   UNL A   1      31.892  29.347  22.301  1.00  0.00    -0.307 N 
ATOM     20  C   UNL A   1      30.151  27.906  23.112  1.00  0.00     0.064 A 
ATOM     21  O   UNL A   1      30.862  25.990  24.229  1.00  0.00    -0.268 OA
ATOM     22  C   UNL A   1      30.540  29.062  22.447  1.00  0.00     0.055 A 
ATOM     23  H   UNL A   1      32.141  30.166  21.816  1.00  0.00     0.171 HD
ATOM     24  C   UNL A   1      28.795  27.634  23.318  1.00  0.00     0.016 A 
ATOM     25  C   UNL A   1      29.583  29.957  21.973  1.00  0.00     0.027 A 
ATOM     26  C   UNL A   1      27.834  28.531  22.853  1.00  0.00     0.001 A 
ATOM     27  C   UNL A   1      28.228  29.688  22.178  1.00  0.00     0.002 A 
ENDBRANCH  14  15
BRANCH  14  28
ATOM     28  C   UNL A   1      33.777  26.408  25.443  1.00  0.00     0.071 C 
BRANCH  28  29
ATOM     29  C   UNL A   1      33.448  27.637  26.265  1.00  0.00    -0.045 A 
ATOM     30  C   UNL A   1      32.195  27.727  26.895  1.00  0.00     0.004 A 
ATOM     31  C   UNL A   1      34.305  28.742  26.301  1.00  0.00     0.004 A 
ATOM     32  C   UNL A   1      31.752  28.936  27.428  1.00  0.00     0.000 A 
ATOM     33  C   UNL A   1      33.869  29.946  26.861  1.00  0.00     0.000 A 
ATOM     34  C   UNL A   1      32.584  30.051  27.397  1.00  0.00     0.000 A 
ENDBRANCH  28  29
ENDBRANCH  14  28
ENDBRANCH  11  14
ENDBRANCH   6  10
ENDBRANCH   3   6
ENDBRANCH   1   2
BRANCH   1  35
ATOM     35  C   UNL A   1      37.048  21.791  24.163  1.00  0.00     0.023 C 
BRANCH  35  36
ATOM     36  C   UNL A   1      37.616  20.501  24.756  1.00  0.00     0.023 C 
BRANCH  36  37
ATOM     37  C   UNL A   1      38.702  20.647  25.814  1.00  0.00     0.116 C 
BRANCH  37  38
ATOM     38  N   UNL A   1      39.694  19.588  25.805  1.00  0.00    -0.352 N 
ATOM     39  C   UNL A   1      41.033  19.646  26.121  1.00  0.00     0.251 C 
ATOM     40  H   UNL A   1      39.364  18.701  25.535  1.00  0.00     0.163 HD
ATOM     41  O   UNL A   1      41.724  18.642  26.056  1.00  0.00    -0.269 OA
BRANCH  39  42
ATOM     42  C   UNL A   1      41.649  20.945  26.477  1.00  0.00     0.039 A 
ATOM     43  C   UNL A   1      42.021  21.800  25.435  1.00  0.00     0.014 A 
ATOM     44  C   UNL A   1      41.830  21.334  27.806  1.00  0.00     0.014 A 
ATOM     45  C   UNL A   1      42.501  23.077  25.725  1.00  0.00     0.010 A 
ATOM     46  C   UNL A   1      42.248  22.632  28.093  1.00  0.00     0.010 A 
ATOM     47  C   UNL A   1      42.578  23.518  27.055  1.00  0.00    -0.014 A 
BRANCH  47  48
ATOM     48  C   UNL A   1      42.988  24.909  27.374  1.00  0.00     0.031 A 
ATOM     49  C   UNL A   1      44.398  25.359  27.119  1.00  0.00     0.074 A 
ATOM     50  C   UNL A   1      42.105  25.747  27.948  1.00  0.00     0.049 A 
ATOM     51  N   UNL A   1      44.961  26.510  27.387  1.00  0.00    -0.248 NA
ATOM     52  C   UNL A   1      45.302  24.375  26.503  1.00  0.00     0.031 C 
ATOM     53  C   UNL A   1      40.719  25.415  28.285  1.00  0.00     0.029 A 
ATOM     54  N   UNL A   1      42.242  27.049  28.358  1.00  0.00    -0.354 N 
ATOM     55  C   UNL A   1      46.283  26.385  26.983  1.00  0.00     0.074 A 
ATOM     56  C   UNL A   1      46.452  25.032  26.499  1.00  0.00     0.031 C 
ATOM     57  C   UNL A   1      40.129  26.490  28.828  1.00  0.00     0.029 A 
ATOM     58  C   UNL A   1      41.101  27.576  28.910  1.00  0.00     0.049 A 
ATOM     59  H   UNL A   1      43.080  27.558  28.265  1.00  0.00     0.167 HD
ATOM     60  C   UNL A   1      47.262  27.321  26.998  1.00  0.00     0.037 A 
ATOM     61  C   UNL A   1      40.867  28.798  29.428  1.00  0.00     0.037 A 
ATOM     62  C   UNL A   1      47.084  28.674  27.458  1.00  0.00     0.049 A 
ATOM     63  C   UNL A   1      41.972  29.817  29.436  1.00  0.00     0.074 A 
ATOM     64  C   UNL A   1      48.000  29.711  27.462  1.00  0.00     0.029 A 
ATOM     65  N   UNL A   1      45.910  29.173  27.998  1.00  0.00    -0.354 N 
ATOM     66  N   UNL A   1      43.203  29.707  28.997  1.00  0.00    -0.248 NA
ATOM     67  C   UNL A   1      41.654  31.133  30.007  1.00  0.00     0.031 C 
ATOM     68  C   UNL A   1      47.390  30.832  28.037  1.00  0.00     0.029 A 
ATOM     69  C   UNL A   1      46.081  30.504  28.354  1.00  0.00     0.049 A 
ATOM     70  H   UNL A   1      45.077  28.661  28.110  1.00  0.00     0.167 HD
ATOM     71  C   UNL A   1      43.797  30.942  29.214  1.00  0.00     0.074 A 
ATOM     72  C   UNL A   1      42.789  31.792  29.813  1.00  0.00     0.031 C 
ATOM     73  C   UNL A   1      45.064  31.337  28.941  1.00  0.00     0.037 A 
BRANCH  60  74
ATOM     74  C   UNL A   1      48.614  26.912  26.493  1.00  0.00     0.064 A 
ATOM     75  C   UNL A   1      49.573  26.345  27.344  1.00  0.00     0.173 A 
ATOM     76  C   UNL A   1      48.945  27.065  25.138  1.00  0.00     0.173 A 
ATOM     77  F   UNL A   1      49.309  26.189  28.650  1.00  0.00    -0.203 F 
ATOM     78  C   UNL A   1      50.826  25.973  26.864  1.00  0.00     0.198 A 
ATOM     79  C   UNL A   1      50.189  26.666  24.657  1.00  0.00     0.198 A 
ATOM     80  F   UNL A   1      48.061  27.598  24.281  1.00  0.00    -0.203 F 
ATOM     81  F   UNL A   1      51.745  25.479  27.706  1.00  0.00    -0.200 F 
ATOM     82  C   UNL A   1      51.131  26.128  25.520  1.00  0.00     0.200 A 
ATOM     83  F   UNL A   1      50.479  26.806  23.355  1.00  0.00    -0.200 F 
ATOM     84  F   UNL A   1      52.337  25.766  25.059  1.00  0.00    -0.200 F 
ENDBRANCH  60  74
BRANCH  61  85
ATOM     85  C   UNL A   1      39.520  29.134  29.953  1.00  0.00     0.064 A 
ATOM     86  C   UNL A   1      38.564  29.750  29.134  1.00  0.00     0.173 A 
ATOM     87  C   UNL A   1      39.159  28.850  31.278  1.00  0.00     0.173 A 
ATOM     88  F   UNL A   1      38.871  30.061  27.865  1.00  0.00    -0.203 F 
ATOM     89  C   UNL A   1      37.304  30.086  29.624  1.00  0.00     0.198 A 
ATOM     90  C   UNL A   1      37.890  29.164  31.761  1.00  0.00     0.198 A 
ATOM     91  F   UNL A   1      40.037  28.258  32.101  1.00  0.00    -0.203 F 
ATOM     92  F   UNL A   1      36.424  30.712  28.831  1.00  0.00    -0.200 F 
ATOM     93  C   UNL A   1      36.966  29.787  30.935  1.00  0.00     0.200 A 
ATOM     94  F   UNL A   1      37.563  28.865  33.025  1.00  0.00    -0.200 F 
ATOM     95  F   UNL A   1      35.753  30.109  31.406  1.00  0.00    -0.200 F 
ENDBRANCH  61  85
BRANCH  73  96
ATOM     96  C   UNL A   1      45.423  32.758  29.255  1.00  0.00     0.064 A 
ATOM     97  C   UNL A   1      45.184  33.797  28.341  1.00  0.00     0.173 A 
ATOM     98  C   UNL A   1      45.973  33.092  30.502  1.00  0.00     0.173 A 
ATOM     99  F   UNL A   1      44.673  33.523  27.131  1.00  0.00    -0.203 F 
ATOM    100  C   UNL A   1      45.503  35.113  28.657  1.00  0.00     0.198 A 
ATOM    101  C   UNL A   1      46.268  34.415  30.824  1.00  0.00     0.198 A 
ATOM    102  F   UNL A   1      46.216  32.137  31.411  1.00  0.00    -0.203 F 
ATOM    103  F   UNL A   1      45.304  36.083  27.754  1.00  0.00    -0.200 F 
ATOM    104  C   UNL A   1      46.038  35.423  29.900  1.00  0.00     0.200 A 
ATOM    105  F   UNL A   1      46.774  34.712  32.027  1.00  0.00    -0.200 F 
ATOM    106  F   UNL A   1      46.337  36.693  30.204  1.00  0.00    -0.200 F 
ENDBRANCH  73  96
ENDBRANCH  47  48
ENDBRANCH  39  42
ENDBRANCH  37  38
ENDBRANCH  36  37
ENDBRANCH  35  36
ENDBRANCH   1  35
TORSDOF 17
ENDMDL
