MODEL 1
REMARK VINA RESULT:     -12.2      0.000      0.000
REMARK SMILES CC(C)(C(=O)NCCCCNC(=O)c1ccc(-c2c3nc(c(-c4c(F)c(F)c(F)c(F)c4F)c4ccc([nH]4)c(-c4c(F)c(F)c(F)c(F)c4F)c4nc(c(-c5c(F)c(F)c(F)c(F)c5F)c5ccc2[nH]5)C=C4)C=C3)cc1)n1nnnc1C(F)(F)C(F)F
REMARK SMILES IDX 8 1 7 2 6 3 4 4 5 5 2 7 1 8 3 9 77 10 78 11 81 12 79 13
REMARK SMILES IDX 80 14 82 15 83 16 84 17 85 18 86 19 87 20 9 21 10 22 11 23
REMARK SMILES IDX 12 24 13 26 14 27 15 28 76 29 16 30 75 31 17 32 18 33 19 34
REMARK SMILES IDX 69 35 20 36 74 37 68 38 70 39 21 40 73 41 67 42 66 43 22 45
REMARK SMILES IDX 54 46 34 47 53 48 35 49 38 50 52 51 71 52 36 53 37 54 51 56
REMARK SMILES IDX 72 57 39 58 23 59 24 60 32 61 25 62 26 63 30 64 33 65 27 66
REMARK SMILES IDX 28 67 31 68 29 69 55 70 56 71 64 72 57 73 58 74 62 75 65 76
REMARK SMILES IDX 59 77 60 78 63 79 61 80 40 81 41 82 49 83 42 84 43 85 47 86
REMARK SMILES IDX 50 87 44 88 45 89 48 90 46 91
REMARK H PARENT 6 6 11 25 70 44 38 55
REMARK Flexibility Score: inf
ROOT
ATOM      1  C   UNL A   1      31.828  30.510  26.620  1.00  0.00     0.023 C 
ENDROOT
BRANCH   1   2
ATOM      2  C   UNL A   1      31.403  30.011  25.240  1.00  0.00     0.116 C 
BRANCH   2   3
ATOM      3  N   UNL A   1      32.561  29.671  24.436  1.00  0.00    -0.354 N 
ATOM      4  C   UNL A   1      32.915  28.525  23.786  1.00  0.00     0.247 C 
ATOM      5  O   UNL A   1      34.089  28.474  23.406  1.00  0.00    -0.272 OA
ATOM      6  H   UNL A   1      33.213  30.403  24.343  1.00  0.00     0.163 HD
BRANCH   4   7
ATOM      7  C   UNL A   1      31.923  27.370  23.504  1.00  0.00     0.139 C 
ATOM      8  C   UNL A   1      31.176  26.876  24.749  1.00  0.00     0.047 C 
ATOM      9  C   UNL A   1      30.824  27.909  22.530  1.00  0.00     0.047 C 
BRANCH   7  10
ATOM     10  N   UNL A   1      32.674  26.280  22.829  1.00  0.00    -0.209 N 
ATOM     11  N   UNL A   1      32.557  26.249  21.472  1.00  0.00    -0.044 NA
ATOM     12  C   UNL A   1      33.533  25.254  23.201  1.00  0.00     0.228 A 
ATOM     13  N   UNL A   1      33.278  25.239  21.044  1.00  0.00    -0.024 NA
ATOM     14  N   UNL A   1      33.867  24.611  22.084  1.00  0.00    -0.107 NA
BRANCH  12  15
ATOM     15  C   UNL A   1      34.126  24.780  24.490  1.00  0.00     0.367 C 
ATOM     16  F   UNL A   1      35.370  24.250  24.227  1.00  0.00    -0.191 F 
ATOM     17  F   UNL A   1      34.402  25.887  25.265  1.00  0.00    -0.191 F 
BRANCH  15  18
ATOM     18  C   UNL A   1      33.437  23.798  25.409  1.00  0.00     0.419 C 
ATOM     19  F   UNL A   1      33.032  24.364  26.570  1.00  0.00    -0.203 F 
ATOM     20  F   UNL A   1      32.342  23.247  24.830  1.00  0.00    -0.203 F 
ENDBRANCH  15  18
ENDBRANCH  12  15
ENDBRANCH   7  10
ENDBRANCH   4   7
ENDBRANCH   2   3
ENDBRANCH   1   2
BRANCH   1  21
ATOM     21  C   UNL A   1      31.544  31.993  26.870  1.00  0.00     0.023 C 
BRANCH  21  22
ATOM     22  C   UNL A   1      32.753  32.826  27.288  1.00  0.00     0.116 C 
BRANCH  22  23
ATOM     23  N   UNL A   1      32.420  34.202  27.625  1.00  0.00    -0.352 N 
ATOM     24  C   UNL A   1      32.996  35.017  28.568  1.00  0.00     0.251 C 
ATOM     25  H   UNL A   1      31.683  34.601  27.109  1.00  0.00     0.163 HD
ATOM     26  O   UNL A   1      32.529  36.129  28.796  1.00  0.00    -0.269 OA
BRANCH  24  27
ATOM     27  C   UNL A   1      34.158  34.529  29.338  1.00  0.00     0.039 A 
ATOM     28  C   UNL A   1      33.941  33.974  30.601  1.00  0.00     0.014 A 
ATOM     29  C   UNL A   1      35.446  34.589  28.800  1.00  0.00     0.014 A 
ATOM     30  C   UNL A   1      35.011  33.412  31.299  1.00  0.00     0.010 A 
ATOM     31  C   UNL A   1      36.499  33.970  29.467  1.00  0.00     0.010 A 
ATOM     32  C   UNL A   1      36.290  33.373  30.720  1.00  0.00    -0.014 A 
BRANCH  32  33
ATOM     33  C   UNL A   1      37.422  32.703  31.406  1.00  0.00     0.031 A 
ATOM     34  C   UNL A   1      38.118  31.543  30.755  1.00  0.00     0.074 A 
ATOM     35  C   UNL A   1      37.772  33.094  32.646  1.00  0.00     0.049 A 
ATOM     36  N   UNL A   1      39.071  30.779  31.224  1.00  0.00    -0.248 NA
ATOM     37  C   UNL A   1      37.662  31.175  29.405  1.00  0.00     0.031 C 
ATOM     38  C   UNL A   1      37.136  34.173  33.404  1.00  0.00     0.029 A 
ATOM     39  N   UNL A   1      38.741  32.619  33.495  1.00  0.00    -0.354 N 
ATOM     40  C   UNL A   1      39.318  29.835  30.236  1.00  0.00     0.074 A 
ATOM     41  C   UNL A   1      38.379  30.088  29.164  1.00  0.00     0.031 C 
ATOM     42  C   UNL A   1      37.741  34.287  34.598  1.00  0.00     0.029 A 
ATOM     43  C   UNL A   1      38.783  33.271  34.703  1.00  0.00     0.049 A 
ATOM     44  H   UNL A   1      39.349  31.881  33.259  1.00  0.00     0.167 HD
ATOM     45  C   UNL A   1      40.259  28.862  30.216  1.00  0.00     0.037 A 
ATOM     46  C   UNL A   1      39.571  33.066  35.776  1.00  0.00     0.037 A 
ATOM     47  C   UNL A   1      41.207  28.630  31.273  1.00  0.00     0.049 A 
ATOM     48  C   UNL A   1      40.613  31.983  35.724  1.00  0.00     0.074 A 
ATOM     49  C   UNL A   1      42.235  27.705  31.324  1.00  0.00     0.029 A 
ATOM     50  N   UNL A   1      41.240  29.332  32.469  1.00  0.00    -0.354 N 
ATOM     51  N   UNL A   1      40.882  31.139  34.758  1.00  0.00    -0.248 NA
ATOM     52  C   UNL A   1      41.467  31.828  36.909  1.00  0.00     0.031 C 
ATOM     53  C   UNL A   1      42.867  27.822  32.567  1.00  0.00     0.029 A 
ATOM     54  C   UNL A   1      42.262  28.850  33.272  1.00  0.00     0.049 A 
ATOM     55  H   UNL A   1      40.628  30.065  32.712  1.00  0.00     0.167 HD
ATOM     56  C   UNL A   1      41.950  30.373  35.205  1.00  0.00     0.074 A 
ATOM     57  C   UNL A   1      42.290  30.863  36.525  1.00  0.00     0.031 C 
ATOM     58  C   UNL A   1      42.591  29.356  34.580  1.00  0.00     0.037 A 
BRANCH  45  59
ATOM     59  C   UNL A   1      40.315  27.979  29.002  1.00  0.00     0.064 A 
ATOM     60  C   UNL A   1      39.613  26.765  28.947  1.00  0.00     0.173 A 
ATOM     61  C   UNL A   1      41.053  28.363  27.873  1.00  0.00     0.173 A 
ATOM     62  F   UNL A   1      38.903  26.346  30.005  1.00  0.00    -0.203 F 
ATOM     63  C   UNL A   1      39.672  25.954  27.816  1.00  0.00     0.198 A 
ATOM     64  C   UNL A   1      41.086  27.564  26.733  1.00  0.00     0.198 A 
ATOM     65  F   UNL A   1      41.739  29.516  27.872  1.00  0.00    -0.203 F 
ATOM     66  F   UNL A   1      39.035  24.776  27.806  1.00  0.00    -0.200 F 
ATOM     67  C   UNL A   1      40.402  26.357  26.708  1.00  0.00     0.200 A 
ATOM     68  F   UNL A   1      41.782  27.960  25.659  1.00  0.00    -0.200 F 
ATOM     69  F   UNL A   1      40.454  25.578  25.619  1.00  0.00    -0.200 F 
ENDBRANCH  45  59
BRANCH  46  70
ATOM     70  C   UNL A   1      39.421  33.923  36.979  1.00  0.00     0.064 A 
ATOM     71  C   UNL A   1      38.690  33.482  38.092  1.00  0.00     0.173 A 
ATOM     72  C   UNL A   1      40.002  35.198  37.044  1.00  0.00     0.173 A 
ATOM     73  F   UNL A   1      38.100  32.278  38.068  1.00  0.00    -0.203 F 
ATOM     74  C   UNL A   1      38.528  34.292  39.213  1.00  0.00     0.198 A 
ATOM     75  C   UNL A   1      39.861  35.996  38.178  1.00  0.00     0.198 A 
ATOM     76  F   UNL A   1      40.716  35.664  36.009  1.00  0.00    -0.203 F 
ATOM     77  F   UNL A   1      37.788  33.862  40.245  1.00  0.00    -0.200 F 
ATOM     78  C   UNL A   1      39.119  35.545  39.259  1.00  0.00     0.200 A 
ATOM     79  F   UNL A   1      40.446  37.201  38.223  1.00  0.00    -0.200 F 
ATOM     80  F   UNL A   1      38.966  36.322  40.339  1.00  0.00    -0.200 F 
ENDBRANCH  46  70
BRANCH  58  81
ATOM     81  C   UNL A   1      43.745  28.725  35.301  1.00  0.00     0.064 A 
ATOM     82  C   UNL A   1      45.056  29.200  35.148  1.00  0.00     0.173 A 
ATOM     83  C   UNL A   1      43.531  27.660  36.189  1.00  0.00     0.173 A 
ATOM     84  F   UNL A   1      45.314  30.207  34.298  1.00  0.00    -0.203 F 
ATOM     85  C   UNL A   1      46.113  28.616  35.840  1.00  0.00     0.198 A 
ATOM     86  C   UNL A   1      44.585  27.097  36.901  1.00  0.00     0.198 A 
ATOM     87  F   UNL A   1      42.294  27.174  36.375  1.00  0.00    -0.203 F 
ATOM     88  F   UNL A   1      47.363  29.056  35.645  1.00  0.00    -0.200 F 
ATOM     89  C   UNL A   1      45.876  27.570  36.720  1.00  0.00     0.200 A 
ATOM     90  F   UNL A   1      44.354  26.096  37.760  1.00  0.00    -0.200 F 
ATOM     91  F   UNL A   1      46.894  27.015  37.391  1.00  0.00    -0.200 F 
ENDBRANCH  58  81
ENDBRANCH  32  33
ENDBRANCH  24  27
ENDBRANCH  22  23
ENDBRANCH  21  22
ENDBRANCH   1  21
TORSDOF 14
ENDMDL
MODEL 2
REMARK VINA RESULT:     -12.1      0.895      2.283
REMARK SMILES CC(C)(C(=O)NCCCCNC(=O)c1ccc(-c2c3nc(c(-c4c(F)c(F)c(F)c(F)c4F)c4ccc([nH]4)c(-c4c(F)c(F)c(F)c(F)c4F)c4nc(c(-c5c(F)c(F)c(F)c(F)c5F)c5ccc2[nH]5)C=C4)C=C3)cc1)n1nnnc1C(F)(F)C(F)F
REMARK SMILES IDX 8 1 7 2 6 3 4 4 5 5 2 7 1 8 3 9 77 10 78 11 81 12 79 13
REMARK SMILES IDX 80 14 82 15 83 16 84 17 85 18 86 19 87 20 9 21 10 22 11 23
REMARK SMILES IDX 12 24 13 26 14 27 15 28 76 29 16 30 75 31 17 32 18 33 19 34
REMARK SMILES IDX 69 35 20 36 74 37 68 38 70 39 21 40 73 41 67 42 66 43 22 45
REMARK SMILES IDX 54 46 34 47 53 48 35 49 38 50 52 51 71 52 36 53 37 54 51 56
REMARK SMILES IDX 72 57 39 58 23 59 24 60 32 61 25 62 26 63 30 64 33 65 27 66
REMARK SMILES IDX 28 67 31 68 29 69 55 70 56 71 64 72 57 73 58 74 62 75 65 76
REMARK SMILES IDX 59 77 60 78 63 79 61 80 40 81 41 82 49 83 42 84 43 85 47 86
REMARK SMILES IDX 50 87 44 88 45 89 48 90 46 91
REMARK H PARENT 6 6 11 25 70 44 38 55
REMARK Flexibility Score: inf
ROOT
ATOM      1  C   UNL A   1      31.795  30.499  26.750  1.00  0.00     0.023 C 
ENDROOT
BRANCH   1   2
ATOM      2  C   UNL A   1      32.270  29.910  25.423  1.00  0.00     0.116 C 
BRANCH   2   3
ATOM      3  N   UNL A   1      31.176  29.833  24.473  1.00  0.00    -0.354 N 
ATOM      4  C   UNL A   1      30.679  28.798  23.737  1.00  0.00     0.247 C 
ATOM      5  O   UNL A   1      29.908  29.119  22.826  1.00  0.00    -0.272 OA
ATOM      6  H   UNL A   1      30.706  30.687  24.334  1.00  0.00     0.163 HD
BRANCH   4   7
ATOM      7  C   UNL A   1      31.018  27.315  24.023  1.00  0.00     0.139 C 
ATOM      8  C   UNL A   1      31.305  27.018  25.500  1.00  0.00     0.047 C 
ATOM      9  C   UNL A   1      29.765  26.456  23.649  1.00  0.00     0.047 C 
BRANCH   7  10
ATOM     10  N   UNL A   1      32.148  26.927  23.141  1.00  0.00    -0.209 N 
ATOM     11  N   UNL A   1      32.798  27.962  22.539  1.00  0.00    -0.044 NA
ATOM     12  C   UNL A   1      32.788  25.753  22.763  1.00  0.00     0.228 A 
ATOM     13  N   UNL A   1      33.757  27.446  21.809  1.00  0.00    -0.024 NA
ATOM     14  N   UNL A   1      33.757  26.100  21.919  1.00  0.00    -0.107 NA
BRANCH  12  15
ATOM     15  C   UNL A   1      32.634  24.303  23.101  1.00  0.00     0.367 C 
ATOM     16  F   UNL A   1      32.660  24.172  24.472  1.00  0.00    -0.191 F 
ATOM     17  F   UNL A   1      31.354  23.920  22.763  1.00  0.00    -0.191 F 
BRANCH  15  18
ATOM     18  C   UNL A   1      33.543  23.224  22.559  1.00  0.00     0.419 C 
ATOM     19  F   UNL A   1      33.737  22.215  23.439  1.00  0.00    -0.203 F 
ATOM     20  F   UNL A   1      33.049  22.672  21.422  1.00  0.00    -0.203 F 
ENDBRANCH  15  18
ENDBRANCH  12  15
ENDBRANCH   7  10
ENDBRANCH   4   7
ENDBRANCH   2   3
ENDBRANCH   1   2
BRANCH   1  21
ATOM     21  C   UNL A   1      31.608  32.018  26.735  1.00  0.00     0.023 C 
BRANCH  21  22
ATOM     22  C   UNL A   1      32.777  32.823  27.297  1.00  0.00     0.116 C 
BRANCH  22  23
ATOM     23  N   UNL A   1      32.421  34.189  27.653  1.00  0.00    -0.352 N 
ATOM     24  C   UNL A   1      32.987  35.002  28.604  1.00  0.00     0.251 C 
ATOM     25  H   UNL A   1      31.675  34.581  27.145  1.00  0.00     0.163 HD
ATOM     26  O   UNL A   1      32.502  36.103  28.848  1.00  0.00    -0.269 OA
BRANCH  24  27
ATOM     27  C   UNL A   1      34.161  34.525  29.362  1.00  0.00     0.039 A 
ATOM     28  C   UNL A   1      33.959  33.944  30.616  1.00  0.00     0.014 A 
ATOM     29  C   UNL A   1      35.446  34.620  28.822  1.00  0.00     0.014 A 
ATOM     30  C   UNL A   1      35.042  33.393  31.301  1.00  0.00     0.010 A 
ATOM     31  C   UNL A   1      36.513  34.012  29.476  1.00  0.00     0.010 A 
ATOM     32  C   UNL A   1      36.321  33.389  30.719  1.00  0.00    -0.014 A 
BRANCH  32  33
ATOM     33  C   UNL A   1      37.468  32.731  31.390  1.00  0.00     0.031 A 
ATOM     34  C   UNL A   1      38.164  31.575  30.732  1.00  0.00     0.074 A 
ATOM     35  C   UNL A   1      37.832  33.129  32.624  1.00  0.00     0.049 A 
ATOM     36  N   UNL A   1      39.130  30.820  31.190  1.00  0.00    -0.248 NA
ATOM     37  C   UNL A   1      37.691  31.199  29.390  1.00  0.00     0.031 C 
ATOM     38  C   UNL A   1      37.198  34.205  33.388  1.00  0.00     0.029 A 
ATOM     39  N   UNL A   1      38.817  32.665  33.460  1.00  0.00    -0.354 N 
ATOM     40  C   UNL A   1      39.371  29.876  30.202  1.00  0.00     0.074 A 
ATOM     41  C   UNL A   1      38.414  30.117  29.143  1.00  0.00     0.031 C 
ATOM     42  C   UNL A   1      37.819  34.328  34.572  1.00  0.00     0.029 A 
ATOM     43  C   UNL A   1      38.872  33.320  34.665  1.00  0.00     0.049 A 
ATOM     44  H   UNL A   1      39.428  31.931  33.218  1.00  0.00     0.167 HD
ATOM     45  C   UNL A   1      40.320  28.910  30.170  1.00  0.00     0.037 A 
ATOM     46  C   UNL A   1      39.676  33.125  35.727  1.00  0.00     0.037 A 
ATOM     47  C   UNL A   1      41.284  28.690  31.215  1.00  0.00     0.049 A 
ATOM     48  C   UNL A   1      40.727  32.051  35.663  1.00  0.00     0.074 A 
ATOM     49  C   UNL A   1      42.321  27.773  31.254  1.00  0.00     0.029 A 
ATOM     50  N   UNL A   1      41.329  29.396  32.408  1.00  0.00    -0.354 N 
ATOM     51  N   UNL A   1      40.989  31.207  34.696  1.00  0.00    -0.248 NA
ATOM     52  C   UNL A   1      41.599  31.907  36.837  1.00  0.00     0.031 C 
ATOM     53  C   UNL A   1      42.970  27.899  32.487  1.00  0.00     0.029 A 
ATOM     54  C   UNL A   1      42.367  28.925  33.197  1.00  0.00     0.049 A 
ATOM     55  H   UNL A   1      40.715  30.124  32.658  1.00  0.00     0.167 HD
ATOM     56  C   UNL A   1      42.070  30.451  35.130  1.00  0.00     0.074 A 
ATOM     57  C   UNL A   1      42.424  30.948  36.444  1.00  0.00     0.031 C 
ATOM     58  C   UNL A   1      42.710  29.437  34.499  1.00  0.00     0.037 A 
BRANCH  45  59
ATOM     59  C   UNL A   1      40.365  28.024  28.959  1.00  0.00     0.064 A 
ATOM     60  C   UNL A   1      41.122  28.368  27.828  1.00  0.00     0.173 A 
ATOM     61  C   UNL A   1      39.670  26.806  28.938  1.00  0.00     0.173 A 
ATOM     62  F   UNL A   1      41.795  29.528  27.792  1.00  0.00    -0.203 F 
ATOM     63  C   UNL A   1      41.157  27.538  26.710  1.00  0.00     0.198 A 
ATOM     64  C   UNL A   1      39.732  25.965  27.830  1.00  0.00     0.198 A 
ATOM     65  F   UNL A   1      38.935  26.428  29.995  1.00  0.00    -0.203 F 
ATOM     66  F   UNL A   1      41.846  27.912  25.623  1.00  0.00    -0.200 F 
ATOM     67  C   UNL A   1      40.468  26.335  26.715  1.00  0.00     0.200 A 
ATOM     68  F   UNL A   1      39.074  24.797  27.840  1.00  0.00    -0.200 F 
ATOM     69  F   UNL A   1      40.507  25.536  25.640  1.00  0.00    -0.200 F 
ENDBRANCH  45  59
BRANCH  46  70
ATOM     70  C   UNL A   1      39.536  33.985  36.931  1.00  0.00     0.064 A 
ATOM     71  C   UNL A   1      40.176  35.230  37.004  1.00  0.00     0.173 A 
ATOM     72  C   UNL A   1      38.763  33.583  38.029  1.00  0.00     0.173 A 
ATOM     73  F   UNL A   1      40.942  35.649  35.986  1.00  0.00    -0.203 F 
ATOM     74  C   UNL A   1      40.066  36.030  38.139  1.00  0.00     0.198 A 
ATOM     75  C   UNL A   1      38.632  34.396  39.153  1.00  0.00     0.198 A 
ATOM     76  F   UNL A   1      38.125  32.404  38.006  1.00  0.00    -0.203 F 
ATOM     77  F   UNL A   1      40.724  37.196  38.200  1.00  0.00    -0.200 F 
ATOM     78  C   UNL A   1      39.289  35.616  39.210  1.00  0.00     0.200 A 
ATOM     79  F   UNL A   1      37.868  33.998  40.180  1.00  0.00    -0.200 F 
ATOM     80  F   UNL A   1      39.180  36.387  40.300  1.00  0.00    -0.200 F 
ENDBRANCH  46  70
BRANCH  58  81
ATOM     81  C   UNL A   1      43.880  28.818  35.205  1.00  0.00     0.064 A 
ATOM     82  C   UNL A   1      43.718  27.745  36.093  1.00  0.00     0.173 A 
ATOM     83  C   UNL A   1      45.182  29.278  34.958  1.00  0.00     0.173 A 
ATOM     84  F   UNL A   1      42.491  27.279  36.374  1.00  0.00    -0.203 F 
ATOM     85  C   UNL A   1      44.817  27.169  36.726  1.00  0.00     0.198 A 
ATOM     86  C   UNL A   1      46.280  28.682  35.570  1.00  0.00     0.198 A 
ATOM     87  F   UNL A   1      45.389  30.299  34.112  1.00  0.00    -0.203 F 
ATOM     88  F   UNL A   1      44.636  26.174  37.604  1.00  0.00    -0.200 F 
ATOM     89  C   UNL A   1      46.097  27.633  36.458  1.00  0.00     0.200 A 
ATOM     90  F   UNL A   1      47.517  29.123  35.301  1.00  0.00    -0.200 F 
ATOM     91  F   UNL A   1      47.153  27.073  37.062  1.00  0.00    -0.200 F 
ENDBRANCH  58  81
ENDBRANCH  32  33
ENDBRANCH  24  27
ENDBRANCH  22  23
ENDBRANCH  21  22
ENDBRANCH   1  21
TORSDOF 14
ENDMDL
MODEL 3
REMARK VINA RESULT:     -12.1      6.010     11.406
REMARK SMILES CC(C)(C(=O)NCCCCNC(=O)c1ccc(-c2c3nc(c(-c4c(F)c(F)c(F)c(F)c4F)c4ccc([nH]4)c(-c4c(F)c(F)c(F)c(F)c4F)c4nc(c(-c5c(F)c(F)c(F)c(F)c5F)c5ccc2[nH]5)C=C4)C=C3)cc1)n1nnnc1C(F)(F)C(F)F
REMARK SMILES IDX 8 1 7 2 6 3 4 4 5 5 2 7 1 8 3 9 77 10 78 11 81 12 79 13
REMARK SMILES IDX 80 14 82 15 83 16 84 17 85 18 86 19 87 20 9 21 10 22 11 23
REMARK SMILES IDX 12 24 13 26 14 27 15 28 76 29 16 30 75 31 17 32 18 33 19 34
REMARK SMILES IDX 69 35 20 36 74 37 68 38 70 39 21 40 73 41 67 42 66 43 22 45
REMARK SMILES IDX 54 46 34 47 53 48 35 49 38 50 52 51 71 52 36 53 37 54 51 56
REMARK SMILES IDX 72 57 39 58 23 59 24 60 32 61 25 62 26 63 30 64 33 65 27 66
REMARK SMILES IDX 28 67 31 68 29 69 55 70 56 71 64 72 57 73 58 74 62 75 65 76
REMARK SMILES IDX 59 77 60 78 63 79 61 80 40 81 41 82 49 83 42 84 43 85 47 86
REMARK SMILES IDX 50 87 44 88 45 89 48 90 46 91
REMARK H PARENT 6 6 11 25 70 44 38 55
REMARK Flexibility Score: inf
ROOT
ATOM      1  C   UNL A   1      37.034  20.926  24.795  1.00  0.00     0.023 C 
ENDROOT
BRANCH   1   2
ATOM      2  C   UNL A   1      35.579  20.509  25.004  1.00  0.00     0.116 C 
BRANCH   2   3
ATOM      3  N   UNL A   1      35.052  21.078  26.231  1.00  0.00    -0.354 N 
ATOM      4  C   UNL A   1      34.016  21.932  26.468  1.00  0.00     0.247 C 
ATOM      5  O   UNL A   1      33.989  22.429  27.599  1.00  0.00    -0.272 OA
ATOM      6  H   UNL A   1      35.533  20.794  27.043  1.00  0.00     0.163 HD
BRANCH   4   7
ATOM      7  C   UNL A   1      32.921  22.247  25.420  1.00  0.00     0.139 C 
ATOM      8  C   UNL A   1      33.471  22.740  24.076  1.00  0.00     0.047 C 
ATOM      9  C   UNL A   1      32.158  20.917  25.109  1.00  0.00     0.047 C 
BRANCH   7  10
ATOM     10  N   UNL A   1      31.973  23.215  26.029  1.00  0.00    -0.209 N 
ATOM     11  N   UNL A   1      30.887  22.661  26.637  1.00  0.00    -0.044 NA
ATOM     12  C   UNL A   1      31.892  24.592  26.196  1.00  0.00     0.228 A 
ATOM     13  N   UNL A   1      30.167  23.647  27.118  1.00  0.00    -0.024 NA
ATOM     14  N   UNL A   1      30.754  24.832  26.845  1.00  0.00    -0.107 NA
BRANCH  12  15
ATOM     15  C   UNL A   1      32.760  25.758  25.843  1.00  0.00     0.367 C 
ATOM     16  F   UNL A   1      32.493  26.782  26.726  1.00  0.00    -0.191 F 
ATOM     17  F   UNL A   1      34.066  25.418  26.127  1.00  0.00    -0.191 F 
BRANCH  15  18
ATOM     18  C   UNL A   1      32.789  26.387  24.469  1.00  0.00     0.419 C 
ATOM     19  F   UNL A   1      34.017  26.348  23.902  1.00  0.00    -0.203 F 
ATOM     20  F   UNL A   1      31.935  25.770  23.614  1.00  0.00    -0.203 F 
ENDBRANCH  15  18
ENDBRANCH  12  15
ENDBRANCH   7  10
ENDBRANCH   4   7
ENDBRANCH   2   3
ENDBRANCH   1   2
BRANCH   1  21
ATOM     21  C   UNL A   1      38.046  19.791  24.963  1.00  0.00     0.023 C 
BRANCH  21  22
ATOM     22  C   UNL A   1      39.303  20.151  25.751  1.00  0.00     0.116 C 
BRANCH  22  23
ATOM     23  N   UNL A   1      40.253  19.054  25.860  1.00  0.00    -0.352 N 
ATOM     24  C   UNL A   1      41.599  19.108  26.128  1.00  0.00     0.251 C 
ATOM     25  H   UNL A   1      39.882  18.153  25.721  1.00  0.00     0.163 HD
ATOM     26  O   UNL A   1      42.282  18.089  26.088  1.00  0.00    -0.269 OA
BRANCH  24  27
ATOM     27  C   UNL A   1      42.228  20.411  26.425  1.00  0.00     0.039 A 
ATOM     28  C   UNL A   1      42.792  21.138  25.375  1.00  0.00     0.014 A 
ATOM     29  C   UNL A   1      42.228  20.924  27.724  1.00  0.00     0.014 A 
ATOM     30  C   UNL A   1      43.297  22.416  25.616  1.00  0.00     0.010 A 
ATOM     31  C   UNL A   1      42.671  22.223  27.950  1.00  0.00     0.010 A 
ATOM     32  C   UNL A   1      43.206  22.983  26.898  1.00  0.00    -0.014 A 
BRANCH  32  33
ATOM     33  C   UNL A   1      43.656  24.372  27.157  1.00  0.00     0.031 A 
ATOM     34  C   UNL A   1      42.680  25.401  27.653  1.00  0.00     0.074 A 
ATOM     35  C   UNL A   1      44.925  24.723  26.874  1.00  0.00     0.049 A 
ATOM     36  N   UNL A   1      42.860  26.679  27.863  1.00  0.00    -0.248 NA
ATOM     37  C   UNL A   1      41.311  24.933  27.923  1.00  0.00     0.031 C 
ATOM     38  C   UNL A   1      45.950  23.827  26.337  1.00  0.00     0.029 A 
ATOM     39  N   UNL A   1      45.566  25.932  26.985  1.00  0.00    -0.354 N 
ATOM     40  C   UNL A   1      41.628  27.170  28.275  1.00  0.00     0.074 A 
ATOM     41  C   UNL A   1      40.696  26.064  28.234  1.00  0.00     0.031 C 
ATOM     42  C   UNL A   1      47.094  24.512  26.180  1.00  0.00     0.029 A 
ATOM     43  C   UNL A   1      46.875  25.901  26.573  1.00  0.00     0.049 A 
ATOM     44  H   UNL A   1      45.128  26.744  27.328  1.00  0.00     0.167 HD
ATOM     45  C   UNL A   1      41.310  28.425  28.674  1.00  0.00     0.037 A 
ATOM     46  C   UNL A   1      47.793  26.885  26.513  1.00  0.00     0.037 A 
ATOM     47  C   UNL A   1      42.246  29.515  28.736  1.00  0.00     0.049 A 
ATOM     48  C   UNL A   1      47.416  28.267  26.971  1.00  0.00     0.074 A 
ATOM     49  C   UNL A   1      42.036  30.810  29.179  1.00  0.00     0.029 A 
ATOM     50  N   UNL A   1      43.574  29.438  28.342  1.00  0.00    -0.354 N 
ATOM     51  N   UNL A   1      46.266  28.705  27.421  1.00  0.00    -0.248 NA
ATOM     52  C   UNL A   1      48.468  29.292  26.917  1.00  0.00     0.031 C 
ATOM     53  C   UNL A   1      43.227  31.526  29.017  1.00  0.00     0.029 A 
ATOM     54  C   UNL A   1      44.192  30.667  28.516  1.00  0.00     0.049 A 
ATOM     55  H   UNL A   1      44.013  28.630  27.989  1.00  0.00     0.167 HD
ATOM     56  C   UNL A   1      46.460  30.044  27.730  1.00  0.00     0.074 A 
ATOM     57  C   UNL A   1      47.845  30.344  27.429  1.00  0.00     0.031 C 
ATOM     58  C   UNL A   1      45.573  30.944  28.218  1.00  0.00     0.037 A 
BRANCH  45  59
ATOM     59  C   UNL A   1      39.889  28.680  29.085  1.00  0.00     0.064 A 
ATOM     60  C   UNL A   1      38.929  29.127  28.164  1.00  0.00     0.173 A 
ATOM     61  C   UNL A   1      39.475  28.449  30.405  1.00  0.00     0.173 A 
ATOM     62  F   UNL A   1      39.277  29.375  26.893  1.00  0.00    -0.203 F 
ATOM     63  C   UNL A   1      37.613  29.361  28.557  1.00  0.00     0.198 A 
ATOM     64  C   UNL A   1      38.152  28.655  30.788  1.00  0.00     0.198 A 
ATOM     65  F   UNL A   1      40.352  28.018  31.325  1.00  0.00    -0.203 F 
ATOM     66  F   UNL A   1      36.727  29.836  27.671  1.00  0.00    -0.200 F 
ATOM     67  C   UNL A   1      37.225  29.119  29.866  1.00  0.00     0.200 A 
ATOM     68  F   UNL A   1      37.775  28.410  32.050  1.00  0.00    -0.200 F 
ATOM     69  F   UNL A   1      35.957  29.340  30.241  1.00  0.00    -0.200 F 
ENDBRANCH  45  59
BRANCH  46  70
ATOM     70  C   UNL A   1      49.165  26.590  26.027  1.00  0.00     0.064 A 
ATOM     71  C   UNL A   1      49.534  26.862  24.702  1.00  0.00     0.173 A 
ATOM     72  C   UNL A   1      50.134  26.030  26.873  1.00  0.00     0.173 A 
ATOM     73  F   UNL A   1      48.636  27.379  23.852  1.00  0.00    -0.203 F 
ATOM     74  C   UNL A   1      50.812  26.566  24.236  1.00  0.00     0.198 A 
ATOM     75  C   UNL A   1      51.422  25.760  26.412  1.00  0.00     0.198 A 
ATOM     76  F   UNL A   1      49.834  25.757  28.151  1.00  0.00    -0.203 F 
ATOM     77  F   UNL A   1      51.125  26.796  22.954  1.00  0.00    -0.200 F 
ATOM     78  C   UNL A   1      51.757  26.022  25.092  1.00  0.00     0.200 A 
ATOM     79  F   UNL A   1      52.336  25.246  27.247  1.00  0.00    -0.200 F 
ATOM     80  F   UNL A   1      52.988  25.741  24.644  1.00  0.00    -0.200 F 
ENDBRANCH  46  70
BRANCH  58  81
ATOM     81  C   UNL A   1      46.079  32.331  28.488  1.00  0.00     0.064 A 
ATOM     82  C   UNL A   1      46.012  33.340  27.516  1.00  0.00     0.173 A 
ATOM     83  C   UNL A   1      46.600  32.663  29.747  1.00  0.00     0.173 A 
ATOM     84  F   UNL A   1      45.536  33.067  26.291  1.00  0.00    -0.203 F 
ATOM     85  C   UNL A   1      46.468  34.627  27.789  1.00  0.00     0.198 A 
ATOM     86  C   UNL A   1      47.028  33.957  30.027  1.00  0.00     0.198 A 
ATOM     87  F   UNL A   1      46.679  31.734  30.712  1.00  0.00    -0.203 F 
ATOM     88  F   UNL A   1      46.435  35.564  26.833  1.00  0.00    -0.200 F 
ATOM     89  C   UNL A   1      46.969  34.936  29.045  1.00  0.00     0.200 A 
ATOM     90  F   UNL A   1      47.500  34.258  31.244  1.00  0.00    -0.200 F 
ATOM     91  F   UNL A   1      47.400  36.177  29.309  1.00  0.00    -0.200 F 
ENDBRANCH  58  81
ENDBRANCH  32  33
ENDBRANCH  24  27
ENDBRANCH  22  23
ENDBRANCH  21  22
ENDBRANCH   1  21
TORSDOF 14
ENDMDL
