MODEL 1
REMARK VINA RESULT:     -12.4      0.000      0.000
REMARK SMILES [NH3+][C@@]1(C(=O)NCCCCNC(=O)c2ccc(-c3c4nc(c(-c5c(F)c(F)c(F)c(F)c5F)c5ccc([nH]5)c(-c5c(F)c(F)c(F)c(F)c5F)c5nc(c(-c6c(F)c(F)c(F)c(F)c6F)c6ccc3[nH]6)C=C5)C=C4)cc2)CC[C@@H](Sc2ccc(Cl)c(Cl)c2)C1
REMARK SMILES IDX 7 1 6 2 5 3 3 4 4 5 2 7 76 8 88 9 77 10 78 11 1 12 79 16
REMARK SMILES IDX 80 17 81 18 87 19 82 20 85 21 83 22 86 23 84 24 8 25 9 26
REMARK SMILES IDX 10 27 11 28 12 30 13 31 14 32 75 33 15 34 74 35 16 36 17 37
REMARK SMILES IDX 18 38 68 39 19 40 73 41 67 42 69 43 20 44 72 45 66 46 65 47
REMARK SMILES IDX 21 49 53 50 33 51 52 52 34 53 37 54 51 55 70 56 35 57 36 58
REMARK SMILES IDX 50 60 71 61 38 62 22 63 23 64 31 65 24 66 25 67 29 68 32 69
REMARK SMILES IDX 26 70 27 71 30 72 28 73 54 74 55 75 63 76 56 77 57 78 61 79
REMARK SMILES IDX 64 80 58 81 59 82 62 83 60 84 39 85 40 86 48 87 41 88 42 89
REMARK SMILES IDX 46 90 49 91 43 92 44 93 47 94 45 95
REMARK H PARENT 5 6 1 13 1 14 1 15 10 29 69 48 37 59
REMARK Flexibility Score: inf
ROOT
ATOM      1  C   UNL A   1      32.246  28.492  23.343  1.00  0.00     0.023 C 
ENDROOT
BRANCH   1   2
ATOM      2  C   UNL A   1      31.387  27.425  22.674  1.00  0.00     0.116 C 
BRANCH   2   3
ATOM      3  N   UNL A   1      32.082  26.756  21.602  1.00  0.00    -0.351 N 
ATOM      4  C   UNL A   1      32.565  25.490  21.497  1.00  0.00     0.281 C 
ATOM      5  O   UNL A   1      33.197  25.241  20.460  1.00  0.00    -0.268 OA
ATOM      6  H   UNL A   1      32.234  27.315  20.807  1.00  0.00     0.163 HD
BRANCH   4   7
ATOM      7  C   UNL A   1      32.388  24.378  22.600  1.00  0.00     0.175 C 
ATOM      8  C   UNL A   1      30.947  24.225  23.106  1.00  0.00     0.080 C 
ATOM      9  C   UNL A   1      33.277  24.614  23.829  1.00  0.00     0.094 C 
ATOM     10  C   UNL A   1      30.908  24.636  24.574  1.00  0.00     0.022 C 
ATOM     11  C   UNL A   1      32.355  24.796  25.040  1.00  0.00     0.058 C 
BRANCH   7  12
ATOM     12  N   UNL A   1      32.729  23.082  21.950  1.00  0.00    -0.345 N 
ATOM     13  H   UNL A   1      33.169  23.258  21.047  1.00  0.00     0.345 HD
ATOM     14  H   UNL A   1      31.878  22.535  21.813  1.00  0.00     0.345 HD
ATOM     15  H   UNL A   1      33.374  22.562  22.546  1.00  0.00     0.345 HD
ENDBRANCH   7  12
BRANCH  11  16
ATOM     16  S   UNL A   1      32.844  23.794  26.501  1.00  0.00    -0.122 SA
BRANCH  16  17
ATOM     17  C   UNL A   1      33.153  22.201  25.772  1.00  0.00     0.009 A 
ATOM     18  C   UNL A   1      32.074  21.428  25.334  1.00  0.00     0.017 A 
ATOM     19  C   UNL A   1      34.451  21.703  25.645  1.00  0.00     0.037 A 
ATOM     20  C   UNL A   1      32.292  20.192  24.725  1.00  0.00     0.023 A 
ATOM     21  C   UNL A   1      34.675  20.465  25.034  1.00  0.00     0.060 A 
ATOM     22  C   UNL A   1      33.594  19.709  24.566  1.00  0.00     0.059 A 
ATOM     23  Cl  UNL A   1      36.311  19.929  24.890  1.00  0.00    -0.083 Cl
ATOM     24  Cl  UNL A   1      33.795  18.179  23.794  1.00  0.00    -0.083 Cl
ENDBRANCH  16  17
ENDBRANCH  11  16
ENDBRANCH   4   7
ENDBRANCH   2   3
ENDBRANCH   1   2
BRANCH   1  25
ATOM     25  C   UNL A   1      31.996  28.655  24.841  1.00  0.00     0.023 C 
BRANCH  25  26
ATOM     26  C   UNL A   1      33.052  29.460  25.593  1.00  0.00     0.116 C 
BRANCH  26  27
ATOM     27  N   UNL A   1      32.559  30.719  26.135  1.00  0.00    -0.352 N 
ATOM     28  C   UNL A   1      33.153  31.537  27.068  1.00  0.00     0.251 C 
ATOM     29  H   UNL A   1      31.689  31.024  25.790  1.00  0.00     0.163 HD
ATOM     30  O   UNL A   1      32.582  32.535  27.485  1.00  0.00    -0.269 OA
BRANCH  28  31
ATOM     31  C   UNL A   1      34.479  31.161  27.597  1.00  0.00     0.039 A 
ATOM     32  C   UNL A   1      35.453  32.152  27.738  1.00  0.00     0.014 A 
ATOM     33  C   UNL A   1      34.726  29.854  28.024  1.00  0.00     0.014 A 
ATOM     34  C   UNL A   1      36.650  31.849  28.390  1.00  0.00     0.010 A 
ATOM     35  C   UNL A   1      35.886  29.574  28.736  1.00  0.00     0.010 A 
ATOM     36  C   UNL A   1      36.855  30.570  28.934  1.00  0.00    -0.014 A 
BRANCH  36  37
ATOM     37  C   UNL A   1      38.066  30.256  29.731  1.00  0.00     0.031 A 
ATOM     38  C   UNL A   1      39.093  29.302  29.189  1.00  0.00     0.074 A 
ATOM     39  C   UNL A   1      38.192  30.753  30.977  1.00  0.00     0.049 A 
ATOM     40  N   UNL A   1      40.163  28.822  29.770  1.00  0.00    -0.248 NA
ATOM     41  C   UNL A   1      38.868  28.790  27.827  1.00  0.00     0.031 C 
ATOM     42  C   UNL A   1      37.227  31.632  31.641  1.00  0.00     0.029 A 
ATOM     43  N   UNL A   1      39.175  30.573  31.918  1.00  0.00    -0.354 N 
ATOM     44  C   UNL A   1      40.717  27.932  28.859  1.00  0.00     0.074 A 
ATOM     45  C   UNL A   1      39.849  27.908  27.704  1.00  0.00     0.031 C 
ATOM     46  C   UNL A   1      37.670  31.921  32.875  1.00  0.00     0.029 A 
ATOM     47  C   UNL A   1      38.934  31.227  33.102  1.00  0.00     0.049 A 
ATOM     48  H   UNL A   1      39.979  30.026  31.758  1.00  0.00     0.167 HD
ATOM     49  C   UNL A   1      41.859  27.214  28.973  1.00  0.00     0.037 A 
ATOM     50  C   UNL A   1      39.648  31.254  34.243  1.00  0.00     0.037 A 
ATOM     51  C   UNL A   1      42.752  27.289  30.098  1.00  0.00     0.049 A 
ATOM     52  C   UNL A   1      40.942  30.489  34.317  1.00  0.00     0.074 A 
ATOM     53  C   UNL A   1      43.989  26.688  30.257  1.00  0.00     0.029 A 
ATOM     54  N   UNL A   1      42.506  28.013  31.254  1.00  0.00    -0.354 N 
ATOM     55  N   UNL A   1      41.505  29.729  33.411  1.00  0.00    -0.248 NA
ATOM     56  C   UNL A   1      41.706  30.596  35.569  1.00  0.00     0.031 C 
ATOM     57  C   UNL A   1      44.475  27.018  31.526  1.00  0.00     0.029 A 
ATOM     58  C   UNL A   1      43.559  27.856  32.139  1.00  0.00     0.049 A 
ATOM     59  H   UNL A   1      41.702  28.556  31.420  1.00  0.00     0.167 HD
ATOM     60  C   UNL A   1      42.698  29.290  33.970  1.00  0.00     0.074 A 
ATOM     61  C   UNL A   1      42.786  29.881  35.288  1.00  0.00     0.031 C 
ATOM     62  C   UNL A   1      43.636  28.468  33.441  1.00  0.00     0.037 A 
BRANCH  49  63
ATOM     63  C   UNL A   1      42.224  26.294  27.847  1.00  0.00     0.064 A 
ATOM     64  C   UNL A   1      41.633  25.030  27.711  1.00  0.00     0.173 A 
ATOM     65  C   UNL A   1      43.127  26.710  26.858  1.00  0.00     0.173 A 
ATOM     66  F   UNL A   1      40.773  24.583  28.638  1.00  0.00    -0.203 F 
ATOM     67  C   UNL A   1      41.947  24.207  26.632  1.00  0.00     0.198 A 
ATOM     68  C   UNL A   1      43.418  25.896  25.767  1.00  0.00     0.198 A 
ATOM     69  F   UNL A   1      43.716  27.912  26.942  1.00  0.00    -0.203 F 
ATOM     70  F   UNL A   1      41.396  22.989  26.539  1.00  0.00    -0.200 F 
ATOM     71  C   UNL A   1      42.831  24.644  25.657  1.00  0.00     0.200 A 
ATOM     72  F   UNL A   1      44.264  26.323  24.821  1.00  0.00    -0.200 F 
ATOM     73  F   UNL A   1      43.120  23.856  24.612  1.00  0.00    -0.200 F 
ENDBRANCH  49  63
BRANCH  50  74
ATOM     74  C   UNL A   1      39.169  32.044  35.408  1.00  0.00     0.064 A 
ATOM     75  C   UNL A   1      39.494  33.402  35.537  1.00  0.00     0.173 A 
ATOM     76  C   UNL A   1      38.406  31.455  36.425  1.00  0.00     0.173 A 
ATOM     77  F   UNL A   1      40.239  34.005  34.599  1.00  0.00    -0.203 F 
ATOM     78  C   UNL A   1      39.099  34.132  36.656  1.00  0.00     0.198 A 
ATOM     79  C   UNL A   1      37.989  32.193  37.531  1.00  0.00     0.198 A 
ATOM     80  F   UNL A   1      38.064  30.161  36.345  1.00  0.00    -0.203 F 
ATOM     81  F   UNL A   1      39.470  35.414  36.782  1.00  0.00    -0.200 F 
ATOM     82  C   UNL A   1      38.345  33.528  37.651  1.00  0.00     0.200 A 
ATOM     83  F   UNL A   1      37.249  31.610  38.484  1.00  0.00    -0.200 F 
ATOM     84  F   UNL A   1      37.969  34.230  38.729  1.00  0.00    -0.200 F 
ENDBRANCH  50  74
BRANCH  62  85
ATOM     85  C   UNL A   1      44.853  28.190  34.269  1.00  0.00     0.064 A 
ATOM     86  C   UNL A   1      45.965  29.043  34.249  1.00  0.00     0.173 A 
ATOM     87  C   UNL A   1      44.888  27.080  35.128  1.00  0.00     0.173 A 
ATOM     88  F   UNL A   1      45.983  30.108  33.432  1.00  0.00    -0.203 F 
ATOM     89  C   UNL A   1      47.078  28.783  35.043  1.00  0.00     0.198 A 
ATOM     90  C   UNL A   1      45.992  26.839  35.940  1.00  0.00     0.198 A 
ATOM     91  F   UNL A   1      43.845  26.238  35.187  1.00  0.00    -0.203 F 
ATOM     92  F   UNL A   1      48.148  29.589  34.977  1.00  0.00    -0.200 F 
ATOM     93  C   UNL A   1      47.088  27.688  35.893  1.00  0.00     0.200 A 
ATOM     94  F   UNL A   1      45.995  25.786  36.769  1.00  0.00    -0.200 F 
ATOM     95  F   UNL A   1      48.157  27.444  36.662  1.00  0.00    -0.200 F 
ENDBRANCH  62  85
ENDBRANCH  36  37
ENDBRANCH  28  31
ENDBRANCH  26  27
ENDBRANCH  25  26
ENDBRANCH   1  25
TORSDOF 14
ENDMDL
MODEL 2
REMARK VINA RESULT:     -12.4      5.112     10.209
REMARK SMILES [NH3+][C@@]1(C(=O)NCCCCNC(=O)c2ccc(-c3c4nc(c(-c5c(F)c(F)c(F)c(F)c5F)c5ccc([nH]5)c(-c5c(F)c(F)c(F)c(F)c5F)c5nc(c(-c6c(F)c(F)c(F)c(F)c6F)c6ccc3[nH]6)C=C5)C=C4)cc2)CC[C@@H](Sc2ccc(Cl)c(Cl)c2)C1
REMARK SMILES IDX 7 1 6 2 5 3 3 4 4 5 2 7 76 8 88 9 77 10 78 11 1 12 79 16
REMARK SMILES IDX 80 17 81 18 87 19 82 20 85 21 83 22 86 23 84 24 8 25 9 26
REMARK SMILES IDX 10 27 11 28 12 30 13 31 14 32 75 33 15 34 74 35 16 36 17 37
REMARK SMILES IDX 18 38 68 39 19 40 73 41 67 42 69 43 20 44 72 45 66 46 65 47
REMARK SMILES IDX 21 49 53 50 33 51 52 52 34 53 37 54 51 55 70 56 35 57 36 58
REMARK SMILES IDX 50 60 71 61 38 62 22 63 23 64 31 65 24 66 25 67 29 68 32 69
REMARK SMILES IDX 26 70 27 71 30 72 28 73 54 74 55 75 63 76 56 77 57 78 61 79
REMARK SMILES IDX 64 80 58 81 59 82 62 83 60 84 39 85 40 86 48 87 41 88 42 89
REMARK SMILES IDX 46 90 49 91 43 92 44 93 47 94 45 95
REMARK H PARENT 5 6 1 13 1 14 1 15 10 29 69 48 37 59
REMARK Flexibility Score: inf
ROOT
ATOM      1  C   UNL A   1      37.350  21.465  24.734  1.00  0.00     0.023 C 
ENDROOT
BRANCH   1   2
ATOM      2  C   UNL A   1      36.250  21.738  25.752  1.00  0.00     0.116 C 
BRANCH   2   3
ATOM      3  N   UNL A   1      35.153  20.809  25.636  1.00  0.00    -0.351 N 
ATOM      4  C   UNL A   1      33.830  21.007  25.395  1.00  0.00     0.281 C 
ATOM      5  O   UNL A   1      33.119  19.992  25.439  1.00  0.00    -0.268 OA
ATOM      6  H   UNL A   1      35.407  19.866  25.754  1.00  0.00     0.163 HD
BRANCH   4   7
ATOM      7  C   UNL A   1      33.181  22.413  25.103  1.00  0.00     0.175 C 
ATOM      8  C   UNL A   1      31.727  22.340  24.616  1.00  0.00     0.080 C 
ATOM      9  C   UNL A   1      33.966  23.225  24.063  1.00  0.00     0.094 C 
ATOM     10  C   UNL A   1      31.675  22.848  23.179  1.00  0.00     0.022 C 
ATOM     11  C   UNL A   1      33.037  23.469  22.868  1.00  0.00     0.058 C 
BRANCH   7  12
ATOM     12  N   UNL A   1      33.137  23.136  26.405  1.00  0.00    -0.345 N 
ATOM     13  H   UNL A   1      32.373  23.811  26.393  1.00  0.00     0.345 HD
ATOM     14  H   UNL A   1      34.021  23.623  26.554  1.00  0.00     0.345 HD
ATOM     15  H   UNL A   1      32.986  22.466  27.160  1.00  0.00     0.345 HD
ENDBRANCH   7  12
BRANCH  11  16
ATOM     16  S   UNL A   1      33.011  25.216  22.295  1.00  0.00    -0.122 SA
BRANCH  16  17
ATOM     17  C   UNL A   1      32.591  26.090  23.786  1.00  0.00     0.009 A 
ATOM     18  C   UNL A   1      31.274  26.053  24.252  1.00  0.00     0.017 A 
ATOM     19  C   UNL A   1      33.548  26.825  24.487  1.00  0.00     0.037 A 
ATOM     20  C   UNL A   1      30.928  26.699  25.439  1.00  0.00     0.023 A 
ATOM     21  C   UNL A   1      33.206  27.474  25.678  1.00  0.00     0.060 A 
ATOM     22  C   UNL A   1      31.894  27.406  26.160  1.00  0.00     0.059 A 
ATOM     23  Cl  UNL A   1      34.453  28.341  26.502  1.00  0.00    -0.083 Cl
ATOM     24  Cl  UNL A   1      31.402  28.173  27.626  1.00  0.00    -0.083 Cl
ENDBRANCH  16  17
ENDBRANCH  11  16
ENDBRANCH   4   7
ENDBRANCH   2   3
ENDBRANCH   1   2
BRANCH   1  25
ATOM     25  C   UNL A   1      38.157  20.196  25.000  1.00  0.00     0.023 C 
BRANCH  25  26
ATOM     26  C   UNL A   1      39.387  20.380  25.883  1.00  0.00     0.116 C 
BRANCH  26  27
ATOM     27  N   UNL A   1      40.274  19.225  25.908  1.00  0.00    -0.352 N 
ATOM     28  C   UNL A   1      41.631  19.196  26.135  1.00  0.00     0.251 C 
ATOM     29  H   UNL A   1      39.848  18.353  25.741  1.00  0.00     0.163 HD
ATOM     30  O   UNL A   1      42.260  18.150  26.052  1.00  0.00    -0.269 OA
BRANCH  28  31
ATOM     31  C   UNL A   1      42.326  20.463  26.434  1.00  0.00     0.039 A 
ATOM     32  C   UNL A   1      42.845  21.212  25.375  1.00  0.00     0.014 A 
ATOM     33  C   UNL A   1      42.389  20.943  27.744  1.00  0.00     0.014 A 
ATOM     34  C   UNL A   1      43.354  22.488  25.622  1.00  0.00     0.010 A 
ATOM     35  C   UNL A   1      42.829  22.240  27.977  1.00  0.00     0.010 A 
ATOM     36  C   UNL A   1      43.307  23.029  26.918  1.00  0.00    -0.014 A 
BRANCH  36  37
ATOM     37  C   UNL A   1      43.734  24.423  27.188  1.00  0.00     0.031 A 
ATOM     38  C   UNL A   1      42.732  25.436  27.666  1.00  0.00     0.074 A 
ATOM     39  C   UNL A   1      44.999  24.798  26.911  1.00  0.00     0.049 A 
ATOM     40  N   UNL A   1      42.884  26.721  27.859  1.00  0.00    -0.248 NA
ATOM     41  C   UNL A   1      41.368  24.946  27.924  1.00  0.00     0.031 C 
ATOM     42  C   UNL A   1      46.044  23.923  26.375  1.00  0.00     0.029 A 
ATOM     43  N   UNL A   1      45.616  26.019  27.022  1.00  0.00    -0.354 N 
ATOM     44  C   UNL A   1      41.633  27.195  28.229  1.00  0.00     0.074 A 
ATOM     45  C   UNL A   1      40.724  26.072  28.198  1.00  0.00     0.031 C 
ATOM     46  C   UNL A   1      47.173  24.633  26.213  1.00  0.00     0.029 A 
ATOM     47  C   UNL A   1      46.925  26.017  26.605  1.00  0.00     0.049 A 
ATOM     48  H   UNL A   1      45.161  26.822  27.368  1.00  0.00     0.167 HD
ATOM     49  C   UNL A   1      41.281  28.454  28.582  1.00  0.00     0.037 A 
ATOM     50  C   UNL A   1      47.819  27.022  26.539  1.00  0.00     0.037 A 
ATOM     51  C   UNL A   1      42.201  29.556  28.672  1.00  0.00     0.049 A 
ATOM     52  C   UNL A   1      47.412  28.398  26.992  1.00  0.00     0.074 A 
ATOM     53  C   UNL A   1      41.963  30.841  29.128  1.00  0.00     0.029 A 
ATOM     54  N   UNL A   1      43.536  29.501  28.303  1.00  0.00    -0.354 N 
ATOM     55  N   UNL A   1      46.250  28.812  27.435  1.00  0.00    -0.248 NA
ATOM     56  C   UNL A   1      48.443  29.444  26.946  1.00  0.00     0.031 C 
ATOM     57  C   UNL A   1      43.147  31.575  29.000  1.00  0.00     0.029 A 
ATOM     58  C   UNL A   1      44.129  30.736  28.502  1.00  0.00     0.049 A 
ATOM     59  H   UNL A   1      43.993  28.703  27.952  1.00  0.00     0.167 HD
ATOM     60  C   UNL A   1      46.417  30.154  27.745  1.00  0.00     0.074 A 
ATOM     61  C   UNL A   1      47.797  30.483  27.455  1.00  0.00     0.031 C 
ATOM     62  C   UNL A   1      45.509  31.039  28.224  1.00  0.00     0.037 A 
BRANCH  49  63
ATOM     63  C   UNL A   1      39.842  28.712  28.914  1.00  0.00     0.064 A 
ATOM     64  C   UNL A   1      39.338  28.513  30.207  1.00  0.00     0.173 A 
ATOM     65  C   UNL A   1      38.973  29.228  27.940  1.00  0.00     0.173 A 
ATOM     66  F   UNL A   1      40.128  28.010  31.168  1.00  0.00    -0.203 F 
ATOM     67  C   UNL A   1      38.011  28.805  30.511  1.00  0.00     0.198 A 
ATOM     68  C   UNL A   1      37.654  29.543  28.254  1.00  0.00     0.198 A 
ATOM     69  F   UNL A   1      39.407  29.439  26.689  1.00  0.00    -0.203 F 
ATOM     70  F   UNL A   1      37.542  28.575  31.745  1.00  0.00    -0.200 F 
ATOM     71  C   UNL A   1      37.173  29.327  29.537  1.00  0.00     0.200 A 
ATOM     72  F   UNL A   1      36.848  30.057  27.316  1.00  0.00    -0.200 F 
ATOM     73  F   UNL A   1      35.900  29.621  29.836  1.00  0.00    -0.200 F 
ENDBRANCH  49  63
BRANCH  50  74
ATOM     74  C   UNL A   1      49.197  26.767  26.041  1.00  0.00     0.064 A 
ATOM     75  C   UNL A   1      49.529  26.993  24.698  1.00  0.00     0.173 A 
ATOM     76  C   UNL A   1      50.196  26.266  26.886  1.00  0.00     0.173 A 
ATOM     77  F   UNL A   1      48.600  27.453  23.846  1.00  0.00    -0.203 F 
ATOM     78  C   UNL A   1      50.801  26.699  24.212  1.00  0.00     0.198 A 
ATOM     79  C   UNL A   1      51.476  25.997  26.405  1.00  0.00     0.198 A 
ATOM     80  F   UNL A   1      49.930  26.038  28.180  1.00  0.00    -0.203 F 
ATOM     81  F   UNL A   1      51.076  26.872  22.912  1.00  0.00    -0.200 F 
ATOM     82  C   UNL A   1      51.775  26.203  25.066  1.00  0.00     0.200 A 
ATOM     83  F   UNL A   1      52.419  25.531  27.236  1.00  0.00    -0.200 F 
ATOM     84  F   UNL A   1      52.997  25.916  24.598  1.00  0.00    -0.200 F 
ENDBRANCH  50  74
BRANCH  62  85
ATOM     85  C   UNL A   1      45.985  32.432  28.500  1.00  0.00     0.064 A 
ATOM     86  C   UNL A   1      46.539  32.786  29.739  1.00  0.00     0.173 A 
ATOM     87  C   UNL A   1      45.927  33.413  27.498  1.00  0.00     0.173 A 
ATOM     88  F   UNL A   1      46.601  31.886  30.732  1.00  0.00    -0.203 F 
ATOM     89  C   UNL A   1      46.998  34.079  29.972  1.00  0.00     0.198 A 
ATOM     90  C   UNL A   1      46.413  34.698  27.726  1.00  0.00     0.198 A 
ATOM     91  F   UNL A   1      45.412  33.120  26.295  1.00  0.00    -0.203 F 
ATOM     92  F   UNL A   1      47.486  34.407  31.176  1.00  0.00    -0.200 F 
ATOM     93  C   UNL A   1      46.943  35.030  28.964  1.00  0.00     0.200 A 
ATOM     94  F   UNL A   1      46.369  35.612  26.748  1.00  0.00    -0.200 F 
ATOM     95  F   UNL A   1      47.394  36.272  29.188  1.00  0.00    -0.200 F 
ENDBRANCH  62  85
ENDBRANCH  36  37
ENDBRANCH  28  31
ENDBRANCH  26  27
ENDBRANCH  25  26
ENDBRANCH   1  25
TORSDOF 14
ENDMDL
MODEL 3
REMARK VINA RESULT:     -12.4      2.023      7.854
REMARK SMILES [NH3+][C@@]1(C(=O)NCCCCNC(=O)c2ccc(-c3c4nc(c(-c5c(F)c(F)c(F)c(F)c5F)c5ccc([nH]5)c(-c5c(F)c(F)c(F)c(F)c5F)c5nc(c(-c6c(F)c(F)c(F)c(F)c6F)c6ccc3[nH]6)C=C5)C=C4)cc2)CC[C@@H](Sc2ccc(Cl)c(Cl)c2)C1
REMARK SMILES IDX 7 1 6 2 5 3 3 4 4 5 2 7 76 8 88 9 77 10 78 11 1 12 79 16
REMARK SMILES IDX 80 17 81 18 87 19 82 20 85 21 83 22 86 23 84 24 8 25 9 26
REMARK SMILES IDX 10 27 11 28 12 30 13 31 14 32 75 33 15 34 74 35 16 36 17 37
REMARK SMILES IDX 18 38 68 39 19 40 73 41 67 42 69 43 20 44 72 45 66 46 65 47
REMARK SMILES IDX 21 49 53 50 33 51 52 52 34 53 37 54 51 55 70 56 35 57 36 58
REMARK SMILES IDX 50 60 71 61 38 62 22 63 23 64 31 65 24 66 25 67 29 68 32 69
REMARK SMILES IDX 26 70 27 71 30 72 28 73 54 74 55 75 63 76 56 77 57 78 61 79
REMARK SMILES IDX 64 80 58 81 59 82 62 83 60 84 39 85 40 86 48 87 41 88 42 89
REMARK SMILES IDX 46 90 49 91 43 92 44 93 47 94 45 95
REMARK H PARENT 5 6 1 13 1 14 1 15 10 29 69 48 37 59
REMARK Flexibility Score: inf
ROOT
ATOM      1  C   UNL A   1      31.785  30.506  26.712  1.00  0.00     0.023 C 
ENDROOT
BRANCH   1   2
ATOM      2  C   UNL A   1      32.393  29.908  25.449  1.00  0.00     0.116 C 
BRANCH   2   3
ATOM      3  N   UNL A   1      31.424  29.758  24.392  1.00  0.00    -0.351 N 
ATOM      4  C   UNL A   1      31.073  28.681  23.641  1.00  0.00     0.281 C 
ATOM      5  O   UNL A   1      30.250  28.900  22.740  1.00  0.00    -0.268 OA
ATOM      6  H   UNL A   1      30.930  30.581  24.175  1.00  0.00     0.163 HD
BRANCH   4   7
ATOM      7  C   UNL A   1      31.663  27.232  23.837  1.00  0.00     0.175 C 
ATOM      8  C   UNL A   1      31.071  26.184  22.884  1.00  0.00     0.080 C 
ATOM      9  C   UNL A   1      31.475  26.702  25.265  1.00  0.00     0.094 C 
ATOM     10  C   UNL A   1      30.288  25.171  23.712  1.00  0.00     0.022 C 
ATOM     11  C   UNL A   1      30.606  25.443  25.182  1.00  0.00     0.058 C 
BRANCH   7  12
ATOM     12  N   UNL A   1      33.111  27.317  23.496  1.00  0.00    -0.345 N 
ATOM     13  H   UNL A   1      33.620  27.732  24.276  1.00  0.00     0.345 HD
ATOM     14  H   UNL A   1      33.232  27.895  22.664  1.00  0.00     0.345 HD
ATOM     15  H   UNL A   1      33.472  26.380  23.314  1.00  0.00     0.345 HD
ENDBRANCH   7  12
BRANCH  11  16
ATOM     16  S   UNL A   1      31.270  24.019  26.137  1.00  0.00    -0.122 SA
BRANCH  16  17
ATOM     17  C   UNL A   1      32.797  23.683  25.288  1.00  0.00     0.009 A 
ATOM     18  C   UNL A   1      32.758  23.158  23.993  1.00  0.00     0.017 A 
ATOM     19  C   UNL A   1      34.030  23.918  25.898  1.00  0.00     0.037 A 
ATOM     20  C   UNL A   1      33.942  22.921  23.293  1.00  0.00     0.023 A 
ATOM     21  C   UNL A   1      35.219  23.683  25.200  1.00  0.00     0.060 A 
ATOM     22  C   UNL A   1      35.175  23.189  23.891  1.00  0.00     0.059 A 
ATOM     23  Cl  UNL A   1      36.705  24.023  26.013  1.00  0.00    -0.083 Cl
ATOM     24  Cl  UNL A   1      36.600  22.885  22.965  1.00  0.00    -0.083 Cl
ENDBRANCH  16  17
ENDBRANCH  11  16
ENDBRANCH   4   7
ENDBRANCH   2   3
ENDBRANCH   1   2
BRANCH   1  25
ATOM     25  C   UNL A   1      31.621  32.024  26.677  1.00  0.00     0.023 C 
BRANCH  25  26
ATOM     26  C   UNL A   1      32.774  32.817  27.283  1.00  0.00     0.116 C 
BRANCH  26  27
ATOM     27  N   UNL A   1      32.418  34.177  27.664  1.00  0.00    -0.352 N 
ATOM     28  C   UNL A   1      32.999  34.973  28.624  1.00  0.00     0.251 C 
ATOM     29  H   UNL A   1      31.666  34.578  27.171  1.00  0.00     0.163 HD
ATOM     30  O   UNL A   1      32.542  36.078  28.886  1.00  0.00    -0.269 OA
BRANCH  28  31
ATOM     31  C   UNL A   1      34.159  34.449  29.372  1.00  0.00     0.039 A 
ATOM     32  C   UNL A   1      33.938  33.793  30.585  1.00  0.00     0.014 A 
ATOM     33  C   UNL A   1      35.445  34.536  28.833  1.00  0.00     0.014 A 
ATOM     34  C   UNL A   1      35.000  33.146  31.218  1.00  0.00     0.010 A 
ATOM     35  C   UNL A   1      36.485  33.832  29.428  1.00  0.00     0.010 A 
ATOM     36  C   UNL A   1      36.271  33.123  30.620  1.00  0.00    -0.014 A 
BRANCH  36  37
ATOM     37  C   UNL A   1      37.388  32.348  31.213  1.00  0.00     0.031 A 
ATOM     38  C   UNL A   1      37.901  32.699  32.582  1.00  0.00     0.074 A 
ATOM     39  C   UNL A   1      38.000  31.395  30.483  1.00  0.00     0.049 A 
ATOM     40  N   UNL A   1      38.929  32.211  33.229  1.00  0.00    -0.248 NA
ATOM     41  C   UNL A   1      37.187  33.765  33.303  1.00  0.00     0.031 C 
ATOM     42  C   UNL A   1      37.640  31.013  29.116  1.00  0.00     0.029 A 
ATOM     43  N   UNL A   1      39.070  30.587  30.780  1.00  0.00    -0.354 N 
ATOM     44  C   UNL A   1      39.002  32.932  34.413  1.00  0.00     0.074 A 
ATOM     45  C   UNL A   1      37.941  33.914  34.383  1.00  0.00     0.031 C 
ATOM     46  C   UNL A   1      38.467  30.040  28.697  1.00  0.00     0.029 A 
ATOM     47  C   UNL A   1      39.433  29.750  29.753  1.00  0.00     0.049 A 
ATOM     48  H   UNL A   1      39.534  30.607  31.648  1.00  0.00     0.167 HD
ATOM     49  C   UNL A   1      39.867  32.773  35.442  1.00  0.00     0.037 A 
ATOM     50  C   UNL A   1      40.437  28.858  29.670  1.00  0.00     0.037 A 
ATOM     51  C   UNL A   1      40.881  31.754  35.497  1.00  0.00     0.049 A 
ATOM     52  C   UNL A   1      41.347  28.665  30.854  1.00  0.00     0.074 A 
ATOM     53  C   UNL A   1      41.731  31.440  36.543  1.00  0.00     0.029 A 
ATOM     54  N   UNL A   1      41.177  30.881  34.462  1.00  0.00    -0.354 N 
ATOM     55  N   UNL A   1      41.343  29.286  32.008  1.00  0.00    -0.248 NA
ATOM     56  C   UNL A   1      42.394  27.641  30.727  1.00  0.00     0.031 C 
ATOM     57  C   UNL A   1      42.568  30.400  36.128  1.00  0.00     0.029 A 
ATOM     58  C   UNL A   1      42.212  30.041  34.839  1.00  0.00     0.049 A 
ATOM     59  H   UNL A   1      40.720  30.861  33.591  1.00  0.00     0.167 HD
ATOM     60  C   UNL A   1      42.364  28.711  32.752  1.00  0.00     0.074 A 
ATOM     61  C   UNL A   1      42.957  27.681  31.926  1.00  0.00     0.031 C 
ATOM     62  C   UNL A   1      42.777  29.010  34.007  1.00  0.00     0.037 A 
BRANCH  49  63
ATOM     63  C   UNL A   1      39.751  33.710  36.607  1.00  0.00     0.064 A 
ATOM     64  C   UNL A   1      40.406  34.949  36.621  1.00  0.00     0.173 A 
ATOM     65  C   UNL A   1      38.921  33.391  37.692  1.00  0.00     0.173 A 
ATOM     66  F   UNL A   1      41.220  35.294  35.612  1.00  0.00    -0.203 F 
ATOM     67  C   UNL A   1      40.249  35.829  37.689  1.00  0.00     0.198 A 
ATOM     68  C   UNL A   1      38.745  34.284  38.745  1.00  0.00     0.198 A 
ATOM     69  F   UNL A   1      38.269  32.219  37.723  1.00  0.00    -0.203 F 
ATOM     70  F   UNL A   1      40.911  36.994  37.698  1.00  0.00    -0.200 F 
ATOM     71  C   UNL A   1      39.412  35.500  38.745  1.00  0.00     0.200 A 
ATOM     72  F   UNL A   1      37.928  33.969  39.759  1.00  0.00    -0.200 F 
ATOM     73  F   UNL A   1      39.250  36.355  39.764  1.00  0.00    -0.200 F 
ENDBRANCH  49  63
BRANCH  50  74
ATOM     74  C   UNL A   1      40.631  28.060  28.430  1.00  0.00     0.064 A 
ATOM     75  C   UNL A   1      40.040  26.797  28.288  1.00  0.00     0.173 A 
ATOM     76  C   UNL A   1      41.431  28.530  27.379  1.00  0.00     0.173 A 
ATOM     77  F   UNL A   1      39.283  26.297  29.276  1.00  0.00    -0.203 F 
ATOM     78  C   UNL A   1      40.268  26.020  27.154  1.00  0.00     0.198 A 
ATOM     79  C   UNL A   1      41.636  27.763  26.234  1.00  0.00     0.198 A 
ATOM     80  F   UNL A   1      42.013  29.735  27.464  1.00  0.00    -0.203 F 
ATOM     81  F   UNL A   1      39.736  24.793  27.068  1.00  0.00    -0.200 F 
ATOM     82  C   UNL A   1      41.063  26.504  26.127  1.00  0.00     0.200 A 
ATOM     83  F   UNL A   1      42.395  28.240  25.237  1.00  0.00    -0.200 F 
ATOM     84  F   UNL A   1      41.285  25.755  25.039  1.00  0.00    -0.200 F 
ENDBRANCH  50  74
BRANCH  62  85
ATOM     85  C   UNL A   1      43.896  28.192  34.577  1.00  0.00     0.064 A 
ATOM     86  C   UNL A   1      45.234  28.585  34.440  1.00  0.00     0.173 A 
ATOM     87  C   UNL A   1      43.621  27.026  35.308  1.00  0.00     0.173 A 
ATOM     88  F   UNL A   1      45.547  29.685  33.737  1.00  0.00    -0.203 F 
ATOM     89  C   UNL A   1      46.261  27.827  34.997  1.00  0.00     0.198 A 
ATOM     90  C   UNL A   1      44.648  26.285  35.886  1.00  0.00     0.198 A 
ATOM     91  F   UNL A   1      42.355  26.614  35.472  1.00  0.00    -0.203 F 
ATOM     92  F   UNL A   1      47.537  28.198  34.818  1.00  0.00    -0.200 F 
ATOM     93  C   UNL A   1      45.967  26.684  35.725  1.00  0.00     0.200 A 
ATOM     94  F   UNL A   1      44.362  25.188  36.598  1.00  0.00    -0.200 F 
ATOM     95  F   UNL A   1      46.956  25.961  36.266  1.00  0.00    -0.200 F 
ENDBRANCH  62  85
ENDBRANCH  36  37
ENDBRANCH  28  31
ENDBRANCH  26  27
ENDBRANCH  25  26
ENDBRANCH   1  25
TORSDOF 14
ENDMDL
