MODEL 1
REMARK VINA RESULT:     -13.1      0.000      0.000
REMARK SMILES CC1(C)S[C@H](c2ccc(-c3ccccc3)o2)[NH2+][C@H]1C(=O)NCCCCNC(=O)c1ccc(-c2c3nc(c(-c4c(F)c(F)c(F)c(F)c4F)c4ccc([nH]4)c(-c4c(F)c(F)c(F)c(F)c4F)c4nc(c(-c5c(F)c(F)c(F)c(F)c5F)c5ccc2[nH]5)C=C4)C=C3)cc1
REMARK SMILES IDX 23 1 22 2 21 3 19 4 20 5 18 7 1 8 2 9 3 10 4 11 5 12 17 13
REMARK SMILES IDX 6 16 7 17 16 18 8 19 9 20 10 21 11 22 15 23 12 24 14 25
REMARK SMILES IDX 13 26 24 27 25 28 26 29 27 30 28 32 29 33 30 34 91 35 31 36
REMARK SMILES IDX 90 37 32 38 33 39 34 40 84 41 35 42 89 43 83 44 85 45 36 46
REMARK SMILES IDX 88 47 82 48 81 49 37 51 69 52 49 53 68 54 50 55 53 56 67 57
REMARK SMILES IDX 86 58 51 59 52 60 66 62 87 63 54 64 38 65 39 66 47 67 40 68
REMARK SMILES IDX 41 69 45 70 48 71 42 72 43 73 46 74 44 75 70 76 71 77 79 78
REMARK SMILES IDX 72 79 73 80 77 81 80 82 74 83 75 84 78 85 76 86 55 87 56 88
REMARK SMILES IDX 64 89 57 90 58 91 62 92 65 93 59 94 60 95 63 96 61 97
REMARK H PARENT 21 6 17 14 17 15 26 31 85 50 53 61
REMARK Flexibility Score: inf
ROOT
ATOM      1  C   UNL A   1      31.975  30.444  26.742  1.00  0.00     0.023 C 
ENDROOT
BRANCH   1   2
ATOM      2  C   UNL A   1      33.428  30.114  26.392  1.00  0.00     0.116 C 
BRANCH   2   3
ATOM      3  N   UNL A   1      33.726  28.704  26.565  1.00  0.00    -0.351 N 
ATOM      4  C   UNL A   1      33.266  27.564  25.974  1.00  0.00     0.279 C 
ATOM      5  O   UNL A   1      33.669  26.505  26.472  1.00  0.00    -0.268 OA
ATOM      6  H   UNL A   1      34.406  28.534  27.256  1.00  0.00     0.163 HD
BRANCH   4   7
ATOM      7  C   UNL A   1      32.263  27.530  24.797  1.00  0.00     0.289 C 
ATOM      8  C   UNL A   1      33.860  25.936  23.435  1.00  0.00     0.030 C 
ATOM      9  C   UNL A   1      32.868  27.092  23.445  1.00  0.00     0.078 C 
ATOM     10  C   UNL A   1      33.506  28.285  22.721  1.00  0.00     0.030 C 
ATOM     11  S   UNL A   1      31.427  26.514  22.496  1.00  0.00    -0.078 SA
ATOM     12  C   UNL A   1      30.296  26.497  23.911  1.00  0.00     0.311 C 
ATOM     13  N   UNL A   1      31.013  26.818  25.142  1.00  0.00    -0.317 N 
ATOM     14  H   UNL A   1      31.236  25.958  25.643  1.00  0.00     0.348 HD
ATOM     15  H   UNL A   1      30.432  27.409  25.737  1.00  0.00     0.348 HD
BRANCH  12  16
ATOM     16  C   UNL A   1      29.117  27.362  23.606  1.00  0.00     0.172 A 
ATOM     17  C   UNL A   1      27.764  27.119  23.766  1.00  0.00     0.054 A 
ATOM     18  O   UNL A   1      29.301  28.594  23.036  1.00  0.00    -0.454 OA
ATOM     19  C   UNL A   1      27.089  28.259  23.288  1.00  0.00     0.051 A 
ATOM     20  C   UNL A   1      28.059  29.142  22.862  1.00  0.00     0.134 A 
BRANCH  20  21
ATOM     21  C   UNL A   1      27.991  30.481  22.300  1.00  0.00     0.017 A 
ATOM     22  C   UNL A   1      28.026  31.617  23.115  1.00  0.00     0.012 A 
ATOM     23  C   UNL A   1      27.951  30.648  20.906  1.00  0.00     0.012 A 
ATOM     24  C   UNL A   1      28.042  32.895  22.547  1.00  0.00     0.001 A 
ATOM     25  C   UNL A   1      27.954  31.923  20.339  1.00  0.00     0.001 A 
ATOM     26  C   UNL A   1      28.007  33.046  21.160  1.00  0.00     0.000 A 
ENDBRANCH  20  21
ENDBRANCH  12  16
ENDBRANCH   4   7
ENDBRANCH   2   3
ENDBRANCH   1   2
BRANCH   1  27
ATOM     27  C   UNL A   1      31.662  31.925  26.894  1.00  0.00     0.023 C 
BRANCH  27  28
ATOM     28  C   UNL A   1      32.864  32.791  27.223  1.00  0.00     0.116 C 
BRANCH  28  29
ATOM     29  N   UNL A   1      32.503  34.152  27.598  1.00  0.00    -0.352 N 
ATOM     30  C   UNL A   1      33.010  34.934  28.609  1.00  0.00     0.251 C 
ATOM     31  H   UNL A   1      31.798  34.570  27.052  1.00  0.00     0.163 HD
ATOM     32  O   UNL A   1      32.502  36.013  28.879  1.00  0.00    -0.269 OA
BRANCH  30  33
ATOM     33  C   UNL A   1      34.162  34.434  29.384  1.00  0.00     0.039 A 
ATOM     34  C   UNL A   1      33.933  33.745  30.576  1.00  0.00     0.014 A 
ATOM     35  C   UNL A   1      35.460  34.609  28.899  1.00  0.00     0.014 A 
ATOM     36  C   UNL A   1      35.011  33.171  31.252  1.00  0.00     0.010 A 
ATOM     37  C   UNL A   1      36.514  33.951  29.515  1.00  0.00     0.010 A 
ATOM     38  C   UNL A   1      36.304  33.243  30.707  1.00  0.00    -0.014 A 
BRANCH  38  39
ATOM     39  C   UNL A   1      37.470  32.636  31.390  1.00  0.00     0.031 A 
ATOM     40  C   UNL A   1      38.221  31.525  30.710  1.00  0.00     0.074 A 
ATOM     41  C   UNL A   1      37.798  33.021  32.638  1.00  0.00     0.049 A 
ATOM     42  N   UNL A   1      39.192  30.777  31.168  1.00  0.00    -0.248 NA
ATOM     43  C   UNL A   1      37.790  31.176  29.346  1.00  0.00     0.031 C 
ATOM     44  C   UNL A   1      37.105  34.045  33.420  1.00  0.00     0.029 A 
ATOM     45  N   UNL A   1      38.796  32.583  33.471  1.00  0.00    -0.354 N 
ATOM     46  C   UNL A   1      39.460  29.856  30.164  1.00  0.00     0.074 A 
ATOM     47  C   UNL A   1      38.510  30.095  29.100  1.00  0.00     0.031 C 
ATOM     48  C   UNL A   1      37.715  34.176  34.610  1.00  0.00     0.029 A 
ATOM     49  C   UNL A   1      38.819  33.225  34.685  1.00  0.00     0.049 A 
ATOM     50  H   UNL A   1      39.434  31.876  33.223  1.00  0.00     0.167 HD
ATOM     51  C   UNL A   1      40.432  28.916  30.119  1.00  0.00     0.037 A 
ATOM     52  C   UNL A   1      39.645  33.059  35.735  1.00  0.00     0.037 A 
ATOM     53  C   UNL A   1      41.407  28.721  31.158  1.00  0.00     0.049 A 
ATOM     54  C   UNL A   1      40.749  32.041  35.642  1.00  0.00     0.074 A 
ATOM     55  C   UNL A   1      42.474  27.841  31.189  1.00  0.00     0.029 A 
ATOM     56  N   UNL A   1      41.437  29.433  32.348  1.00  0.00    -0.354 N 
ATOM     57  N   UNL A   1      41.033  31.215  34.663  1.00  0.00    -0.248 NA
ATOM     58  C   UNL A   1      41.656  31.941  36.793  1.00  0.00     0.031 C 
ATOM     59  C   UNL A   1      43.134  28.002  32.412  1.00  0.00     0.029 A 
ATOM     60  C   UNL A   1      42.503  29.010  33.123  1.00  0.00     0.049 A 
ATOM     61  H   UNL A   1      40.796  30.135  32.603  1.00  0.00     0.167 HD
ATOM     62  C   UNL A   1      42.167  30.523  35.065  1.00  0.00     0.074 A 
ATOM     63  C   UNL A   1      42.526  31.033  36.372  1.00  0.00     0.031 C 
ATOM     64  C   UNL A   1      42.851  29.551  34.412  1.00  0.00     0.037 A 
BRANCH  51  65
ATOM     65  C   UNL A   1      40.492  28.042  28.899  1.00  0.00     0.064 A 
ATOM     66  C   UNL A   1      41.253  28.399  27.776  1.00  0.00     0.173 A 
ATOM     67  C   UNL A   1      39.787  26.830  28.856  1.00  0.00     0.173 A 
ATOM     68  F   UNL A   1      41.932  29.556  27.760  1.00  0.00    -0.203 F 
ATOM     69  C   UNL A   1      41.277  27.593  26.640  1.00  0.00     0.198 A 
ATOM     70  C   UNL A   1      39.840  26.011  27.731  1.00  0.00     0.198 A 
ATOM     71  F   UNL A   1      39.046  26.440  29.904  1.00  0.00    -0.203 F 
ATOM     72  F   UNL A   1      41.963  27.985  25.557  1.00  0.00    -0.200 F 
ATOM     73  C   UNL A   1      40.576  26.397  26.621  1.00  0.00     0.200 A 
ATOM     74  F   UNL A   1      39.171  24.850  27.717  1.00  0.00    -0.200 F 
ATOM     75  F   UNL A   1      40.603  25.621  25.528  1.00  0.00    -0.200 F 
ENDBRANCH  51  65
BRANCH  52  76
ATOM     76  C   UNL A   1      39.492  33.910  36.943  1.00  0.00     0.064 A 
ATOM     77  C   UNL A   1      40.071  35.186  36.997  1.00  0.00     0.173 A 
ATOM     78  C   UNL A   1      38.772  33.472  38.064  1.00  0.00     0.173 A 
ATOM     79  F   UNL A   1      40.784  35.642  35.957  1.00  0.00    -0.203 F 
ATOM     80  C   UNL A   1      39.956  35.983  38.134  1.00  0.00     0.198 A 
ATOM     81  C   UNL A   1      38.635  34.281  39.191  1.00  0.00     0.198 A 
ATOM     82  F   UNL A   1      38.192  32.264  38.059  1.00  0.00    -0.203 F 
ATOM     83  F   UNL A   1      40.557  37.179  38.175  1.00  0.00    -0.200 F 
ATOM     84  C   UNL A   1      39.234  35.531  39.229  1.00  0.00     0.200 A 
ATOM     85  F   UNL A   1      37.925  33.848  40.242  1.00  0.00    -0.200 F 
ATOM     86  F   UNL A   1      39.121  36.298  40.322  1.00  0.00    -0.200 F 
ENDBRANCH  52  76
BRANCH  64  87
ATOM     87  C   UNL A   1      44.083  29.015  35.078  1.00  0.00     0.064 A 
ATOM     88  C   UNL A   1      45.340  29.602  34.882  1.00  0.00     0.173 A 
ATOM     89  C   UNL A   1      43.992  27.924  35.956  1.00  0.00     0.173 A 
ATOM     90  F   UNL A   1      45.478  30.638  34.041  1.00  0.00    -0.203 F 
ATOM     91  C   UNL A   1      46.470  29.098  35.521  1.00  0.00     0.198 A 
ATOM     92  C   UNL A   1      45.119  27.442  36.615  1.00  0.00     0.198 A 
ATOM     93  F   UNL A   1      42.809  27.333  36.182  1.00  0.00    -0.203 F 
ATOM     94  F   UNL A   1      47.670  29.645  35.284  1.00  0.00    -0.200 F 
ATOM     95  C   UNL A   1      46.358  28.024  36.391  1.00  0.00     0.200 A 
ATOM     96  F   UNL A   1      45.007  26.412  37.465  1.00  0.00    -0.200 F 
ATOM     97  F   UNL A   1      47.445  27.545  37.009  1.00  0.00    -0.200 F 
ENDBRANCH  64  87
ENDBRANCH  38  39
ENDBRANCH  30  33
ENDBRANCH  28  29
ENDBRANCH  27  28
ENDBRANCH   1  27
TORSDOF 13
ENDMDL
MODEL 2
REMARK VINA RESULT:     -13.0      5.577     10.684
REMARK SMILES CC1(C)S[C@H](c2ccc(-c3ccccc3)o2)[NH2+][C@H]1C(=O)NCCCCNC(=O)c1ccc(-c2c3nc(c(-c4c(F)c(F)c(F)c(F)c4F)c4ccc([nH]4)c(-c4c(F)c(F)c(F)c(F)c4F)c4nc(c(-c5c(F)c(F)c(F)c(F)c5F)c5ccc2[nH]5)C=C4)C=C3)cc1
REMARK SMILES IDX 23 1 22 2 21 3 19 4 20 5 18 7 1 8 2 9 3 10 4 11 5 12 17 13
REMARK SMILES IDX 6 16 7 17 16 18 8 19 9 20 10 21 11 22 15 23 12 24 14 25
REMARK SMILES IDX 13 26 24 27 25 28 26 29 27 30 28 32 29 33 30 34 91 35 31 36
REMARK SMILES IDX 90 37 32 38 33 39 34 40 84 41 35 42 89 43 83 44 85 45 36 46
REMARK SMILES IDX 88 47 82 48 81 49 37 51 69 52 49 53 68 54 50 55 53 56 67 57
REMARK SMILES IDX 86 58 51 59 52 60 66 62 87 63 54 64 38 65 39 66 47 67 40 68
REMARK SMILES IDX 41 69 45 70 48 71 42 72 43 73 46 74 44 75 70 76 71 77 79 78
REMARK SMILES IDX 72 79 73 80 77 81 80 82 74 83 75 84 78 85 76 86 55 87 56 88
REMARK SMILES IDX 64 89 57 90 58 91 62 92 65 93 59 94 60 95 63 96 61 97
REMARK H PARENT 21 6 17 14 17 15 26 31 85 50 53 61
REMARK Flexibility Score: inf
ROOT
ATOM      1  C   UNL A   1      37.088  21.538  24.499  1.00  0.00     0.023 C 
ENDROOT
BRANCH   1   2
ATOM      2  C   UNL A   1      36.634  22.511  25.590  1.00  0.00     0.116 C 
BRANCH   2   3
ATOM      3  N   UNL A   1      35.701  21.898  26.518  1.00  0.00    -0.351 N 
ATOM      4  C   UNL A   1      34.359  22.024  26.725  1.00  0.00     0.279 C 
ATOM      5  O   UNL A   1      33.912  21.419  27.708  1.00  0.00    -0.268 OA
ATOM      6  H   UNL A   1      36.128  21.253  27.127  1.00  0.00     0.163 HD
BRANCH   4   7
ATOM      7  C   UNL A   1      33.416  22.894  25.862  1.00  0.00     0.289 C 
ATOM      8  C   UNL A   1      32.310  20.736  24.830  1.00  0.00     0.030 C 
ATOM      9  C   UNL A   1      32.797  22.168  24.647  1.00  0.00     0.078 C 
ATOM     10  C   UNL A   1      33.750  22.206  23.446  1.00  0.00     0.030 C 
ATOM     11  S   UNL A   1      31.313  23.150  24.269  1.00  0.00    -0.078 SA
ATOM     12  C   UNL A   1      31.357  24.111  25.804  1.00  0.00     0.311 C 
ATOM     13  N   UNL A   1      32.425  23.630  26.677  1.00  0.00    -0.317 N 
ATOM     14  H   UNL A   1      32.034  23.008  27.384  1.00  0.00     0.348 HD
ATOM     15  H   UNL A   1      32.875  24.419  27.139  1.00  0.00     0.348 HD
BRANCH  12  16
ATOM     16  C   UNL A   1      31.403  25.566  25.470  1.00  0.00     0.172 A 
ATOM     17  C   UNL A   1      32.217  26.572  25.961  1.00  0.00     0.054 A 
ATOM     18  O   UNL A   1      30.507  26.092  24.576  1.00  0.00    -0.454 OA
ATOM     19  C   UNL A   1      31.813  27.764  25.328  1.00  0.00     0.051 A 
ATOM     20  C   UNL A   1      30.777  27.430  24.482  1.00  0.00     0.134 A 
BRANCH  20  21
ATOM     21  C   UNL A   1      29.974  28.211  23.555  1.00  0.00     0.017 A 
ATOM     22  C   UNL A   1      28.584  28.073  23.498  1.00  0.00     0.012 A 
ATOM     23  C   UNL A   1      30.594  29.170  22.738  1.00  0.00     0.012 A 
ATOM     24  C   UNL A   1      27.825  28.893  22.657  1.00  0.00     0.001 A 
ATOM     25  C   UNL A   1      29.838  29.980  21.889  1.00  0.00     0.001 A 
ATOM     26  C   UNL A   1      28.454  29.847  21.854  1.00  0.00     0.000 A 
ENDBRANCH  20  21
ENDBRANCH  12  16
ENDBRANCH   4   7
ENDBRANCH   2   3
ENDBRANCH   1   2
BRANCH   1  27
ATOM     27  C   UNL A   1      37.806  20.292  24.996  1.00  0.00     0.023 C 
BRANCH  27  28
ATOM     28  C   UNL A   1      39.007  20.569  25.881  1.00  0.00     0.116 C 
BRANCH  28  29
ATOM     29  N   UNL A   1      39.954  19.463  25.922  1.00  0.00    -0.352 N 
ATOM     30  C   UNL A   1      41.319  19.499  26.086  1.00  0.00     0.251 C 
ATOM     31  H   UNL A   1      39.564  18.565  25.817  1.00  0.00     0.163 HD
ATOM     32  O   UNL A   1      41.991  18.486  25.961  1.00  0.00    -0.269 OA
BRANCH  30  33
ATOM     33  C   UNL A   1      41.965  20.792  26.386  1.00  0.00     0.039 A 
ATOM     34  C   UNL A   1      42.224  21.683  25.343  1.00  0.00     0.014 A 
ATOM     35  C   UNL A   1      42.264  21.135  27.707  1.00  0.00     0.014 A 
ATOM     36  C   UNL A   1      42.727  22.951  25.635  1.00  0.00     0.010 A 
ATOM     37  C   UNL A   1      42.665  22.428  28.003  1.00  0.00     0.010 A 
ATOM     38  C   UNL A   1      42.920  23.342  26.970  1.00  0.00    -0.014 A 
BRANCH  38  39
ATOM     39  C   UNL A   1      43.441  24.685  27.320  1.00  0.00     0.031 A 
ATOM     40  C   UNL A   1      42.508  25.701  27.917  1.00  0.00     0.074 A 
ATOM     41  C   UNL A   1      44.714  25.012  27.028  1.00  0.00     0.049 A 
ATOM     42  N   UNL A   1      42.719  26.963  28.191  1.00  0.00    -0.248 NA
ATOM     43  C   UNL A   1      41.137  25.248  28.204  1.00  0.00     0.031 C 
ATOM     44  C   UNL A   1      45.693  24.129  26.392  1.00  0.00     0.029 A 
ATOM     45  N   UNL A   1      45.397  26.186  27.218  1.00  0.00    -0.354 N 
ATOM     46  C   UNL A   1      41.503  27.455  28.647  1.00  0.00     0.074 A 
ATOM     47  C   UNL A   1      40.544  26.378  28.554  1.00  0.00     0.031 C 
ATOM     48  C   UNL A   1      46.859  24.784  26.269  1.00  0.00     0.029 A 
ATOM     49  C   UNL A   1      46.701  26.139  26.788  1.00  0.00     0.049 A 
ATOM     50  H   UNL A   1      44.993  26.985  27.625  1.00  0.00     0.167 HD
ATOM     51  C   UNL A   1      41.220  28.687  29.130  1.00  0.00     0.037 A 
ATOM     52  C   UNL A   1      47.655  27.089  26.814  1.00  0.00     0.037 A 
ATOM     53  C   UNL A   1      42.193  29.736  29.270  1.00  0.00     0.049 A 
ATOM     54  C   UNL A   1      47.329  28.435  27.402  1.00  0.00     0.074 A 
ATOM     55  C   UNL A   1      42.030  31.001  29.806  1.00  0.00     0.029 A 
ATOM     56  N   UNL A   1      43.520  29.632  28.880  1.00  0.00    -0.354 N 
ATOM     57  N   UNL A   1      46.192  28.872  27.886  1.00  0.00    -0.248 NA
ATOM     58  C   UNL A   1      48.422  29.414  27.458  1.00  0.00     0.031 C 
ATOM     59  C   UNL A   1      43.254  31.673  29.713  1.00  0.00     0.029 A 
ATOM     60  C   UNL A   1      44.188  30.811  29.160  1.00  0.00     0.049 A 
ATOM     61  H   UNL A   1      43.927  28.837  28.466  1.00  0.00     0.167 HD
ATOM     62  C   UNL A   1      46.440  30.162  28.335  1.00  0.00     0.074 A 
ATOM     63  C   UNL A   1      47.838  30.433  28.074  1.00  0.00     0.031 C 
ATOM     64  C   UNL A   1      45.587  31.046  28.910  1.00  0.00     0.037 A 
BRANCH  51  65
ATOM     65  C   UNL A   1      39.804  28.953  29.554  1.00  0.00     0.064 A 
ATOM     66  C   UNL A   1      39.377  28.728  30.872  1.00  0.00     0.173 A 
ATOM     67  C   UNL A   1      38.866  29.447  28.636  1.00  0.00     0.173 A 
ATOM     68  F   UNL A   1      40.231  28.240  31.785  1.00  0.00    -0.203 F 
ATOM     69  C   UNL A   1      38.054  28.952  31.245  1.00  0.00     0.198 A 
ATOM     70  C   UNL A   1      37.552  29.701  29.022  1.00  0.00     0.198 A 
ATOM     71  F   UNL A   1      39.222  29.682  27.364  1.00  0.00    -0.203 F 
ATOM     72  F   UNL A   1      37.656  28.672  32.494  1.00  0.00    -0.200 F 
ATOM     73  C   UNL A   1      37.145  29.444  30.322  1.00  0.00     0.200 A 
ATOM     74  F   UNL A   1      36.676  30.187  28.131  1.00  0.00    -0.200 F 
ATOM     75  F   UNL A   1      35.873  29.662  30.684  1.00  0.00    -0.200 F 
ENDBRANCH  51  65
BRANCH  52  76
ATOM     76  C   UNL A   1      49.021  26.783  26.316  1.00  0.00     0.064 A 
ATOM     77  C   UNL A   1      49.363  27.015  24.976  1.00  0.00     0.173 A 
ATOM     78  C   UNL A   1      50.008  26.255  27.160  1.00  0.00     0.173 A 
ATOM     79  F   UNL A   1      48.447  27.502  24.126  1.00  0.00    -0.203 F 
ATOM     80  C   UNL A   1      50.633  26.708  24.493  1.00  0.00     0.198 A 
ATOM     81  C   UNL A   1      51.287  25.973  26.682  1.00  0.00     0.198 A 
ATOM     82  F   UNL A   1      49.734  26.024  28.452  1.00  0.00    -0.203 F 
ATOM     83  F   UNL A   1      50.919  26.897  23.198  1.00  0.00    -0.200 F 
ATOM     84  C   UNL A   1      51.596  26.191  25.348  1.00  0.00     0.200 A 
ATOM     85  F   UNL A   1      52.219  25.488  27.513  1.00  0.00    -0.200 F 
ATOM     86  F   UNL A   1      52.818  25.898  24.884  1.00  0.00    -0.200 F 
ENDBRANCH  52  76
BRANCH  64  87
ATOM     87  C   UNL A   1      46.155  32.364  29.343  1.00  0.00     0.064 A 
ATOM     88  C   UNL A   1      46.721  32.542  30.613  1.00  0.00     0.173 A 
ATOM     89  C   UNL A   1      46.169  33.452  28.456  1.00  0.00     0.173 A 
ATOM     90  F   UNL A   1      46.717  31.535  31.499  1.00  0.00    -0.203 F 
ATOM     91  C   UNL A   1      47.256  33.770  30.990  1.00  0.00     0.198 A 
ATOM     92  C   UNL A   1      46.732  34.669  28.826  1.00  0.00     0.198 A 
ATOM     93  F   UNL A   1      45.647  33.329  27.226  1.00  0.00    -0.203 F 
ATOM     94  F   UNL A   1      47.751  33.931  32.225  1.00  0.00    -0.200 F 
ATOM     95  C   UNL A   1      47.268  34.830  30.095  1.00  0.00     0.200 A 
ATOM     96  F   UNL A   1      46.754  35.688  27.956  1.00  0.00    -0.200 F 
ATOM     97  F   UNL A   1      47.790  36.009  30.459  1.00  0.00    -0.200 F 
ENDBRANCH  64  87
ENDBRANCH  38  39
ENDBRANCH  30  33
ENDBRANCH  28  29
ENDBRANCH  27  28
ENDBRANCH   1  27
TORSDOF 13
ENDMDL
MODEL 3
REMARK VINA RESULT:     -13.0      2.126      4.527
REMARK SMILES CC1(C)S[C@H](c2ccc(-c3ccccc3)o2)[NH2+][C@H]1C(=O)NCCCCNC(=O)c1ccc(-c2c3nc(c(-c4c(F)c(F)c(F)c(F)c4F)c4ccc([nH]4)c(-c4c(F)c(F)c(F)c(F)c4F)c4nc(c(-c5c(F)c(F)c(F)c(F)c5F)c5ccc2[nH]5)C=C4)C=C3)cc1
REMARK SMILES IDX 23 1 22 2 21 3 19 4 20 5 18 7 1 8 2 9 3 10 4 11 5 12 17 13
REMARK SMILES IDX 6 16 7 17 16 18 8 19 9 20 10 21 11 22 15 23 12 24 14 25
REMARK SMILES IDX 13 26 24 27 25 28 26 29 27 30 28 32 29 33 30 34 91 35 31 36
REMARK SMILES IDX 90 37 32 38 33 39 34 40 84 41 35 42 89 43 83 44 85 45 36 46
REMARK SMILES IDX 88 47 82 48 81 49 37 51 69 52 49 53 68 54 50 55 53 56 67 57
REMARK SMILES IDX 86 58 51 59 52 60 66 62 87 63 54 64 38 65 39 66 47 67 40 68
REMARK SMILES IDX 41 69 45 70 48 71 42 72 43 73 46 74 44 75 70 76 71 77 79 78
REMARK SMILES IDX 72 79 73 80 77 81 80 82 74 83 75 84 78 85 76 86 55 87 56 88
REMARK SMILES IDX 64 89 57 90 58 91 62 92 65 93 59 94 60 95 63 96 61 97
REMARK H PARENT 21 6 17 14 17 15 26 31 85 50 53 61
REMARK Flexibility Score: inf
ROOT
ATOM      1  C   UNL A   1      31.718  30.259  26.659  1.00  0.00     0.023 C 
ENDROOT
BRANCH   1   2
ATOM      2  C   UNL A   1      33.030  29.594  26.238  1.00  0.00     0.116 C 
BRANCH   2   3
ATOM      3  N   UNL A   1      33.266  29.703  24.810  1.00  0.00    -0.351 N 
ATOM      4  C   UNL A   1      33.229  28.811  23.779  1.00  0.00     0.279 C 
ATOM      5  O   UNL A   1      33.613  29.245  22.685  1.00  0.00    -0.268 OA
ATOM      6  H   UNL A   1      33.503  30.615  24.525  1.00  0.00     0.163 HD
BRANCH   4   7
ATOM      7  C   UNL A   1      32.801  27.332  23.913  1.00  0.00     0.289 C 
ATOM      8  C   UNL A   1      30.667  27.776  22.432  1.00  0.00     0.030 C 
ATOM      9  C   UNL A   1      31.310  27.059  23.612  1.00  0.00     0.078 C 
ATOM     10  C   UNL A   1      30.449  27.306  24.857  1.00  0.00     0.030 C 
ATOM     11  S   UNL A   1      31.272  25.288  23.196  1.00  0.00    -0.078 SA
ATOM     12  C   UNL A   1      33.070  25.115  23.056  1.00  0.00     0.311 C 
ATOM     13  N   UNL A   1      33.722  26.412  23.210  1.00  0.00    -0.317 N 
ATOM     14  H   UNL A   1      33.950  26.792  22.291  1.00  0.00     0.348 HD
ATOM     15  H   UNL A   1      34.581  26.305  23.749  1.00  0.00     0.348 HD
BRANCH  12  16
ATOM     16  C   UNL A   1      33.533  24.044  23.990  1.00  0.00     0.172 A 
ATOM     17  C   UNL A   1      34.194  24.139  25.202  1.00  0.00     0.054 A 
ATOM     18  O   UNL A   1      33.356  22.726  23.662  1.00  0.00    -0.454 OA
ATOM     19  C   UNL A   1      34.418  22.820  25.644  1.00  0.00     0.051 A 
ATOM     20  C   UNL A   1      33.883  21.986  24.685  1.00  0.00     0.134 A 
BRANCH  20  21
ATOM     21  C   UNL A   1      33.782  20.539  24.586  1.00  0.00     0.017 A 
ATOM     22  C   UNL A   1      32.581  19.913  24.240  1.00  0.00     0.012 A 
ATOM     23  C   UNL A   1      34.926  19.749  24.782  1.00  0.00     0.012 A 
ATOM     24  C   UNL A   1      32.528  18.526  24.071  1.00  0.00     0.001 A 
ATOM     25  C   UNL A   1      34.872  18.363  24.626  1.00  0.00     0.001 A 
ATOM     26  C   UNL A   1      33.674  17.753  24.263  1.00  0.00     0.000 A 
ENDBRANCH  20  21
ENDBRANCH  12  16
ENDBRANCH   4   7
ENDBRANCH   2   3
ENDBRANCH   1   2
BRANCH   1  27
ATOM     27  C   UNL A   1      31.683  31.774  26.523  1.00  0.00     0.023 C 
BRANCH  27  28
ATOM     28  C   UNL A   1      32.805  32.497  27.245  1.00  0.00     0.116 C 
BRANCH  28  29
ATOM     29  N   UNL A   1      32.482  33.882  27.561  1.00  0.00    -0.352 N 
ATOM     30  C   UNL A   1      33.030  34.700  28.521  1.00  0.00     0.251 C 
ATOM     31  H   UNL A   1      31.775  34.289  27.010  1.00  0.00     0.163 HD
ATOM     32  O   UNL A   1      32.552  35.802  28.749  1.00  0.00    -0.269 OA
BRANCH  30  33
ATOM     33  C   UNL A   1      34.187  34.212  29.294  1.00  0.00     0.039 A 
ATOM     34  C   UNL A   1      33.967  33.453  30.446  1.00  0.00     0.014 A 
ATOM     35  C   UNL A   1      35.486  34.467  28.847  1.00  0.00     0.014 A 
ATOM     36  C   UNL A   1      35.056  32.893  31.115  1.00  0.00     0.010 A 
ATOM     37  C   UNL A   1      36.556  33.825  29.451  1.00  0.00     0.010 A 
ATOM     38  C   UNL A   1      36.354  33.049  30.602  1.00  0.00    -0.014 A 
BRANCH  38  39
ATOM     39  C   UNL A   1      37.533  32.459  31.278  1.00  0.00     0.031 A 
ATOM     40  C   UNL A   1      38.300  31.363  30.592  1.00  0.00     0.074 A 
ATOM     41  C   UNL A   1      37.860  32.845  32.526  1.00  0.00     0.049 A 
ATOM     42  N   UNL A   1      39.286  30.630  31.043  1.00  0.00    -0.248 NA
ATOM     43  C   UNL A   1      37.870  31.012  29.228  1.00  0.00     0.031 C 
ATOM     44  C   UNL A   1      37.152  33.854  33.315  1.00  0.00     0.029 A 
ATOM     45  N   UNL A   1      38.868  32.420  33.354  1.00  0.00    -0.354 N 
ATOM     46  C   UNL A   1      39.565  29.717  30.035  1.00  0.00     0.074 A 
ATOM     47  C   UNL A   1      38.608  29.944  28.975  1.00  0.00     0.031 C 
ATOM     48  C   UNL A   1      37.764  33.990  34.503  1.00  0.00     0.029 A 
ATOM     49  C   UNL A   1      38.885  33.058  34.571  1.00  0.00     0.049 A 
ATOM     50  H   UNL A   1      39.517  31.725  33.101  1.00  0.00     0.167 HD
ATOM     51  C   UNL A   1      40.553  28.794  29.983  1.00  0.00     0.037 A 
ATOM     52  C   UNL A   1      39.717  32.902  35.617  1.00  0.00     0.037 A 
ATOM     53  C   UNL A   1      41.535  28.611  31.017  1.00  0.00     0.049 A 
ATOM     54  C   UNL A   1      40.838  31.903  35.516  1.00  0.00     0.074 A 
ATOM     55  C   UNL A   1      42.616  27.749  31.041  1.00  0.00     0.029 A 
ATOM     56  N   UNL A   1      41.557  29.319  32.210  1.00  0.00    -0.354 N 
ATOM     57  N   UNL A   1      41.131  31.086  34.533  1.00  0.00    -0.248 NA
ATOM     58  C   UNL A   1      41.750  31.814  36.664  1.00  0.00     0.031 C 
ATOM     59  C   UNL A   1      43.278  27.916  32.263  1.00  0.00     0.029 A 
ATOM     60  C   UNL A   1      42.632  28.911  32.980  1.00  0.00     0.049 A 
ATOM     61  H   UNL A   1      40.905  30.009  32.470  1.00  0.00     0.167 HD
ATOM     62  C   UNL A   1      42.278  30.411  34.928  1.00  0.00     0.074 A 
ATOM     63  C   UNL A   1      42.633  30.923  36.236  1.00  0.00     0.031 C 
ATOM     64  C   UNL A   1      42.976  29.453  34.269  1.00  0.00     0.037 A 
BRANCH  51  65
ATOM     65  C   UNL A   1      40.623  27.925  28.760  1.00  0.00     0.064 A 
ATOM     66  C   UNL A   1      39.924  26.710  28.680  1.00  0.00     0.173 A 
ATOM     67  C   UNL A   1      41.388  28.315  27.651  1.00  0.00     0.173 A 
ATOM     68  F   UNL A   1      39.192  26.283  29.720  1.00  0.00    -0.203 F 
ATOM     69  C   UNL A   1      40.020  25.901  27.551  1.00  0.00     0.198 A 
ATOM     70  C   UNL A   1      41.455  27.519  26.511  1.00  0.00     0.198 A 
ATOM     71  F   UNL A   1      42.073  29.469  27.673  1.00  0.00    -0.203 F 
ATOM     72  F   UNL A   1      39.393  24.717  27.523  1.00  0.00    -0.200 F 
ATOM     73  C   UNL A   1      40.780  26.309  26.466  1.00  0.00     0.200 A 
ATOM     74  F   UNL A   1      42.181  27.918  25.457  1.00  0.00    -0.200 F 
ATOM     75  F   UNL A   1      40.869  25.529  25.378  1.00  0.00    -0.200 F 
ENDBRANCH  51  65
BRANCH  52  76
ATOM     76  C   UNL A   1      39.554  33.746  36.829  1.00  0.00     0.064 A 
ATOM     77  C   UNL A   1      40.177  35.000  36.917  1.00  0.00     0.173 A 
ATOM     78  C   UNL A   1      38.781  33.324  37.919  1.00  0.00     0.173 A 
ATOM     79  F   UNL A   1      40.941  35.439  35.906  1.00  0.00    -0.203 F 
ATOM     80  C   UNL A   1      40.052  35.788  38.058  1.00  0.00     0.198 A 
ATOM     81  C   UNL A   1      38.635  34.125  39.051  1.00  0.00     0.198 A 
ATOM     82  F   UNL A   1      38.158  32.138  37.882  1.00  0.00    -0.203 F 
ATOM     83  F   UNL A   1      40.695  36.961  38.133  1.00  0.00    -0.200 F 
ATOM     84  C   UNL A   1      39.278  35.352  39.123  1.00  0.00     0.200 A 
ATOM     85  F   UNL A   1      37.875  33.708  40.072  1.00  0.00    -0.200 F 
ATOM     86  F   UNL A   1      39.156  36.112  40.220  1.00  0.00    -0.200 F 
ENDBRANCH  52  76
BRANCH  64  87
ATOM     87  C   UNL A   1      44.219  28.936  34.929  1.00  0.00     0.064 A 
ATOM     88  C   UNL A   1      44.197  27.808  35.761  1.00  0.00     0.173 A 
ATOM     89  C   UNL A   1      45.455  29.556  34.689  1.00  0.00     0.173 A 
ATOM     90  F   UNL A   1      43.037  27.191  36.030  1.00  0.00    -0.203 F 
ATOM     91  C   UNL A   1      45.365  27.335  36.353  1.00  0.00     0.198 A 
ATOM     92  C   UNL A   1      46.624  29.062  35.259  1.00  0.00     0.198 A 
ATOM     93  F   UNL A   1      45.529  30.633  33.894  1.00  0.00    -0.203 F 
ATOM     94  F   UNL A   1      45.314  26.284  37.182  1.00  0.00    -0.200 F 
ATOM     95  C   UNL A   1      46.578  27.957  36.096  1.00  0.00     0.200 A 
ATOM     96  F   UNL A   1      47.797  29.657  35.001  1.00  0.00    -0.200 F 
ATOM     97  F   UNL A   1      47.701  27.497  36.662  1.00  0.00    -0.200 F 
ENDBRANCH  64  87
ENDBRANCH  38  39
ENDBRANCH  30  33
ENDBRANCH  28  29
ENDBRANCH  27  28
ENDBRANCH   1  27
TORSDOF 13
ENDMDL
