MODEL 1
REMARK VINA RESULT:     -13.1      0.000      0.000
REMARK SMILES Cc1ncccc1C(=O)Nc1ccccc1C(=O)NCCCCNC(=O)c1ccc(-c2c3nc(c(-c4c(F)c(F)c(F)c(F)c4F)c4ccc([nH]4)c(-c4c(F)c(F)c(F)c(F)c4F)c4nc(c(-c5c(F)c(F)c(F)c(F)c5F)c5ccc2[nH]5)C=C4)C=C3)cc1
REMARK SMILES IDX 21 1 20 2 19 3 17 4 18 5 16 7 11 8 12 9 13 10 15 11 14 12
REMARK SMILES IDX 10 13 8 14 9 15 7 17 1 18 2 19 3 20 4 21 6 22 5 23 22 24
REMARK SMILES IDX 23 25 24 26 25 27 26 29 27 30 28 31 89 32 29 33 88 34 30 35
REMARK SMILES IDX 31 36 32 37 82 38 33 39 87 40 81 41 83 42 34 43 86 44 80 45
REMARK SMILES IDX 79 46 35 48 67 49 47 50 66 51 48 52 51 53 65 54 84 55 49 56
REMARK SMILES IDX 50 57 64 59 85 60 52 61 36 62 37 63 45 64 38 65 39 66 43 67
REMARK SMILES IDX 46 68 40 69 41 70 44 71 42 72 68 73 69 74 77 75 70 76 71 77
REMARK SMILES IDX 75 78 78 79 72 80 73 81 76 82 74 83 53 84 54 85 62 86 55 87
REMARK SMILES IDX 56 88 60 89 63 90 57 91 58 92 61 93 59 94
REMARK H PARENT 19 6 10 16 24 28 83 47 51 58
REMARK Flexibility Score: inf
ROOT
ATOM      1  C   UNL A   1      31.669  30.744  26.086  1.00  0.00     0.023 C 
ENDROOT
BRANCH   1   2
ATOM      2  C   UNL A   1      32.427  29.623  26.789  1.00  0.00     0.116 C 
BRANCH   2   3
ATOM      3  N   UNL A   1      33.242  28.811  25.908  1.00  0.00    -0.352 N 
ATOM      4  C   UNL A   1      32.871  27.951  24.901  1.00  0.00     0.253 C 
ATOM      5  O   UNL A   1      33.762  27.354  24.297  1.00  0.00    -0.269 OA
ATOM      6  H   UNL A   1      34.213  28.887  26.053  1.00  0.00     0.163 HD
BRANCH   4   7
ATOM      7  C   UNL A   1      31.449  27.634  24.593  1.00  0.00     0.063 A 
ATOM      8  C   UNL A   1      30.677  26.584  25.115  1.00  0.00     0.054 A 
ATOM      9  C   UNL A   1      29.436  26.289  24.516  1.00  0.00     0.027 A 
ATOM     10  C   UNL A   1      28.887  27.115  23.536  1.00  0.00     0.002 A 
ATOM     11  C   UNL A   1      30.866  28.477  23.621  1.00  0.00     0.016 A 
ATOM     12  C   UNL A   1      29.588  28.235  23.115  1.00  0.00     0.001 A 
BRANCH   8  13
ATOM     13  N   UNL A   1      30.957  25.785  26.238  1.00  0.00    -0.321 N 
ATOM     14  C   UNL A   1      31.757  24.688  26.434  1.00  0.00     0.257 C 
ATOM     15  O   UNL A   1      31.638  24.077  27.499  1.00  0.00    -0.269 OA
ATOM     16  H   UNL A   1      30.481  26.072  27.051  1.00  0.00     0.170 HD
BRANCH  14  17
ATOM     17  C   UNL A   1      32.772  24.213  25.472  1.00  0.00     0.061 A 
ATOM     18  C   UNL A   1      31.143  23.326  23.707  1.00  0.00     0.067 C 
ATOM     19  C   UNL A   1      32.512  23.606  24.243  1.00  0.00     0.050 A 
ATOM     20  N   UNL A   1      33.516  23.246  23.393  1.00  0.00    -0.261 NA
ATOM     21  C   UNL A   1      34.788  23.532  23.746  1.00  0.00     0.111 A 
ATOM     22  C   UNL A   1      34.102  24.546  25.775  1.00  0.00     0.017 A 
ATOM     23  C   UNL A   1      35.128  24.196  24.907  1.00  0.00     0.021 A 
ENDBRANCH  14  17
ENDBRANCH   8  13
ENDBRANCH   4   7
ENDBRANCH   2   3
ENDBRANCH   1   2
BRANCH   1  24
ATOM     24  C   UNL A   1      31.424  32.017  26.900  1.00  0.00     0.023 C 
BRANCH  24  25
ATOM     25  C   UNL A   1      32.657  32.820  27.309  1.00  0.00     0.116 C 
BRANCH  25  26
ATOM     26  N   UNL A   1      32.380  34.204  27.661  1.00  0.00    -0.352 N 
ATOM     27  C   UNL A   1      32.992  35.026  28.582  1.00  0.00     0.251 C 
ATOM     28  H   UNL A   1      31.638  34.618  27.163  1.00  0.00     0.163 HD
ATOM     29  O   UNL A   1      32.552  36.146  28.804  1.00  0.00    -0.269 OA
BRANCH  27  30
ATOM     30  C   UNL A   1      34.161  34.535  29.343  1.00  0.00     0.039 A 
ATOM     31  C   UNL A   1      33.953  33.970  30.604  1.00  0.00     0.014 A 
ATOM     32  C   UNL A   1      35.447  34.597  28.805  1.00  0.00     0.014 A 
ATOM     33  C   UNL A   1      35.019  33.365  31.275  1.00  0.00     0.010 A 
ATOM     34  C   UNL A   1      36.490  33.924  29.437  1.00  0.00     0.010 A 
ATOM     35  C   UNL A   1      36.284  33.284  30.670  1.00  0.00    -0.014 A 
BRANCH  35  36
ATOM     36  C   UNL A   1      37.389  32.506  31.288  1.00  0.00     0.031 A 
ATOM     37  C   UNL A   1      37.894  32.858  32.658  1.00  0.00     0.074 A 
ATOM     38  C   UNL A   1      37.994  31.531  30.579  1.00  0.00     0.049 A 
ATOM     39  N   UNL A   1      38.903  32.354  33.325  1.00  0.00    -0.248 NA
ATOM     40  C   UNL A   1      37.192  33.941  33.364  1.00  0.00     0.031 C 
ATOM     41  C   UNL A   1      37.638  31.129  29.217  1.00  0.00     0.029 A 
ATOM     42  N   UNL A   1      39.046  30.708  30.900  1.00  0.00    -0.354 N 
ATOM     43  C   UNL A   1      38.965  33.066  34.514  1.00  0.00     0.074 A 
ATOM     44  C   UNL A   1      37.927  34.074  34.458  1.00  0.00     0.031 C 
ATOM     45  C   UNL A   1      38.439  30.124  28.829  1.00  0.00     0.029 A 
ATOM     46  C   UNL A   1      39.390  29.834  29.898  1.00  0.00     0.049 A 
ATOM     47  H   UNL A   1      39.510  30.742  31.768  1.00  0.00     0.167 HD
ATOM     48  C   UNL A   1      39.794  32.882  35.568  1.00  0.00     0.037 A 
ATOM     49  C   UNL A   1      40.368  28.908  29.843  1.00  0.00     0.037 A 
ATOM     50  C   UNL A   1      40.806  31.862  35.638  1.00  0.00     0.049 A 
ATOM     51  C   UNL A   1      41.272  28.723  31.031  1.00  0.00     0.074 A 
ATOM     52  C   UNL A   1      41.655  31.557  36.688  1.00  0.00     0.029 A 
ATOM     53  N   UNL A   1      41.104  30.975  34.613  1.00  0.00    -0.354 N 
ATOM     54  N   UNL A   1      41.274  29.357  32.178  1.00  0.00    -0.248 NA
ATOM     55  C   UNL A   1      42.308  27.685  30.918  1.00  0.00     0.031 C 
ATOM     56  C   UNL A   1      42.493  30.513  36.285  1.00  0.00     0.029 A 
ATOM     57  C   UNL A   1      42.136  30.134  35.001  1.00  0.00     0.049 A 
ATOM     58  H   UNL A   1      40.651  30.947  33.740  1.00  0.00     0.167 HD
ATOM     59  C   UNL A   1      42.285  28.778  32.932  1.00  0.00     0.074 A 
ATOM     60  C   UNL A   1      42.867  27.730  32.120  1.00  0.00     0.031 C 
ATOM     61  C   UNL A   1      42.694  29.086  34.186  1.00  0.00     0.037 A 
BRANCH  48  62
ATOM     62  C   UNL A   1      39.635  33.800  36.745  1.00  0.00     0.064 A 
ATOM     63  C   UNL A   1      40.238  35.067  36.774  1.00  0.00     0.173 A 
ATOM     64  C   UNL A   1      38.837  33.429  37.837  1.00  0.00     0.173 A 
ATOM     65  F   UNL A   1      41.021  35.465  35.759  1.00  0.00    -0.203 F 
ATOM     66  C   UNL A   1      40.072  35.915  37.865  1.00  0.00     0.198 A 
ATOM     67  C   UNL A   1      38.648  34.293  38.913  1.00  0.00     0.198 A 
ATOM     68  F   UNL A   1      38.231  32.232  37.858  1.00  0.00    -0.203 F 
ATOM     69  F   UNL A   1      40.696  37.101  37.889  1.00  0.00    -0.200 F 
ATOM     70  C   UNL A   1      39.270  35.532  38.929  1.00  0.00     0.200 A 
ATOM     71  F   UNL A   1      37.862  33.926  39.936  1.00  0.00    -0.200 F 
ATOM     72  F   UNL A   1      39.103  36.354  39.975  1.00  0.00    -0.200 F 
ENDBRANCH  48  62
BRANCH  49  73
ATOM     73  C   UNL A   1      40.530  28.064  28.630  1.00  0.00     0.064 A 
ATOM     74  C   UNL A   1      41.317  28.498  27.554  1.00  0.00     0.173 A 
ATOM     75  C   UNL A   1      39.889  26.822  28.511  1.00  0.00     0.173 A 
ATOM     76  F   UNL A   1      41.931  29.688  27.612  1.00  0.00    -0.203 F 
ATOM     77  C   UNL A   1      41.438  27.733  26.395  1.00  0.00     0.198 A 
ATOM     78  C   UNL A   1      40.033  26.045  27.364  1.00  0.00     0.198 A 
ATOM     79  F   UNL A   1      39.128  26.360  29.514  1.00  0.00    -0.203 F 
ATOM     80  F   UNL A   1      42.154  28.196  25.362  1.00  0.00    -0.200 F 
ATOM     81  C   UNL A   1      40.799  26.506  26.302  1.00  0.00     0.200 A 
ATOM     82  F   UNL A   1      39.424  24.855  27.282  1.00  0.00    -0.200 F 
ATOM     83  F   UNL A   1      40.914  25.771  25.187  1.00  0.00    -0.200 F 
ENDBRANCH  49  73
BRANCH  61  84
ATOM     84  C   UNL A   1      43.797  28.257  34.775  1.00  0.00     0.064 A 
ATOM     85  C   UNL A   1      43.534  27.067  35.468  1.00  0.00     0.173 A 
ATOM     86  C   UNL A   1      45.137  28.639  34.609  1.00  0.00     0.173 A 
ATOM     87  F   UNL A   1      42.270  26.667  35.667  1.00  0.00    -0.203 F 
ATOM     88  C   UNL A   1      44.572  26.301  35.993  1.00  0.00     0.198 A 
ATOM     89  C   UNL A   1      46.173  27.857  35.110  1.00  0.00     0.198 A 
ATOM     90  F   UNL A   1      45.442  29.767  33.951  1.00  0.00    -0.203 F 
ATOM     91  F   UNL A   1      44.296  25.189  36.690  1.00  0.00    -0.200 F 
ATOM     92  C   UNL A   1      45.890  26.691  35.807  1.00  0.00     0.200 A 
ATOM     93  F   UNL A   1      47.447  28.229  34.919  1.00  0.00    -0.200 F 
ATOM     94  F   UNL A   1      46.888  25.949  36.306  1.00  0.00    -0.200 F 
ENDBRANCH  61  84
ENDBRANCH  35  36
ENDBRANCH  27  30
ENDBRANCH  25  26
ENDBRANCH  24  25
ENDBRANCH   1  24
TORSDOF 13
ENDMDL
MODEL 2
REMARK VINA RESULT:     -13.0      4.064      7.702
REMARK SMILES Cc1ncccc1C(=O)Nc1ccccc1C(=O)NCCCCNC(=O)c1ccc(-c2c3nc(c(-c4c(F)c(F)c(F)c(F)c4F)c4ccc([nH]4)c(-c4c(F)c(F)c(F)c(F)c4F)c4nc(c(-c5c(F)c(F)c(F)c(F)c5F)c5ccc2[nH]5)C=C4)C=C3)cc1
REMARK SMILES IDX 21 1 20 2 19 3 17 4 18 5 16 7 11 8 12 9 13 10 15 11 14 12
REMARK SMILES IDX 10 13 8 14 9 15 7 17 1 18 2 19 3 20 4 21 6 22 5 23 22 24
REMARK SMILES IDX 23 25 24 26 25 27 26 29 27 30 28 31 89 32 29 33 88 34 30 35
REMARK SMILES IDX 31 36 32 37 82 38 33 39 87 40 81 41 83 42 34 43 86 44 80 45
REMARK SMILES IDX 79 46 35 48 67 49 47 50 66 51 48 52 51 53 65 54 84 55 49 56
REMARK SMILES IDX 50 57 64 59 85 60 52 61 36 62 37 63 45 64 38 65 39 66 43 67
REMARK SMILES IDX 46 68 40 69 41 70 44 71 42 72 68 73 69 74 77 75 70 76 71 77
REMARK SMILES IDX 75 78 78 79 72 80 73 81 76 82 74 83 53 84 54 85 62 86 55 87
REMARK SMILES IDX 56 88 60 89 63 90 57 91 58 92 61 93 59 94
REMARK H PARENT 19 6 10 16 24 28 83 47 51 58
REMARK Flexibility Score: inf
ROOT
ATOM      1  C   UNL A   1      33.810  34.772  28.591  1.00  0.00     0.023 C 
ENDROOT
BRANCH   1   2
ATOM      2  C   UNL A   1      33.935  34.826  30.110  1.00  0.00     0.116 C 
BRANCH   2   3
ATOM      3  N   UNL A   1      34.028  33.527  30.747  1.00  0.00    -0.352 N 
ATOM      4  C   UNL A   1      35.121  32.864  31.252  1.00  0.00     0.253 C 
ATOM      5  O   UNL A   1      34.945  31.746  31.736  1.00  0.00    -0.269 OA
ATOM      6  H   UNL A   1      33.175  33.044  30.831  1.00  0.00     0.163 HD
BRANCH   4   7
ATOM      7  C   UNL A   1      36.510  33.392  31.138  1.00  0.00     0.063 A 
ATOM      8  C   UNL A   1      37.333  33.859  32.175  1.00  0.00     0.054 A 
ATOM      9  C   UNL A   1      38.513  34.556  31.846  1.00  0.00     0.027 A 
ATOM     10  C   UNL A   1      38.962  34.643  30.530  1.00  0.00     0.002 A 
ATOM     11  C   UNL A   1      36.994  33.464  29.813  1.00  0.00     0.016 A 
ATOM     12  C   UNL A   1      38.219  34.062  29.513  1.00  0.00     0.001 A 
BRANCH   8  13
ATOM     13  N   UNL A   1      37.164  33.672  33.559  1.00  0.00    -0.321 N 
ATOM     14  C   UNL A   1      37.501  32.657  34.418  1.00  0.00     0.257 C 
ATOM     15  O   UNL A   1      37.035  32.695  35.559  1.00  0.00    -0.269 OA
ATOM     16  H   UNL A   1      36.711  34.425  34.002  1.00  0.00     0.170 HD
BRANCH  14  17
ATOM     17  C   UNL A   1      38.410  31.544  34.078  1.00  0.00     0.061 A 
ATOM     18  C   UNL A   1      40.482  32.452  35.279  1.00  0.00     0.067 C 
ATOM     19  C   UNL A   1      39.748  31.435  34.461  1.00  0.00     0.050 A 
ATOM     20  N   UNL A   1      40.500  30.343  34.145  1.00  0.00    -0.261 NA
ATOM     21  C   UNL A   1      39.906  29.328  33.480  1.00  0.00     0.111 A 
ATOM     22  C   UNL A   1      37.816  30.443  33.440  1.00  0.00     0.017 A 
ATOM     23  C   UNL A   1      38.572  29.321  33.127  1.00  0.00     0.021 A 
ENDBRANCH  14  17
ENDBRANCH   8  13
ENDBRANCH   4   7
ENDBRANCH   2   3
ENDBRANCH   1   2
BRANCH   1  24
ATOM     24  C   UNL A   1      33.322  33.451  27.993  1.00  0.00     0.023 C 
BRANCH  24  25
ATOM     25  C   UNL A   1      34.375  32.371  27.758  1.00  0.00     0.116 C 
BRANCH  25  26
ATOM     26  N   UNL A   1      33.835  31.026  27.627  1.00  0.00    -0.352 N 
ATOM     27  C   UNL A   1      34.453  29.802  27.765  1.00  0.00     0.251 C 
ATOM     28  H   UNL A   1      32.877  30.984  27.404  1.00  0.00     0.163 HD
ATOM     29  O   UNL A   1      33.846  28.769  27.522  1.00  0.00    -0.269 OA
BRANCH  27  30
ATOM     30  C   UNL A   1      35.876  29.739  28.163  1.00  0.00     0.039 A 
ATOM     31  C   UNL A   1      36.193  29.342  29.465  1.00  0.00     0.014 A 
ATOM     32  C   UNL A   1      36.892  30.034  27.252  1.00  0.00     0.014 A 
ATOM     33  C   UNL A   1      37.528  29.132  29.818  1.00  0.00     0.010 A 
ATOM     34  C   UNL A   1      38.215  29.746  27.580  1.00  0.00     0.010 A 
ATOM     35  C   UNL A   1      38.546  29.274  28.860  1.00  0.00    -0.014 A 
BRANCH  35  36
ATOM     36  C   UNL A   1      39.951  28.898  29.164  1.00  0.00     0.031 A 
ATOM     37  C   UNL A   1      40.851  29.848  29.903  1.00  0.00     0.074 A 
ATOM     38  C   UNL A   1      40.443  27.731  28.700  1.00  0.00     0.049 A 
ATOM     39  N   UNL A   1      42.125  29.735  30.182  1.00  0.00    -0.248 NA
ATOM     40  C   UNL A   1      40.245  31.106  30.366  1.00  0.00     0.031 C 
ATOM     41  C   UNL A   1      39.692  26.746  27.920  1.00  0.00     0.029 A 
ATOM     42  N   UNL A   1      41.697  27.180  28.806  1.00  0.00    -0.354 N 
ATOM     43  C   UNL A   1      42.475  30.909  30.835  1.00  0.00     0.074 A 
ATOM     44  C   UNL A   1      41.293  31.744  30.865  1.00  0.00     0.031 C 
ATOM     45  C   UNL A   1      40.491  25.704  27.638  1.00  0.00     0.029 A 
ATOM     46  C   UNL A   1      41.820  25.962  28.183  1.00  0.00     0.049 A 
ATOM     47  H   UNL A   1      42.439  27.618  29.282  1.00  0.00     0.167 HD
ATOM     48  C   UNL A   1      43.665  31.250  31.383  1.00  0.00     0.037 A 
ATOM     49  C   UNL A   1      42.886  25.147  28.060  1.00  0.00     0.037 A 
ATOM     50  C   UNL A   1      44.832  30.407  31.381  1.00  0.00     0.049 A 
ATOM     51  C   UNL A   1      44.196  25.549  28.682  1.00  0.00     0.074 A 
ATOM     52  C   UNL A   1      46.067  30.640  31.963  1.00  0.00     0.029 A 
ATOM     53  N   UNL A   1      44.908  29.165  30.766  1.00  0.00    -0.354 N 
ATOM     54  N   UNL A   1      44.493  26.631  29.358  1.00  0.00    -0.248 NA
ATOM     55  C   UNL A   1      45.317  24.610  28.530  1.00  0.00     0.031 C 
ATOM     56  C   UNL A   1      46.901  29.557  31.668  1.00  0.00     0.029 A 
ATOM     57  C   UNL A   1      46.173  28.628  30.942  1.00  0.00     0.049 A 
ATOM     58  H   UNL A   1      44.172  28.732  30.278  1.00  0.00     0.167 HD
ATOM     59  C   UNL A   1      45.821  26.492  29.737  1.00  0.00     0.074 A 
ATOM     60  C   UNL A   1      46.270  25.213  29.227  1.00  0.00     0.031 C 
ATOM     61  C   UNL A   1      46.600  27.347  30.442  1.00  0.00     0.037 A 
BRANCH  48  62
ATOM     62  C   UNL A   1      43.765  32.593  32.045  1.00  0.00     0.064 A 
ATOM     63  C   UNL A   1      43.936  33.768  31.298  1.00  0.00     0.173 A 
ATOM     64  C   UNL A   1      43.647  32.713  33.438  1.00  0.00     0.173 A 
ATOM     65  F   UNL A   1      44.065  33.706  29.964  1.00  0.00    -0.203 F 
ATOM     66  C   UNL A   1      44.012  35.010  31.922  1.00  0.00     0.198 A 
ATOM     67  C   UNL A   1      43.693  33.960  34.056  1.00  0.00     0.198 A 
ATOM     68  F   UNL A   1      43.476  31.622  34.200  1.00  0.00    -0.203 F 
ATOM     69  F   UNL A   1      44.222  36.113  31.190  1.00  0.00    -0.200 F 
ATOM     70  C   UNL A   1      43.883  35.106  33.299  1.00  0.00     0.200 A 
ATOM     71  F   UNL A   1      43.556  34.052  35.387  1.00  0.00    -0.200 F 
ATOM     72  F   UNL A   1      43.948  36.304  33.898  1.00  0.00    -0.200 F 
ENDBRANCH  48  62
BRANCH  49  73
ATOM     73  C   UNL A   1      42.757  23.853  27.339  1.00  0.00     0.064 A 
ATOM     74  C   UNL A   1      42.263  22.714  27.991  1.00  0.00     0.173 A 
ATOM     75  C   UNL A   1      43.142  23.721  25.996  1.00  0.00     0.173 A 
ATOM     76  F   UNL A   1      41.903  22.785  29.281  1.00  0.00    -0.203 F 
ATOM     77  C   UNL A   1      42.182  21.487  27.335  1.00  0.00     0.198 A 
ATOM     78  C   UNL A   1      43.034  22.500  25.334  1.00  0.00     0.198 A 
ATOM     79  F   UNL A   1      43.618  24.781  25.326  1.00  0.00    -0.203 F 
ATOM     80  F   UNL A   1      41.754  20.404  27.998  1.00  0.00    -0.200 F 
ATOM     81  C   UNL A   1      42.564  21.381  26.007  1.00  0.00     0.200 A 
ATOM     82  F   UNL A   1      43.392  22.404  24.047  1.00  0.00    -0.200 F 
ATOM     83  F   UNL A   1      42.487  20.201  25.378  1.00  0.00    -0.200 F 
ENDBRANCH  49  73
BRANCH  61  84
ATOM     84  C   UNL A   1      48.004  26.913  30.743  1.00  0.00     0.064 A 
ATOM     85  C   UNL A   1      48.311  26.142  31.874  1.00  0.00     0.173 A 
ATOM     86  C   UNL A   1      49.050  27.240  29.866  1.00  0.00     0.173 A 
ATOM     87  F   UNL A   1      47.349  25.817  32.750  1.00  0.00    -0.203 F 
ATOM     88  C   UNL A   1      49.617  25.733  32.127  1.00  0.00     0.198 A 
ATOM     89  C   UNL A   1      50.350  26.805  30.108  1.00  0.00     0.198 A 
ATOM     90  F   UNL A   1      48.809  27.971  28.768  1.00  0.00    -0.203 F 
ATOM     91  F   UNL A   1      49.896  25.034  33.237  1.00  0.00    -0.200 F 
ATOM     92  C   UNL A   1      50.634  26.058  31.241  1.00  0.00     0.200 A 
ATOM     93  F   UNL A   1      51.329  27.109  29.244  1.00  0.00    -0.200 F 
ATOM     94  F   UNL A   1      51.890  25.657  31.483  1.00  0.00    -0.200 F 
ENDBRANCH  61  84
ENDBRANCH  35  36
ENDBRANCH  27  30
ENDBRANCH  25  26
ENDBRANCH  24  25
ENDBRANCH   1  24
TORSDOF 13
ENDMDL
MODEL 3
REMARK VINA RESULT:     -13.0      3.874      6.045
REMARK SMILES Cc1ncccc1C(=O)Nc1ccccc1C(=O)NCCCCNC(=O)c1ccc(-c2c3nc(c(-c4c(F)c(F)c(F)c(F)c4F)c4ccc([nH]4)c(-c4c(F)c(F)c(F)c(F)c4F)c4nc(c(-c5c(F)c(F)c(F)c(F)c5F)c5ccc2[nH]5)C=C4)C=C3)cc1
REMARK SMILES IDX 21 1 20 2 19 3 17 4 18 5 16 7 11 8 12 9 13 10 15 11 14 12
REMARK SMILES IDX 10 13 8 14 9 15 7 17 1 18 2 19 3 20 4 21 6 22 5 23 22 24
REMARK SMILES IDX 23 25 24 26 25 27 26 29 27 30 28 31 89 32 29 33 88 34 30 35
REMARK SMILES IDX 31 36 32 37 82 38 33 39 87 40 81 41 83 42 34 43 86 44 80 45
REMARK SMILES IDX 79 46 35 48 67 49 47 50 66 51 48 52 51 53 65 54 84 55 49 56
REMARK SMILES IDX 50 57 64 59 85 60 52 61 36 62 37 63 45 64 38 65 39 66 43 67
REMARK SMILES IDX 46 68 40 69 41 70 44 71 42 72 68 73 69 74 77 75 70 76 71 77
REMARK SMILES IDX 75 78 78 79 72 80 73 81 76 82 74 83 53 84 54 85 62 86 55 87
REMARK SMILES IDX 56 88 60 89 63 90 57 91 58 92 61 93 59 94
REMARK H PARENT 19 6 10 16 24 28 83 47 51 58
REMARK Flexibility Score: inf
ROOT
ATOM      1  C   UNL A   1      33.328  27.111  25.096  1.00  0.00     0.023 C 
ENDROOT
BRANCH   1   2
ATOM      2  C   UNL A   1      34.137  25.830  24.923  1.00  0.00     0.116 C 
BRANCH   2   3
ATOM      3  N   UNL A   1      33.878  25.125  23.684  1.00  0.00    -0.352 N 
ATOM      4  C   UNL A   1      34.300  23.885  23.266  1.00  0.00     0.253 C 
ATOM      5  O   UNL A   1      33.956  23.506  22.146  1.00  0.00    -0.269 OA
ATOM      6  H   UNL A   1      33.312  25.609  23.041  1.00  0.00     0.163 HD
BRANCH   4   7
ATOM      7  C   UNL A   1      35.236  23.040  24.059  1.00  0.00     0.063 A 
ATOM      8  C   UNL A   1      34.941  21.846  24.736  1.00  0.00     0.054 A 
ATOM      9  C   UNL A   1      35.888  21.326  25.641  1.00  0.00     0.027 A 
ATOM     10  C   UNL A   1      37.165  21.873  25.751  1.00  0.00     0.002 A 
ATOM     11  C   UNL A   1      36.544  23.564  24.160  1.00  0.00     0.016 A 
ATOM     12  C   UNL A   1      37.507  22.973  24.979  1.00  0.00     0.001 A 
BRANCH   8  13
ATOM     13  N   UNL A   1      33.805  21.031  24.590  1.00  0.00    -0.321 N 
ATOM     14  C   UNL A   1      32.506  21.144  25.016  1.00  0.00     0.257 C 
ATOM     15  O   UNL A   1      31.778  20.155  24.900  1.00  0.00    -0.269 OA
ATOM     16  H   UNL A   1      33.977  20.209  24.074  1.00  0.00     0.170 HD
BRANCH  14  17
ATOM     17  C   UNL A   1      31.915  22.379  25.570  1.00  0.00     0.061 A 
ATOM     18  C   UNL A   1      33.049  22.270  27.863  1.00  0.00     0.067 C 
ATOM     19  C   UNL A   1      32.153  22.900  26.842  1.00  0.00     0.050 A 
ATOM     20  N   UNL A   1      31.602  24.078  27.251  1.00  0.00    -0.261 NA
ATOM     21  C   UNL A   1      30.843  24.769  26.373  1.00  0.00     0.111 A 
ATOM     22  C   UNL A   1      31.169  23.156  24.669  1.00  0.00     0.017 A 
ATOM     23  C   UNL A   1      30.617  24.364  25.074  1.00  0.00     0.021 A 
ENDBRANCH  14  17
ENDBRANCH   8  13
ENDBRANCH   4   7
ENDBRANCH   2   3
ENDBRANCH   1   2
BRANCH   1  24
ATOM     24  C   UNL A   1      34.016  28.258  25.841  1.00  0.00     0.023 C 
BRANCH  24  25
ATOM     25  C   UNL A   1      33.514  28.563  27.250  1.00  0.00     0.116 C 
BRANCH  25  26
ATOM     26  N   UNL A   1      33.604  29.966  27.626  1.00  0.00    -0.352 N 
ATOM     27  C   UNL A   1      34.660  30.681  28.147  1.00  0.00     0.251 C 
ATOM     28  H   UNL A   1      32.779  30.486  27.488  1.00  0.00     0.163 HD
ATOM     29  O   UNL A   1      34.513  31.846  28.490  1.00  0.00    -0.269 OA
BRANCH  27  30
ATOM     30  C   UNL A   1      35.971  30.022  28.336  1.00  0.00     0.039 A 
ATOM     31  C   UNL A   1      36.914  30.093  27.308  1.00  0.00     0.014 A 
ATOM     32  C   UNL A   1      36.281  29.370  29.531  1.00  0.00     0.014 A 
ATOM     33  C   UNL A   1      38.207  29.609  27.522  1.00  0.00     0.010 A 
ATOM     34  C   UNL A   1      37.591  28.961  29.771  1.00  0.00     0.010 A 
ATOM     35  C   UNL A   1      38.573  29.094  28.776  1.00  0.00    -0.014 A 
BRANCH  35  36
ATOM     36  C   UNL A   1      39.981  28.725  29.080  1.00  0.00     0.031 A 
ATOM     37  C   UNL A   1      40.880  29.685  29.805  1.00  0.00     0.074 A 
ATOM     38  C   UNL A   1      40.475  27.554  28.626  1.00  0.00     0.049 A 
ATOM     39  N   UNL A   1      42.156  29.579  30.081  1.00  0.00    -0.248 NA
ATOM     40  C   UNL A   1      40.272  30.948  30.256  1.00  0.00     0.031 C 
ATOM     41  C   UNL A   1      39.724  26.559  27.860  1.00  0.00     0.029 A 
ATOM     42  N   UNL A   1      41.731  27.008  28.734  1.00  0.00    -0.354 N 
ATOM     43  C   UNL A   1      42.505  30.761  30.719  1.00  0.00     0.074 A 
ATOM     44  C   UNL A   1      41.321  31.594  30.744  1.00  0.00     0.031 C 
ATOM     45  C   UNL A   1      40.524  25.516  27.587  1.00  0.00     0.029 A 
ATOM     46  C   UNL A   1      41.854  25.783  28.124  1.00  0.00     0.049 A 
ATOM     47  H   UNL A   1      42.472  27.453  29.203  1.00  0.00     0.167 HD
ATOM     48  C   UNL A   1      43.696  31.111  31.259  1.00  0.00     0.037 A 
ATOM     49  C   UNL A   1      42.922  24.970  28.006  1.00  0.00     0.037 A 
ATOM     50  C   UNL A   1      44.865  30.272  31.262  1.00  0.00     0.049 A 
ATOM     51  C   UNL A   1      44.233  25.383  28.619  1.00  0.00     0.074 A 
ATOM     52  C   UNL A   1      46.101  30.515  31.838  1.00  0.00     0.029 A 
ATOM     53  N   UNL A   1      44.942  29.024  30.661  1.00  0.00    -0.354 N 
ATOM     54  N   UNL A   1      44.530  26.473  29.282  1.00  0.00    -0.248 NA
ATOM     55  C   UNL A   1      45.356  24.445  28.473  1.00  0.00     0.031 C 
ATOM     56  C   UNL A   1      46.937  29.431  31.551  1.00  0.00     0.029 A 
ATOM     57  C   UNL A   1      46.210  28.492  30.838  1.00  0.00     0.049 A 
ATOM     58  H   UNL A   1      44.206  28.582  30.180  1.00  0.00     0.167 HD
ATOM     59  C   UNL A   1      45.859  26.341  29.658  1.00  0.00     0.074 A 
ATOM     60  C   UNL A   1      46.309  25.058  29.161  1.00  0.00     0.031 C 
ATOM     61  C   UNL A   1      46.638  27.206  30.351  1.00  0.00     0.037 A 
BRANCH  48  62
ATOM     62  C   UNL A   1      43.794  32.462  31.906  1.00  0.00     0.064 A 
ATOM     63  C   UNL A   1      43.535  32.640  33.274  1.00  0.00     0.173 A 
ATOM     64  C   UNL A   1      44.192  33.583  31.163  1.00  0.00     0.173 A 
ATOM     65  F   UNL A   1      43.141  31.601  34.027  1.00  0.00    -0.203 F 
ATOM     66  C   UNL A   1      43.643  33.895  33.867  1.00  0.00     0.198 A 
ATOM     67  C   UNL A   1      44.328  34.831  31.766  1.00  0.00     0.198 A 
ATOM     68  F   UNL A   1      44.458  33.468  29.853  1.00  0.00    -0.203 F 
ATOM     69  F   UNL A   1      43.346  34.048  35.165  1.00  0.00    -0.200 F 
ATOM     70  C   UNL A   1      44.047  34.987  33.115  1.00  0.00     0.200 A 
ATOM     71  F   UNL A   1      44.731  35.884  31.041  1.00  0.00    -0.200 F 
ATOM     72  F   UNL A   1      44.160  36.193  33.689  1.00  0.00    -0.200 F 
ENDBRANCH  48  62
BRANCH  49  73
ATOM     73  C   UNL A   1      42.794  23.668  27.300  1.00  0.00     0.064 A 
ATOM     74  C   UNL A   1      42.293  22.538  27.962  1.00  0.00     0.173 A 
ATOM     75  C   UNL A   1      43.187  23.519  25.961  1.00  0.00     0.173 A 
ATOM     76  F   UNL A   1      41.925  22.626  29.249  1.00  0.00    -0.203 F 
ATOM     77  C   UNL A   1      42.212  21.304  27.321  1.00  0.00     0.198 A 
ATOM     78  C   UNL A   1      43.080  22.290  25.313  1.00  0.00     0.198 A 
ATOM     79  F   UNL A   1      43.670  24.569  25.282  1.00  0.00    -0.203 F 
ATOM     80  F   UNL A   1      41.778  20.230  27.994  1.00  0.00    -0.200 F 
ATOM     81  C   UNL A   1      42.602  21.181  25.996  1.00  0.00     0.200 A 
ATOM     82  F   UNL A   1      43.446  22.178  24.029  1.00  0.00    -0.200 F 
ATOM     83  F   UNL A   1      42.526  19.993  25.380  1.00  0.00    -0.200 F 
ENDBRANCH  49  73
BRANCH  61  84
ATOM     84  C   UNL A   1      48.045  26.779  30.651  1.00  0.00     0.064 A 
ATOM     85  C   UNL A   1      48.346  25.953  31.744  1.00  0.00     0.173 A 
ATOM     86  C   UNL A   1      49.099  27.170  29.811  1.00  0.00     0.173 A 
ATOM     87  F   UNL A   1      47.376  25.566  32.585  1.00  0.00    -0.203 F 
ATOM     88  C   UNL A   1      49.655  25.552  31.997  1.00  0.00     0.198 A 
ATOM     89  C   UNL A   1      50.402  26.745  30.051  1.00  0.00     0.198 A 
ATOM     90  F   UNL A   1      48.863  27.957  28.751  1.00  0.00    -0.203 F 
ATOM     91  F   UNL A   1      49.928  24.799  33.072  1.00  0.00    -0.200 F 
ATOM     92  C   UNL A   1      50.681  25.941  31.147  1.00  0.00     0.200 A 
ATOM     93  F   UNL A   1      51.389  27.111  29.222  1.00  0.00    -0.200 F 
ATOM     94  F   UNL A   1      51.939  25.548  31.388  1.00  0.00    -0.200 F 
ENDBRANCH  61  84
ENDBRANCH  35  36
ENDBRANCH  27  30
ENDBRANCH  25  26
ENDBRANCH  24  25
ENDBRANCH   1  24
TORSDOF 13
ENDMDL
