MODEL 1
REMARK VINA RESULT:     -12.6      0.000      0.000
REMARK SMILES CCc1ccc(N(C)C(=O)N2CC[C@@H](C(=O)NCCCCNC(=O)c3ccc(-c4c5nc(c(-c6c(F)c(F)c(F)c(F)c6F)c6ccc([nH]6)c(-c6c(F)c(F)c(F)c(F)c6F)c6nc(c(-c7c(F)c(F)c(F)c(F)c7F)c7ccc4[nH]7)C=C6)C=C5)cc3)[C@@H]2C)cc1
REMARK SMILES IDX 18 1 17 2 15 3 16 4 14 6 11 7 12 8 88 9 13 10 89 11 9 12
REMARK SMILES IDX 10 13 7 14 8 15 6 16 3 17 4 18 91 19 5 20 90 21 2 22 1 23
REMARK SMILES IDX 19 24 20 25 21 26 22 27 23 28 24 30 25 31 26 32 87 33 27 34
REMARK SMILES IDX 86 35 28 36 29 37 30 38 80 39 31 40 85 41 79 42 81 43 32 44
REMARK SMILES IDX 84 45 78 46 77 47 33 49 65 50 45 51 64 52 46 53 49 54 63 55
REMARK SMILES IDX 82 56 47 57 48 58 62 60 83 61 50 62 34 63 35 64 43 65 36 66
REMARK SMILES IDX 37 67 41 68 44 69 38 70 39 71 42 72 40 73 66 74 67 75 75 76
REMARK SMILES IDX 68 77 69 78 73 79 76 80 70 81 71 82 74 83 72 84 51 85 52 86
REMARK SMILES IDX 60 87 53 88 54 89 58 90 61 91 55 92 56 93 59 94 57 95
REMARK H PARENT 17 5 22 29 81 48 49 59
REMARK Flexibility Score: inf
ROOT
ATOM      1  C   UNL A   1      31.089  26.329  26.103  1.00  0.00     0.116 C 
ENDROOT
BRANCH   1   2
ATOM      2  N   UNL A   1      31.194  25.107  26.875  1.00  0.00    -0.356 N 
ATOM      3  C   UNL A   1      31.858  23.943  26.638  1.00  0.00     0.225 C 
ATOM      4  O   UNL A   1      31.720  23.045  27.475  1.00  0.00    -0.275 OA
ATOM      5  H   UNL A   1      30.696  25.121  27.724  1.00  0.00     0.163 HD
BRANCH   3   6
ATOM      6  C   UNL A   1      32.746  23.710  25.418  1.00  0.00     0.102 C 
ATOM      7  N   UNL A   1      33.105  25.100  23.491  1.00  0.00    -0.321 N 
ATOM      8  C   UNL A   1      34.405  24.847  24.100  1.00  0.00     0.122 C 
ATOM      9  C   UNL A   1      32.118  24.172  24.085  1.00  0.00     0.096 C 
ATOM     10  C   UNL A   1      34.109  24.391  25.517  1.00  0.00     0.037 C 
ATOM     11  C   UNL A   1      31.857  22.986  23.155  1.00  0.00     0.032 C 
BRANCH   7  12
ATOM     12  C   UNL A   1      33.084  25.951  22.383  1.00  0.00     0.324 C 
ATOM     13  O   UNL A   1      33.294  25.438  21.279  1.00  0.00    -0.248 OA
BRANCH  12  14
ATOM     14  N   UNL A   1      32.909  27.337  22.552  1.00  0.00    -0.297 N 
ATOM     15  C   UNL A   1      33.992  28.253  22.276  1.00  0.00     0.155 C 
BRANCH  14  16
ATOM     16  C   UNL A   1      31.600  27.948  22.777  1.00  0.00     0.045 A 
ATOM     17  C   UNL A   1      29.041  29.233  23.071  1.00  0.00    -0.048 A 
ATOM     18  C   UNL A   1      30.221  29.967  23.121  1.00  0.00     0.006 A 
ATOM     19  C   UNL A   1      29.153  27.847  22.917  1.00  0.00     0.006 A 
ATOM     20  C   UNL A   1      31.466  29.335  22.999  1.00  0.00     0.027 A 
ATOM     21  C   UNL A   1      30.406  27.221  22.779  1.00  0.00     0.027 A 
BRANCH  17  22
ATOM     22  C   UNL A   1      27.671  29.854  23.196  1.00  0.00     0.032 C 
ATOM     23  C   UNL A   1      27.568  31.350  22.915  1.00  0.00     0.009 C 
ENDBRANCH  17  22
ENDBRANCH  14  16
ENDBRANCH  12  14
ENDBRANCH   7  12
ENDBRANCH   3   6
ENDBRANCH   1   2
BRANCH   1  24
ATOM     24  C   UNL A   1      32.166  27.337  26.504  1.00  0.00     0.023 C 
BRANCH  24  25
ATOM     25  C   UNL A   1      31.729  28.790  26.575  1.00  0.00     0.023 C 
BRANCH  25  26
ATOM     26  C   UNL A   1      32.798  29.794  26.177  1.00  0.00     0.116 C 
BRANCH  26  27
ATOM     27  N   UNL A   1      32.506  31.167  26.578  1.00  0.00    -0.352 N 
ATOM     28  C   UNL A   1      33.268  32.031  27.330  1.00  0.00     0.251 C 
ATOM     29  H   UNL A   1      31.642  31.524  26.269  1.00  0.00     0.163 HD
ATOM     30  O   UNL A   1      32.834  33.132  27.652  1.00  0.00    -0.269 OA
BRANCH  28  31
ATOM     31  C   UNL A   1      34.600  31.595  27.789  1.00  0.00     0.039 A 
ATOM     32  C   UNL A   1      35.613  32.545  27.934  1.00  0.00     0.014 A 
ATOM     33  C   UNL A   1      34.813  30.267  28.163  1.00  0.00     0.014 A 
ATOM     34  C   UNL A   1      36.806  32.184  28.561  1.00  0.00     0.010 A 
ATOM     35  C   UNL A   1      35.956  29.935  28.875  1.00  0.00     0.010 A 
ATOM     36  C   UNL A   1      36.960  30.892  29.089  1.00  0.00    -0.014 A 
BRANCH  36  37
ATOM     37  C   UNL A   1      38.153  30.511  29.884  1.00  0.00     0.031 A 
ATOM     38  C   UNL A   1      39.150  29.544  29.312  1.00  0.00     0.074 A 
ATOM     39  C   UNL A   1      38.275  30.942  31.154  1.00  0.00     0.049 A 
ATOM     40  N   UNL A   1      40.176  28.974  29.889  1.00  0.00    -0.248 NA
ATOM     41  C   UNL A   1      38.936  29.126  27.916  1.00  0.00     0.031 C 
ATOM     42  C   UNL A   1      37.334  31.825  31.846  1.00  0.00     0.029 A 
ATOM     43  N   UNL A   1      39.234  30.676  32.100  1.00  0.00    -0.354 N 
ATOM     44  C   UNL A   1      40.706  28.109  28.941  1.00  0.00     0.074 A 
ATOM     45  C   UNL A   1      39.860  28.189  27.770  1.00  0.00     0.031 C 
ATOM     46  C   UNL A   1      37.772  32.043  33.096  1.00  0.00     0.029 A 
ATOM     47  C   UNL A   1      39.002  31.287  33.307  1.00  0.00     0.049 A 
ATOM     48  H   UNL A   1      40.016  30.102  31.927  1.00  0.00     0.167 HD
ATOM     49  C   UNL A   1      41.813  27.335  29.031  1.00  0.00     0.037 A 
ATOM     50  C   UNL A   1      39.700  31.235  34.458  1.00  0.00     0.037 A 
ATOM     51  C   UNL A   1      42.682  27.305  30.177  1.00  0.00     0.049 A 
ATOM     52  C   UNL A   1      40.952  30.404  34.518  1.00  0.00     0.074 A 
ATOM     53  C   UNL A   1      43.882  26.634  30.331  1.00  0.00     0.029 A 
ATOM     54  N   UNL A   1      42.442  27.980  31.365  1.00  0.00    -0.354 N 
ATOM     55  N   UNL A   1      41.488  29.651  33.589  1.00  0.00    -0.248 NA
ATOM     56  C   UNL A   1      41.698  30.419  35.785  1.00  0.00     0.031 C 
ATOM     57  C   UNL A   1      44.352  26.876  31.626  1.00  0.00     0.029 A 
ATOM     58  C   UNL A   1      43.464  27.727  32.265  1.00  0.00     0.049 A 
ATOM     59  H   UNL A   1      41.662  28.553  31.541  1.00  0.00     0.167 HD
ATOM     60  C   UNL A   1      42.641  29.119  34.147  1.00  0.00     0.074 A 
ATOM     61  C   UNL A   1      42.736  29.648  35.493  1.00  0.00     0.031 C 
ATOM     62  C   UNL A   1      43.540  28.267  33.597  1.00  0.00     0.037 A 
BRANCH  49  63
ATOM     63  C   UNL A   1      42.151  26.471  27.853  1.00  0.00     0.064 A 
ATOM     64  C   UNL A   1      43.062  26.889  26.871  1.00  0.00     0.173 A 
ATOM     65  C   UNL A   1      41.573  25.200  27.716  1.00  0.00     0.173 A 
ATOM     66  F   UNL A   1      43.630  28.102  26.950  1.00  0.00    -0.203 F 
ATOM     67  C   UNL A   1      43.357  26.080  25.777  1.00  0.00     0.198 A 
ATOM     68  C   UNL A   1      41.893  24.382  26.636  1.00  0.00     0.198 A 
ATOM     69  F   UNL A   1      40.698  24.752  28.629  1.00  0.00    -0.203 F 
ATOM     70  F   UNL A   1      44.188  26.522  24.824  1.00  0.00    -0.200 F 
ATOM     71  C   UNL A   1      42.777  24.825  25.664  1.00  0.00     0.200 A 
ATOM     72  F   UNL A   1      41.340  23.165  26.532  1.00  0.00    -0.200 F 
ATOM     73  F   UNL A   1      43.065  24.045  24.612  1.00  0.00    -0.200 F 
ENDBRANCH  49  63
BRANCH  50  74
ATOM     74  C   UNL A   1      39.244  32.015  35.636  1.00  0.00     0.064 A 
ATOM     75  C   UNL A   1      39.667  33.337  35.828  1.00  0.00     0.173 A 
ATOM     76  C   UNL A   1      38.373  31.464  36.587  1.00  0.00     0.173 A 
ATOM     77  F   UNL A   1      40.515  33.901  34.955  1.00  0.00    -0.203 F 
ATOM     78  C   UNL A   1      39.250  34.075  36.934  1.00  0.00     0.198 A 
ATOM     79  C   UNL A   1      37.936  32.210  37.681  1.00  0.00     0.198 A 
ATOM     80  F   UNL A   1      37.934  30.205  36.445  1.00  0.00    -0.203 F 
ATOM     81  F   UNL A   1      39.699  35.324  37.113  1.00  0.00    -0.200 F 
ATOM     82  C   UNL A   1      38.379  33.512  37.856  1.00  0.00     0.200 A 
ATOM     83  F   UNL A   1      37.085  31.667  38.562  1.00  0.00    -0.200 F 
ATOM     84  F   UNL A   1      37.974  34.223  38.917  1.00  0.00    -0.200 F 
ENDBRANCH  50  74
BRANCH  62  85
ATOM     85  C   UNL A   1      44.714  27.870  34.441  1.00  0.00     0.064 A 
ATOM     86  C   UNL A   1      45.885  28.642  34.474  1.00  0.00     0.173 A 
ATOM     87  C   UNL A   1      44.646  26.738  35.265  1.00  0.00     0.173 A 
ATOM     88  F   UNL A   1      46.001  29.725  33.691  1.00  0.00    -0.203 F 
ATOM     89  C   UNL A   1      46.953  28.282  35.290  1.00  0.00     0.198 A 
ATOM     90  C   UNL A   1      45.705  26.396  36.099  1.00  0.00     0.198 A 
ATOM     91  F   UNL A   1      43.544  25.972  35.272  1.00  0.00    -0.203 F 
ATOM     92  F   UNL A   1      48.077  29.011  35.279  1.00  0.00    -0.200 F 
ATOM     93  C   UNL A   1      46.859  27.165  36.107  1.00  0.00     0.200 A 
ATOM     94  F   UNL A   1      45.610  25.322  36.896  1.00  0.00    -0.200 F 
ATOM     95  F   UNL A   1      47.885  26.826  36.900  1.00  0.00    -0.200 F 
ENDBRANCH  62  85
ENDBRANCH  36  37
ENDBRANCH  28  31
ENDBRANCH  26  27
ENDBRANCH  25  26
ENDBRANCH  24  25
ENDBRANCH   1  24
TORSDOF 15
ENDMDL
MODEL 2
REMARK VINA RESULT:     -12.5      0.583      7.418
REMARK SMILES CCc1ccc(N(C)C(=O)N2CC[C@@H](C(=O)NCCCCNC(=O)c3ccc(-c4c5nc(c(-c6c(F)c(F)c(F)c(F)c6F)c6ccc([nH]6)c(-c6c(F)c(F)c(F)c(F)c6F)c6nc(c(-c7c(F)c(F)c(F)c(F)c7F)c7ccc4[nH]7)C=C6)C=C5)cc3)[C@@H]2C)cc1
REMARK SMILES IDX 18 1 17 2 15 3 16 4 14 6 11 7 12 8 88 9 13 10 89 11 9 12
REMARK SMILES IDX 10 13 7 14 8 15 6 16 3 17 4 18 91 19 5 20 90 21 2 22 1 23
REMARK SMILES IDX 19 24 20 25 21 26 22 27 23 28 24 30 25 31 26 32 87 33 27 34
REMARK SMILES IDX 86 35 28 36 29 37 30 38 80 39 31 40 85 41 79 42 81 43 32 44
REMARK SMILES IDX 84 45 78 46 77 47 33 49 65 50 45 51 64 52 46 53 49 54 63 55
REMARK SMILES IDX 82 56 47 57 48 58 62 60 83 61 50 62 34 63 35 64 43 65 36 66
REMARK SMILES IDX 37 67 41 68 44 69 38 70 39 71 42 72 40 73 66 74 67 75 75 76
REMARK SMILES IDX 68 77 69 78 73 79 76 80 70 81 71 82 74 83 72 84 51 85 52 86
REMARK SMILES IDX 60 87 53 88 54 89 58 90 61 91 55 92 56 93 59 94 57 95
REMARK H PARENT 17 5 22 29 81 48 49 59
REMARK Flexibility Score: inf
ROOT
ATOM      1  C   UNL A   1      30.981  26.324  26.130  1.00  0.00     0.116 C 
ENDROOT
BRANCH   1   2
ATOM      2  N   UNL A   1      31.052  25.093  26.893  1.00  0.00    -0.356 N 
ATOM      3  C   UNL A   1      31.705  23.923  26.659  1.00  0.00     0.225 C 
ATOM      4  O   UNL A   1      31.536  23.019  27.485  1.00  0.00    -0.275 OA
ATOM      5  H   UNL A   1      30.534  25.106  27.730  1.00  0.00     0.163 HD
BRANCH   3   6
ATOM      6  C   UNL A   1      32.618  23.688  25.458  1.00  0.00     0.102 C 
ATOM      7  N   UNL A   1      33.023  25.081  23.543  1.00  0.00    -0.321 N 
ATOM      8  C   UNL A   1      34.308  24.822  24.178  1.00  0.00     0.122 C 
ATOM      9  C   UNL A   1      32.019  24.155  24.114  1.00  0.00     0.096 C 
ATOM     10  C   UNL A   1      33.980  24.364  25.587  1.00  0.00     0.037 C 
ATOM     11  C   UNL A   1      31.774  22.973  23.176  1.00  0.00     0.032 C 
BRANCH   7  12
ATOM     12  C   UNL A   1      33.027  25.935  22.436  1.00  0.00     0.324 C 
ATOM     13  O   UNL A   1      33.226  25.418  21.331  1.00  0.00    -0.248 OA
BRANCH  12  14
ATOM     14  N   UNL A   1      32.890  27.325  22.607  1.00  0.00    -0.297 N 
ATOM     15  C   UNL A   1      34.002  28.210  22.345  1.00  0.00     0.155 C 
BRANCH  14  16
ATOM     16  C   UNL A   1      31.598  27.972  22.821  1.00  0.00     0.045 A 
ATOM     17  C   UNL A   1      29.076  29.333  23.096  1.00  0.00    -0.048 A 
ATOM     18  C   UNL A   1      30.277  30.026  23.187  1.00  0.00     0.006 A 
ATOM     19  C   UNL A   1      29.146  27.948  22.909  1.00  0.00     0.006 A 
ATOM     20  C   UNL A   1      31.504  29.357  23.074  1.00  0.00     0.027 A 
ATOM     21  C   UNL A   1      30.381  27.285  22.781  1.00  0.00     0.027 A 
BRANCH  17  22
ATOM     22  C   UNL A   1      27.723  29.995  23.208  1.00  0.00     0.032 C 
ATOM     23  C   UNL A   1      27.648  31.468  22.820  1.00  0.00     0.009 C 
ENDBRANCH  17  22
ENDBRANCH  14  16
ENDBRANCH  12  14
ENDBRANCH   7  12
ENDBRANCH   3   6
ENDBRANCH   1   2
BRANCH   1  24
ATOM     24  C   UNL A   1      32.144  27.257  26.466  1.00  0.00     0.023 C 
BRANCH  24  25
ATOM     25  C   UNL A   1      31.810  28.735  26.560  1.00  0.00     0.023 C 
BRANCH  25  26
ATOM     26  C   UNL A   1      32.946  29.669  26.177  1.00  0.00     0.116 C 
BRANCH  26  27
ATOM     27  N   UNL A   1      32.777  31.039  26.648  1.00  0.00    -0.352 N 
ATOM     28  C   UNL A   1      33.603  31.788  27.454  1.00  0.00     0.251 C 
ATOM     29  H   UNL A   1      31.955  31.492  26.349  1.00  0.00     0.163 HD
ATOM     30  O   UNL A   1      33.269  32.906  27.830  1.00  0.00    -0.269 OA
BRANCH  28  31
ATOM     31  C   UNL A   1      34.881  31.204  27.904  1.00  0.00     0.039 A 
ATOM     32  C   UNL A   1      35.993  32.037  28.052  1.00  0.00     0.014 A 
ATOM     33  C   UNL A   1      34.949  29.858  28.268  1.00  0.00     0.014 A 
ATOM     34  C   UNL A   1      37.141  31.543  28.671  1.00  0.00     0.010 A 
ATOM     35  C   UNL A   1      36.051  29.397  28.972  1.00  0.00     0.010 A 
ATOM     36  C   UNL A   1      37.154  30.237  29.189  1.00  0.00    -0.014 A 
BRANCH  36  37
ATOM     37  C   UNL A   1      38.302  29.721  29.976  1.00  0.00     0.031 A 
ATOM     38  C   UNL A   1      38.526  30.214  31.376  1.00  0.00     0.074 A 
ATOM     39  C   UNL A   1      39.199  28.904  29.391  1.00  0.00     0.049 A 
ATOM     40  N   UNL A   1      39.537  30.002  32.178  1.00  0.00    -0.248 NA
ATOM     41  C   UNL A   1      37.493  31.104  31.934  1.00  0.00     0.031 C 
ATOM     42  C   UNL A   1      39.130  28.414  28.012  1.00  0.00     0.029 A 
ATOM     43  N   UNL A   1      40.361  28.357  29.877  1.00  0.00    -0.354 N 
ATOM     44  C   UNL A   1      39.280  30.757  33.314  1.00  0.00     0.074 A 
ATOM     45  C   UNL A   1      38.044  31.472  33.080  1.00  0.00     0.031 C 
ATOM     46  C   UNL A   1      40.190  27.626  27.772  1.00  0.00     0.029 A 
ATOM     47  C   UNL A   1      41.032  27.585  28.963  1.00  0.00     0.049 A 
ATOM     48  H   UNL A   1      40.682  28.506  30.797  1.00  0.00     0.167 HD
ATOM     49  C   UNL A   1      39.998  30.827  34.460  1.00  0.00     0.037 A 
ATOM     50  C   UNL A   1      42.200  26.924  29.071  1.00  0.00     0.037 A 
ATOM     51  C   UNL A   1      41.194  30.069  34.707  1.00  0.00     0.049 A 
ATOM     52  C   UNL A   1      42.955  26.981  30.370  1.00  0.00     0.074 A 
ATOM     53  C   UNL A   1      41.939  29.990  35.870  1.00  0.00     0.029 A 
ATOM     54  N   UNL A   1      41.816  29.253  33.774  1.00  0.00    -0.354 N 
ATOM     55  N   UNL A   1      42.662  27.635  31.468  1.00  0.00    -0.248 NA
ATOM     56  C   UNL A   1      44.202  26.206  30.448  1.00  0.00     0.031 C 
ATOM     57  C   UNL A   1      43.033  29.153  35.629  1.00  0.00     0.029 A 
ATOM     58  C   UNL A   1      42.948  28.680  34.329  1.00  0.00     0.049 A 
ATOM     59  H   UNL A   1      41.499  29.103  32.854  1.00  0.00     0.167 HD
ATOM     60  C   UNL A   1      43.671  27.337  32.371  1.00  0.00     0.074 A 
ATOM     61  C   UNL A   1      44.579  26.430  31.699  1.00  0.00     0.031 C 
ATOM     62  C   UNL A   1      43.835  27.777  33.643  1.00  0.00     0.037 A 
BRANCH  49  63
ATOM     63  C   UNL A   1      39.498  31.747  35.533  1.00  0.00     0.064 A 
ATOM     64  C   UNL A   1      38.559  31.324  36.487  1.00  0.00     0.173 A 
ATOM     65  C   UNL A   1      39.980  33.062  35.623  1.00  0.00     0.173 A 
ATOM     66  F   UNL A   1      38.057  30.082  36.434  1.00  0.00    -0.203 F 
ATOM     67  C   UNL A   1      38.097  32.194  37.471  1.00  0.00     0.198 A 
ATOM     68  C   UNL A   1      39.537  33.919  36.627  1.00  0.00     0.198 A 
ATOM     69  F   UNL A   1      40.881  33.514  34.738  1.00  0.00    -0.203 F 
ATOM     70  F   UNL A   1      37.160  31.785  38.337  1.00  0.00    -0.200 F 
ATOM     71  C   UNL A   1      38.590  33.488  37.544  1.00  0.00     0.200 A 
ATOM     72  F   UNL A   1      40.021  35.167  36.703  1.00  0.00    -0.200 F 
ATOM     73  F   UNL A   1      38.147  34.323  38.494  1.00  0.00    -0.200 F 
ENDBRANCH  49  63
BRANCH  50  74
ATOM     74  C   UNL A   1      42.710  26.129  27.926  1.00  0.00     0.064 A 
ATOM     75  C   UNL A   1      42.323  24.794  27.750  1.00  0.00     0.173 A 
ATOM     76  C   UNL A   1      43.585  26.684  26.981  1.00  0.00     0.173 A 
ATOM     77  F   UNL A   1      41.503  24.214  28.638  1.00  0.00    -0.203 F 
ATOM     78  C   UNL A   1      42.802  24.039  26.682  1.00  0.00     0.198 A 
ATOM     79  C   UNL A   1      44.045  25.936  25.898  1.00  0.00     0.198 A 
ATOM     80  F   UNL A   1      43.981  27.960  27.101  1.00  0.00    -0.203 F 
ATOM     81  F   UNL A   1      42.444  22.754  26.557  1.00  0.00    -0.200 F 
ATOM     82  C   UNL A   1      43.658  24.613  25.753  1.00  0.00     0.200 A 
ATOM     83  F   UNL A   1      44.862  26.498  24.997  1.00  0.00    -0.200 F 
ATOM     84  F   UNL A   1      44.114  23.888  24.723  1.00  0.00    -0.200 F 
ENDBRANCH  50  74
BRANCH  62  85
ATOM     85  C   UNL A   1      45.026  27.267  34.397  1.00  0.00     0.064 A 
ATOM     86  C   UNL A   1      44.982  26.054  35.099  1.00  0.00     0.173 A 
ATOM     87  C   UNL A   1      46.237  27.972  34.371  1.00  0.00     0.173 A 
ATOM     88  F   UNL A   1      43.840  25.353  35.164  1.00  0.00    -0.203 F 
ATOM     89  C   UNL A   1      46.106  25.574  35.764  1.00  0.00     0.198 A 
ATOM     90  C   UNL A   1      47.366  27.476  35.015  1.00  0.00     0.198 A 
ATOM     91  F   UNL A   1      46.330  29.134  33.708  1.00  0.00    -0.203 F 
ATOM     92  F   UNL A   1      46.033  24.431  36.461  1.00  0.00    -0.200 F 
ATOM     93  C   UNL A   1      47.299  26.280  35.715  1.00  0.00     0.200 A 
ATOM     94  F   UNL A   1      48.521  28.154  34.959  1.00  0.00    -0.200 F 
ATOM     95  F   UNL A   1      48.383  25.811  36.348  1.00  0.00    -0.200 F 
ENDBRANCH  62  85
ENDBRANCH  36  37
ENDBRANCH  28  31
ENDBRANCH  26  27
ENDBRANCH  25  26
ENDBRANCH  24  25
ENDBRANCH   1  24
TORSDOF 15
ENDMDL
MODEL 3
REMARK VINA RESULT:     -12.5      1.988      4.212
REMARK SMILES CCc1ccc(N(C)C(=O)N2CC[C@@H](C(=O)NCCCCNC(=O)c3ccc(-c4c5nc(c(-c6c(F)c(F)c(F)c(F)c6F)c6ccc([nH]6)c(-c6c(F)c(F)c(F)c(F)c6F)c6nc(c(-c7c(F)c(F)c(F)c(F)c7F)c7ccc4[nH]7)C=C6)C=C5)cc3)[C@@H]2C)cc1
REMARK SMILES IDX 18 1 17 2 15 3 16 4 14 6 11 7 12 8 88 9 13 10 89 11 9 12
REMARK SMILES IDX 10 13 7 14 8 15 6 16 3 17 4 18 91 19 5 20 90 21 2 22 1 23
REMARK SMILES IDX 19 24 20 25 21 26 22 27 23 28 24 30 25 31 26 32 87 33 27 34
REMARK SMILES IDX 86 35 28 36 29 37 30 38 80 39 31 40 85 41 79 42 81 43 32 44
REMARK SMILES IDX 84 45 78 46 77 47 33 49 65 50 45 51 64 52 46 53 49 54 63 55
REMARK SMILES IDX 82 56 47 57 48 58 62 60 83 61 50 62 34 63 35 64 43 65 36 66
REMARK SMILES IDX 37 67 41 68 44 69 38 70 39 71 42 72 40 73 66 74 67 75 75 76
REMARK SMILES IDX 68 77 69 78 73 79 76 80 70 81 71 82 74 83 72 84 51 85 52 86
REMARK SMILES IDX 60 87 53 88 54 89 58 90 61 91 55 92 56 93 59 94 57 95
REMARK H PARENT 17 5 22 29 81 48 49 59
REMARK Flexibility Score: inf
ROOT
ATOM      1  C   UNL A   1      33.100  29.162  27.097  1.00  0.00     0.116 C 
ENDROOT
BRANCH   1   2
ATOM      2  N   UNL A   1      32.195  28.051  27.321  1.00  0.00    -0.356 N 
ATOM      3  C   UNL A   1      31.522  27.246  26.454  1.00  0.00     0.225 C 
ATOM      4  O   UNL A   1      30.775  26.397  26.952  1.00  0.00    -0.275 OA
ATOM      5  H   UNL A   1      32.038  27.842  28.270  1.00  0.00     0.163 HD
BRANCH   3   6
ATOM      6  C   UNL A   1      31.653  27.341  24.936  1.00  0.00     0.102 C 
ATOM      7  N   UNL A   1      32.373  25.685  23.351  1.00  0.00    -0.321 N 
ATOM      8  C   UNL A   1      31.042  26.126  22.954  1.00  0.00     0.122 C 
ATOM      9  C   UNL A   1      32.897  26.624  24.367  1.00  0.00     0.096 C 
ATOM     10  C   UNL A   1      30.447  26.784  24.184  1.00  0.00     0.037 C 
ATOM     11  C   UNL A   1      33.870  27.621  23.736  1.00  0.00     0.032 C 
BRANCH   7  12
ATOM     12  C   UNL A   1      32.952  24.665  22.591  1.00  0.00     0.324 C 
ATOM     13  O   UNL A   1      33.302  24.953  21.441  1.00  0.00    -0.248 OA
BRANCH  12  14
ATOM     14  N   UNL A   1      33.048  23.358  23.105  1.00  0.00    -0.297 N 
ATOM     15  C   UNL A   1      31.988  22.401  22.880  1.00  0.00     0.155 C 
BRANCH  14  16
ATOM     16  C   UNL A   1      34.281  22.820  23.674  1.00  0.00     0.045 A 
ATOM     17  C   UNL A   1      36.675  21.610  24.719  1.00  0.00    -0.048 A 
ATOM     18  C   UNL A   1      35.419  21.193  25.141  1.00  0.00     0.006 A 
ATOM     19  C   UNL A   1      36.726  22.667  23.804  1.00  0.00     0.006 A 
ATOM     20  C   UNL A   1      34.255  21.798  24.646  1.00  0.00     0.027 A 
ATOM     21  C   UNL A   1      35.554  23.260  23.298  1.00  0.00     0.027 A 
BRANCH  17  22
ATOM     22  C   UNL A   1      37.964  20.999  25.213  1.00  0.00     0.032 C 
ATOM     23  C   UNL A   1      38.935  21.934  25.927  1.00  0.00     0.009 C 
ENDBRANCH  17  22
ENDBRANCH  14  16
ENDBRANCH  12  14
ENDBRANCH   7  12
ENDBRANCH   3   6
ENDBRANCH   1   2
BRANCH   1  24
ATOM     24  C   UNL A   1      32.465  30.226  26.201  1.00  0.00     0.023 C 
BRANCH  24  25
ATOM     25  C   UNL A   1      31.929  31.461  26.906  1.00  0.00     0.023 C 
BRANCH  25  26
ATOM     26  C   UNL A   1      32.998  32.395  27.449  1.00  0.00     0.116 C 
BRANCH  26  27
ATOM     27  N   UNL A   1      32.548  33.770  27.637  1.00  0.00    -0.352 N 
ATOM     28  C   UNL A   1      33.039  34.735  28.486  1.00  0.00     0.251 C 
ATOM     29  H   UNL A   1      31.785  34.046  27.079  1.00  0.00     0.163 HD
ATOM     30  O   UNL A   1      32.486  35.826  28.583  1.00  0.00    -0.269 OA
BRANCH  28  31
ATOM     31  C   UNL A   1      34.216  34.423  29.318  1.00  0.00     0.039 A 
ATOM     32  C   UNL A   1      34.022  33.918  30.606  1.00  0.00     0.014 A 
ATOM     33  C   UNL A   1      35.502  34.540  28.787  1.00  0.00     0.014 A 
ATOM     34  C   UNL A   1      35.114  33.426  31.320  1.00  0.00     0.010 A 
ATOM     35  C   UNL A   1      36.570  33.959  29.455  1.00  0.00     0.010 A 
ATOM     36  C   UNL A   1      36.385  33.389  30.724  1.00  0.00    -0.014 A 
BRANCH  36  37
ATOM     37  C   UNL A   1      37.543  32.747  31.395  1.00  0.00     0.031 A 
ATOM     38  C   UNL A   1      38.226  31.578  30.743  1.00  0.00     0.074 A 
ATOM     39  C   UNL A   1      37.900  33.140  32.632  1.00  0.00     0.049 A 
ATOM     40  N   UNL A   1      39.155  30.791  31.219  1.00  0.00    -0.248 NA
ATOM     41  C   UNL A   1      37.769  31.219  29.390  1.00  0.00     0.031 C 
ATOM     42  C   UNL A   1      37.265  34.214  33.400  1.00  0.00     0.029 A 
ATOM     43  N   UNL A   1      38.874  32.664  33.475  1.00  0.00    -0.354 N 
ATOM     44  C   UNL A   1      39.367  29.828  30.243  1.00  0.00     0.074 A 
ATOM     45  C   UNL A   1      38.436  30.097  29.169  1.00  0.00     0.031 C 
ATOM     46  C   UNL A   1      37.878  34.327  34.588  1.00  0.00     0.029 A 
ATOM     47  C   UNL A   1      38.922  33.312  34.684  1.00  0.00     0.049 A 
ATOM     48  H   UNL A   1      39.482  31.927  33.234  1.00  0.00     0.167 HD
ATOM     49  C   UNL A   1      40.274  28.823  30.232  1.00  0.00     0.037 A 
ATOM     50  C   UNL A   1      39.714  33.104  35.753  1.00  0.00     0.037 A 
ATOM     51  C   UNL A   1      41.236  28.597  31.277  1.00  0.00     0.049 A 
ATOM     52  C   UNL A   1      40.745  32.011  35.698  1.00  0.00     0.074 A 
ATOM     53  C   UNL A   1      42.264  27.672  31.317  1.00  0.00     0.029 A 
ATOM     54  N   UNL A   1      41.289  29.309  32.466  1.00  0.00    -0.354 N 
ATOM     55  N   UNL A   1      40.991  31.156  34.737  1.00  0.00    -0.248 NA
ATOM     56  C   UNL A   1      41.612  31.857  36.876  1.00  0.00     0.031 C 
ATOM     57  C   UNL A   1      42.918  27.801  32.547  1.00  0.00     0.029 A 
ATOM     58  C   UNL A   1      42.322  28.832  33.256  1.00  0.00     0.049 A 
ATOM     59  H   UNL A   1      40.683  30.045  32.711  1.00  0.00     0.167 HD
ATOM     60  C   UNL A   1      42.049  30.376  35.180  1.00  0.00     0.074 A 
ATOM     61  C   UNL A   1      42.410  30.870  36.493  1.00  0.00     0.031 C 
ATOM     62  C   UNL A   1      42.666  29.341  34.557  1.00  0.00     0.037 A 
BRANCH  49  63
ATOM     63  C   UNL A   1      40.275  27.904  29.047  1.00  0.00     0.064 A 
ATOM     64  C   UNL A   1      39.540  26.709  29.043  1.00  0.00     0.173 A 
ATOM     65  C   UNL A   1      41.001  28.234  27.893  1.00  0.00     0.173 A 
ATOM     66  F   UNL A   1      38.840  26.342  30.127  1.00  0.00    -0.203 F 
ATOM     67  C   UNL A   1      39.559  25.861  27.939  1.00  0.00     0.198 A 
ATOM     68  C   UNL A   1      40.994  27.397  26.780  1.00  0.00     0.198 A 
ATOM     69  F   UNL A   1      41.718  29.366  27.845  1.00  0.00    -0.203 F 
ATOM     70  F   UNL A   1      38.893  24.699  27.977  1.00  0.00    -0.200 F 
ATOM     71  C   UNL A   1      40.281  26.208  26.806  1.00  0.00     0.200 A 
ATOM     72  F   UNL A   1      41.684  27.738  25.683  1.00  0.00    -0.200 F 
ATOM     73  F   UNL A   1      40.295  25.393  25.743  1.00  0.00    -0.200 F 
ENDBRANCH  49  63
BRANCH  50  74
ATOM     74  C   UNL A   1      39.580  33.968  36.953  1.00  0.00     0.064 A 
ATOM     75  C   UNL A   1      40.231  35.208  37.021  1.00  0.00     0.173 A 
ATOM     76  C   UNL A   1      38.797  33.582  38.050  1.00  0.00     0.173 A 
ATOM     77  F   UNL A   1      41.007  35.611  36.004  1.00  0.00    -0.203 F 
ATOM     78  C   UNL A   1      40.117  36.022  38.145  1.00  0.00     0.198 A 
ATOM     79  C   UNL A   1      38.662  34.408  39.165  1.00  0.00     0.198 A 
ATOM     80  F   UNL A   1      38.148  32.409  38.031  1.00  0.00    -0.203 F 
ATOM     81  F   UNL A   1      40.779  37.185  38.199  1.00  0.00    -0.200 F 
ATOM     82  C   UNL A   1      39.327  35.624  39.214  1.00  0.00     0.200 A 
ATOM     83  F   UNL A   1      37.888  34.026  40.190  1.00  0.00    -0.200 F 
ATOM     84  F   UNL A   1      39.212  36.409  40.293  1.00  0.00    -0.200 F 
ENDBRANCH  50  74
BRANCH  62  85
ATOM     85  C   UNL A   1      43.807  28.689  35.279  1.00  0.00     0.064 A 
ATOM     86  C   UNL A   1      45.124  29.144  35.125  1.00  0.00     0.173 A 
ATOM     87  C   UNL A   1      43.571  27.636  36.173  1.00  0.00     0.173 A 
ATOM     88  F   UNL A   1      45.399  30.139  34.269  1.00  0.00    -0.203 F 
ATOM     89  C   UNL A   1      46.169  28.553  35.830  1.00  0.00     0.198 A 
ATOM     90  C   UNL A   1      44.615  27.065  36.895  1.00  0.00     0.198 A 
ATOM     91  F   UNL A   1      42.327  27.170  36.359  1.00  0.00    -0.203 F 
ATOM     92  F   UNL A   1      47.426  28.978  35.640  1.00  0.00    -0.200 F 
ATOM     93  C   UNL A   1      45.912  27.521  36.719  1.00  0.00     0.200 A 
ATOM     94  F   UNL A   1      44.365  26.074  37.762  1.00  0.00    -0.200 F 
ATOM     95  F   UNL A   1      46.919  26.960  37.404  1.00  0.00    -0.200 F 
ENDBRANCH  62  85
ENDBRANCH  36  37
ENDBRANCH  28  31
ENDBRANCH  26  27
ENDBRANCH  25  26
ENDBRANCH  24  25
ENDBRANCH   1  24
TORSDOF 15
ENDMDL
