MODEL 1
REMARK VINA RESULT:     -11.4      0.000      0.000
REMARK SMILES CC(C)[C@H]([NH2+]Cc1ccc(N(C)C)cc1)C(=O)NCCCCNC(=O)c1ccc(-c2c3nc(c(-c4c(F)c(F)c(F)c(F)c4F)c4ccc([nH]4)c(-c4c(F)c(F)c(F)c(F)c4F)c4nc(c(-c5c(F)c(F)c(F)c(F)c5F)c5ccc2[nH]5)C=C4)C=C3)cc1
REMARK SMILES IDX 19 1 18 2 16 3 17 4 4 6 2 7 1 8 3 9 5 10 6 13 7 14 8 15
REMARK SMILES IDX 15 16 9 17 14 18 10 19 11 20 12 21 13 22 20 23 21 24 22 25
REMARK SMILES IDX 23 26 24 27 25 29 26 30 27 31 88 32 28 33 87 34 29 35 30 36
REMARK SMILES IDX 31 37 81 38 32 39 86 40 80 41 82 42 33 43 85 44 79 45 78 46
REMARK SMILES IDX 34 48 66 49 46 50 65 51 47 52 50 53 64 54 83 55 48 56 49 57
REMARK SMILES IDX 63 59 84 60 51 61 35 62 36 63 44 64 37 65 38 66 42 67 45 68
REMARK SMILES IDX 39 69 40 70 43 71 41 72 67 73 68 74 76 75 69 76 70 77 74 78
REMARK SMILES IDX 77 79 71 80 72 81 75 82 73 83 52 84 53 85 61 86 54 87 55 88
REMARK SMILES IDX 59 89 62 90 56 91 57 92 60 93 58 94
REMARK H PARENT 18 5 5 11 5 12 23 28 82 47 50 58
REMARK Flexibility Score: inf
ROOT
ATOM      1  C   UNL A   1      36.162  21.209  25.653  1.00  0.00     0.116 C 
ENDROOT
BRANCH   1   2
ATOM      2  N   UNL A   1      35.123  20.346  25.144  1.00  0.00    -0.351 N 
ATOM      3  C   UNL A   1      33.871  20.643  24.704  1.00  0.00     0.278 C 
ATOM      4  O   UNL A   1      33.138  19.680  24.455  1.00  0.00    -0.268 OA
ATOM      5  H   UNL A   1      35.358  19.391  25.110  1.00  0.00     0.163 HD
BRANCH   3   6
ATOM      6  C   UNL A   1      33.350  22.099  24.519  1.00  0.00     0.275 C 
BRANCH   6   7
ATOM      7  C   UNL A   1      31.826  22.314  24.765  1.00  0.00     0.051 C 
ATOM      8  C   UNL A   1      31.511  23.011  26.097  1.00  0.00     0.014 C 
ATOM      9  C   UNL A   1      31.205  23.148  23.634  1.00  0.00     0.014 C 
ENDBRANCH   6   7
BRANCH   6  10
ATOM     10  N   UNL A   1      33.980  22.748  23.335  1.00  0.00    -0.332 N 
ATOM     11  H   UNL A   1      33.229  23.071  22.726  1.00  0.00     0.347 HD
ATOM     12  H   UNL A   1      34.587  22.033  22.933  1.00  0.00     0.347 HD
BRANCH  10  13
ATOM     13  C   UNL A   1      34.854  23.882  23.586  1.00  0.00     0.297 C 
BRANCH  13  14
ATOM     14  C   UNL A   1      34.156  25.117  24.115  1.00  0.00     0.006 A 
ATOM     15  C   UNL A   1      33.558  26.020  23.234  1.00  0.00     0.012 A 
ATOM     16  C   UNL A   1      34.203  25.475  25.462  1.00  0.00     0.012 A 
ATOM     17  C   UNL A   1      33.096  27.270  23.682  1.00  0.00     0.026 A 
ATOM     18  C   UNL A   1      33.758  26.734  25.894  1.00  0.00     0.026 A 
ATOM     19  C   UNL A   1      33.221  27.689  25.016  1.00  0.00     0.036 A 
BRANCH  19  20
ATOM     20  N   UNL A   1      32.882  28.968  25.440  1.00  0.00    -0.378 N 
ATOM     21  C   UNL A   1      31.683  29.655  24.973  1.00  0.00     0.143 C 
ATOM     22  C   UNL A   1      33.606  29.605  26.536  1.00  0.00     0.143 C 
ENDBRANCH  19  20
ENDBRANCH  13  14
ENDBRANCH  10  13
ENDBRANCH   6  10
ENDBRANCH   3   6
ENDBRANCH   1   2
BRANCH   1  23
ATOM     23  C   UNL A   1      37.405  21.114  24.777  1.00  0.00     0.023 C 
BRANCH  23  24
ATOM     24  C   UNL A   1      38.274  19.882  25.007  1.00  0.00     0.023 C 
BRANCH  24  25
ATOM     25  C   UNL A   1      39.465  20.103  25.927  1.00  0.00     0.116 C 
BRANCH  25  26
ATOM     26  N   UNL A   1      40.438  19.023  25.906  1.00  0.00    -0.352 N 
ATOM     27  C   UNL A   1      41.800  19.098  26.080  1.00  0.00     0.251 C 
ATOM     28  H   UNL A   1      40.075  18.122  25.745  1.00  0.00     0.163 HD
ATOM     29  O   UNL A   1      42.499  18.101  25.956  1.00  0.00    -0.269 OA
BRANCH  27  30
ATOM     30  C   UNL A   1      42.419  20.410  26.361  1.00  0.00     0.039 A 
ATOM     31  C   UNL A   1      42.957  21.133  25.295  1.00  0.00     0.014 A 
ATOM     32  C   UNL A   1      42.418  20.947  27.651  1.00  0.00     0.014 A 
ATOM     33  C   UNL A   1      43.431  22.426  25.512  1.00  0.00     0.010 A 
ATOM     34  C   UNL A   1      42.808  22.267  27.849  1.00  0.00     0.010 A 
ATOM     35  C   UNL A   1      43.320  23.018  26.783  1.00  0.00    -0.014 A 
BRANCH  35  36
ATOM     36  C   UNL A   1      43.725  24.429  26.992  1.00  0.00     0.031 A 
ATOM     37  C   UNL A   1      42.737  25.440  27.503  1.00  0.00     0.074 A 
ATOM     38  C   UNL A   1      44.978  24.808  26.676  1.00  0.00     0.049 A 
ATOM     39  N   UNL A   1      42.921  26.705  27.784  1.00  0.00    -0.248 NA
ATOM     40  C   UNL A   1      41.352  24.979  27.692  1.00  0.00     0.031 C 
ATOM     41  C   UNL A   1      45.998  23.940  26.085  1.00  0.00     0.029 A 
ATOM     42  N   UNL A   1      45.608  26.018  26.808  1.00  0.00    -0.354 N 
ATOM     43  C   UNL A   1      41.679  27.190  28.172  1.00  0.00     0.074 A 
ATOM     44  C   UNL A   1      40.735  26.101  28.029  1.00  0.00     0.031 C 
ATOM     45  C   UNL A   1      47.138  24.634  25.944  1.00  0.00     0.029 A 
ATOM     46  C   UNL A   1      46.924  25.998  26.416  1.00  0.00     0.049 A 
ATOM     47  H   UNL A   1      45.161  26.825  27.153  1.00  0.00     0.167 HD
ATOM     48  C   UNL A   1      41.359  28.421  28.633  1.00  0.00     0.037 A 
ATOM     49  C   UNL A   1      47.858  26.967  26.452  1.00  0.00     0.037 A 
ATOM     50  C   UNL A   1      42.308  29.492  28.798  1.00  0.00     0.049 A 
ATOM     51  C   UNL A   1      47.495  28.309  27.026  1.00  0.00     0.074 A 
ATOM     52  C   UNL A   1      42.105  30.754  29.326  1.00  0.00     0.029 A 
ATOM     53  N   UNL A   1      43.645  29.422  28.435  1.00  0.00    -0.354 N 
ATOM     54  N   UNL A   1      46.340  28.726  27.487  1.00  0.00    -0.248 NA
ATOM     55  C   UNL A   1      48.570  29.305  27.106  1.00  0.00     0.031 C 
ATOM     56  C   UNL A   1      43.309  31.462  29.245  1.00  0.00     0.029 A 
ATOM     57  C   UNL A   1      44.275  30.624  28.711  1.00  0.00     0.049 A 
ATOM     58  H   UNL A   1      44.081  28.633  28.037  1.00  0.00     0.167 HD
ATOM     59  C   UNL A   1      46.554  30.022  27.934  1.00  0.00     0.074 A 
ATOM     60  C   UNL A   1      47.955  30.313  27.708  1.00  0.00     0.031 C 
ATOM     61  C   UNL A   1      45.671  30.895  28.480  1.00  0.00     0.037 A 
BRANCH  48  62
ATOM     62  C   UNL A   1      39.925  28.672  29.002  1.00  0.00     0.064 A 
ATOM     63  C   UNL A   1      39.447  28.432  30.300  1.00  0.00     0.173 A 
ATOM     64  C   UNL A   1      39.024  29.179  28.055  1.00  0.00     0.173 A 
ATOM     65  F   UNL A   1      40.264  27.934  31.239  1.00  0.00    -0.203 F 
ATOM     66  C   UNL A   1      38.113  28.660  30.626  1.00  0.00     0.198 A 
ATOM     67  C   UNL A   1      37.697  29.436  28.394  1.00  0.00     0.198 A 
ATOM     68  F   UNL A   1      39.428  29.430  26.800  1.00  0.00    -0.203 F 
ATOM     69  F   UNL A   1      37.667  28.371  31.856  1.00  0.00    -0.200 F 
ATOM     70  C   UNL A   1      37.241  29.167  29.675  1.00  0.00     0.200 A 
ATOM     71  F   UNL A   1      36.857  29.937  27.476  1.00  0.00    -0.200 F 
ATOM     72  F   UNL A   1      35.958  29.390  29.991  1.00  0.00    -0.200 F 
ENDBRANCH  48  62
BRANCH  49  73
ATOM     73  C   UNL A   1      49.238  26.681  25.988  1.00  0.00     0.064 A 
ATOM     74  C   UNL A   1      50.179  26.094  26.845  1.00  0.00     0.173 A 
ATOM     75  C   UNL A   1      49.643  26.975  24.678  1.00  0.00     0.173 A 
ATOM     76  F   UNL A   1      49.843  25.809  28.113  1.00  0.00    -0.203 F 
ATOM     77  C   UNL A   1      51.479  25.831  26.418  1.00  0.00     0.198 A 
ATOM     78  C   UNL A   1      50.936  26.687  24.243  1.00  0.00     0.198 A 
ATOM     79  F   UNL A   1      48.778  27.528  23.815  1.00  0.00    -0.203 F 
ATOM     80  F   UNL A   1      52.369  25.308  27.272  1.00  0.00    -0.200 F 
ATOM     81  C   UNL A   1      51.854  26.122  25.115  1.00  0.00     0.200 A 
ATOM     82  F   UNL A   1      51.291  26.955  22.979  1.00  0.00    -0.200 F 
ATOM     83  F   UNL A   1      53.102  25.864  24.703  1.00  0.00    -0.200 F 
ENDBRANCH  49  73
BRANCH  61  84
ATOM     84  C   UNL A   1      46.205  32.235  28.895  1.00  0.00     0.064 A 
ATOM     85  C   UNL A   1      46.723  32.455  30.179  1.00  0.00     0.173 A 
ATOM     86  C   UNL A   1      46.209  33.307  27.990  1.00  0.00     0.173 A 
ATOM     87  F   UNL A   1      46.729  31.464  31.085  1.00  0.00    -0.203 F 
ATOM     88  C   UNL A   1      47.193  33.711  30.555  1.00  0.00     0.198 A 
ATOM     89  C   UNL A   1      46.708  34.554  28.360  1.00  0.00     0.198 A 
ATOM     90  F   UNL A   1      45.732  33.147  26.747  1.00  0.00    -0.203 F 
ATOM     91  F   UNL A   1      47.628  33.913  31.806  1.00  0.00    -0.200 F 
ATOM     92  C   UNL A   1      47.189  34.757  29.644  1.00  0.00     0.200 A 
ATOM     93  F   UNL A   1      46.715  35.560  27.475  1.00  0.00    -0.200 F 
ATOM     94  F   UNL A   1      47.638  35.965  30.009  1.00  0.00    -0.200 F 
ENDBRANCH  61  84
ENDBRANCH  35  36
ENDBRANCH  27  30
ENDBRANCH  25  26
ENDBRANCH  24  25
ENDBRANCH  23  24
ENDBRANCH   1  23
TORSDOF 16
ENDMDL
MODEL 2
REMARK VINA RESULT:     -11.3      3.527      8.770
REMARK SMILES CC(C)[C@H]([NH2+]Cc1ccc(N(C)C)cc1)C(=O)NCCCCNC(=O)c1ccc(-c2c3nc(c(-c4c(F)c(F)c(F)c(F)c4F)c4ccc([nH]4)c(-c4c(F)c(F)c(F)c(F)c4F)c4nc(c(-c5c(F)c(F)c(F)c(F)c5F)c5ccc2[nH]5)C=C4)C=C3)cc1
REMARK SMILES IDX 19 1 18 2 16 3 17 4 4 6 2 7 1 8 3 9 5 10 6 13 7 14 8 15
REMARK SMILES IDX 15 16 9 17 14 18 10 19 11 20 12 21 13 22 20 23 21 24 22 25
REMARK SMILES IDX 23 26 24 27 25 29 26 30 27 31 88 32 28 33 87 34 29 35 30 36
REMARK SMILES IDX 31 37 81 38 32 39 86 40 80 41 82 42 33 43 85 44 79 45 78 46
REMARK SMILES IDX 34 48 66 49 46 50 65 51 47 52 50 53 64 54 83 55 48 56 49 57
REMARK SMILES IDX 63 59 84 60 51 61 35 62 36 63 44 64 37 65 38 66 42 67 45 68
REMARK SMILES IDX 39 69 40 70 43 71 41 72 67 73 68 74 76 75 69 76 70 77 74 78
REMARK SMILES IDX 77 79 71 80 72 81 75 82 73 83 52 84 53 85 61 86 54 87 55 88
REMARK SMILES IDX 59 89 62 90 56 91 57 92 60 93 58 94
REMARK H PARENT 18 5 5 11 5 12 23 28 82 47 50 58
REMARK Flexibility Score: inf
ROOT
ATOM      1  C   UNL A   1      33.987  24.831  24.371  1.00  0.00     0.116 C 
ENDROOT
BRANCH   1   2
ATOM      2  N   UNL A   1      33.083  24.472  25.438  1.00  0.00    -0.351 N 
ATOM      3  C   UNL A   1      32.125  25.207  26.064  1.00  0.00     0.278 C 
ATOM      4  O   UNL A   1      31.593  24.684  27.048  1.00  0.00    -0.268 OA
ATOM      5  H   UNL A   1      33.174  23.548  25.764  1.00  0.00     0.163 HD
BRANCH   3   6
ATOM      6  C   UNL A   1      31.702  26.633  25.603  1.00  0.00     0.275 C 
BRANCH   6   7
ATOM      7  C   UNL A   1      32.302  27.819  26.417  1.00  0.00     0.051 C 
ATOM      8  C   UNL A   1      33.829  27.932  26.306  1.00  0.00     0.014 C 
ATOM      9  C   UNL A   1      31.692  29.154  25.962  1.00  0.00     0.014 C 
ENDBRANCH   6   7
BRANCH   6  10
ATOM     10  N   UNL A   1      30.256  26.674  25.242  1.00  0.00    -0.332 N 
ATOM     11  H   UNL A   1      29.896  27.585  25.524  1.00  0.00     0.347 HD
ATOM     12  H   UNL A   1      29.841  25.877  25.724  1.00  0.00     0.347 HD
BRANCH  10  13
ATOM     13  C   UNL A   1      29.916  26.483  23.843  1.00  0.00     0.297 C 
BRANCH  13  14
ATOM     14  C   UNL A   1      29.520  27.747  23.108  1.00  0.00     0.006 A 
ATOM     15  C   UNL A   1      30.490  28.537  22.489  1.00  0.00     0.012 A 
ATOM     16  C   UNL A   1      28.216  28.243  23.139  1.00  0.00     0.012 A 
ATOM     17  C   UNL A   1      30.175  29.813  21.991  1.00  0.00     0.026 A 
ATOM     18  C   UNL A   1      27.918  29.528  22.656  1.00  0.00     0.026 A 
ATOM     19  C   UNL A   1      28.891  30.371  22.098  1.00  0.00     0.036 A 
BRANCH  19  20
ATOM     20  N   UNL A   1      28.603  31.677  21.721  1.00  0.00    -0.378 N 
ATOM     21  C   UNL A   1      27.983  32.004  20.442  1.00  0.00     0.143 C 
ATOM     22  C   UNL A   1      28.721  32.771  22.681  1.00  0.00     0.143 C 
ENDBRANCH  19  20
ENDBRANCH  13  14
ENDBRANCH  10  13
ENDBRANCH   6  10
ENDBRANCH   3   6
ENDBRANCH   1   2
BRANCH   1  23
ATOM     23  C   UNL A   1      34.804  23.620  23.940  1.00  0.00     0.023 C 
BRANCH  23  24
ATOM     24  C   UNL A   1      35.713  23.029  25.012  1.00  0.00     0.023 C 
BRANCH  24  25
ATOM     25  C   UNL A   1      37.146  23.537  24.986  1.00  0.00     0.116 C 
BRANCH  25  26
ATOM     26  N   UNL A   1      38.124  22.574  25.466  1.00  0.00    -0.352 N 
ATOM     27  C   UNL A   1      39.211  22.794  26.281  1.00  0.00     0.251 C 
ATOM     28  H   UNL A   1      37.992  21.645  25.169  1.00  0.00     0.163 HD
ATOM     29  O   UNL A   1      39.991  21.887  26.536  1.00  0.00    -0.269 OA
BRANCH  27  30
ATOM     30  C   UNL A   1      39.458  24.156  26.797  1.00  0.00     0.039 A 
ATOM     31  C   UNL A   1      39.043  24.461  28.096  1.00  0.00     0.014 A 
ATOM     32  C   UNL A   1      40.141  25.106  26.033  1.00  0.00     0.014 A 
ATOM     33  C   UNL A   1      39.377  25.694  28.651  1.00  0.00     0.010 A 
ATOM     34  C   UNL A   1      40.549  26.299  26.618  1.00  0.00     0.010 A 
ATOM     35  C   UNL A   1      40.170  26.606  27.931  1.00  0.00    -0.014 A 
BRANCH  35  36
ATOM     36  C   UNL A   1      40.616  27.874  28.559  1.00  0.00     0.031 A 
ATOM     37  C   UNL A   1      42.058  28.078  28.926  1.00  0.00     0.074 A 
ATOM     38  C   UNL A   1      39.704  28.824  28.839  1.00  0.00     0.049 A 
ATOM     39  N   UNL A   1      42.637  29.132  29.444  1.00  0.00    -0.248 NA
ATOM     40  C   UNL A   1      42.966  26.939  28.716  1.00  0.00     0.031 C 
ATOM     41  C   UNL A   1      38.263  28.704  28.615  1.00  0.00     0.029 A 
ATOM     42  N   UNL A   1      39.854  30.080  29.369  1.00  0.00    -0.354 N 
ATOM     43  C   UNL A   1      43.967  28.780  29.628  1.00  0.00     0.074 A 
ATOM     44  C   UNL A   1      44.098  27.396  29.228  1.00  0.00     0.031 C 
ATOM     45  C   UNL A   1      37.665  29.853  28.967  1.00  0.00     0.029 A 
ATOM     46  C   UNL A   1      38.677  30.783  29.457  1.00  0.00     0.049 A 
ATOM     47  H   UNL A   1      40.722  30.444  29.659  1.00  0.00     0.167 HD
ATOM     48  C   UNL A   1      44.992  29.550  30.063  1.00  0.00     0.037 A 
ATOM     49  C   UNL A   1      38.446  32.043  29.871  1.00  0.00     0.037 A 
ATOM     50  C   UNL A   1      44.860  30.935  30.434  1.00  0.00     0.049 A 
ATOM     51  C   UNL A   1      39.609  32.898  30.291  1.00  0.00     0.074 A 
ATOM     52  C   UNL A   1      45.846  31.826  30.817  1.00  0.00     0.029 A 
ATOM     53  N   UNL A   1      43.659  31.630  30.466  1.00  0.00    -0.354 N 
ATOM     54  N   UNL A   1      40.881  32.587  30.364  1.00  0.00    -0.248 NA
ATOM     55  C   UNL A   1      39.307  34.286  30.664  1.00  0.00     0.031 C 
ATOM     56  C   UNL A   1      45.237  33.049  31.121  1.00  0.00     0.029 A 
ATOM     57  C   UNL A   1      43.877  32.934  30.879  1.00  0.00     0.049 A 
ATOM     58  H   UNL A   1      42.781  31.251  30.231  1.00  0.00     0.167 HD
ATOM     59  C   UNL A   1      41.534  33.743  30.766  1.00  0.00     0.074 A 
ATOM     60  C   UNL A   1      40.519  34.769  30.900  1.00  0.00     0.031 C 
ATOM     61  C   UNL A   1      42.854  33.940  31.006  1.00  0.00     0.037 A 
BRANCH  48  62
ATOM     62  C   UNL A   1      46.348  28.911  30.151  1.00  0.00     0.064 A 
ATOM     63  C   UNL A   1      46.811  28.329  31.341  1.00  0.00     0.173 A 
ATOM     64  C   UNL A   1      47.186  28.860  29.027  1.00  0.00     0.173 A 
ATOM     65  F   UNL A   1      46.055  28.364  32.448  1.00  0.00    -0.203 F 
ATOM     66  C   UNL A   1      48.075  27.748  31.412  1.00  0.00     0.198 A 
ATOM     67  C   UNL A   1      48.436  28.250  29.093  1.00  0.00     0.198 A 
ATOM     68  F   UNL A   1      46.791  29.398  27.863  1.00  0.00    -0.203 F 
ATOM     69  F   UNL A   1      48.517  27.248  32.573  1.00  0.00    -0.200 F 
ATOM     70  C   UNL A   1      48.883  27.704  30.286  1.00  0.00     0.200 A 
ATOM     71  F   UNL A   1      49.213  28.197  28.001  1.00  0.00    -0.200 F 
ATOM     72  F   UNL A   1      50.098  27.141  30.353  1.00  0.00    -0.200 F 
ENDBRANCH  48  62
BRANCH  49  73
ATOM     73  C   UNL A   1      37.065  32.587  29.844  1.00  0.00     0.064 A 
ATOM     74  C   UNL A   1      36.209  32.432  30.943  1.00  0.00     0.173 A 
ATOM     75  C   UNL A   1      36.576  33.283  28.729  1.00  0.00     0.173 A 
ATOM     76  F   UNL A   1      36.626  31.760  32.027  1.00  0.00    -0.203 F 
ATOM     77  C   UNL A   1      34.909  32.933  30.921  1.00  0.00     0.198 A 
ATOM     78  C   UNL A   1      35.285  33.807  28.718  1.00  0.00     0.198 A 
ATOM     79  F   UNL A   1      37.359  33.467  27.656  1.00  0.00    -0.203 F 
ATOM     80  F   UNL A   1      34.098  32.734  31.969  1.00  0.00    -0.200 F 
ATOM     81  C   UNL A   1      34.451  33.626  29.810  1.00  0.00     0.200 A 
ATOM     82  F   UNL A   1      34.850  34.490  27.650  1.00  0.00    -0.200 F 
ATOM     83  F   UNL A   1      33.203  34.113  29.791  1.00  0.00    -0.200 F 
ENDBRANCH  49  73
BRANCH  61  84
ATOM     84  C   UNL A   1      43.274  35.323  31.410  1.00  0.00     0.064 A 
ATOM     85  C   UNL A   1      43.243  35.741  32.749  1.00  0.00     0.173 A 
ATOM     86  C   UNL A   1      43.726  36.237  30.445  1.00  0.00     0.173 A 
ATOM     87  F   UNL A   1      42.807  34.908  33.706  1.00  0.00    -0.203 F 
ATOM     88  C   UNL A   1      43.615  37.035  33.102  1.00  0.00     0.198 A 
ATOM     89  C   UNL A   1      44.125  37.521  30.807  1.00  0.00     0.198 A 
ATOM     90  F   UNL A   1      43.781  35.884  29.152  1.00  0.00    -0.203 F 
ATOM     91  F   UNL A   1      43.522  37.431  34.379  1.00  0.00    -0.200 F 
ATOM     92  C   UNL A   1      44.060  37.922  32.132  1.00  0.00     0.200 A 
ATOM     93  F   UNL A   1      44.566  38.372  29.871  1.00  0.00    -0.200 F 
ATOM     94  F   UNL A   1      44.414  39.168  32.475  1.00  0.00    -0.200 F 
ENDBRANCH  61  84
ENDBRANCH  35  36
ENDBRANCH  27  30
ENDBRANCH  25  26
ENDBRANCH  24  25
ENDBRANCH  23  24
ENDBRANCH   1  23
TORSDOF 16
ENDMDL
MODEL 3
REMARK VINA RESULT:     -11.3      5.491      9.735
REMARK SMILES CC(C)[C@H]([NH2+]Cc1ccc(N(C)C)cc1)C(=O)NCCCCNC(=O)c1ccc(-c2c3nc(c(-c4c(F)c(F)c(F)c(F)c4F)c4ccc([nH]4)c(-c4c(F)c(F)c(F)c(F)c4F)c4nc(c(-c5c(F)c(F)c(F)c(F)c5F)c5ccc2[nH]5)C=C4)C=C3)cc1
REMARK SMILES IDX 19 1 18 2 16 3 17 4 4 6 2 7 1 8 3 9 5 10 6 13 7 14 8 15
REMARK SMILES IDX 15 16 9 17 14 18 10 19 11 20 12 21 13 22 20 23 21 24 22 25
REMARK SMILES IDX 23 26 24 27 25 29 26 30 27 31 88 32 28 33 87 34 29 35 30 36
REMARK SMILES IDX 31 37 81 38 32 39 86 40 80 41 82 42 33 43 85 44 79 45 78 46
REMARK SMILES IDX 34 48 66 49 46 50 65 51 47 52 50 53 64 54 83 55 48 56 49 57
REMARK SMILES IDX 63 59 84 60 51 61 35 62 36 63 44 64 37 65 38 66 42 67 45 68
REMARK SMILES IDX 39 69 40 70 43 71 41 72 67 73 68 74 76 75 69 76 70 77 74 78
REMARK SMILES IDX 77 79 71 80 72 81 75 82 73 83 52 84 53 85 61 86 54 87 55 88
REMARK SMILES IDX 59 89 62 90 56 91 57 92 60 93 58 94
REMARK H PARENT 18 5 5 11 5 12 23 28 82 47 50 58
REMARK Flexibility Score: inf
ROOT
ATOM      1  C   UNL A   1      32.127  29.855  25.611  1.00  0.00     0.116 C 
ENDROOT
BRANCH   1   2
ATOM      2  N   UNL A   1      31.187  30.006  24.526  1.00  0.00    -0.351 N 
ATOM      3  C   UNL A   1      30.803  29.121  23.566  1.00  0.00     0.278 C 
ATOM      4  O   UNL A   1      30.080  29.569  22.670  1.00  0.00    -0.268 OA
ATOM      5  H   UNL A   1      30.754  30.888  24.472  1.00  0.00     0.163 HD
BRANCH   3   6
ATOM      6  C   UNL A   1      31.235  27.626  23.558  1.00  0.00     0.275 C 
BRANCH   6   7
ATOM      7  C   UNL A   1      30.432  26.679  24.502  1.00  0.00     0.051 C 
ATOM      8  C   UNL A   1      30.000  25.366  23.834  1.00  0.00     0.014 C 
ATOM      9  C   UNL A   1      31.258  26.328  25.750  1.00  0.00     0.014 C 
ENDBRANCH   6   7
BRANCH   6  10
ATOM     10  N   UNL A   1      32.719  27.494  23.510  1.00  0.00    -0.332 N 
ATOM     11  H   UNL A   1      33.023  27.123  24.409  1.00  0.00     0.347 HD
ATOM     12  H   UNL A   1      33.059  28.430  23.290  1.00  0.00     0.347 HD
BRANCH  10  13
ATOM     13  C   UNL A   1      33.276  26.641  22.475  1.00  0.00     0.297 C 
BRANCH  13  14
ATOM     14  C   UNL A   1      33.579  25.223  22.915  1.00  0.00     0.006 A 
ATOM     15  C   UNL A   1      33.072  24.139  22.197  1.00  0.00     0.012 A 
ATOM     16  C   UNL A   1      34.240  24.945  24.111  1.00  0.00     0.012 A 
ATOM     17  C   UNL A   1      33.159  22.831  22.704  1.00  0.00     0.026 A 
ATOM     18  C   UNL A   1      34.303  23.637  24.617  1.00  0.00     0.026 A 
ATOM     19  C   UNL A   1      33.735  22.540  23.951  1.00  0.00     0.036 A 
BRANCH  19  20
ATOM     20  N   UNL A   1      33.713  21.270  24.514  1.00  0.00    -0.378 N 
ATOM     21  C   UNL A   1      32.521  20.429  24.503  1.00  0.00     0.143 C 
ATOM     22  C   UNL A   1      34.949  20.633  24.962  1.00  0.00     0.143 C 
ENDBRANCH  19  20
ENDBRANCH  13  14
ENDBRANCH  10  13
ENDBRANCH   6  10
ENDBRANCH   3   6
ENDBRANCH   1   2
BRANCH   1  23
ATOM     23  C   UNL A   1      31.600  30.539  26.866  1.00  0.00     0.023 C 
BRANCH  23  24
ATOM     24  C   UNL A   1      31.354  32.039  26.739  1.00  0.00     0.023 C 
BRANCH  24  25
ATOM     25  C   UNL A   1      32.599  32.904  26.864  1.00  0.00     0.116 C 
BRANCH  25  26
ATOM     26  N   UNL A   1      32.403  34.115  27.645  1.00  0.00    -0.352 N 
ATOM     27  C   UNL A   1      33.146  34.576  28.707  1.00  0.00     0.251 C 
ATOM     28  H   UNL A   1      31.639  34.677  27.380  1.00  0.00     0.163 HD
ATOM     29  O   UNL A   1      32.805  35.582  29.314  1.00  0.00    -0.269 OA
BRANCH  27  30
ATOM     30  C   UNL A   1      34.330  33.807  29.144  1.00  0.00     0.039 A 
ATOM     31  C   UNL A   1      35.597  34.306  28.835  1.00  0.00     0.014 A 
ATOM     32  C   UNL A   1      34.194  32.639  29.898  1.00  0.00     0.014 A 
ATOM     33  C   UNL A   1      36.727  33.669  29.345  1.00  0.00     0.010 A 
ATOM     34  C   UNL A   1      35.316  32.057  30.477  1.00  0.00     0.010 A 
ATOM     35  C   UNL A   1      36.594  32.565  30.205  1.00  0.00    -0.014 A 
BRANCH  35  36
ATOM     36  C   UNL A   1      37.788  31.951  30.833  1.00  0.00     0.031 A 
ATOM     37  C   UNL A   1      38.215  32.352  32.217  1.00  0.00     0.074 A 
ATOM     38  C   UNL A   1      38.517  31.062  30.131  1.00  0.00     0.049 A 
ATOM     39  N   UNL A   1      39.206  31.895  32.940  1.00  0.00    -0.248 NA
ATOM     40  C   UNL A   1      37.449  33.430  32.863  1.00  0.00     0.031 C 
ATOM     41  C   UNL A   1      38.256  30.664  28.747  1.00  0.00     0.029 A 
ATOM     42  N   UNL A   1      39.622  30.331  30.485  1.00  0.00    -0.354 N 
ATOM     43  C   UNL A   1      39.188  32.634  34.115  1.00  0.00     0.074 A 
ATOM     44  C   UNL A   1      38.129  33.612  33.985  1.00  0.00     0.031 C 
ATOM     45  C   UNL A   1      39.150  29.732  28.382  1.00  0.00     0.029 A 
ATOM     46  C   UNL A   1      40.056  29.480  29.498  1.00  0.00     0.049 A 
ATOM     47  H   UNL A   1      40.061  30.408  31.362  1.00  0.00     0.167 HD
ATOM     48  C   UNL A   1      39.963  32.491  35.215  1.00  0.00     0.037 A 
ATOM     49  C   UNL A   1      41.061  28.585  29.502  1.00  0.00     0.037 A 
ATOM     50  C   UNL A   1      40.997  31.498  35.350  1.00  0.00     0.049 A 
ATOM     51  C   UNL A   1      41.868  28.400  30.757  1.00  0.00     0.074 A 
ATOM     52  C   UNL A   1      41.791  31.218  36.447  1.00  0.00     0.029 A 
ATOM     53  N   UNL A   1      41.379  30.619  34.346  1.00  0.00    -0.354 N 
ATOM     54  N   UNL A   1      41.775  29.034  31.901  1.00  0.00    -0.248 NA
ATOM     55  C   UNL A   1      42.905  27.360  30.729  1.00  0.00     0.031 C 
ATOM     56  C   UNL A   1      42.681  30.197  36.095  1.00  0.00     0.029 A 
ATOM     57  C   UNL A   1      42.409  29.807  34.793  1.00  0.00     0.049 A 
ATOM     58  H   UNL A   1      40.978  30.579  33.448  1.00  0.00     0.167 HD
ATOM     59  C   UNL A   1      42.721  28.456  32.736  1.00  0.00     0.074 A 
ATOM     60  C   UNL A   1      43.362  27.405  31.972  1.00  0.00     0.031 C 
ATOM     61  C   UNL A   1      43.034  28.766  34.018  1.00  0.00     0.037 A 
BRANCH  48  62
ATOM     62  C   UNL A   1      39.713  33.424  36.365  1.00  0.00     0.064 A 
ATOM     63  C   UNL A   1      38.815  33.100  37.394  1.00  0.00     0.173 A 
ATOM     64  C   UNL A   1      40.396  34.646  36.452  1.00  0.00     0.173 A 
ATOM     65  F   UNL A   1      38.126  31.950  37.351  1.00  0.00    -0.203 F 
ATOM     66  C   UNL A   1      38.585  33.979  38.449  1.00  0.00     0.198 A 
ATOM     67  C   UNL A   1      40.188  35.509  37.526  1.00  0.00     0.198 A 
ATOM     68  F   UNL A   1      41.269  35.004  35.498  1.00  0.00    -0.203 F 
ATOM     69  F   UNL A   1      37.683  33.672  39.390  1.00  0.00    -0.200 F 
ATOM     70  C   UNL A   1      39.276  35.179  38.517  1.00  0.00     0.200 A 
ATOM     71  F   UNL A   1      40.864  36.664  37.597  1.00  0.00    -0.200 F 
ATOM     72  F   UNL A   1      39.058  36.023  39.535  1.00  0.00    -0.200 F 
ENDBRANCH  48  62
BRANCH  49  73
ATOM     73  C   UNL A   1      41.314  27.753  28.299  1.00  0.00     0.064 A 
ATOM     74  C   UNL A   1      40.647  26.533  28.114  1.00  0.00     0.173 A 
ATOM     75  C   UNL A   1      42.214  28.162  27.305  1.00  0.00     0.173 A 
ATOM     76  F   UNL A   1      39.789  26.092  29.046  1.00  0.00    -0.203 F 
ATOM     77  C   UNL A   1      40.888  25.744  26.992  1.00  0.00     0.198 A 
ATOM     78  C   UNL A   1      42.434  27.384  26.170  1.00  0.00     0.198 A 
ATOM     79  F   UNL A   1      42.869  29.325  27.430  1.00  0.00    -0.203 F 
ATOM     80  F   UNL A   1      40.268  24.562  26.861  1.00  0.00    -0.200 F 
ATOM     81  C   UNL A   1      41.776  26.173  26.017  1.00  0.00     0.200 A 
ATOM     82  F   UNL A   1      43.281  27.809  25.222  1.00  0.00    -0.200 F 
ATOM     83  F   UNL A   1      42.002  25.416  24.935  1.00  0.00    -0.200 F 
ENDBRANCH  49  73
BRANCH  61  84
ATOM     84  C   UNL A   1      44.098  27.939  34.680  1.00  0.00     0.064 A 
ATOM     85  C   UNL A   1      43.801  26.715  35.295  1.00  0.00     0.173 A 
ATOM     86  C   UNL A   1      45.432  28.374  34.687  1.00  0.00     0.173 A 
ATOM     87  F   UNL A   1      42.538  26.263  35.327  1.00  0.00    -0.203 F 
ATOM     88  C   UNL A   1      44.796  25.972  35.925  1.00  0.00     0.198 A 
ATOM     89  C   UNL A   1      46.429  27.613  35.291  1.00  0.00     0.198 A 
ATOM     90  F   UNL A   1      45.769  29.535  34.106  1.00  0.00    -0.203 F 
ATOM     91  F   UNL A   1      44.479  24.834  36.557  1.00  0.00    -0.200 F 
ATOM     92  C   UNL A   1      46.109  26.419  35.918  1.00  0.00     0.200 A 
ATOM     93  F   UNL A   1      47.699  28.041  35.274  1.00  0.00    -0.200 F 
ATOM     94  F   UNL A   1      47.064  25.704  36.528  1.00  0.00    -0.200 F 
ENDBRANCH  61  84
ENDBRANCH  35  36
ENDBRANCH  27  30
ENDBRANCH  25  26
ENDBRANCH  24  25
ENDBRANCH  23  24
ENDBRANCH   1  23
TORSDOF 16
ENDMDL
